MODEL 1
REMARK VINA RESULT:     -11.0      0.000      0.000
REMARK SMILES C[C@H]1[C@H]([NH+]2CCC(CC(=O)NCCCCCCNC(=O)c3ccc(-c4c5nc(c(-c6c(F)cccc6F)c6ccc([nH]6)c(-c6c(F)cccc6F)c6nc(c(-c7c(F)cccc7F)c7ccc4[nH]7)C=C6)C=C5)cc3)CC2)CCC[C@@H]1C
REMARK SMILES IDX 14 1 13 2 12 3 11 4 9 5 10 6 8 8 7 9 4 10 5 11 76 12 6 14
REMARK SMILES IDX 75 15 3 16 1 17 2 18 80 19 77 20 79 21 81 22 78 23 15 24
REMARK SMILES IDX 16 25 17 26 18 27 19 28 20 30 21 31 22 32 74 33 23 34 73 35
REMARK SMILES IDX 24 36 25 37 26 38 67 39 27 40 72 41 66 42 68 43 28 44 71 45
REMARK SMILES IDX 65 46 64 47 29 49 55 50 38 51 54 52 39 53 42 54 53 55 69 56
REMARK SMILES IDX 40 57 41 58 52 60 70 61 43 62 30 63 31 64 36 65 32 66 33 67
REMARK SMILES IDX 35 68 37 69 34 70 56 71 57 72 62 73 58 74 59 75 61 76 63 77
REMARK SMILES IDX 60 78 44 79 45 80 50 81 46 82 47 83 49 84 51 85 48 86
REMARK H PARENT 11 7 4 13 18 29 68 48 42 59
REMARK Flexibility Score: inf
ROOT
ATOM      1  C   UNL A   1      37.615  22.974  25.623  1.00  0.00     0.002 C 
ENDROOT
BRANCH   1   2
ATOM      2  C   UNL A   1      36.489  22.154  24.995  1.00  0.00     0.021 C 
BRANCH   2   3
ATOM      3  C   UNL A   1      35.521  21.532  26.012  1.00  0.00     0.116 C 
BRANCH   3   4
ATOM      4  N   UNL A   1      34.695  20.511  25.387  1.00  0.00    -0.356 N 
ATOM      5  C   UNL A   1      33.630  20.617  24.542  1.00  0.00     0.220 C 
ATOM      6  O   UNL A   1      33.029  19.586  24.230  1.00  0.00    -0.275 OA
ATOM      7  H   UNL A   1      34.948  19.586  25.611  1.00  0.00     0.163 HD
BRANCH   5   8
ATOM      8  C   UNL A   1      33.199  21.959  23.984  1.00  0.00     0.104 C 
BRANCH   8   9
ATOM      9  C   UNL A   1      31.893  22.508  24.603  1.00  0.00     0.009 C 
ATOM     10  N   UNL A   1      31.087  24.992  26.048  1.00  0.00    -0.332 N 
ATOM     11  C   UNL A   1      30.602  24.721  24.695  1.00  0.00     0.262 C 
ATOM     12  C   UNL A   1      31.188  23.747  26.792  1.00  0.00     0.262 C 
ATOM     13  H   UNL A   1      30.364  25.559  26.489  1.00  0.00     0.348 HD
ATOM     14  C   UNL A   1      31.507  23.808  23.878  1.00  0.00     0.066 C 
ATOM     15  C   UNL A   1      32.045  22.676  26.121  1.00  0.00     0.066 C 
BRANCH  10  16
ATOM     16  C   UNL A   1      32.088  26.066  26.290  1.00  0.00     0.187 C 
ATOM     17  C   UNL A   1      34.260  25.488  25.007  1.00  0.00     0.014 C 
ATOM     18  C   UNL A   1      33.064  26.463  25.123  1.00  0.00     0.047 C 
ATOM     19  C   UNL A   1      33.670  27.900  25.178  1.00  0.00    -0.006 C 
ATOM     20  C   UNL A   1      31.361  27.270  26.938  1.00  0.00     0.065 C 
ATOM     21  C   UNL A   1      32.742  28.951  25.776  1.00  0.00     0.004 C 
ATOM     22  C   UNL A   1      34.129  28.353  23.784  1.00  0.00     0.008 C 
ATOM     23  C   UNL A   1      32.246  28.485  27.132  1.00  0.00     0.006 C 
ENDBRANCH  10  16
ENDBRANCH   8   9
ENDBRANCH   5   8
ENDBRANCH   3   4
ENDBRANCH   2   3
ENDBRANCH   1   2
BRANCH   1  24
ATOM     24  C   UNL A   1      38.798  22.146  26.135  1.00  0.00     0.002 C 
BRANCH  24  25
ATOM     25  C   UNL A   1      39.133  20.880  25.333  1.00  0.00     0.021 C 
BRANCH  25  26
ATOM     26  C   UNL A   1      39.417  19.621  26.154  1.00  0.00     0.116 C 
BRANCH  26  27
ATOM     27  N   UNL A   1      40.717  19.043  25.855  1.00  0.00    -0.352 N 
ATOM     28  C   UNL A   1      41.970  19.597  25.860  1.00  0.00     0.251 C 
ATOM     29  H   UNL A   1      40.692  18.091  25.606  1.00  0.00     0.163 HD
ATOM     30  O   UNL A   1      42.909  18.958  25.394  1.00  0.00    -0.269 OA
BRANCH  28  31
ATOM     31  C   UNL A   1      42.216  20.953  26.403  1.00  0.00     0.039 A 
ATOM     32  C   UNL A   1      42.041  21.155  27.776  1.00  0.00     0.014 A 
ATOM     33  C   UNL A   1      42.536  22.036  25.579  1.00  0.00     0.014 A 
ATOM     34  C   UNL A   1      42.227  22.425  28.327  1.00  0.00     0.010 A 
ATOM     35  C   UNL A   1      42.776  23.295  26.138  1.00  0.00     0.010 A 
ATOM     36  C   UNL A   1      42.617  23.503  27.516  1.00  0.00    -0.014 A 
BRANCH  36  37
ATOM     37  C   UNL A   1      42.868  24.839  28.116  1.00  0.00     0.031 A 
ATOM     38  C   UNL A   1      44.246  25.235  28.570  1.00  0.00     0.074 A 
ATOM     39  C   UNL A   1      41.838  25.691  28.278  1.00  0.00     0.049 A 
ATOM     40  N   UNL A   1      44.649  26.367  29.093  1.00  0.00    -0.248 NA
ATOM     41  C   UNL A   1      45.306  24.223  28.443  1.00  0.00     0.031 C 
ATOM     42  C   UNL A   1      40.443  25.405  27.940  1.00  0.00     0.029 A 
ATOM     43  N   UNL A   1      41.805  26.972  28.771  1.00  0.00    -0.354 N 
ATOM     44  C   UNL A   1      46.000  26.199  29.367  1.00  0.00     0.074 A 
ATOM     45  C   UNL A   1      46.341  24.844  28.992  1.00  0.00     0.031 C 
ATOM     46  C   UNL A   1      39.694  26.485  28.213  1.00  0.00     0.029 A 
ATOM     47  C   UNL A   1      40.550  27.532  28.762  1.00  0.00     0.049 A 
ATOM     48  H   UNL A   1      42.603  27.444  29.100  1.00  0.00     0.167 HD
ATOM     49  C   UNL A   1      46.881  27.098  29.869  1.00  0.00     0.037 A 
ATOM     50  C   UNL A   1      40.137  28.755  29.145  1.00  0.00     0.037 A 
ATOM     51  C   UNL A   1      46.551  28.458  30.211  1.00  0.00     0.049 A 
ATOM     52  C   UNL A   1      41.142  29.749  29.651  1.00  0.00     0.074 A 
ATOM     53  C   UNL A   1      47.393  29.467  30.647  1.00  0.00     0.029 A 
ATOM     54  N   UNL A   1      45.275  28.999  30.156  1.00  0.00    -0.354 N 
ATOM     55  N   UNL A   1      42.434  29.603  29.821  1.00  0.00    -0.248 NA
ATOM     56  C   UNL A   1      40.635  31.082  30.006  1.00  0.00     0.031 C 
ATOM     57  C   UNL A   1      46.622  30.609  30.889  1.00  0.00     0.029 A 
ATOM     58  C   UNL A   1      45.305  30.321  30.569  1.00  0.00     0.049 A 
ATOM     59  H   UNL A   1      44.469  28.515  29.866  1.00  0.00     0.167 HD
ATOM     60  C   UNL A   1      42.896  30.827  30.286  1.00  0.00     0.074 A 
ATOM     61  C   UNL A   1      41.750  31.711  30.350  1.00  0.00     0.031 C 
ATOM     62  C   UNL A   1      44.155  31.186  30.632  1.00  0.00     0.037 A 
BRANCH  49  63
ATOM     63  C   UNL A   1      48.296  26.646  30.072  1.00  0.00     0.057 A 
ATOM     64  C   UNL A   1      48.693  25.968  31.231  1.00  0.00     0.134 A 
ATOM     65  C   UNL A   1      49.261  26.845  29.077  1.00  0.00     0.134 A 
ATOM     66  F   UNL A   1      47.819  25.754  32.226  1.00  0.00    -0.206 F 
ATOM     67  C   UNL A   1      50.005  25.521  31.403  1.00  0.00     0.040 A 
ATOM     68  C   UNL A   1      50.570  26.383  29.227  1.00  0.00     0.040 A 
ATOM     69  F   UNL A   1      48.945  27.481  27.939  1.00  0.00    -0.206 F 
ATOM     70  C   UNL A   1      50.946  25.722  30.395  1.00  0.00     0.006 A 
ENDBRANCH  49  63
BRANCH  50  71
ATOM     71  C   UNL A   1      38.704  29.120  29.029  1.00  0.00     0.057 A 
ATOM     72  C   UNL A   1      38.166  29.557  27.814  1.00  0.00     0.134 A 
ATOM     73  C   UNL A   1      37.844  29.048  30.131  1.00  0.00     0.134 A 
ATOM     74  F   UNL A   1      38.947  29.662  26.729  1.00  0.00    -0.206 F 
ATOM     75  C   UNL A   1      36.825  29.927  27.700  1.00  0.00     0.040 A 
ATOM     76  C   UNL A   1      36.496  29.395  30.027  1.00  0.00     0.040 A 
ATOM     77  F   UNL A   1      38.299  28.631  31.320  1.00  0.00    -0.206 F 
ATOM     78  C   UNL A   1      35.985  29.842  28.809  1.00  0.00     0.006 A 
ENDBRANCH  50  71
BRANCH  62  79
ATOM     79  C   UNL A   1      44.355  32.597  31.101  1.00  0.00     0.057 A 
ATOM     80  C   UNL A   1      44.626  33.638  30.203  1.00  0.00     0.134 A 
ATOM     81  C   UNL A   1      44.262  32.919  32.459  1.00  0.00     0.134 A 
ATOM     82  F   UNL A   1      44.742  33.390  28.891  1.00  0.00    -0.206 F 
ATOM     83  C   UNL A   1      44.822  34.947  30.645  1.00  0.00     0.040 A 
ATOM     84  C   UNL A   1      44.433  34.229  32.911  1.00  0.00     0.040 A 
ATOM     85  F   UNL A   1      43.998  31.969  33.369  1.00  0.00    -0.206 F 
ATOM     86  C   UNL A   1      44.722  35.246  32.003  1.00  0.00     0.006 A 
ENDBRANCH  62  79
ENDBRANCH  36  37
ENDBRANCH  28  31
ENDBRANCH  26  27
ENDBRANCH  25  26
ENDBRANCH  24  25
ENDBRANCH   1  24
TORSDOF 15
ENDMDL
MODEL 2
REMARK VINA RESULT:     -10.8      2.640      3.819
REMARK SMILES C[C@H]1[C@H]([NH+]2CCC(CC(=O)NCCCCCCNC(=O)c3ccc(-c4c5nc(c(-c6c(F)cccc6F)c6ccc([nH]6)c(-c6c(F)cccc6F)c6nc(c(-c7c(F)cccc7F)c7ccc4[nH]7)C=C6)C=C5)cc3)CC2)CCC[C@@H]1C
REMARK SMILES IDX 14 1 13 2 12 3 11 4 9 5 10 6 8 8 7 9 4 10 5 11 76 12 6 14
REMARK SMILES IDX 75 15 3 16 1 17 2 18 80 19 77 20 79 21 81 22 78 23 15 24
REMARK SMILES IDX 16 25 17 26 18 27 19 28 20 30 21 31 22 32 74 33 23 34 73 35
REMARK SMILES IDX 24 36 25 37 26 38 67 39 27 40 72 41 66 42 68 43 28 44 71 45
REMARK SMILES IDX 65 46 64 47 29 49 55 50 38 51 54 52 39 53 42 54 53 55 69 56
REMARK SMILES IDX 40 57 41 58 52 60 70 61 43 62 30 63 31 64 36 65 32 66 33 67
REMARK SMILES IDX 35 68 37 69 34 70 56 71 57 72 62 73 58 74 59 75 61 76 63 77
REMARK SMILES IDX 60 78 44 79 45 80 50 81 46 82 47 83 49 84 51 85 48 86
REMARK H PARENT 11 7 4 13 18 29 68 48 42 59
REMARK Flexibility Score: inf
ROOT
ATOM      1  C   UNL A   1      41.856  21.515  26.889  1.00  0.00     0.002 C 
ENDROOT
BRANCH   1   2
ATOM      2  C   UNL A   1      40.801  22.342  27.623  1.00  0.00     0.021 C 
BRANCH   2   3
ATOM      3  C   UNL A   1      39.678  22.873  26.722  1.00  0.00     0.116 C 
BRANCH   3   4
ATOM      4  N   UNL A   1      39.216  21.843  25.804  1.00  0.00    -0.356 N 
ATOM      5  C   UNL A   1      37.961  21.525  25.376  1.00  0.00     0.220 C 
ATOM      6  O   UNL A   1      37.823  20.527  24.665  1.00  0.00    -0.275 OA
ATOM      7  H   UNL A   1      39.931  21.279  25.428  1.00  0.00     0.163 HD
BRANCH   5   8
ATOM      8  C   UNL A   1      36.764  22.381  25.745  1.00  0.00     0.104 C 
BRANCH   8   9
ATOM      9  C   UNL A   1      35.414  21.631  25.688  1.00  0.00     0.009 C 
ATOM     10  N   UNL A   1      32.561  22.389  25.243  1.00  0.00    -0.332 N 
ATOM     11  C   UNL A   1      33.295  21.611  24.245  1.00  0.00     0.262 C 
ATOM     12  C   UNL A   1      32.985  21.997  26.578  1.00  0.00     0.262 C 
ATOM     13  H   UNL A   1      31.585  22.117  25.136  1.00  0.00     0.348 HD
ATOM     14  C   UNL A   1      34.805  21.807  24.287  1.00  0.00     0.066 C 
ATOM     15  C   UNL A   1      34.489  22.100  26.820  1.00  0.00     0.066 C 
BRANCH  10  16
ATOM     16  C   UNL A   1      32.204  23.809  24.981  1.00  0.00     0.187 C 
ATOM     17  C   UNL A   1      34.335  25.260  25.204  1.00  0.00     0.014 C 
ATOM     18  C   UNL A   1      33.248  24.724  24.243  1.00  0.00     0.047 C 
ATOM     19  C   UNL A   1      32.677  25.964  23.486  1.00  0.00    -0.006 C 
ATOM     20  C   UNL A   1      30.786  23.846  24.361  1.00  0.00     0.065 C 
ATOM     21  C   UNL A   1      31.298  25.747  22.875  1.00  0.00     0.004 C 
ATOM     22  C   UNL A   1      33.653  26.437  22.398  1.00  0.00     0.008 C 
ATOM     23  C   UNL A   1      30.342  25.232  23.935  1.00  0.00     0.006 C 
ENDBRANCH  10  16
ENDBRANCH   8   9
ENDBRANCH   5   8
ENDBRANCH   3   4
ENDBRANCH   2   3
ENDBRANCH   1   2
BRANCH   1  24
ATOM     24  C   UNL A   1      41.909  20.040  27.298  1.00  0.00     0.002 C 
BRANCH  24  25
ATOM     25  C   UNL A   1      42.207  19.039  26.174  1.00  0.00     0.021 C 
BRANCH  25  26
ATOM     26  C   UNL A   1      43.646  18.525  26.095  1.00  0.00     0.116 C 
BRANCH  26  27
ATOM     27  N   UNL A   1      44.169  18.542  24.738  1.00  0.00    -0.352 N 
ATOM     28  C   UNL A   1      44.624  19.575  23.963  1.00  0.00     0.251 C 
ATOM     29  H   UNL A   1      44.200  17.659  24.303  1.00  0.00     0.163 HD
ATOM     30  O   UNL A   1      44.852  19.375  22.773  1.00  0.00    -0.269 OA
BRANCH  28  31
ATOM     31  C   UNL A   1      44.839  20.929  24.523  1.00  0.00     0.039 A 
ATOM     32  C   UNL A   1      44.445  22.031  23.755  1.00  0.00     0.014 A 
ATOM     33  C   UNL A   1      45.488  21.133  25.744  1.00  0.00     0.014 A 
ATOM     34  C   UNL A   1      44.660  23.327  24.228  1.00  0.00     0.010 A 
ATOM     35  C   UNL A   1      45.654  22.429  26.242  1.00  0.00     0.010 A 
ATOM     36  C   UNL A   1      45.248  23.538  25.485  1.00  0.00    -0.014 A 
BRANCH  36  37
ATOM     37  C   UNL A   1      45.424  24.918  26.007  1.00  0.00     0.031 A 
ATOM     38  C   UNL A   1      46.774  25.582  25.993  1.00  0.00     0.074 A 
ATOM     39  C   UNL A   1      44.364  25.566  26.526  1.00  0.00     0.049 A 
ATOM     40  N   UNL A   1      47.105  26.787  26.386  1.00  0.00    -0.248 NA
ATOM     41  C   UNL A   1      47.904  24.783  25.494  1.00  0.00     0.031 C 
ATOM     42  C   UNL A   1      43.016  25.011  26.659  1.00  0.00     0.029 A 
ATOM     43  N   UNL A   1      44.253  26.834  27.039  1.00  0.00    -0.354 N 
ATOM     44  C   UNL A   1      48.477  26.887  26.194  1.00  0.00     0.074 A 
ATOM     45  C   UNL A   1      48.925  25.607  25.688  1.00  0.00     0.031 C 
ATOM     46  C   UNL A   1      42.209  25.940  27.196  1.00  0.00     0.029 A 
ATOM     47  C   UNL A   1      42.984  27.148  27.461  1.00  0.00     0.049 A 
ATOM     48  H   UNL A   1      45.011  27.460  27.100  1.00  0.00     0.167 HD
ATOM     49  C   UNL A   1      49.286  27.952  26.403  1.00  0.00     0.037 A 
ATOM     50  C   UNL A   1      42.496  28.284  27.995  1.00  0.00     0.037 A 
ATOM     51  C   UNL A   1      48.837  29.237  26.874  1.00  0.00     0.049 A 
ATOM     52  C   UNL A   1      43.406  29.467  28.170  1.00  0.00     0.074 A 
ATOM     53  C   UNL A   1      49.569  30.401  27.037  1.00  0.00     0.029 A 
ATOM     54  N   UNL A   1      47.537  29.526  27.260  1.00  0.00    -0.354 N 
ATOM     55  N   UNL A   1      44.684  29.572  27.899  1.00  0.00    -0.248 NA
ATOM     56  C   UNL A   1      42.802  30.692  28.712  1.00  0.00     0.031 C 
ATOM     57  C   UNL A   1      48.719  31.385  27.553  1.00  0.00     0.029 A 
ATOM     58  C   UNL A   1      47.450  30.844  27.678  1.00  0.00     0.049 A 
ATOM     59  H   UNL A   1      46.787  28.889  27.238  1.00  0.00     0.167 HD
ATOM     60  C   UNL A   1      45.033  30.877  28.221  1.00  0.00     0.074 A 
ATOM     61  C   UNL A   1      43.828  31.531  28.685  1.00  0.00     0.031 C 
ATOM     62  C   UNL A   1      46.244  31.479  28.142  1.00  0.00     0.037 A 
BRANCH  49  63
ATOM     63  C   UNL A   1      50.748  27.781  26.113  1.00  0.00     0.057 A 
ATOM     64  C   UNL A   1      51.665  27.452  27.120  1.00  0.00     0.134 A 
ATOM     65  C   UNL A   1      51.238  27.897  24.807  1.00  0.00     0.134 A 
ATOM     66  F   UNL A   1      51.261  27.336  28.395  1.00  0.00    -0.206 F 
ATOM     67  C   UNL A   1      53.020  27.264  26.842  1.00  0.00     0.040 A 
ATOM     68  C   UNL A   1      52.586  27.690  24.512  1.00  0.00     0.040 A 
ATOM     69  F   UNL A   1      50.412  28.204  23.794  1.00  0.00    -0.206 F 
ATOM     70  C   UNL A   1      53.482  27.375  25.532  1.00  0.00     0.006 A 
ENDBRANCH  49  63
BRANCH  50  71
ATOM     71  C   UNL A   1      41.064  28.369  28.370  1.00  0.00     0.057 A 
ATOM     72  C   UNL A   1      40.639  28.067  29.669  1.00  0.00     0.134 A 
ATOM     73  C   UNL A   1      40.090  28.748  27.440  1.00  0.00     0.134 A 
ATOM     74  F   UNL A   1      41.527  27.682  30.597  1.00  0.00    -0.206 F 
ATOM     75  C   UNL A   1      39.291  28.120  30.026  1.00  0.00     0.040 A 
ATOM     76  C   UNL A   1      38.740  28.826  27.789  1.00  0.00     0.040 A 
ATOM     77  F   UNL A   1      40.436  29.057  26.183  1.00  0.00    -0.206 F 
ATOM     78  C   UNL A   1      38.338  28.505  29.085  1.00  0.00     0.006 A 
ENDBRANCH  50  71
BRANCH  62  79
ATOM     79  C   UNL A   1      46.317  32.917  28.560  1.00  0.00     0.057 A 
ATOM     80  C   UNL A   1      46.098  33.959  27.649  1.00  0.00     0.134 A 
ATOM     81  C   UNL A   1      46.593  33.264  29.887  1.00  0.00     0.134 A 
ATOM     82  F   UNL A   1      45.843  33.692  26.360  1.00  0.00    -0.206 F 
ATOM     83  C   UNL A   1      46.178  35.296  28.039  1.00  0.00     0.040 A 
ATOM     84  C   UNL A   1      46.653  34.598  30.295  1.00  0.00     0.040 A 
ATOM     85  F   UNL A   1      46.806  32.313  30.810  1.00  0.00    -0.206 F 
ATOM     86  C   UNL A   1      46.452  35.619  29.368  1.00  0.00     0.006 A 
ENDBRANCH  62  79
ENDBRANCH  36  37
ENDBRANCH  28  31
ENDBRANCH  26  27
ENDBRANCH  25  26
ENDBRANCH  24  25
ENDBRANCH   1  24
TORSDOF 15
ENDMDL
MODEL 3
REMARK VINA RESULT:     -10.8      5.427     10.204
REMARK SMILES C[C@H]1[C@H]([NH+]2CCC(CC(=O)NCCCCCCNC(=O)c3ccc(-c4c5nc(c(-c6c(F)cccc6F)c6ccc([nH]6)c(-c6c(F)cccc6F)c6nc(c(-c7c(F)cccc7F)c7ccc4[nH]7)C=C6)C=C5)cc3)CC2)CCC[C@@H]1C
REMARK SMILES IDX 14 1 13 2 12 3 11 4 9 5 10 6 8 8 7 9 4 10 5 11 76 12 6 14
REMARK SMILES IDX 75 15 3 16 1 17 2 18 80 19 77 20 79 21 81 22 78 23 15 24
REMARK SMILES IDX 16 25 17 26 18 27 19 28 20 30 21 31 22 32 74 33 23 34 73 35
REMARK SMILES IDX 24 36 25 37 26 38 67 39 27 40 72 41 66 42 68 43 28 44 71 45
REMARK SMILES IDX 65 46 64 47 29 49 55 50 38 51 54 52 39 53 42 54 53 55 69 56
REMARK SMILES IDX 40 57 41 58 52 60 70 61 43 62 30 63 31 64 36 65 32 66 33 67
REMARK SMILES IDX 35 68 37 69 34 70 56 71 57 72 62 73 58 74 59 75 61 76 63 77
REMARK SMILES IDX 60 78 44 79 45 80 50 81 46 82 47 83 49 84 51 85 48 86
REMARK H PARENT 11 7 4 13 18 29 68 48 42 59
REMARK Flexibility Score: inf
ROOT
ATOM      1  C   UNL A   1      35.344  33.120  28.402  1.00  0.00     0.002 C 
ENDROOT
BRANCH   1   2
ATOM      2  C   UNL A   1      34.248  32.073  28.595  1.00  0.00     0.021 C 
BRANCH   2   3
ATOM      3  C   UNL A   1      34.231  30.975  27.523  1.00  0.00     0.116 C 
BRANCH   3   4
ATOM      4  N   UNL A   1      33.070  30.113  27.680  1.00  0.00    -0.356 N 
ATOM      5  C   UNL A   1      32.837  28.841  27.244  1.00  0.00     0.220 C 
ATOM      6  O   UNL A   1      31.715  28.362  27.422  1.00  0.00    -0.275 OA
ATOM      7  H   UNL A   1      32.328  30.513  28.187  1.00  0.00     0.163 HD
BRANCH   5   8
ATOM      8  C   UNL A   1      33.926  28.027  26.573  1.00  0.00     0.104 C 
BRANCH   8   9
ATOM      9  C   UNL A   1      33.683  27.769  25.068  1.00  0.00     0.009 C 
ATOM     10  N   UNL A   1      31.389  28.087  23.185  1.00  0.00    -0.332 N 
ATOM     11  C   UNL A   1      32.569  28.945  23.081  1.00  0.00     0.262 C 
ATOM     12  C   UNL A   1      31.790  26.747  23.585  1.00  0.00     0.262 C 
ATOM     13  H   UNL A   1      31.011  28.027  22.240  1.00  0.00     0.348 HD
ATOM     14  C   UNL A   1      33.343  29.103  24.383  1.00  0.00     0.066 C 
ATOM     15  C   UNL A   1      32.609  26.690  24.873  1.00  0.00     0.066 C 
BRANCH  10  16
ATOM     16  C   UNL A   1      30.097  28.635  23.677  1.00  0.00     0.187 C 
ATOM     17  C   UNL A   1      30.522  30.965  24.718  1.00  0.00     0.014 C 
ATOM     18  C   UNL A   1      29.846  30.183  23.568  1.00  0.00     0.047 C 
ATOM     19  C   UNL A   1      28.356  30.648  23.534  1.00  0.00    -0.006 C 
ATOM     20  C   UNL A   1      28.951  27.770  23.098  1.00  0.00     0.065 C 
ATOM     21  C   UNL A   1      27.412  29.679  22.833  1.00  0.00     0.004 C 
ATOM     22  C   UNL A   1      28.233  32.040  22.894  1.00  0.00     0.008 C 
ATOM     23  C   UNL A   1      27.566  28.292  23.428  1.00  0.00     0.006 C 
ENDBRANCH  10  16
ENDBRANCH   8   9
ENDBRANCH   5   8
ENDBRANCH   3   4
ENDBRANCH   2   3
ENDBRANCH   1   2
BRANCH   1  24
ATOM     24  C   UNL A   1      34.837  34.561  28.286  1.00  0.00     0.002 C 
BRANCH  24  25
ATOM     25  C   UNL A   1      33.476  34.851  28.934  1.00  0.00     0.021 C 
BRANCH  25  26
ATOM     26  C   UNL A   1      33.297  36.251  29.524  1.00  0.00     0.116 C 
BRANCH  26  27
ATOM     27  N   UNL A   1      32.468  36.250  30.719  1.00  0.00    -0.352 N 
ATOM     28  C   UNL A   1      32.601  35.577  31.905  1.00  0.00     0.251 C 
ATOM     29  H   UNL A   1      31.676  36.832  30.666  1.00  0.00     0.163 HD
ATOM     30  O   UNL A   1      31.674  35.594  32.710  1.00  0.00    -0.269 OA
BRANCH  28  31
ATOM     31  C   UNL A   1      33.832  34.822  32.234  1.00  0.00     0.039 A 
ATOM     32  C   UNL A   1      35.044  35.519  32.273  1.00  0.00     0.014 A 
ATOM     33  C   UNL A   1      33.824  33.436  32.424  1.00  0.00     0.014 A 
ATOM     34  C   UNL A   1      36.235  34.841  32.544  1.00  0.00     0.010 A 
ATOM     35  C   UNL A   1      35.007  32.767  32.750  1.00  0.00     0.010 A 
ATOM     36  C   UNL A   1      36.225  33.462  32.806  1.00  0.00    -0.014 A 
BRANCH  36  37
ATOM     37  C   UNL A   1      37.486  32.755  33.149  1.00  0.00     0.031 A 
ATOM     38  C   UNL A   1      38.220  33.061  34.425  1.00  0.00     0.074 A 
ATOM     39  C   UNL A   1      37.989  31.852  32.286  1.00  0.00     0.049 A 
ATOM     40  N   UNL A   1      39.320  32.525  34.894  1.00  0.00    -0.248 NA
ATOM     41  C   UNL A   1      37.661  34.121  35.278  1.00  0.00     0.031 C 
ATOM     42  C   UNL A   1      37.410  31.511  30.986  1.00  0.00     0.029 A 
ATOM     43  N   UNL A   1      39.103  31.054  32.374  1.00  0.00    -0.354 N 
ATOM     44  C   UNL A   1      39.590  33.188  36.083  1.00  0.00     0.074 A 
ATOM     45  C   UNL A   1      38.563  34.195  36.247  1.00  0.00     0.031 C 
ATOM     46  C   UNL A   1      38.160  30.559  30.407  1.00  0.00     0.029 A 
ATOM     47  C   UNL A   1      39.280  30.236  31.285  1.00  0.00     0.049 A 
ATOM     48  H   UNL A   1      39.717  31.068  33.142  1.00  0.00     0.167 HD
ATOM     49  C   UNL A   1      40.592  32.967  36.968  1.00  0.00     0.037 A 
ATOM     50  C   UNL A   1      40.232  29.320  31.025  1.00  0.00     0.037 A 
ATOM     51  C   UNL A   1      41.595  31.944  36.824  1.00  0.00     0.049 A 
ATOM     52  C   UNL A   1      41.303  29.060  32.046  1.00  0.00     0.074 A 
ATOM     53  C   UNL A   1      42.600  31.589  37.709  1.00  0.00     0.029 A 
ATOM     54  N   UNL A   1      41.722  31.112  35.722  1.00  0.00    -0.354 N 
ATOM     55  N   UNL A   1      41.493  29.636  33.208  1.00  0.00    -0.248 NA
ATOM     56  C   UNL A   1      42.285  28.015  31.725  1.00  0.00     0.031 C 
ATOM     57  C   UNL A   1      43.355  30.565  37.127  1.00  0.00     0.029 A 
ATOM     58  C   UNL A   1      42.798  30.258  35.897  1.00  0.00     0.049 A 
ATOM     59  H   UNL A   1      41.132  31.125  34.934  1.00  0.00     0.167 HD
ATOM     60  C   UNL A   1      42.603  29.012  33.763  1.00  0.00     0.074 A 
ATOM     61  C   UNL A   1      43.030  28.000  32.821  1.00  0.00     0.031 C 
ATOM     62  C   UNL A   1      43.215  29.258  34.947  1.00  0.00     0.037 A 
BRANCH  49  63
ATOM     63  C   UNL A   1      40.651  33.844  38.184  1.00  0.00     0.057 A 
ATOM     64  C   UNL A   1      41.453  34.992  38.225  1.00  0.00     0.134 A 
ATOM     65  C   UNL A   1      39.861  33.567  39.306  1.00  0.00     0.134 A 
ATOM     66  F   UNL A   1      42.241  35.308  37.186  1.00  0.00    -0.206 F 
ATOM     67  C   UNL A   1      41.482  35.822  39.348  1.00  0.00     0.040 A 
ATOM     68  C   UNL A   1      39.864  34.401  40.425  1.00  0.00     0.040 A 
ATOM     69  F   UNL A   1      39.065  32.487  39.328  1.00  0.00    -0.206 F 
ATOM     70  C   UNL A   1      40.680  35.531  40.449  1.00  0.00     0.006 A 
ENDBRANCH  49  63
BRANCH  50  71
ATOM     71  C   UNL A   1      40.196  28.554  29.756  1.00  0.00     0.057 A 
ATOM     72  C   UNL A   1      39.448  27.376  29.645  1.00  0.00     0.134 A 
ATOM     73  C   UNL A   1      40.910  28.976  28.630  1.00  0.00     0.134 A 
ATOM     74  F   UNL A   1      38.757  26.914  30.697  1.00  0.00    -0.206 F 
ATOM     75  C   UNL A   1      39.426  26.634  28.463  1.00  0.00     0.040 A 
ATOM     76  C   UNL A   1      40.881  28.256  27.435  1.00  0.00     0.040 A 
ATOM     77  F   UNL A   1      41.639  30.101  28.672  1.00  0.00    -0.206 F 
ATOM     78  C   UNL A   1      40.141  27.077  27.352  1.00  0.00     0.006 A 
ENDBRANCH  50  71
BRANCH  62  79
ATOM     79  C   UNL A   1      44.404  28.411  35.286  1.00  0.00     0.057 A 
ATOM     80  C   UNL A   1      45.704  28.790  34.925  1.00  0.00     0.134 A 
ATOM     81  C   UNL A   1      44.250  27.212  35.992  1.00  0.00     0.134 A 
ATOM     82  F   UNL A   1      45.914  29.920  34.235  1.00  0.00    -0.206 F 
ATOM     83  C   UNL A   1      46.806  27.992  35.233  1.00  0.00     0.040 A 
ATOM     84  C   UNL A   1      45.348  26.417  36.326  1.00  0.00     0.040 A 
ATOM     85  F   UNL A   1      43.033  26.796  36.372  1.00  0.00    -0.206 F 
ATOM     86  C   UNL A   1      46.631  26.803  35.939  1.00  0.00     0.006 A 
ENDBRANCH  62  79
ENDBRANCH  36  37
ENDBRANCH  28  31
ENDBRANCH  26  27
ENDBRANCH  25  26
ENDBRANCH  24  25
ENDBRANCH   1  24
TORSDOF 15
ENDMDL
