MODEL 1
REMARK VINA RESULT:     -11.4      0.000      0.000
REMARK SMILES Cc1ccc(C(=O)[C@@H](C)[C@H](C)C(=O)NCCCCCCNC(=O)c2ccc(-c3c4nc(c(-c5c(F)cccc5F)c5ccc([nH]5)c(-c5c(F)cccc5F)c5nc(c(-c6c(F)cccc6F)c6ccc3[nH]6)C=C5)C=C4)cc2)cc1
REMARK SMILES IDX 17 1 16 2 15 3 14 4 12 5 13 6 10 8 11 9 8 10 9 11 6 12 7 13
REMARK SMILES IDX 5 14 1 15 2 16 3 17 79 18 4 19 78 20 18 21 19 22 20 23 21 24
REMARK SMILES IDX 22 25 23 27 24 28 25 29 77 30 26 31 76 32 27 33 28 34 29 35
REMARK SMILES IDX 70 36 30 37 75 38 69 39 71 40 31 41 74 42 68 43 67 44 32 46
REMARK SMILES IDX 58 47 41 48 57 49 42 50 45 51 56 52 72 53 43 54 44 55 55 57
REMARK SMILES IDX 73 58 46 59 33 60 34 61 39 62 35 63 36 64 38 65 40 66 37 67
REMARK SMILES IDX 59 68 60 69 65 70 61 71 62 72 64 73 66 74 63 75 47 76 48 77
REMARK SMILES IDX 53 78 49 79 50 80 52 81 54 82 51 83
REMARK H PARENT 14 7 21 26 71 45 45 56
REMARK Flexibility Score: inf
ROOT
ATOM      1  C   UNL A   1      32.919  28.040  26.600  1.00  0.00     0.002 C 
ENDROOT
BRANCH   1   2
ATOM      2  C   UNL A   1      31.808  28.836  25.883  1.00  0.00     0.021 C 
BRANCH   2   3
ATOM      3  C   UNL A   1      32.184  29.624  24.624  1.00  0.00     0.116 C 
BRANCH   3   4
ATOM      4  N   UNL A   1      31.364  29.273  23.475  1.00  0.00    -0.356 N 
ATOM      5  C   UNL A   1      30.577  28.254  23.072  1.00  0.00     0.223 C 
ATOM      6  O   UNL A   1      29.898  28.516  22.066  1.00  0.00    -0.275 OA
ATOM      7  H   UNL A   1      31.390  29.983  22.796  1.00  0.00     0.163 HD
BRANCH   5   8
ATOM      8  C   UNL A   1      30.504  26.826  23.633  1.00  0.00     0.086 C 
ATOM      9  C   UNL A   1      29.050  26.433  23.910  1.00  0.00     0.019 C 
BRANCH   8  10
ATOM     10  C   UNL A   1      31.504  25.723  23.191  1.00  0.00     0.070 C 
ATOM     11  C   UNL A   1      31.159  24.275  23.523  1.00  0.00     0.017 C 
BRANCH  10  12
ATOM     12  C   UNL A   1      33.025  25.959  23.253  1.00  0.00     0.166 C 
ATOM     13  O   UNL A   1      33.496  26.976  22.733  1.00  0.00    -0.294 OA
BRANCH  12  14
ATOM     14  C   UNL A   1      33.997  24.992  23.845  1.00  0.00     0.018 A 
ATOM     15  C   UNL A   1      37.032  22.314  25.351  1.00  0.00     0.044 C 
ATOM     16  C   UNL A   1      35.959  23.218  24.832  1.00  0.00    -0.051 A 
ATOM     17  C   UNL A   1      35.503  23.105  23.517  1.00  0.00     0.004 A 
ATOM     18  C   UNL A   1      35.421  24.210  25.649  1.00  0.00     0.004 A 
ATOM     19  C   UNL A   1      34.535  23.988  23.027  1.00  0.00     0.012 A 
ATOM     20  C   UNL A   1      34.447  25.080  25.156  1.00  0.00     0.012 A 
ENDBRANCH  12  14
ENDBRANCH  10  12
ENDBRANCH   8  10
ENDBRANCH   5   8
ENDBRANCH   3   4
ENDBRANCH   2   3
ENDBRANCH   1   2
BRANCH   1  21
ATOM     21  C   UNL A   1      34.167  28.766  27.120  1.00  0.00     0.002 C 
BRANCH  21  22
ATOM     22  C   UNL A   1      33.918  30.076  27.863  1.00  0.00     0.021 C 
BRANCH  22  23
ATOM     23  C   UNL A   1      34.863  31.212  27.472  1.00  0.00     0.116 C 
BRANCH  23  24
ATOM     24  N   UNL A   1      35.543  31.838  28.606  1.00  0.00    -0.352 N 
ATOM     25  C   UNL A   1      36.565  31.350  29.413  1.00  0.00     0.251 C 
ATOM     26  H   UNL A   1      35.227  32.742  28.833  1.00  0.00     0.163 HD
ATOM     27  O   UNL A   1      37.036  32.033  30.295  1.00  0.00    -0.269 OA
BRANCH  25  28
ATOM     28  C   UNL A   1      37.170  30.033  29.086  1.00  0.00     0.039 A 
ATOM     29  C   UNL A   1      37.260  29.086  30.114  1.00  0.00     0.014 A 
ATOM     30  C   UNL A   1      37.833  29.829  27.884  1.00  0.00     0.014 A 
ATOM     31  C   UNL A   1      38.253  28.111  30.052  1.00  0.00     0.010 A 
ATOM     32  C   UNL A   1      38.865  28.913  27.854  1.00  0.00     0.010 A 
ATOM     33  C   UNL A   1      39.140  28.134  28.981  1.00  0.00    -0.014 A 
BRANCH  33  34
ATOM     34  C   UNL A   1      40.480  27.558  29.043  1.00  0.00     0.031 A 
ATOM     35  C   UNL A   1      40.742  26.173  28.613  1.00  0.00     0.074 A 
ATOM     36  C   UNL A   1      41.510  28.372  29.372  1.00  0.00     0.049 A 
ATOM     37  N   UNL A   1      41.782  25.487  28.948  1.00  0.00    -0.248 NA
ATOM     38  C   UNL A   1      39.804  25.425  27.789  1.00  0.00     0.031 C 
ATOM     39  C   UNL A   1      42.938  28.120  29.200  1.00  0.00     0.029 A 
ATOM     40  N   UNL A   1      41.454  29.543  30.139  1.00  0.00    -0.354 N 
ATOM     41  C   UNL A   1      41.803  24.343  28.182  1.00  0.00     0.074 A 
ATOM     42  C   UNL A   1      40.506  24.314  27.549  1.00  0.00     0.031 C 
ATOM     43  C   UNL A   1      43.620  28.905  30.048  1.00  0.00     0.029 A 
ATOM     44  C   UNL A   1      42.646  29.573  30.894  1.00  0.00     0.049 A 
ATOM     45  H   UNL A   1      40.731  30.211  30.150  1.00  0.00     0.167 HD
ATOM     46  C   UNL A   1      42.971  23.639  28.077  1.00  0.00     0.037 A 
ATOM     47  C   UNL A   1      42.618  29.497  32.257  1.00  0.00     0.037 A 
ATOM     48  C   UNL A   1      43.988  24.183  28.984  1.00  0.00     0.049 A 
ATOM     49  C   UNL A   1      43.338  28.296  32.822  1.00  0.00     0.074 A 
ATOM     50  C   UNL A   1      45.074  25.022  28.787  1.00  0.00     0.029 A 
ATOM     51  N   UNL A   1      43.794  24.111  30.360  1.00  0.00    -0.354 N 
ATOM     52  N   UNL A   1      43.667  27.246  32.120  1.00  0.00    -0.248 NA
ATOM     53  C   UNL A   1      43.718  28.165  34.226  1.00  0.00     0.031 C 
ATOM     54  C   UNL A   1      45.484  25.514  30.052  1.00  0.00     0.029 A 
ATOM     55  C   UNL A   1      44.667  24.957  31.018  1.00  0.00     0.049 A 
ATOM     56  H   UNL A   1      43.128  23.538  30.803  1.00  0.00     0.167 HD
ATOM     57  C   UNL A   1      44.245  26.311  32.935  1.00  0.00     0.074 A 
ATOM     58  C   UNL A   1      44.281  26.944  34.240  1.00  0.00     0.031 C 
ATOM     59  C   UNL A   1      44.630  25.086  32.468  1.00  0.00     0.037 A 
BRANCH  46  60
ATOM     60  C   UNL A   1      43.300  22.667  26.950  1.00  0.00     0.057 A 
ATOM     61  C   UNL A   1      42.707  21.386  26.910  1.00  0.00     0.134 A 
ATOM     62  C   UNL A   1      44.239  22.879  25.926  1.00  0.00     0.134 A 
ATOM     63  F   UNL A   1      41.701  21.047  27.727  1.00  0.00    -0.206 F 
ATOM     64  C   UNL A   1      43.110  20.375  26.023  1.00  0.00     0.040 A 
ATOM     65  C   UNL A   1      44.683  21.868  25.059  1.00  0.00     0.040 A 
ATOM     66  F   UNL A   1      44.732  24.089  25.654  1.00  0.00    -0.206 F 
ATOM     67  C   UNL A   1      44.132  20.600  25.117  1.00  0.00     0.006 A 
ENDBRANCH  46  60
BRANCH  47  68
ATOM     68  C   UNL A   1      41.417  30.136  32.856  1.00  0.00     0.057 A 
ATOM     69  C   UNL A   1      41.388  31.537  32.967  1.00  0.00     0.134 A 
ATOM     70  C   UNL A   1      40.195  29.465  32.956  1.00  0.00     0.134 A 
ATOM     71  F   UNL A   1      42.527  32.243  32.878  1.00  0.00    -0.206 F 
ATOM     72  C   UNL A   1      40.189  32.248  33.060  1.00  0.00     0.040 A 
ATOM     73  C   UNL A   1      38.988  30.166  33.059  1.00  0.00     0.040 A 
ATOM     74  F   UNL A   1      40.137  28.132  32.828  1.00  0.00    -0.206 F 
ATOM     75  C   UNL A   1      38.980  31.561  33.072  1.00  0.00     0.006 A 
ENDBRANCH  47  68
BRANCH  59  76
ATOM     76  C   UNL A   1      45.080  23.923  33.316  1.00  0.00     0.057 A 
ATOM     77  C   UNL A   1      46.368  23.790  33.855  1.00  0.00     0.134 A 
ATOM     78  C   UNL A   1      44.147  22.952  33.747  1.00  0.00     0.134 A 
ATOM     79  F   UNL A   1      47.324  24.699  33.620  1.00  0.00    -0.206 F 
ATOM     80  C   UNL A   1      46.718  22.739  34.715  1.00  0.00     0.040 A 
ATOM     81  C   UNL A   1      44.471  21.931  34.645  1.00  0.00     0.040 A 
ATOM     82  F   UNL A   1      42.873  22.969  33.329  1.00  0.00    -0.206 F 
ATOM     83  C   UNL A   1      45.766  21.813  35.122  1.00  0.00     0.006 A 
ENDBRANCH  59  76
ENDBRANCH  33  34
ENDBRANCH  25  28
ENDBRANCH  23  24
ENDBRANCH  22  23
ENDBRANCH  21  22
ENDBRANCH   1  21
TORSDOF 16
ENDMDL
MODEL 2
REMARK VINA RESULT:     -11.4      3.872      9.161
REMARK SMILES Cc1ccc(C(=O)[C@@H](C)[C@H](C)C(=O)NCCCCCCNC(=O)c2ccc(-c3c4nc(c(-c5c(F)cccc5F)c5ccc([nH]5)c(-c5c(F)cccc5F)c5nc(c(-c6c(F)cccc6F)c6ccc3[nH]6)C=C5)C=C4)cc2)cc1
REMARK SMILES IDX 17 1 16 2 15 3 14 4 12 5 13 6 10 8 11 9 8 10 9 11 6 12 7 13
REMARK SMILES IDX 5 14 1 15 2 16 3 17 79 18 4 19 78 20 18 21 19 22 20 23 21 24
REMARK SMILES IDX 22 25 23 27 24 28 25 29 77 30 26 31 76 32 27 33 28 34 29 35
REMARK SMILES IDX 70 36 30 37 75 38 69 39 71 40 31 41 74 42 68 43 67 44 32 46
REMARK SMILES IDX 58 47 41 48 57 49 42 50 45 51 56 52 72 53 43 54 44 55 55 57
REMARK SMILES IDX 73 58 46 59 33 60 34 61 39 62 35 63 36 64 38 65 40 66 37 67
REMARK SMILES IDX 59 68 60 69 65 70 61 71 62 72 64 73 66 74 63 75 47 76 48 77
REMARK SMILES IDX 53 78 49 79 50 80 52 81 54 82 51 83
REMARK H PARENT 14 7 21 26 71 45 45 56
REMARK Flexibility Score: inf
ROOT
ATOM      1  C   UNL A   1      36.386  22.074  24.316  1.00  0.00     0.002 C 
ENDROOT
BRANCH   1   2
ATOM      2  C   UNL A   1      35.522  23.123  25.049  1.00  0.00     0.021 C 
BRANCH   2   3
ATOM      3  C   UNL A   1      34.781  22.685  26.317  1.00  0.00     0.116 C 
BRANCH   3   4
ATOM      4  N   UNL A   1      33.671  21.787  26.036  1.00  0.00    -0.356 N 
ATOM      5  C   UNL A   1      32.649  21.689  25.161  1.00  0.00     0.223 C 
ATOM      6  O   UNL A   1      32.069  20.592  25.192  1.00  0.00    -0.275 OA
ATOM      7  H   UNL A   1      33.664  21.032  26.667  1.00  0.00     0.163 HD
BRANCH   5   8
ATOM      8  C   UNL A   1      32.078  22.775  24.238  1.00  0.00     0.086 C 
ATOM      9  C   UNL A   1      31.908  22.234  22.815  1.00  0.00     0.019 C 
BRANCH   8  10
ATOM     10  C   UNL A   1      31.074  23.842  24.754  1.00  0.00     0.070 C 
ATOM     11  C   UNL A   1      30.438  24.776  23.731  1.00  0.00     0.017 C 
BRANCH  10  12
ATOM     12  C   UNL A   1      31.303  24.563  26.097  1.00  0.00     0.166 C 
ATOM     13  O   UNL A   1      30.815  24.085  27.126  1.00  0.00    -0.294 OA
BRANCH  12  14
ATOM     14  C   UNL A   1      32.028  25.862  26.234  1.00  0.00     0.018 A 
ATOM     15  C   UNL A   1      34.110  29.576  26.955  1.00  0.00     0.044 C 
ATOM     16  C   UNL A   1      33.373  28.304  26.681  1.00  0.00    -0.051 A 
ATOM     17  C   UNL A   1      32.049  28.142  27.094  1.00  0.00     0.004 A 
ATOM     18  C   UNL A   1      34.012  27.247  26.036  1.00  0.00     0.004 A 
ATOM     19  C   UNL A   1      31.384  26.929  26.877  1.00  0.00     0.012 A 
ATOM     20  C   UNL A   1      33.338  26.045  25.813  1.00  0.00     0.012 A 
ENDBRANCH  12  14
ENDBRANCH  10  12
ENDBRANCH   8  10
ENDBRANCH   5   8
ENDBRANCH   3   4
ENDBRANCH   2   3
ENDBRANCH   1   2
BRANCH   1  21
ATOM     21  C   UNL A   1      37.082  20.964  25.114  1.00  0.00     0.002 C 
BRANCH  21  22
ATOM     22  C   UNL A   1      38.578  21.150  25.355  1.00  0.00     0.021 C 
BRANCH  22  23
ATOM     23  C   UNL A   1      38.939  22.417  26.128  1.00  0.00     0.116 C 
BRANCH  23  24
ATOM     24  N   UNL A   1      40.378  22.640  26.268  1.00  0.00    -0.352 N 
ATOM     25  C   UNL A   1      41.074  23.800  26.587  1.00  0.00     0.251 C 
ATOM     26  H   UNL A   1      40.939  21.846  26.111  1.00  0.00     0.163 HD
ATOM     27  O   UNL A   1      42.280  23.788  26.696  1.00  0.00    -0.269 OA
BRANCH  25  28
ATOM     28  C   UNL A   1      40.306  25.025  26.933  1.00  0.00     0.039 A 
ATOM     29  C   UNL A   1      40.588  26.194  26.215  1.00  0.00     0.014 A 
ATOM     30  C   UNL A   1      39.516  25.075  28.074  1.00  0.00     0.014 A 
ATOM     31  C   UNL A   1      40.346  27.430  26.809  1.00  0.00     0.010 A 
ATOM     32  C   UNL A   1      39.344  26.295  28.695  1.00  0.00     0.010 A 
ATOM     33  C   UNL A   1      39.858  27.456  28.112  1.00  0.00    -0.014 A 
BRANCH  33  34
ATOM     34  C   UNL A   1      40.052  28.587  29.014  1.00  0.00     0.031 A 
ATOM     35  C   UNL A   1      39.004  29.605  29.206  1.00  0.00     0.074 A 
ATOM     36  C   UNL A   1      41.165  28.608  29.783  1.00  0.00     0.049 A 
ATOM     37  N   UNL A   1      39.208  30.783  29.690  1.00  0.00    -0.248 NA
ATOM     38  C   UNL A   1      37.621  29.378  28.814  1.00  0.00     0.031 C 
ATOM     39  C   UNL A   1      41.427  29.438  30.955  1.00  0.00     0.029 A 
ATOM     40  N   UNL A   1      42.395  27.992  29.512  1.00  0.00    -0.354 N 
ATOM     41  C   UNL A   1      37.982  31.360  29.938  1.00  0.00     0.074 A 
ATOM     42  C   UNL A   1      37.036  30.481  29.291  1.00  0.00     0.031 C 
ATOM     43  C   UNL A   1      42.754  29.520  31.139  1.00  0.00     0.029 A 
ATOM     44  C   UNL A   1      43.386  28.868  30.005  1.00  0.00     0.049 A 
ATOM     45  H   UNL A   1      42.540  27.126  29.068  1.00  0.00     0.167 HD
ATOM     46  C   UNL A   1      37.916  32.436  30.779  1.00  0.00     0.037 A 
ATOM     47  C   UNL A   1      44.278  29.466  29.163  1.00  0.00     0.037 A 
ATOM     48  C   UNL A   1      39.262  32.893  31.145  1.00  0.00     0.049 A 
ATOM     49  C   UNL A   1      44.207  30.975  29.161  1.00  0.00     0.074 A 
ATOM     50  C   UNL A   1      40.046  32.708  32.273  1.00  0.00     0.029 A 
ATOM     51  N   UNL A   1      40.104  33.411  30.165  1.00  0.00    -0.354 N 
ATOM     52  N   UNL A   1      43.200  31.658  29.631  1.00  0.00    -0.248 NA
ATOM     53  C   UNL A   1      45.249  31.835  28.603  1.00  0.00     0.031 C 
ATOM     54  C   UNL A   1      41.382  33.047  31.942  1.00  0.00     0.029 A 
ATOM     55  C   UNL A   1      41.407  33.463  30.623  1.00  0.00     0.049 A 
ATOM     56  H   UNL A   1      39.813  33.700  29.271  1.00  0.00     0.167 HD
ATOM     57  C   UNL A   1      43.413  32.994  29.421  1.00  0.00     0.074 A 
ATOM     58  C   UNL A   1      44.723  33.056  28.800  1.00  0.00     0.031 C 
ATOM     59  C   UNL A   1      42.483  33.935  29.763  1.00  0.00     0.037 A 
BRANCH  46  60
ATOM     60  C   UNL A   1      36.660  32.888  31.515  1.00  0.00     0.057 A 
ATOM     61  C   UNL A   1      35.737  33.757  30.894  1.00  0.00     0.134 A 
ATOM     62  C   UNL A   1      36.331  32.583  32.848  1.00  0.00     0.134 A 
ATOM     63  F   UNL A   1      35.815  34.058  29.592  1.00  0.00    -0.206 F 
ATOM     64  C   UNL A   1      34.671  34.366  31.575  1.00  0.00     0.040 A 
ATOM     65  C   UNL A   1      35.296  33.215  33.555  1.00  0.00     0.040 A 
ATOM     66  F   UNL A   1      36.942  31.609  33.525  1.00  0.00    -0.206 F 
ATOM     67  C   UNL A   1      34.469  34.128  32.924  1.00  0.00     0.006 A 
ENDBRANCH  46  60
BRANCH  47  68
ATOM     68  C   UNL A   1      44.636  28.624  27.991  1.00  0.00     0.057 A 
ATOM     69  C   UNL A   1      45.479  27.518  28.194  1.00  0.00     0.134 A 
ATOM     70  C   UNL A   1      43.892  28.648  26.809  1.00  0.00     0.134 A 
ATOM     71  F   UNL A   1      46.220  27.431  29.311  1.00  0.00    -0.206 F 
ATOM     72  C   UNL A   1      45.498  26.431  27.317  1.00  0.00     0.040 A 
ATOM     73  C   UNL A   1      43.910  27.569  25.917  1.00  0.00     0.040 A 
ATOM     74  F   UNL A   1      43.042  29.654  26.559  1.00  0.00    -0.206 F 
ATOM     75  C   UNL A   1      44.683  26.441  26.189  1.00  0.00     0.006 A 
ENDBRANCH  47  68
BRANCH  59  76
ATOM     76  C   UNL A   1      42.531  35.395  29.388  1.00  0.00     0.057 A 
ATOM     77  C   UNL A   1      43.405  36.329  29.963  1.00  0.00     0.134 A 
ATOM     78  C   UNL A   1      41.773  35.877  28.297  1.00  0.00     0.134 A 
ATOM     79  F   UNL A   1      44.261  35.983  30.935  1.00  0.00    -0.206 F 
ATOM     80  C   UNL A   1      43.482  37.658  29.522  1.00  0.00     0.040 A 
ATOM     81  C   UNL A   1      41.880  37.184  27.815  1.00  0.00     0.040 A 
ATOM     82  F   UNL A   1      40.911  35.088  27.638  1.00  0.00    -0.206 F 
ATOM     83  C   UNL A   1      42.727  38.086  28.438  1.00  0.00     0.006 A 
ENDBRANCH  59  76
ENDBRANCH  33  34
ENDBRANCH  25  28
ENDBRANCH  23  24
ENDBRANCH  22  23
ENDBRANCH  21  22
ENDBRANCH   1  21
TORSDOF 16
ENDMDL
MODEL 3
REMARK VINA RESULT:     -11.3      1.540      2.281
REMARK SMILES Cc1ccc(C(=O)[C@@H](C)[C@H](C)C(=O)NCCCCCCNC(=O)c2ccc(-c3c4nc(c(-c5c(F)cccc5F)c5ccc([nH]5)c(-c5c(F)cccc5F)c5nc(c(-c6c(F)cccc6F)c6ccc3[nH]6)C=C5)C=C4)cc2)cc1
REMARK SMILES IDX 17 1 16 2 15 3 14 4 12 5 13 6 10 8 11 9 8 10 9 11 6 12 7 13
REMARK SMILES IDX 5 14 1 15 2 16 3 17 79 18 4 19 78 20 18 21 19 22 20 23 21 24
REMARK SMILES IDX 22 25 23 27 24 28 25 29 77 30 26 31 76 32 27 33 28 34 29 35
REMARK SMILES IDX 70 36 30 37 75 38 69 39 71 40 31 41 74 42 68 43 67 44 32 46
REMARK SMILES IDX 58 47 41 48 57 49 42 50 45 51 56 52 72 53 43 54 44 55 55 57
REMARK SMILES IDX 73 58 46 59 33 60 34 61 39 62 35 63 36 64 38 65 40 66 37 67
REMARK SMILES IDX 59 68 60 69 65 70 61 71 62 72 64 73 66 74 63 75 47 76 48 77
REMARK SMILES IDX 53 78 49 79 50 80 52 81 54 82 51 83
REMARK H PARENT 14 7 21 26 71 45 45 56
REMARK Flexibility Score: inf
ROOT
ATOM      1  C   UNL A   1      33.280  28.352  25.135  1.00  0.00     0.002 C 
ENDROOT
BRANCH   1   2
ATOM      2  C   UNL A   1      31.816  27.926  25.373  1.00  0.00     0.021 C 
BRANCH   2   3
ATOM      3  C   UNL A   1      31.473  27.236  26.697  1.00  0.00     0.116 C 
BRANCH   3   4
ATOM      4  N   UNL A   1      30.944  25.894  26.511  1.00  0.00    -0.356 N 
ATOM      5  C   UNL A   1      31.409  24.630  26.427  1.00  0.00     0.223 C 
ATOM      6  O   UNL A   1      30.517  23.767  26.477  1.00  0.00    -0.275 OA
ATOM      7  H   UNL A   1      29.965  25.913  26.420  1.00  0.00     0.163 HD
BRANCH   5   8
ATOM      8  C   UNL A   1      32.849  24.158  26.183  1.00  0.00     0.086 C 
ATOM      9  C   UNL A   1      33.183  22.964  27.084  1.00  0.00     0.019 C 
BRANCH   8  10
ATOM     10  C   UNL A   1      33.510  24.240  24.780  1.00  0.00     0.070 C 
ATOM     11  C   UNL A   1      32.737  24.942  23.668  1.00  0.00     0.017 C 
BRANCH  10  12
ATOM     12  C   UNL A   1      34.340  23.067  24.224  1.00  0.00     0.166 C 
ATOM     13  O   UNL A   1      33.832  22.315  23.387  1.00  0.00    -0.294 OA
BRANCH  12  14
ATOM     14  C   UNL A   1      35.719  22.727  24.688  1.00  0.00     0.018 A 
ATOM     15  C   UNL A   1      39.605  21.812  26.335  1.00  0.00     0.044 C 
ATOM     16  C   UNL A   1      38.273  22.142  25.739  1.00  0.00    -0.051 A 
ATOM     17  C   UNL A   1      37.768  23.443  25.796  1.00  0.00     0.004 A 
ATOM     18  C   UNL A   1      37.502  21.145  25.145  1.00  0.00     0.004 A 
ATOM     19  C   UNL A   1      36.499  23.730  25.280  1.00  0.00     0.012 A 
ATOM     20  C   UNL A   1      36.243  21.443  24.622  1.00  0.00     0.012 A 
ENDBRANCH  12  14
ENDBRANCH  10  12
ENDBRANCH   8  10
ENDBRANCH   5   8
ENDBRANCH   3   4
ENDBRANCH   2   3
ENDBRANCH   1   2
BRANCH   1  21
ATOM     21  C   UNL A   1      34.125  28.873  26.305  1.00  0.00     0.002 C 
BRANCH  21  22
ATOM     22  C   UNL A   1      33.929  30.342  26.670  1.00  0.00     0.021 C 
BRANCH  22  23
ATOM     23  C   UNL A   1      33.708  30.597  28.161  1.00  0.00     0.116 C 
BRANCH  23  24
ATOM     24  N   UNL A   1      34.581  31.625  28.725  1.00  0.00    -0.352 N 
ATOM     25  C   UNL A   1      35.909  31.544  29.129  1.00  0.00     0.251 C 
ATOM     26  H   UNL A   1      34.164  32.510  28.837  1.00  0.00     0.163 HD
ATOM     27  O   UNL A   1      36.490  32.522  29.544  1.00  0.00    -0.269 OA
BRANCH  25  28
ATOM     28  C   UNL A   1      36.649  30.274  28.909  1.00  0.00     0.039 A 
ATOM     29  C   UNL A   1      36.782  29.403  29.998  1.00  0.00     0.014 A 
ATOM     30  C   UNL A   1      37.380  30.063  27.748  1.00  0.00     0.014 A 
ATOM     31  C   UNL A   1      37.864  28.526  30.036  1.00  0.00     0.010 A 
ATOM     32  C   UNL A   1      38.493  29.251  27.816  1.00  0.00     0.010 A 
ATOM     33  C   UNL A   1      38.791  28.571  29.000  1.00  0.00    -0.014 A 
BRANCH  33  34
ATOM     34  C   UNL A   1      40.176  28.132  29.149  1.00  0.00     0.031 A 
ATOM     35  C   UNL A   1      40.631  26.834  28.620  1.00  0.00     0.074 A 
ATOM     36  C   UNL A   1      41.071  29.007  29.660  1.00  0.00     0.049 A 
ATOM     37  N   UNL A   1      41.705  26.226  28.997  1.00  0.00    -0.248 NA
ATOM     38  C   UNL A   1      39.866  26.085  27.635  1.00  0.00     0.031 C 
ATOM     39  C   UNL A   1      42.528  28.922  29.618  1.00  0.00     0.029 A 
ATOM     40  N   UNL A   1      40.811  30.079  30.525  1.00  0.00    -0.354 N 
ATOM     41  C   UNL A   1      41.927  25.177  28.133  1.00  0.00     0.074 A 
ATOM     42  C   UNL A   1      40.707  25.082  27.366  1.00  0.00     0.031 C 
ATOM     43  C   UNL A   1      43.035  29.679  30.604  1.00  0.00     0.029 A 
ATOM     44  C   UNL A   1      41.915  30.151  31.401  1.00  0.00     0.049 A 
ATOM     45  H   UNL A   1      40.020  30.665  30.521  1.00  0.00     0.167 HD
ATOM     46  C   UNL A   1      43.171  24.611  28.086  1.00  0.00     0.037 A 
ATOM     47  C   UNL A   1      41.766  29.929  32.740  1.00  0.00     0.037 A 
ATOM     48  C   UNL A   1      44.029  25.157  29.143  1.00  0.00     0.049 A 
ATOM     49  C   UNL A   1      42.560  28.755  33.262  1.00  0.00     0.074 A 
ATOM     50  C   UNL A   1      45.028  26.119  29.143  1.00  0.00     0.029 A 
ATOM     51  N   UNL A   1      43.714  24.922  30.478  1.00  0.00    -0.354 N 
ATOM     52  N   UNL A   1      43.069  27.825  32.503  1.00  0.00    -0.248 NA
ATOM     53  C   UNL A   1      42.816  28.517  34.680  1.00  0.00     0.031 C 
ATOM     54  C   UNL A   1      45.258  26.515  30.485  1.00  0.00     0.029 A 
ATOM     55  C   UNL A   1      44.420  25.778  31.302  1.00  0.00     0.049 A 
ATOM     56  H   UNL A   1      43.078  24.240  30.792  1.00  0.00     0.167 HD
ATOM     57  C   UNL A   1      43.669  26.872  33.283  1.00  0.00     0.074 A 
ATOM     58  C   UNL A   1      43.509  27.365  34.638  1.00  0.00     0.031 C 
ATOM     59  C   UNL A   1      44.232  25.749  32.746  1.00  0.00     0.037 A 
BRANCH  46  60
ATOM     60  C   UNL A   1      43.712  23.801  26.914  1.00  0.00     0.057 A 
ATOM     61  C   UNL A   1      44.441  24.430  25.881  1.00  0.00     0.134 A 
ATOM     62  C   UNL A   1      43.493  22.430  26.689  1.00  0.00     0.134 A 
ATOM     63  F   UNL A   1      44.853  25.700  25.979  1.00  0.00    -0.206 F 
ATOM     64  C   UNL A   1      44.795  23.788  24.684  1.00  0.00     0.040 A 
ATOM     65  C   UNL A   1      43.802  21.785  25.481  1.00  0.00     0.040 A 
ATOM     66  F   UNL A   1      43.033  21.618  27.643  1.00  0.00    -0.206 F 
ATOM     67  C   UNL A   1      44.440  22.468  24.461  1.00  0.00     0.006 A 
ENDBRANCH  46  60
BRANCH  47  68
ATOM     68  C   UNL A   1      40.450  30.375  33.266  1.00  0.00     0.057 A 
ATOM     69  C   UNL A   1      40.226  31.753  33.433  1.00  0.00     0.134 A 
ATOM     70  C   UNL A   1      39.324  29.548  33.238  1.00  0.00     0.134 A 
ATOM     71  F   UNL A   1      41.265  32.604  33.465  1.00  0.00    -0.206 F 
ATOM     72  C   UNL A   1      38.940  32.297  33.458  1.00  0.00     0.040 A 
ATOM     73  C   UNL A   1      38.029  30.081  33.273  1.00  0.00     0.040 A 
ATOM     74  F   UNL A   1      39.453  28.227  33.051  1.00  0.00    -0.206 F 
ATOM     75  C   UNL A   1      37.835  31.460  33.343  1.00  0.00     0.006 A 
ENDBRANCH  47  68
BRANCH  59  76
ATOM     76  C   UNL A   1      44.726  24.555  33.523  1.00  0.00     0.057 A 
ATOM     77  C   UNL A   1      46.077  24.202  33.654  1.00  0.00     0.134 A 
ATOM     78  C   UNL A   1      43.830  23.795  34.308  1.00  0.00     0.134 A 
ATOM     79  F   UNL A   1      47.047  24.905  33.053  1.00  0.00    -0.206 F 
ATOM     80  C   UNL A   1      46.501  23.138  34.462  1.00  0.00     0.040 A 
ATOM     81  C   UNL A   1      44.247  22.766  35.157  1.00  0.00     0.040 A 
ATOM     82  F   UNL A   1      42.510  24.036  34.299  1.00  0.00    -0.206 F 
ATOM     83  C   UNL A   1      45.587  22.423  35.226  1.00  0.00     0.006 A 
ENDBRANCH  59  76
ENDBRANCH  33  34
ENDBRANCH  25  28
ENDBRANCH  23  24
ENDBRANCH  22  23
ENDBRANCH  21  22
ENDBRANCH   1  21
TORSDOF 16
ENDMDL
