MODEL 1
REMARK VINA RESULT:     -12.3      0.000      0.000
REMARK SMILES Cc1nccn1CCC[NH+]1CCC2(CC1)[C@@H](C(=O)NCCCCCCNC(=O)c1ccc(-c3c4nc(c(-c5c(F)cccc5F)c5ccc([nH]5)c(-c5c(F)cccc5F)c5nc(c(-c6c(F)cccc6F)c6ccc3[nH]6)C=C5)C=C4)cc1)CC(=O)N2C
REMARK SMILES IDX 21 1 20 2 19 3 17 4 18 5 16 7 10 8 11 9 15 10 12 12 14 13
REMARK SMILES IDX 13 14 86 15 83 16 84 17 87 18 85 19 9 20 8 21 7 22 6 23 1 24
REMARK SMILES IDX 2 25 3 26 4 27 5 28 22 29 23 30 24 31 25 32 26 33 27 34
REMARK SMILES IDX 28 36 29 37 30 38 82 39 31 40 81 41 32 42 33 43 34 44 75 45
REMARK SMILES IDX 35 46 80 47 74 48 76 49 36 50 79 51 73 52 72 53 37 55 63 56
REMARK SMILES IDX 46 57 62 58 47 59 50 60 61 61 77 62 48 63 49 64 60 66 78 67
REMARK SMILES IDX 51 68 38 69 39 70 44 71 40 72 41 73 43 74 45 75 42 76 64 77
REMARK SMILES IDX 65 78 70 79 66 80 67 81 69 82 71 83 68 84 52 85 53 86 58 87
REMARK SMILES IDX 54 88 55 89 57 90 59 91 56 92
REMARK H PARENT 19 6 10 11 26 35 76 54 50 65
REMARK Flexibility Score: inf
ROOT
ATOM      1  C   UNL A   1      32.646  28.405  27.467  1.00  0.00     0.021 C 
ENDROOT
BRANCH   1   2
ATOM      2  C   UNL A   1      31.524  27.896  26.570  1.00  0.00     0.116 C 
BRANCH   2   3
ATOM      3  N   UNL A   1      31.120  26.544  26.910  1.00  0.00    -0.356 N 
ATOM      4  C   UNL A   1      31.693  25.346  26.592  1.00  0.00     0.226 C 
ATOM      5  O   UNL A   1      31.226  24.345  27.126  1.00  0.00    -0.275 OA
ATOM      6  H   UNL A   1      30.303  26.481  27.456  1.00  0.00     0.163 HD
BRANCH   4   7
ATOM      7  C   UNL A   1      32.883  25.352  25.636  1.00  0.00     0.114 C 
ATOM      8  N   UNL A   1      31.822  27.575  22.035  1.00  0.00    -0.335 N 
ATOM      9  C   UNL A   1      33.237  27.254  22.233  1.00  0.00     0.264 C 
ATOM     10  C   UNL A   1      30.995  26.393  22.298  1.00  0.00     0.264 C 
ATOM     11  H   UNL A   1      31.690  27.826  21.055  1.00  0.00     0.348 HD
ATOM     12  C   UNL A   1      33.552  26.703  23.625  1.00  0.00     0.091 C 
ATOM     13  C   UNL A   1      31.189  25.804  23.694  1.00  0.00     0.091 C 
ATOM     14  C   UNL A   1      32.652  25.516  24.088  1.00  0.00     0.065 C 
ATOM     15  N   UNL A   1      33.175  24.242  23.552  1.00  0.00    -0.339 N 
ATOM     16  C   UNL A   1      33.648  24.042  25.838  1.00  0.00     0.116 C 
ATOM     17  C   UNL A   1      33.792  23.433  24.487  1.00  0.00     0.223 C 
ATOM     18  C   UNL A   1      33.029  23.751  22.197  1.00  0.00     0.147 C 
ATOM     19  O   UNL A   1      34.358  22.377  24.275  1.00  0.00    -0.275 OA
BRANCH   8  20
ATOM     20  C   UNL A   1      31.393  28.778  22.766  1.00  0.00     0.264 C 
BRANCH  20  21
ATOM     21  C   UNL A   1      29.897  29.036  22.557  1.00  0.00     0.083 C 
BRANCH  21  22
ATOM     22  C   UNL A   1      29.381  30.367  23.118  1.00  0.00     0.129 C 
BRANCH  22  23
ATOM     23  N   UNL A   1      28.687  31.216  22.165  1.00  0.00    -0.335 N 
ATOM     24  C   UNL A   1      29.066  33.484  23.273  1.00  0.00     0.087 C 
ATOM     25  C   UNL A   1      28.572  32.592  22.192  1.00  0.00     0.105 A 
ATOM     26  N   UNL A   1      27.980  33.032  21.097  1.00  0.00    -0.242 NA
ATOM     27  C   UNL A   1      27.706  31.930  20.344  1.00  0.00     0.131 A 
ATOM     28  C   UNL A   1      28.123  30.796  20.990  1.00  0.00     0.107 A 
ENDBRANCH  22  23
ENDBRANCH  21  22
ENDBRANCH  20  21
ENDBRANCH   8  20
ENDBRANCH   4   7
ENDBRANCH   2   3
ENDBRANCH   1   2
BRANCH   1  29
ATOM     29  C   UNL A   1      33.998  28.594  26.773  1.00  0.00     0.002 C 
BRANCH  29  30
ATOM     30  C   UNL A   1      34.941  29.652  27.371  1.00  0.00     0.002 C 
BRANCH  30  31
ATOM     31  C   UNL A   1      34.392  31.077  27.525  1.00  0.00     0.021 C 
BRANCH  31  32
ATOM     32  C   UNL A   1      35.403  32.078  28.046  1.00  0.00     0.116 C 
BRANCH  32  33
ATOM     33  N   UNL A   1      35.109  32.562  29.403  1.00  0.00    -0.352 N 
ATOM     34  C   UNL A   1      35.470  31.987  30.618  1.00  0.00     0.251 C 
ATOM     35  H   UNL A   1      34.592  33.398  29.460  1.00  0.00     0.163 HD
ATOM     36  O   UNL A   1      34.892  32.257  31.658  1.00  0.00    -0.269 OA
BRANCH  34  37
ATOM     37  C   UNL A   1      36.610  31.056  30.614  1.00  0.00     0.039 A 
ATOM     38  C   UNL A   1      36.506  29.667  30.496  1.00  0.00     0.014 A 
ATOM     39  C   UNL A   1      37.849  31.668  30.650  1.00  0.00     0.014 A 
ATOM     40  C   UNL A   1      37.685  28.930  30.384  1.00  0.00     0.010 A 
ATOM     41  C   UNL A   1      38.909  31.005  30.134  1.00  0.00     0.010 A 
ATOM     42  C   UNL A   1      38.886  29.629  30.216  1.00  0.00    -0.014 A 
BRANCH  42  43
ATOM     43  C   UNL A   1      40.199  29.018  30.132  1.00  0.00     0.031 A 
ATOM     44  C   UNL A   1      40.885  28.828  31.426  1.00  0.00     0.074 A 
ATOM     45  C   UNL A   1      40.591  28.391  28.996  1.00  0.00     0.049 A 
ATOM     46  N   UNL A   1      41.961  29.405  31.837  1.00  0.00    -0.248 NA
ATOM     47  C   UNL A   1      40.222  27.996  32.443  1.00  0.00     0.031 C 
ATOM     48  C   UNL A   1      39.860  28.199  27.730  1.00  0.00     0.029 A 
ATOM     49  N   UNL A   1      41.727  27.682  28.782  1.00  0.00    -0.354 N 
ATOM     50  C   UNL A   1      42.231  28.857  33.087  1.00  0.00     0.074 A 
ATOM     51  C   UNL A   1      41.037  28.159  33.487  1.00  0.00     0.031 C 
ATOM     52  C   UNL A   1      40.469  27.249  26.988  1.00  0.00     0.029 A 
ATOM     53  C   UNL A   1      41.715  26.898  27.634  1.00  0.00     0.049 A 
ATOM     54  H   UNL A   1      42.499  27.719  29.392  1.00  0.00     0.167 HD
ATOM     55  C   UNL A   1      43.498  28.817  33.581  1.00  0.00     0.037 A 
ATOM     56  C   UNL A   1      42.665  25.996  27.284  1.00  0.00     0.037 A 
ATOM     57  C   UNL A   1      44.379  29.677  32.827  1.00  0.00     0.049 A 
ATOM     58  C   UNL A   1      43.895  26.365  28.037  1.00  0.00     0.074 A 
ATOM     59  C   UNL A   1      44.405  31.032  32.556  1.00  0.00     0.029 A 
ATOM     60  N   UNL A   1      45.180  29.096  31.872  1.00  0.00    -0.354 N 
ATOM     61  N   UNL A   1      44.543  27.484  27.843  1.00  0.00    -0.248 NA
ATOM     62  C   UNL A   1      44.085  25.755  29.347  1.00  0.00     0.031 C 
ATOM     63  C   UNL A   1      44.776  31.121  31.181  1.00  0.00     0.029 A 
ATOM     64  C   UNL A   1      45.030  29.828  30.719  1.00  0.00     0.049 A 
ATOM     65  H   UNL A   1      45.755  28.304  31.992  1.00  0.00     0.167 HD
ATOM     66  C   UNL A   1      44.888  27.929  29.114  1.00  0.00     0.074 A 
ATOM     67  C   UNL A   1      44.624  26.792  29.996  1.00  0.00     0.031 C 
ATOM     68  C   UNL A   1      45.062  29.258  29.390  1.00  0.00     0.037 A 
BRANCH  55  69
ATOM     69  C   UNL A   1      44.021  27.750  34.502  1.00  0.00     0.057 A 
ATOM     70  C   UNL A   1      43.949  26.404  34.104  1.00  0.00     0.134 A 
ATOM     71  C   UNL A   1      44.334  27.958  35.861  1.00  0.00     0.134 A 
ATOM     72  F   UNL A   1      43.647  26.077  32.838  1.00  0.00    -0.206 F 
ATOM     73  C   UNL A   1      44.104  25.346  35.007  1.00  0.00     0.040 A 
ATOM     74  C   UNL A   1      44.546  26.909  36.759  1.00  0.00     0.040 A 
ATOM     75  F   UNL A   1      44.352  29.175  36.417  1.00  0.00    -0.206 F 
ATOM     76  C   UNL A   1      44.397  25.598  36.342  1.00  0.00     0.006 A 
ENDBRANCH  55  69
BRANCH  56  77
ATOM     77  C   UNL A   1      42.443  24.669  26.660  1.00  0.00     0.057 A 
ATOM     78  C   UNL A   1      43.098  24.288  25.481  1.00  0.00     0.134 A 
ATOM     79  C   UNL A   1      41.764  23.641  27.342  1.00  0.00     0.134 A 
ATOM     80  F   UNL A   1      43.813  25.182  24.784  1.00  0.00    -0.206 F 
ATOM     81  C   UNL A   1      43.083  22.964  25.015  1.00  0.00     0.040 A 
ATOM     82  C   UNL A   1      41.738  22.319  26.887  1.00  0.00     0.040 A 
ATOM     83  F   UNL A   1      41.170  23.868  28.525  1.00  0.00    -0.206 F 
ATOM     84  C   UNL A   1      42.409  21.974  25.722  1.00  0.00     0.006 A 
ENDBRANCH  56  77
BRANCH  68  85
ATOM     85  C   UNL A   1      45.027  30.238  28.243  1.00  0.00     0.057 A 
ATOM     86  C   UNL A   1      43.883  30.961  27.869  1.00  0.00     0.134 A 
ATOM     87  C   UNL A   1      46.227  30.613  27.631  1.00  0.00     0.134 A 
ATOM     88  F   UNL A   1      42.708  30.751  28.467  1.00  0.00    -0.206 F 
ATOM     89  C   UNL A   1      43.921  31.984  26.915  1.00  0.00     0.040 A 
ATOM     90  C   UNL A   1      46.287  31.653  26.697  1.00  0.00     0.040 A 
ATOM     91  F   UNL A   1      47.377  30.016  27.980  1.00  0.00    -0.206 F 
ATOM     92  C   UNL A   1      45.131  32.339  26.331  1.00  0.00     0.006 A 
ENDBRANCH  68  85
ENDBRANCH  42  43
ENDBRANCH  34  37
ENDBRANCH  32  33
ENDBRANCH  31  32
ENDBRANCH  30  31
ENDBRANCH  29  30
ENDBRANCH   1  29
TORSDOF 17
ENDMDL
MODEL 2
REMARK VINA RESULT:     -12.3      2.556      6.277
REMARK SMILES Cc1nccn1CCC[NH+]1CCC2(CC1)[C@@H](C(=O)NCCCCCCNC(=O)c1ccc(-c3c4nc(c(-c5c(F)cccc5F)c5ccc([nH]5)c(-c5c(F)cccc5F)c5nc(c(-c6c(F)cccc6F)c6ccc3[nH]6)C=C5)C=C4)cc1)CC(=O)N2C
REMARK SMILES IDX 21 1 20 2 19 3 17 4 18 5 16 7 10 8 11 9 15 10 12 12 14 13
REMARK SMILES IDX 13 14 86 15 83 16 84 17 87 18 85 19 9 20 8 21 7 22 6 23 1 24
REMARK SMILES IDX 2 25 3 26 4 27 5 28 22 29 23 30 24 31 25 32 26 33 27 34
REMARK SMILES IDX 28 36 29 37 30 38 82 39 31 40 81 41 32 42 33 43 34 44 75 45
REMARK SMILES IDX 35 46 80 47 74 48 76 49 36 50 79 51 73 52 72 53 37 55 63 56
REMARK SMILES IDX 46 57 62 58 47 59 50 60 61 61 77 62 48 63 49 64 60 66 78 67
REMARK SMILES IDX 51 68 38 69 39 70 44 71 40 72 41 73 43 74 45 75 42 76 64 77
REMARK SMILES IDX 65 78 70 79 66 80 67 81 69 82 71 83 68 84 52 85 53 86 58 87
REMARK SMILES IDX 54 88 55 89 57 90 59 91 56 92
REMARK H PARENT 19 6 10 11 26 35 76 54 50 65
REMARK Flexibility Score: inf
ROOT
ATOM      1  C   UNL A   1      31.461  28.536  27.509  1.00  0.00     0.021 C 
ENDROOT
BRANCH   1   2
ATOM      2  C   UNL A   1      31.394  27.558  26.341  1.00  0.00     0.116 C 
BRANCH   2   3
ATOM      3  N   UNL A   1      31.118  26.201  26.776  1.00  0.00    -0.356 N 
ATOM      4  C   UNL A   1      31.806  25.045  26.545  1.00  0.00     0.226 C 
ATOM      5  O   UNL A   1      31.431  24.044  27.149  1.00  0.00    -0.275 OA
ATOM      6  H   UNL A   1      30.307  26.099  27.324  1.00  0.00     0.163 HD
BRANCH   4   7
ATOM      7  C   UNL A   1      32.997  25.096  25.593  1.00  0.00     0.114 C 
ATOM      8  N   UNL A   1      31.905  27.390  22.047  1.00  0.00    -0.335 N 
ATOM      9  C   UNL A   1      33.325  27.089  22.241  1.00  0.00     0.264 C 
ATOM     10  C   UNL A   1      31.098  26.187  22.277  1.00  0.00     0.264 C 
ATOM     11  H   UNL A   1      31.770  27.663  21.073  1.00  0.00     0.348 HD
ATOM     12  C   UNL A   1      33.646  26.509  23.619  1.00  0.00     0.091 C 
ATOM     13  C   UNL A   1      31.300  25.567  23.658  1.00  0.00     0.091 C 
ATOM     14  C   UNL A   1      32.767  25.295  24.049  1.00  0.00     0.065 C 
ATOM     15  N   UNL A   1      33.314  24.044  23.483  1.00  0.00    -0.339 N 
ATOM     16  C   UNL A   1      33.786  23.796  25.765  1.00  0.00     0.116 C 
ATOM     17  C   UNL A   1      33.944  23.224  24.398  1.00  0.00     0.223 C 
ATOM     18  C   UNL A   1      33.181  23.585  22.116  1.00  0.00     0.147 C 
ATOM     19  O   UNL A   1      34.530  22.184  24.161  1.00  0.00    -0.275 OA
BRANCH   8  20
ATOM     20  C   UNL A   1      31.452  28.565  22.806  1.00  0.00     0.264 C 
BRANCH  20  21
ATOM     21  C   UNL A   1      30.096  29.059  22.289  1.00  0.00     0.083 C 
BRANCH  21  22
ATOM     22  C   UNL A   1      29.567  30.332  22.960  1.00  0.00     0.129 C 
BRANCH  22  23
ATOM     23  N   UNL A   1      28.788  31.209  22.101  1.00  0.00    -0.335 N 
ATOM     24  C   UNL A   1      29.201  33.430  23.290  1.00  0.00     0.087 C 
ATOM     25  C   UNL A   1      28.648  32.579  22.205  1.00  0.00     0.105 A 
ATOM     26  N   UNL A   1      27.970  33.056  21.177  1.00  0.00    -0.242 NA
ATOM     27  C   UNL A   1      27.664  31.985  20.393  1.00  0.00     0.131 A 
ATOM     28  C   UNL A   1      28.149  30.832  20.950  1.00  0.00     0.107 A 
ENDBRANCH  22  23
ENDBRANCH  21  22
ENDBRANCH  20  21
ENDBRANCH   8  20
ENDBRANCH   4   7
ENDBRANCH   2   3
ENDBRANCH   1   2
BRANCH   1  29
ATOM     29  C   UNL A   1      32.141  29.873  27.198  1.00  0.00     0.002 C 
BRANCH  29  30
ATOM     30  C   UNL A   1      31.431  30.790  26.187  1.00  0.00     0.002 C 
BRANCH  30  31
ATOM     31  C   UNL A   1      31.336  32.282  26.535  1.00  0.00     0.021 C 
BRANCH  31  32
ATOM     32  C   UNL A   1      32.545  32.827  27.267  1.00  0.00     0.116 C 
BRANCH  32  33
ATOM     33  N   UNL A   1      32.409  34.235  27.668  1.00  0.00    -0.352 N 
ATOM     34  C   UNL A   1      33.051  34.899  28.709  1.00  0.00     0.251 C 
ATOM     35  H   UNL A   1      31.783  34.776  27.133  1.00  0.00     0.163 HD
ATOM     36  O   UNL A   1      32.618  35.939  29.176  1.00  0.00    -0.269 OA
BRANCH  34  37
ATOM     37  C   UNL A   1      34.306  34.316  29.211  1.00  0.00     0.039 A 
ATOM     38  C   UNL A   1      34.459  33.705  30.459  1.00  0.00     0.014 A 
ATOM     39  C   UNL A   1      35.349  34.334  28.303  1.00  0.00     0.014 A 
ATOM     40  C   UNL A   1      35.679  33.090  30.740  1.00  0.00     0.010 A 
ATOM     41  C   UNL A   1      36.324  33.405  28.427  1.00  0.00     0.010 A 
ATOM     42  C   UNL A   1      36.609  32.963  29.701  1.00  0.00    -0.014 A 
BRANCH  42  43
ATOM     43  C   UNL A   1      37.936  32.395  29.839  1.00  0.00     0.031 A 
ATOM     44  C   UNL A   1      38.073  31.002  29.366  1.00  0.00     0.074 A 
ATOM     45  C   UNL A   1      39.004  33.196  30.075  1.00  0.00     0.049 A 
ATOM     46  N   UNL A   1      38.323  29.953  30.072  1.00  0.00    -0.248 NA
ATOM     47  C   UNL A   1      37.760  30.717  27.957  1.00  0.00     0.031 C 
ATOM     48  C   UNL A   1      39.062  34.662  30.221  1.00  0.00     0.029 A 
ATOM     49  N   UNL A   1      40.314  32.850  30.123  1.00  0.00    -0.354 N 
ATOM     50  C   UNL A   1      38.405  28.900  29.169  1.00  0.00     0.074 A 
ATOM     51  C   UNL A   1      37.857  29.387  27.930  1.00  0.00     0.031 C 
ATOM     52  C   UNL A   1      40.341  35.084  30.114  1.00  0.00     0.029 A 
ATOM     53  C   UNL A   1      41.200  33.921  30.070  1.00  0.00     0.049 A 
ATOM     54  H   UNL A   1      40.614  31.915  30.190  1.00  0.00     0.167 HD
ATOM     55  C   UNL A   1      39.141  27.789  29.446  1.00  0.00     0.037 A 
ATOM     56  C   UNL A   1      42.548  33.825  29.957  1.00  0.00     0.037 A 
ATOM     57  C   UNL A   1      39.496  27.733  30.843  1.00  0.00     0.049 A 
ATOM     58  C   UNL A   1      42.913  32.453  30.406  1.00  0.00     0.074 A 
ATOM     59  C   UNL A   1      38.773  27.687  32.021  1.00  0.00     0.029 A 
ATOM     60  N   UNL A   1      40.757  28.148  31.203  1.00  0.00    -0.354 N 
ATOM     61  N   UNL A   1      42.743  32.034  31.633  1.00  0.00    -0.248 NA
ATOM     62  C   UNL A   1      42.956  31.408  29.392  1.00  0.00     0.031 C 
ATOM     63  C   UNL A   1      39.468  28.561  32.910  1.00  0.00     0.029 A 
ATOM     64  C   UNL A   1      40.610  29.023  32.252  1.00  0.00     0.049 A 
ATOM     65  H   UNL A   1      41.606  27.870  30.787  1.00  0.00     0.167 HD
ATOM     66  C   UNL A   1      42.257  30.738  31.511  1.00  0.00     0.074 A 
ATOM     67  C   UNL A   1      42.460  30.390  30.104  1.00  0.00     0.031 C 
ATOM     68  C   UNL A   1      41.459  30.174  32.469  1.00  0.00     0.037 A 
BRANCH  55  69
ATOM     69  C   UNL A   1      39.839  26.948  28.412  1.00  0.00     0.057 A 
ATOM     70  C   UNL A   1      39.655  25.555  28.424  1.00  0.00     0.134 A 
ATOM     71  C   UNL A   1      40.888  27.409  27.590  1.00  0.00     0.134 A 
ATOM     72  F   UNL A   1      38.696  24.994  29.176  1.00  0.00    -0.206 F 
ATOM     73  C   UNL A   1      40.499  24.682  27.727  1.00  0.00     0.040 A 
ATOM     74  C   UNL A   1      41.701  26.550  26.847  1.00  0.00     0.040 A 
ATOM     75  F   UNL A   1      41.249  28.697  27.539  1.00  0.00    -0.206 F 
ATOM     76  C   UNL A   1      41.530  25.180  26.940  1.00  0.00     0.006 A 
ENDBRANCH  55  69
BRANCH  56  77
ATOM     77  C   UNL A   1      43.435  34.695  29.148  1.00  0.00     0.057 A 
ATOM     78  C   UNL A   1      43.618  34.490  27.774  1.00  0.00     0.134 A 
ATOM     79  C   UNL A   1      43.938  35.908  29.659  1.00  0.00     0.134 A 
ATOM     80  F   UNL A   1      43.133  33.389  27.183  1.00  0.00    -0.206 F 
ATOM     81  C   UNL A   1      44.257  35.437  26.958  1.00  0.00     0.040 A 
ATOM     82  C   UNL A   1      44.580  36.858  28.857  1.00  0.00     0.040 A 
ATOM     83  F   UNL A   1      43.748  36.252  30.942  1.00  0.00    -0.206 F 
ATOM     84  C   UNL A   1      44.732  36.628  27.497  1.00  0.00     0.006 A 
ENDBRANCH  56  77
BRANCH  68  85
ATOM     85  C   UNL A   1      41.238  30.933  33.754  1.00  0.00     0.057 A 
ATOM     86  C   UNL A   1      40.144  31.783  33.980  1.00  0.00     0.134 A 
ATOM     87  C   UNL A   1      42.037  30.642  34.863  1.00  0.00     0.134 A 
ATOM     88  F   UNL A   1      39.260  32.042  33.014  1.00  0.00    -0.206 F 
ATOM     89  C   UNL A   1      39.873  32.339  35.236  1.00  0.00     0.040 A 
ATOM     90  C   UNL A   1      41.763  31.166  36.131  1.00  0.00     0.040 A 
ATOM     91  F   UNL A   1      43.065  29.787  34.747  1.00  0.00    -0.206 F 
ATOM     92  C   UNL A   1      40.682  32.023  36.320  1.00  0.00     0.006 A 
ENDBRANCH  68  85
ENDBRANCH  42  43
ENDBRANCH  34  37
ENDBRANCH  32  33
ENDBRANCH  31  32
ENDBRANCH  30  31
ENDBRANCH  29  30
ENDBRANCH   1  29
TORSDOF 17
ENDMDL
MODEL 3
REMARK VINA RESULT:     -12.2      3.565      9.246
REMARK SMILES Cc1nccn1CCC[NH+]1CCC2(CC1)[C@@H](C(=O)NCCCCCCNC(=O)c1ccc(-c3c4nc(c(-c5c(F)cccc5F)c5ccc([nH]5)c(-c5c(F)cccc5F)c5nc(c(-c6c(F)cccc6F)c6ccc3[nH]6)C=C5)C=C4)cc1)CC(=O)N2C
REMARK SMILES IDX 21 1 20 2 19 3 17 4 18 5 16 7 10 8 11 9 15 10 12 12 14 13
REMARK SMILES IDX 13 14 86 15 83 16 84 17 87 18 85 19 9 20 8 21 7 22 6 23 1 24
REMARK SMILES IDX 2 25 3 26 4 27 5 28 22 29 23 30 24 31 25 32 26 33 27 34
REMARK SMILES IDX 28 36 29 37 30 38 82 39 31 40 81 41 32 42 33 43 34 44 75 45
REMARK SMILES IDX 35 46 80 47 74 48 76 49 36 50 79 51 73 52 72 53 37 55 63 56
REMARK SMILES IDX 46 57 62 58 47 59 50 60 61 61 77 62 48 63 49 64 60 66 78 67
REMARK SMILES IDX 51 68 38 69 39 70 44 71 40 72 41 73 43 74 45 75 42 76 64 77
REMARK SMILES IDX 65 78 70 79 66 80 67 81 69 82 71 83 68 84 52 85 53 86 58 87
REMARK SMILES IDX 54 88 55 89 57 90 59 91 56 92
REMARK H PARENT 19 6 10 11 26 35 76 54 50 65
REMARK Flexibility Score: inf
ROOT
ATOM      1  C   UNL A   1      39.041  22.307  26.488  1.00  0.00     0.021 C 
ENDROOT
BRANCH   1   2
ATOM      2  C   UNL A   1      37.941  21.619  25.688  1.00  0.00     0.116 C 
BRANCH   2   3
ATOM      3  N   UNL A   1      37.668  22.297  24.434  1.00  0.00    -0.356 N 
ATOM      4  C   UNL A   1      36.626  23.103  24.077  1.00  0.00     0.226 C 
ATOM      5  O   UNL A   1      36.705  23.668  22.991  1.00  0.00    -0.275 OA
ATOM      6  H   UNL A   1      38.341  22.153  23.730  1.00  0.00     0.163 HD
BRANCH   4   7
ATOM      7  C   UNL A   1      35.473  23.265  25.065  1.00  0.00     0.114 C 
ATOM      8  N   UNL A   1      32.073  20.892  23.709  1.00  0.00    -0.335 N 
ATOM      9  C   UNL A   1      32.023  21.417  25.075  1.00  0.00     0.264 C 
ATOM     10  C   UNL A   1      32.503  21.942  22.780  1.00  0.00     0.264 C 
ATOM     11  H   UNL A   1      31.127  20.620  23.441  1.00  0.00     0.348 HD
ATOM     12  C   UNL A   1      33.348  22.015  25.551  1.00  0.00     0.091 C 
ATOM     13  C   UNL A   1      33.854  22.561  23.134  1.00  0.00     0.091 C 
ATOM     14  C   UNL A   1      33.988  23.061  24.587  1.00  0.00     0.065 C 
ATOM     15  N   UNL A   1      33.394  24.395  24.816  1.00  0.00    -0.339 N 
ATOM     16  C   UNL A   1      35.564  24.673  25.657  1.00  0.00     0.116 C 
ATOM     17  C   UNL A   1      34.221  25.290  25.467  1.00  0.00     0.223 C 
ATOM     18  C   UNL A   1      32.098  24.852  24.361  1.00  0.00     0.147 C 
ATOM     19  O   UNL A   1      33.934  26.416  25.828  1.00  0.00    -0.275 OA
BRANCH   8  20
ATOM     20  C   UNL A   1      32.843  19.644  23.595  1.00  0.00     0.264 C 
BRANCH  20  21
ATOM     21  C   UNL A   1      32.027  18.452  24.109  1.00  0.00     0.083 C 
BRANCH  21  22
ATOM     22  C   UNL A   1      32.490  17.877  25.452  1.00  0.00     0.129 C 
BRANCH  22  23
ATOM     23  N   UNL A   1      32.875  16.475  25.428  1.00  0.00    -0.335 N 
ATOM     24  C   UNL A   1      35.342  16.731  24.826  1.00  0.00     0.087 C 
ATOM     25  C   UNL A   1      34.132  15.953  25.196  1.00  0.00     0.105 A 
ATOM     26  N   UNL A   1      34.133  14.645  25.378  1.00  0.00    -0.242 NA
ATOM     27  C   UNL A   1      32.862  14.309  25.733  1.00  0.00     0.131 A 
ATOM     28  C   UNL A   1      32.064  15.423  25.759  1.00  0.00     0.107 A 
ENDBRANCH  22  23
ENDBRANCH  21  22
ENDBRANCH  20  21
ENDBRANCH   8  20
ENDBRANCH   4   7
ENDBRANCH   2   3
ENDBRANCH   1   2
BRANCH   1  29
ATOM     29  C   UNL A   1      40.457  21.782  26.232  1.00  0.00     0.002 C 
BRANCH  29  30
ATOM     30  C   UNL A   1      41.187  21.151  27.429  1.00  0.00     0.002 C 
BRANCH  30  31
ATOM     31  C   UNL A   1      42.249  20.085  27.124  1.00  0.00     0.021 C 
BRANCH  31  32
ATOM     32  C   UNL A   1      42.371  19.734  25.656  1.00  0.00     0.116 C 
BRANCH  32  33
ATOM     33  N   UNL A   1      43.761  19.591  25.196  1.00  0.00    -0.352 N 
ATOM     34  C   UNL A   1      44.637  20.589  24.783  1.00  0.00     0.251 C 
ATOM     35  H   UNL A   1      44.116  18.672  25.177  1.00  0.00     0.163 HD
ATOM     36  O   UNL A   1      45.617  20.347  24.099  1.00  0.00    -0.269 OA
BRANCH  34  37
ATOM     37  C   UNL A   1      44.358  21.963  25.233  1.00  0.00     0.039 A 
ATOM     38  C   UNL A   1      43.489  22.852  24.593  1.00  0.00     0.014 A 
ATOM     39  C   UNL A   1      44.968  22.309  26.425  1.00  0.00     0.014 A 
ATOM     40  C   UNL A   1      43.235  24.076  25.212  1.00  0.00     0.010 A 
ATOM     41  C   UNL A   1      44.399  23.277  27.180  1.00  0.00     0.010 A 
ATOM     42  C   UNL A   1      43.717  24.272  26.512  1.00  0.00    -0.014 A 
BRANCH  42  43
ATOM     43  C   UNL A   1      43.581  25.498  27.273  1.00  0.00     0.031 A 
ATOM     44  C   UNL A   1      44.568  26.549  26.950  1.00  0.00     0.074 A 
ATOM     45  C   UNL A   1      42.446  25.750  27.970  1.00  0.00     0.049 A 
ATOM     46  N   UNL A   1      45.497  27.015  27.711  1.00  0.00    -0.248 NA
ATOM     47  C   UNL A   1      44.617  27.048  25.566  1.00  0.00     0.031 C 
ATOM     48  C   UNL A   1      41.224  24.935  28.097  1.00  0.00     0.029 A 
ATOM     49  N   UNL A   1      42.110  26.879  28.641  1.00  0.00    -0.354 N 
ATOM     50  C   UNL A   1      46.122  28.017  26.976  1.00  0.00     0.074 A 
ATOM     51  C   UNL A   1      45.678  27.854  25.616  1.00  0.00     0.031 C 
ATOM     52  C   UNL A   1      40.221  25.687  28.600  1.00  0.00     0.029 A 
ATOM     53  C   UNL A   1      40.767  26.968  28.992  1.00  0.00     0.049 A 
ATOM     54  H   UNL A   1      42.765  27.581  28.861  1.00  0.00     0.167 HD
ATOM     55  C   UNL A   1      46.762  29.048  27.591  1.00  0.00     0.037 A 
ATOM     56  C   UNL A   1      40.163  28.055  29.534  1.00  0.00     0.037 A 
ATOM     57  C   UNL A   1      46.976  28.769  28.991  1.00  0.00     0.049 A 
ATOM     58  C   UNL A   1      41.246  28.886  30.130  1.00  0.00     0.074 A 
ATOM     59  C   UNL A   1      47.653  27.784  29.686  1.00  0.00     0.029 A 
ATOM     60  N   UNL A   1      46.101  29.322  29.897  1.00  0.00    -0.354 N 
ATOM     61  N   UNL A   1      41.978  28.490  31.138  1.00  0.00    -0.248 NA
ATOM     62  C   UNL A   1      41.855  29.900  29.279  1.00  0.00     0.031 C 
ATOM     63  C   UNL A   1      46.797  27.456  30.780  1.00  0.00     0.029 A 
ATOM     64  C   UNL A   1      45.693  28.311  30.733  1.00  0.00     0.049 A 
ATOM     65  H   UNL A   1      45.819  30.265  29.938  1.00  0.00     0.167 HD
ATOM     66  C   UNL A   1      43.272  28.888  30.827  1.00  0.00     0.074 A 
ATOM     67  C   UNL A   1      43.123  29.800  29.692  1.00  0.00     0.031 C 
ATOM     68  C   UNL A   1      44.367  28.218  31.303  1.00  0.00     0.037 A 
BRANCH  55  69
ATOM     69  C   UNL A   1      46.877  30.438  27.029  1.00  0.00     0.057 A 
ATOM     70  C   UNL A   1      48.123  31.087  27.053  1.00  0.00     0.134 A 
ATOM     71  C   UNL A   1      45.775  31.264  26.723  1.00  0.00     0.134 A 
ATOM     72  F   UNL A   1      49.245  30.411  27.343  1.00  0.00    -0.206 F 
ATOM     73  C   UNL A   1      48.253  32.467  26.858  1.00  0.00     0.040 A 
ATOM     74  C   UNL A   1      45.901  32.632  26.473  1.00  0.00     0.040 A 
ATOM     75  F   UNL A   1      44.514  30.819  26.750  1.00  0.00    -0.206 F 
ATOM     76  C   UNL A   1      47.138  33.246  26.574  1.00  0.00     0.006 A 
ENDBRANCH  55  69
BRANCH  56  77
ATOM     77  C   UNL A   1      38.805  28.562  29.224  1.00  0.00     0.057 A 
ATOM     78  C   UNL A   1      37.824  28.700  30.215  1.00  0.00     0.134 A 
ATOM     79  C   UNL A   1      38.510  29.160  27.983  1.00  0.00     0.134 A 
ATOM     80  F   UNL A   1      38.029  28.208  31.445  1.00  0.00    -0.206 F 
ATOM     81  C   UNL A   1      36.626  29.396  29.987  1.00  0.00     0.040 A 
ATOM     82  C   UNL A   1      37.319  29.853  27.741  1.00  0.00     0.040 A 
ATOM     83  F   UNL A   1      39.408  29.165  26.985  1.00  0.00    -0.206 F 
ATOM     84  C   UNL A   1      36.375  29.982  28.750  1.00  0.00     0.006 A 
ENDBRANCH  56  77
BRANCH  68  85
ATOM     85  C   UNL A   1      44.150  27.120  32.314  1.00  0.00     0.057 A 
ATOM     86  C   UNL A   1      44.124  25.755  31.989  1.00  0.00     0.134 A 
ATOM     87  C   UNL A   1      44.172  27.434  33.676  1.00  0.00     0.134 A 
ATOM     88  F   UNL A   1      44.204  25.345  30.721  1.00  0.00    -0.206 F 
ATOM     89  C   UNL A   1      44.091  24.752  32.965  1.00  0.00     0.040 A 
ATOM     90  C   UNL A   1      44.170  26.443  34.664  1.00  0.00     0.040 A 
ATOM     91  F   UNL A   1      44.263  28.713  34.072  1.00  0.00    -0.206 F 
ATOM     92  C   UNL A   1      44.123  25.097  34.311  1.00  0.00     0.006 A 
ENDBRANCH  68  85
ENDBRANCH  42  43
ENDBRANCH  34  37
ENDBRANCH  32  33
ENDBRANCH  31  32
ENDBRANCH  30  31
ENDBRANCH  29  30
ENDBRANCH   1  29
TORSDOF 17
ENDMDL
