MODEL 1
REMARK VINA RESULT:     -12.2      0.000      0.000
REMARK SMILES O=C1NC(=O)/C(=C/c2ccc(OCc3cn(-c4ccc(C(=O)NCCCCCCNC(=O)c5ccc(-c6c7nc(c(-c8c(F)cccc8F)c8ccc([nH]8)c(-c8c(F)cccc8F)c8nc(c(-c9c(F)cccc9F)c9ccc6[nH]9)C=C8)C=C7)cc5)cc4)nn3)cc2)S1
REMARK SMILES IDX 25 1 24 2 23 3 21 4 22 5 20 7 17 8 18 9 88 10 19 11 87 12
REMARK SMILES IDX 16 13 14 14 15 15 90 16 89 17 13 18 12 19 11 20 8 21 9 22
REMARK SMILES IDX 92 23 10 24 91 25 7 26 1 27 2 28 3 29 93 30 4 31 6 33 5 34
REMARK SMILES IDX 26 35 27 36 28 37 29 38 30 39 31 40 32 42 33 43 34 44 86 45
REMARK SMILES IDX 35 46 85 47 36 48 37 49 38 50 79 51 39 52 84 53 78 54 80 55
REMARK SMILES IDX 40 56 83 57 77 58 76 59 41 61 67 62 50 63 66 64 51 65 54 66
REMARK SMILES IDX 65 67 81 68 52 69 53 70 64 72 82 73 55 74 42 75 43 76 48 77
REMARK SMILES IDX 44 78 45 79 47 80 49 81 46 82 68 83 69 84 74 85 70 86 71 87
REMARK SMILES IDX 73 88 75 89 72 90 56 91 57 92 62 93 58 94 59 95 61 96 63 97
REMARK SMILES IDX 60 98
REMARK H PARENT 23 6 3 32 30 41 80 60 54 71
REMARK Flexibility Score: inf
ROOT
ATOM      1  C   UNL A   1      39.445  21.883  25.868  1.00  0.00     0.021 C 
ENDROOT
BRANCH   1   2
ATOM      2  C   UNL A   1      38.000  22.382  25.928  1.00  0.00     0.116 C 
BRANCH   2   3
ATOM      3  N   UNL A   1      37.113  21.356  25.423  1.00  0.00    -0.352 N 
ATOM      4  C   UNL A   1      35.753  21.278  25.297  1.00  0.00     0.251 C 
ATOM      5  O   UNL A   1      35.282  20.218  24.885  1.00  0.00    -0.269 OA
ATOM      6  H   UNL A   1      37.584  20.551  25.104  1.00  0.00     0.163 HD
BRANCH   4   7
ATOM      7  C   UNL A   1      34.844  22.431  25.543  1.00  0.00     0.039 A 
ATOM      8  C   UNL A   1      33.395  24.732  26.205  1.00  0.00     0.066 A 
ATOM      9  C   UNL A   1      34.614  24.851  25.528  1.00  0.00     0.029 A 
ATOM     10  C   UNL A   1      32.856  23.476  26.477  1.00  0.00     0.029 A 
ATOM     11  C   UNL A   1      35.350  23.703  25.236  1.00  0.00     0.016 A 
ATOM     12  C   UNL A   1      33.552  22.335  26.071  1.00  0.00     0.016 A 
BRANCH   8  13
ATOM     13  N   UNL A   1      32.699  25.896  26.576  1.00  0.00    -0.220 N 
ATOM     14  C   UNL A   1      32.082  27.916  27.110  1.00  0.00     0.120 A 
ATOM     15  C   UNL A   1      33.165  27.188  26.664  1.00  0.00     0.144 A 
ATOM     16  N   UNL A   1      31.015  27.067  27.236  1.00  0.00    -0.131 NA
ATOM     17  N   UNL A   1      31.387  25.856  26.875  1.00  0.00    -0.062 NA
BRANCH  14  18
ATOM     18  C   UNL A   1      31.907  29.383  27.333  1.00  0.00     0.289 C 
BRANCH  18  19
ATOM     19  O   UNL A   1      31.817  30.187  26.143  1.00  0.00    -0.487 OA
BRANCH  19  20
ATOM     20  C   UNL A   1      32.062  29.597  24.932  1.00  0.00     0.119 A 
ATOM     21  C   UNL A   1      32.337  28.049  22.601  1.00  0.00    -0.024 A 
ATOM     22  C   UNL A   1      31.067  28.338  23.106  1.00  0.00     0.012 A 
ATOM     23  C   UNL A   1      33.455  28.624  23.209  1.00  0.00     0.012 A 
ATOM     24  C   UNL A   1      30.934  29.101  24.273  1.00  0.00     0.047 A 
ATOM     25  C   UNL A   1      33.312  29.422  24.345  1.00  0.00     0.047 A 
BRANCH  21  26
ATOM     26  C   UNL A   1      32.505  27.178  21.436  1.00  0.00     0.029 C 
ATOM     27  O   UNL A   1      32.915  22.230  22.322  1.00  0.00    -0.261 OA
ATOM     28  C   UNL A   1      32.854  23.375  21.875  1.00  0.00     0.290 C 
ATOM     29  N   UNL A   1      33.009  23.724  20.579  1.00  0.00    -0.282 N 
ATOM     30  S   UNL A   1      32.540  24.795  22.846  1.00  0.00    -0.022 SA
ATOM     31  C   UNL A   1      32.888  25.043  20.251  1.00  0.00     0.265 C 
ATOM     32  H   UNL A   1      33.203  23.047  19.892  1.00  0.00     0.174 HD
ATOM     33  C   UNL A   1      32.626  25.842  21.477  1.00  0.00     0.083 C 
ATOM     34  O   UNL A   1      32.994  25.491  19.124  1.00  0.00    -0.268 OA
ENDBRANCH  21  26
ENDBRANCH  19  20
ENDBRANCH  18  19
ENDBRANCH  14  18
ENDBRANCH   8  13
ENDBRANCH   4   7
ENDBRANCH   2   3
ENDBRANCH   1   2
BRANCH   1  35
ATOM     35  C   UNL A   1      40.193  22.087  27.192  1.00  0.00     0.002 C 
BRANCH  35  36
ATOM     36  C   UNL A   1      41.152  20.947  27.578  1.00  0.00     0.002 C 
BRANCH  36  37
ATOM     37  C   UNL A   1      41.729  20.126  26.413  1.00  0.00     0.021 C 
BRANCH  37  38
ATOM     38  C   UNL A   1      43.074  19.497  26.736  1.00  0.00     0.116 C 
BRANCH  38  39
ATOM     39  N   UNL A   1      44.022  19.634  25.622  1.00  0.00    -0.352 N 
ATOM     40  C   UNL A   1      44.322  20.738  24.844  1.00  0.00     0.251 C 
ATOM     41  H   UNL A   1      44.520  18.816  25.394  1.00  0.00     0.163 HD
ATOM     42  O   UNL A   1      44.838  20.614  23.741  1.00  0.00    -0.269 OA
BRANCH  40  43
ATOM     43  C   UNL A   1      44.034  22.076  25.383  1.00  0.00     0.039 A 
ATOM     44  C   UNL A   1      43.107  22.957  24.816  1.00  0.00     0.014 A 
ATOM     45  C   UNL A   1      44.721  22.425  26.533  1.00  0.00     0.014 A 
ATOM     46  C   UNL A   1      42.901  24.188  25.438  1.00  0.00     0.010 A 
ATOM     47  C   UNL A   1      44.240  23.425  27.310  1.00  0.00     0.010 A 
ATOM     48  C   UNL A   1      43.502  24.409  26.682  1.00  0.00    -0.014 A 
BRANCH  48  49
ATOM     49  C   UNL A   1      43.377  25.633  27.447  1.00  0.00     0.031 A 
ATOM     50  C   UNL A   1      44.356  26.665  27.053  1.00  0.00     0.074 A 
ATOM     51  C   UNL A   1      42.264  25.899  28.170  1.00  0.00     0.049 A 
ATOM     52  N   UNL A   1      45.391  27.051  27.717  1.00  0.00    -0.248 NA
ATOM     53  C   UNL A   1      44.305  27.179  25.673  1.00  0.00     0.031 C 
ATOM     54  C   UNL A   1      41.040  25.094  28.308  1.00  0.00     0.029 A 
ATOM     55  N   UNL A   1      41.941  27.039  28.838  1.00  0.00    -0.354 N 
ATOM     56  C   UNL A   1      45.971  28.048  26.942  1.00  0.00     0.074 A 
ATOM     57  C   UNL A   1      45.441  27.875  25.617  1.00  0.00     0.031 C 
ATOM     58  C   UNL A   1      40.045  25.862  28.809  1.00  0.00     0.029 A 
ATOM     59  C   UNL A   1      40.589  27.158  29.161  1.00  0.00     0.049 A 
ATOM     60  H   UNL A   1      42.608  27.724  29.073  1.00  0.00     0.167 HD
ATOM     61  C   UNL A   1      46.580  29.117  27.525  1.00  0.00     0.037 A 
ATOM     62  C   UNL A   1      39.990  28.289  29.619  1.00  0.00     0.037 A 
ATOM     63  C   UNL A   1      46.788  28.875  28.936  1.00  0.00     0.049 A 
ATOM     64  C   UNL A   1      41.077  29.179  30.121  1.00  0.00     0.074 A 
ATOM     65  C   UNL A   1      47.415  27.879  29.663  1.00  0.00     0.029 A 
ATOM     66  N   UNL A   1      45.933  29.496  29.819  1.00  0.00    -0.354 N 
ATOM     67  N   UNL A   1      41.807  28.903  31.169  1.00  0.00    -0.248 NA
ATOM     68  C   UNL A   1      41.692  30.081  29.155  1.00  0.00     0.031 C 
ATOM     69  C   UNL A   1      46.536  27.621  30.758  1.00  0.00     0.029 A 
ATOM     70  C   UNL A   1      45.490  28.542  30.698  1.00  0.00     0.049 A 
ATOM     71  H   UNL A   1      45.686  30.449  29.818  1.00  0.00     0.167 HD
ATOM     72  C   UNL A   1      43.104  29.226  30.794  1.00  0.00     0.074 A 
ATOM     73  C   UNL A   1      42.964  30.000  29.560  1.00  0.00     0.031 C 
ATOM     74  C   UNL A   1      44.186  28.577  31.323  1.00  0.00     0.037 A 
BRANCH  61  75
ATOM     75  C   UNL A   1      46.612  30.513  26.946  1.00  0.00     0.057 A 
ATOM     76  C   UNL A   1      47.833  31.212  26.957  1.00  0.00     0.134 A 
ATOM     77  C   UNL A   1      45.482  31.301  26.646  1.00  0.00     0.134 A 
ATOM     78  F   UNL A   1      48.987  30.579  27.223  1.00  0.00    -0.206 F 
ATOM     79  C   UNL A   1      47.909  32.598  26.787  1.00  0.00     0.040 A 
ATOM     80  C   UNL A   1      45.553  32.677  26.420  1.00  0.00     0.040 A 
ATOM     81  F   UNL A   1      44.234  30.820  26.647  1.00  0.00    -0.206 F 
ATOM     82  C   UNL A   1      46.764  33.339  26.529  1.00  0.00     0.006 A 
ENDBRANCH  61  75
BRANCH  62  83
ATOM     83  C   UNL A   1      38.615  28.780  29.348  1.00  0.00     0.057 A 
ATOM     84  C   UNL A   1      37.669  28.918  30.375  1.00  0.00     0.134 A 
ATOM     85  C   UNL A   1      38.273  29.377  28.120  1.00  0.00     0.134 A 
ATOM     86  F   UNL A   1      37.915  28.425  31.598  1.00  0.00    -0.206 F 
ATOM     87  C   UNL A   1      36.465  29.619  30.197  1.00  0.00     0.040 A 
ATOM     88  C   UNL A   1      37.074  30.073  27.926  1.00  0.00     0.040 A 
ATOM     89  F   UNL A   1      39.131  29.381  27.090  1.00  0.00    -0.206 F 
ATOM     90  C   UNL A   1      36.170  30.208  28.971  1.00  0.00     0.006 A 
ENDBRANCH  62  83
BRANCH  74  91
ATOM     91  C   UNL A   1      43.978  27.651  32.492  1.00  0.00     0.057 A 
ATOM     92  C   UNL A   1      43.868  26.255  32.392  1.00  0.00     0.134 A 
ATOM     93  C   UNL A   1      44.076  28.180  33.784  1.00  0.00     0.134 A 
ATOM     94  F   UNL A   1      43.876  25.640  31.204  1.00  0.00    -0.206 F 
ATOM     95  C   UNL A   1      43.819  25.432  33.523  1.00  0.00     0.040 A 
ATOM     96  C   UNL A   1      44.065  27.368  34.920  1.00  0.00     0.040 A 
ATOM     97  F   UNL A   1      44.244  29.500  33.962  1.00  0.00    -0.206 F 
ATOM     98  C   UNL A   1      43.925  25.990  34.793  1.00  0.00     0.006 A 
ENDBRANCH  74  91
ENDBRANCH  48  49
ENDBRANCH  40  43
ENDBRANCH  38  39
ENDBRANCH  37  38
ENDBRANCH  36  37
ENDBRANCH  35  36
ENDBRANCH   1  35
TORSDOF 18
ENDMDL
MODEL 2
REMARK VINA RESULT:     -12.0      2.575      4.491
REMARK SMILES O=C1NC(=O)/C(=C/c2ccc(OCc3cn(-c4ccc(C(=O)NCCCCCCNC(=O)c5ccc(-c6c7nc(c(-c8c(F)cccc8F)c8ccc([nH]8)c(-c8c(F)cccc8F)c8nc(c(-c9c(F)cccc9F)c9ccc6[nH]9)C=C8)C=C7)cc5)cc4)nn3)cc2)S1
REMARK SMILES IDX 25 1 24 2 23 3 21 4 22 5 20 7 17 8 18 9 88 10 19 11 87 12
REMARK SMILES IDX 16 13 14 14 15 15 90 16 89 17 13 18 12 19 11 20 8 21 9 22
REMARK SMILES IDX 92 23 10 24 91 25 7 26 1 27 2 28 3 29 93 30 4 31 6 33 5 34
REMARK SMILES IDX 26 35 27 36 28 37 29 38 30 39 31 40 32 42 33 43 34 44 86 45
REMARK SMILES IDX 35 46 85 47 36 48 37 49 38 50 79 51 39 52 84 53 78 54 80 55
REMARK SMILES IDX 40 56 83 57 77 58 76 59 41 61 67 62 50 63 66 64 51 65 54 66
REMARK SMILES IDX 65 67 81 68 52 69 53 70 64 72 82 73 55 74 42 75 43 76 48 77
REMARK SMILES IDX 44 78 45 79 47 80 49 81 46 82 68 83 69 84 74 85 70 86 71 87
REMARK SMILES IDX 73 88 75 89 72 90 56 91 57 92 62 93 58 94 59 95 61 96 63 97
REMARK SMILES IDX 60 98
REMARK H PARENT 23 6 3 32 30 41 80 60 54 71
REMARK Flexibility Score: inf
ROOT
ATOM      1  C   UNL A   1      38.869  20.733  25.560  1.00  0.00     0.021 C 
ENDROOT
BRANCH   1   2
ATOM      2  C   UNL A   1      37.520  21.387  25.253  1.00  0.00     0.116 C 
BRANCH   2   3
ATOM      3  N   UNL A   1      36.545  20.362  24.952  1.00  0.00    -0.352 N 
ATOM      4  C   UNL A   1      35.176  20.350  24.946  1.00  0.00     0.251 C 
ATOM      5  O   UNL A   1      34.620  19.277  24.709  1.00  0.00    -0.269 OA
ATOM      6  H   UNL A   1      36.946  19.498  24.700  1.00  0.00     0.163 HD
BRANCH   4   7
ATOM      7  C   UNL A   1      34.350  21.576  25.119  1.00  0.00     0.039 A 
ATOM      8  C   UNL A   1      32.994  23.948  25.726  1.00  0.00     0.066 A 
ATOM      9  C   UNL A   1      34.367  23.983  25.457  1.00  0.00     0.029 A 
ATOM     10  C   UNL A   1      32.281  22.756  25.612  1.00  0.00     0.029 A 
ATOM     11  C   UNL A   1      35.044  22.793  25.193  1.00  0.00     0.016 A 
ATOM     12  C   UNL A   1      32.956  21.594  25.230  1.00  0.00     0.016 A 
BRANCH   8  13
ATOM     13  N   UNL A   1      32.332  25.137  26.079  1.00  0.00    -0.220 N 
ATOM     14  C   UNL A   1      31.782  27.143  26.726  1.00  0.00     0.120 A 
ATOM     15  C   UNL A   1      32.874  26.345  26.455  1.00  0.00     0.144 A 
ATOM     16  N   UNL A   1      30.646  26.420  26.473  1.00  0.00    -0.131 NA
ATOM     17  N   UNL A   1      30.989  25.221  26.046  1.00  0.00    -0.062 NA
BRANCH  14  18
ATOM     18  C   UNL A   1      31.686  28.586  27.102  1.00  0.00     0.289 C 
BRANCH  18  19
ATOM     19  O   UNL A   1      32.435  29.496  26.277  1.00  0.00    -0.487 OA
BRANCH  19  20
ATOM     20  C   UNL A   1      32.539  30.803  26.669  1.00  0.00     0.119 A 
ATOM     21  C   UNL A   1      32.860  33.328  27.863  1.00  0.00    -0.024 A 
ATOM     22  C   UNL A   1      33.904  32.401  27.890  1.00  0.00     0.012 A 
ATOM     23  C   UNL A   1      31.700  33.021  27.149  1.00  0.00     0.012 A 
ATOM     24  C   UNL A   1      33.737  31.140  27.302  1.00  0.00     0.047 A 
ATOM     25  C   UNL A   1      31.558  31.781  26.525  1.00  0.00     0.047 A 
BRANCH  21  26
ATOM     26  C   UNL A   1      32.977  34.617  28.549  1.00  0.00     0.029 C 
ATOM     27  O   UNL A   1      35.375  34.635  32.986  1.00  0.00    -0.261 OA
ATOM     28  C   UNL A   1      34.751  34.864  31.951  1.00  0.00     0.290 C 
ATOM     29  N   UNL A   1      34.219  36.055  31.600  1.00  0.00    -0.282 N 
ATOM     30  S   UNL A   1      34.436  33.676  30.707  1.00  0.00    -0.022 SA
ATOM     31  C   UNL A   1      33.573  36.142  30.400  1.00  0.00     0.265 C 
ATOM     32  H   UNL A   1      34.294  36.838  32.192  1.00  0.00     0.174 HD
ATOM     33  C   UNL A   1      33.583  34.815  29.730  1.00  0.00     0.083 C 
ATOM     34  O   UNL A   1      33.059  37.153  29.959  1.00  0.00    -0.268 OA
ENDBRANCH  21  26
ENDBRANCH  19  20
ENDBRANCH  18  19
ENDBRANCH  14  18
ENDBRANCH   8  13
ENDBRANCH   4   7
ENDBRANCH   2   3
ENDBRANCH   1   2
BRANCH   1  35
ATOM     35  C   UNL A   1      39.770  21.622  26.427  1.00  0.00     0.002 C 
BRANCH  35  36
ATOM     36  C   UNL A   1      41.036  20.935  26.967  1.00  0.00     0.002 C 
BRANCH  36  37
ATOM     37  C   UNL A   1      41.605  19.796  26.105  1.00  0.00     0.021 C 
BRANCH  37  38
ATOM     38  C   UNL A   1      42.982  19.337  26.556  1.00  0.00     0.116 C 
BRANCH  38  39
ATOM     39  N   UNL A   1      43.975  19.454  25.480  1.00  0.00    -0.352 N 
ATOM     40  C   UNL A   1      44.355  20.560  24.740  1.00  0.00     0.251 C 
ATOM     41  H   UNL A   1      44.443  18.619  25.250  1.00  0.00     0.163 HD
ATOM     42  O   UNL A   1      44.904  20.436  23.653  1.00  0.00    -0.269 OA
BRANCH  40  43
ATOM     43  C   UNL A   1      44.109  21.898  25.299  1.00  0.00     0.039 A 
ATOM     44  C   UNL A   1      43.248  22.835  24.719  1.00  0.00     0.014 A 
ATOM     45  C   UNL A   1      44.767  22.187  26.483  1.00  0.00     0.014 A 
ATOM     46  C   UNL A   1      43.077  24.060  25.363  1.00  0.00     0.010 A 
ATOM     47  C   UNL A   1      44.304  23.191  27.265  1.00  0.00     0.010 A 
ATOM     48  C   UNL A   1      43.639  24.224  26.634  1.00  0.00    -0.014 A 
BRANCH  48  49
ATOM     49  C   UNL A   1      43.542  25.434  27.424  1.00  0.00     0.031 A 
ATOM     50  C   UNL A   1      44.538  26.455  27.044  1.00  0.00     0.074 A 
ATOM     51  C   UNL A   1      42.439  25.707  28.159  1.00  0.00     0.049 A 
ATOM     52  N   UNL A   1      45.585  26.808  27.708  1.00  0.00    -0.248 NA
ATOM     53  C   UNL A   1      44.489  26.997  25.674  1.00  0.00     0.031 C 
ATOM     54  C   UNL A   1      41.200  24.924  28.289  1.00  0.00     0.029 A 
ATOM     55  N   UNL A   1      42.142  26.840  28.851  1.00  0.00    -0.354 N 
ATOM     56  C   UNL A   1      46.178  27.809  26.949  1.00  0.00     0.074 A 
ATOM     57  C   UNL A   1      45.638  27.671  25.624  1.00  0.00     0.031 C 
ATOM     58  C   UNL A   1      40.223  25.700  28.812  1.00  0.00     0.029 A 
ATOM     59  C   UNL A   1      40.794  26.979  29.186  1.00  0.00     0.049 A 
ATOM     60  H   UNL A   1      42.823  27.508  29.095  1.00  0.00     0.167 HD
ATOM     61  C   UNL A   1      46.812  28.854  27.549  1.00  0.00     0.037 A 
ATOM     62  C   UNL A   1      40.220  28.112  29.669  1.00  0.00     0.037 A 
ATOM     63  C   UNL A   1      47.024  28.581  28.954  1.00  0.00     0.049 A 
ATOM     64  C   UNL A   1      41.328  28.971  30.181  1.00  0.00     0.074 A 
ATOM     65  C   UNL A   1      47.636  27.559  29.657  1.00  0.00     0.029 A 
ATOM     66  N   UNL A   1      46.187  29.201  29.853  1.00  0.00    -0.354 N 
ATOM     67  N   UNL A   1      42.059  28.660  31.219  1.00  0.00    -0.248 NA
ATOM     68  C   UNL A   1      41.954  29.880  29.229  1.00  0.00     0.031 C 
ATOM     69  C   UNL A   1      46.759  27.296  30.752  1.00  0.00     0.029 A 
ATOM     70  C   UNL A   1      45.730  28.238  30.717  1.00  0.00     0.049 A 
ATOM     71  H   UNL A   1      45.958  30.158  29.873  1.00  0.00     0.167 HD
ATOM     72  C   UNL A   1      43.359  28.966  30.842  1.00  0.00     0.074 A 
ATOM     73  C   UNL A   1      43.226  29.767  29.624  1.00  0.00     0.031 C 
ATOM     74  C   UNL A   1      44.432  28.286  31.351  1.00  0.00     0.037 A 
BRANCH  61  75
ATOM     75  C   UNL A   1      46.868  30.261  26.996  1.00  0.00     0.057 A 
ATOM     76  C   UNL A   1      48.098  30.943  27.032  1.00  0.00     0.134 A 
ATOM     77  C   UNL A   1      45.750  31.069  26.702  1.00  0.00     0.134 A 
ATOM     78  F   UNL A   1      49.241  30.290  27.295  1.00  0.00    -0.206 F 
ATOM     79  C   UNL A   1      48.193  32.331  26.888  1.00  0.00     0.040 A 
ATOM     80  C   UNL A   1      45.842  32.448  26.503  1.00  0.00     0.040 A 
ATOM     81  F   UNL A   1      44.497  30.605  26.683  1.00  0.00    -0.206 F 
ATOM     82  C   UNL A   1      47.060  33.092  26.635  1.00  0.00     0.006 A 
ENDBRANCH  61  75
BRANCH  62  83
ATOM     83  C   UNL A   1      38.853  28.635  29.417  1.00  0.00     0.057 A 
ATOM     84  C   UNL A   1      37.889  28.691  30.435  1.00  0.00     0.134 A 
ATOM     85  C   UNL A   1      38.537  29.337  28.239  1.00  0.00     0.134 A 
ATOM     86  F   UNL A   1      38.111  28.094  31.616  1.00  0.00    -0.206 F 
ATOM     87  C   UNL A   1      36.693  29.414  30.296  1.00  0.00     0.040 A 
ATOM     88  C   UNL A   1      37.346  30.055  28.084  1.00  0.00     0.040 A 
ATOM     89  F   UNL A   1      39.414  29.422  27.228  1.00  0.00    -0.206 F 
ATOM     90  C   UNL A   1      36.424  30.107  29.120  1.00  0.00     0.006 A 
ENDBRANCH  62  83
BRANCH  74  91
ATOM     91  C   UNL A   1      44.213  27.342  32.503  1.00  0.00     0.057 A 
ATOM     92  C   UNL A   1      44.024  25.956  32.372  1.00  0.00     0.134 A 
ATOM     93  C   UNL A   1      44.383  27.830  33.804  1.00  0.00     0.134 A 
ATOM     94  F   UNL A   1      43.959  25.374  31.169  1.00  0.00    -0.206 F 
ATOM     95  C   UNL A   1      43.968  25.108  33.483  1.00  0.00     0.040 A 
ATOM     96  C   UNL A   1      44.366  26.989  34.919  1.00  0.00     0.040 A 
ATOM     97  F   UNL A   1      44.627  29.134  34.009  1.00  0.00    -0.206 F 
ATOM     98  C   UNL A   1      44.147  25.624  34.763  1.00  0.00     0.006 A 
ENDBRANCH  74  91
ENDBRANCH  48  49
ENDBRANCH  40  43
ENDBRANCH  38  39
ENDBRANCH  37  38
ENDBRANCH  36  37
ENDBRANCH  35  36
ENDBRANCH   1  35
TORSDOF 18
ENDMDL
MODEL 3
REMARK VINA RESULT:     -11.6      6.365      9.078
REMARK SMILES O=C1NC(=O)/C(=C/c2ccc(OCc3cn(-c4ccc(C(=O)NCCCCCCNC(=O)c5ccc(-c6c7nc(c(-c8c(F)cccc8F)c8ccc([nH]8)c(-c8c(F)cccc8F)c8nc(c(-c9c(F)cccc9F)c9ccc6[nH]9)C=C8)C=C7)cc5)cc4)nn3)cc2)S1
REMARK SMILES IDX 25 1 24 2 23 3 21 4 22 5 20 7 17 8 18 9 88 10 19 11 87 12
REMARK SMILES IDX 16 13 14 14 15 15 90 16 89 17 13 18 12 19 11 20 8 21 9 22
REMARK SMILES IDX 92 23 10 24 91 25 7 26 1 27 2 28 3 29 93 30 4 31 6 33 5 34
REMARK SMILES IDX 26 35 27 36 28 37 29 38 30 39 31 40 32 42 33 43 34 44 86 45
REMARK SMILES IDX 35 46 85 47 36 48 37 49 38 50 79 51 39 52 84 53 78 54 80 55
REMARK SMILES IDX 40 56 83 57 77 58 76 59 41 61 67 62 50 63 66 64 51 65 54 66
REMARK SMILES IDX 65 67 81 68 52 69 53 70 64 72 82 73 55 74 42 75 43 76 48 77
REMARK SMILES IDX 44 78 45 79 47 80 49 81 46 82 68 83 69 84 74 85 70 86 71 87
REMARK SMILES IDX 73 88 75 89 72 90 56 91 57 92 62 93 58 94 59 95 61 96 63 97
REMARK SMILES IDX 60 98
REMARK H PARENT 23 6 3 32 30 41 80 60 54 71
REMARK Flexibility Score: inf
ROOT
ATOM      1  C   UNL A   1      46.667  27.583  30.063  1.00  0.00     0.021 C 
ENDROOT
BRANCH   1   2
ATOM      2  C   UNL A   1      45.384  27.660  30.894  1.00  0.00     0.116 C 
BRANCH   2   3
ATOM      3  N   UNL A   1      45.097  26.360  31.460  1.00  0.00    -0.352 N 
ATOM      4  C   UNL A   1      44.486  25.961  32.618  1.00  0.00     0.251 C 
ATOM      5  O   UNL A   1      44.456  24.754  32.856  1.00  0.00    -0.269 OA
ATOM      6  H   UNL A   1      45.403  25.610  30.899  1.00  0.00     0.163 HD
BRANCH   4   7
ATOM      7  C   UNL A   1      43.788  26.902  33.536  1.00  0.00     0.039 A 
ATOM      8  C   UNL A   1      42.570  28.924  35.039  1.00  0.00     0.066 A 
ATOM      9  C   UNL A   1      42.158  28.696  33.722  1.00  0.00     0.029 A 
ATOM     10  C   UNL A   1      43.521  28.099  35.637  1.00  0.00     0.029 A 
ATOM     11  C   UNL A   1      42.795  27.713  32.966  1.00  0.00     0.016 A 
ATOM     12  C   UNL A   1      44.064  27.043  34.900  1.00  0.00     0.016 A 
BRANCH   8  13
ATOM     13  N   UNL A   1      41.987  29.975  35.770  1.00  0.00    -0.220 N 
ATOM     14  C   UNL A   1      40.796  31.655  36.480  1.00  0.00     0.120 A 
ATOM     15  C   UNL A   1      40.913  30.767  35.432  1.00  0.00     0.144 A 
ATOM     16  N   UNL A   1      41.754  31.352  37.412  1.00  0.00    -0.131 NA
ATOM     17  N   UNL A   1      42.444  30.310  36.990  1.00  0.00    -0.062 NA
BRANCH  14  18
ATOM     18  C   UNL A   1      39.785  32.718  36.762  1.00  0.00     0.289 C 
BRANCH  18  19
ATOM     19  O   UNL A   1      39.674  33.752  35.768  1.00  0.00    -0.487 OA
BRANCH  19  20
ATOM     20  C   UNL A   1      38.765  33.597  34.757  1.00  0.00     0.119 A 
ATOM     21  C   UNL A   1      36.847  33.708  32.704  1.00  0.00    -0.024 A 
ATOM     22  C   UNL A   1      38.012  34.474  32.619  1.00  0.00     0.012 A 
ATOM     23  C   UNL A   1      36.700  32.815  33.767  1.00  0.00     0.012 A 
ATOM     24  C   UNL A   1      38.961  34.423  33.649  1.00  0.00     0.047 A 
ATOM     25  C   UNL A   1      37.671  32.735  34.766  1.00  0.00     0.047 A 
BRANCH  21  26
ATOM     26  C   UNL A   1      35.799  33.812  31.687  1.00  0.00     0.029 C 
ATOM     27  O   UNL A   1      32.153  37.201  32.501  1.00  0.00    -0.261 OA
ATOM     28  C   UNL A   1      32.912  36.317  32.107  1.00  0.00     0.290 C 
ATOM     29  N   UNL A   1      32.731  35.557  31.005  1.00  0.00    -0.282 N 
ATOM     30  S   UNL A   1      34.403  35.871  32.905  1.00  0.00    -0.022 SA
ATOM     31  C   UNL A   1      33.686  34.631  30.699  1.00  0.00     0.265 C 
ATOM     32  H   UNL A   1      31.933  35.668  30.439  1.00  0.00     0.174 HD
ATOM     33  C   UNL A   1      34.757  34.657  31.731  1.00  0.00     0.083 C 
ATOM     34  O   UNL A   1      33.653  33.891  29.734  1.00  0.00    -0.268 OA
ENDBRANCH  21  26
ENDBRANCH  19  20
ENDBRANCH  18  19
ENDBRANCH  14  18
ENDBRANCH   8  13
ENDBRANCH   4   7
ENDBRANCH   2   3
ENDBRANCH   1   2
BRANCH   1  35
ATOM     35  C   UNL A   1      46.585  26.527  28.953  1.00  0.00     0.002 C 
BRANCH  35  36
ATOM     36  C   UNL A   1      47.794  25.578  28.869  1.00  0.00     0.002 C 
BRANCH  36  37
ATOM     37  C   UNL A   1      47.975  24.831  27.537  1.00  0.00     0.021 C 
BRANCH  37  38
ATOM     38  C   UNL A   1      46.854  25.098  26.546  1.00  0.00     0.116 C 
BRANCH  38  39
ATOM     39  N   UNL A   1      47.341  25.796  25.348  1.00  0.00    -0.352 N 
ATOM     40  C   UNL A   1      46.841  26.918  24.712  1.00  0.00     0.251 C 
ATOM     41  H   UNL A   1      48.144  25.405  24.934  1.00  0.00     0.163 HD
ATOM     42  O   UNL A   1      47.114  27.158  23.543  1.00  0.00    -0.269 OA
BRANCH  40  43
ATOM     43  C   UNL A   1      45.990  27.841  25.479  1.00  0.00     0.039 A 
ATOM     44  C   UNL A   1      44.618  27.651  25.673  1.00  0.00     0.014 A 
ATOM     45  C   UNL A   1      46.636  28.926  26.047  1.00  0.00     0.014 A 
ATOM     46  C   UNL A   1      43.926  28.583  26.446  1.00  0.00     0.010 A 
ATOM     47  C   UNL A   1      46.045  29.580  27.076  1.00  0.00     0.010 A 
ATOM     48  C   UNL A   1      44.665  29.559  27.123  1.00  0.00    -0.014 A 
BRANCH  48  49
ATOM     49  C   UNL A   1      44.087  30.588  27.964  1.00  0.00     0.031 A 
ATOM     50  C   UNL A   1      44.332  31.954  27.459  1.00  0.00     0.074 A 
ATOM     51  C   UNL A   1      43.142  30.293  28.886  1.00  0.00     0.049 A 
ATOM     52  N   UNL A   1      45.137  32.833  27.948  1.00  0.00    -0.248 NA
ATOM     53  C   UNL A   1      43.783  32.314  26.140  1.00  0.00     0.031 C 
ATOM     54  C   UNL A   1      42.529  28.991  29.196  1.00  0.00     0.029 A 
ATOM     55  N   UNL A   1      42.421  31.147  29.662  1.00  0.00    -0.354 N 
ATOM     56  C   UNL A   1      44.992  33.952  27.137  1.00  0.00     0.074 A 
ATOM     57  C   UNL A   1      44.389  33.481  25.920  1.00  0.00     0.031 C 
ATOM     58  C   UNL A   1      41.394  29.180  29.907  1.00  0.00     0.029 A 
ATOM     59  C   UNL A   1      41.273  30.588  30.227  1.00  0.00     0.049 A 
ATOM     60  H   UNL A   1      42.687  32.083  29.812  1.00  0.00     0.167 HD
ATOM     61  C   UNL A   1      45.081  35.206  27.660  1.00  0.00     0.037 A 
ATOM     62  C   UNL A   1      40.285  31.288  30.844  1.00  0.00     0.037 A 
ATOM     63  C   UNL A   1      45.634  35.160  28.996  1.00  0.00     0.049 A 
ATOM     64  C   UNL A   1      40.854  32.622  31.192  1.00  0.00     0.074 A 
ATOM     65  C   UNL A   1      46.793  34.643  29.545  1.00  0.00     0.029 A 
ATOM     66  N   UNL A   1      44.759  35.309  30.049  1.00  0.00    -0.354 N 
ATOM     67  N   UNL A   1      41.801  32.792  32.077  1.00  0.00    -0.248 NA
ATOM     68  C   UNL A   1      40.751  33.669  30.183  1.00  0.00     0.031 C 
ATOM     69  C   UNL A   1      46.375  34.027  30.763  1.00  0.00     0.029 A 
ATOM     70  C   UNL A   1      45.018  34.299  30.940  1.00  0.00     0.049 A 
ATOM     71  H   UNL A   1      44.074  36.010  30.144  1.00  0.00     0.167 HD
ATOM     72  C   UNL A   1      42.672  33.704  31.496  1.00  0.00     0.074 A 
ATOM     73  C   UNL A   1      41.943  34.251  30.350  1.00  0.00     0.031 C 
ATOM     74  C   UNL A   1      44.008  33.705  31.788  1.00  0.00     0.037 A 
BRANCH  61  75
ATOM     75  C   UNL A   1      44.308  36.406  27.160  1.00  0.00     0.057 A 
ATOM     76  C   UNL A   1      44.999  37.619  26.985  1.00  0.00     0.134 A 
ATOM     77  C   UNL A   1      42.903  36.513  27.116  1.00  0.00     0.134 A 
ATOM     78  F   UNL A   1      46.341  37.655  26.999  1.00  0.00    -0.206 F 
ATOM     79  C   UNL A   1      44.344  38.849  26.878  1.00  0.00     0.040 A 
ATOM     80  C   UNL A   1      42.239  37.731  26.956  1.00  0.00     0.040 A 
ATOM     81  F   UNL A   1      42.084  35.476  27.321  1.00  0.00    -0.206 F 
ATOM     82  C   UNL A   1      42.957  38.911  26.876  1.00  0.00     0.006 A 
ENDBRANCH  61  75
BRANCH  62  83
ATOM     83  C   UNL A   1      38.825  31.014  30.849  1.00  0.00     0.057 A 
ATOM     84  C   UNL A   1      38.013  31.342  29.753  1.00  0.00     0.134 A 
ATOM     85  C   UNL A   1      38.233  30.186  31.821  1.00  0.00     0.134 A 
ATOM     86  F   UNL A   1      38.495  32.089  28.748  1.00  0.00    -0.206 F 
ATOM     87  C   UNL A   1      36.699  30.863  29.623  1.00  0.00     0.040 A 
ATOM     88  C   UNL A   1      36.923  29.706  31.708  1.00  0.00     0.040 A 
ATOM     89  F   UNL A   1      38.936  29.740  32.872  1.00  0.00    -0.206 F 
ATOM     90  C   UNL A   1      36.154  30.033  30.599  1.00  0.00     0.006 A 
ENDBRANCH  62  83
BRANCH  74  91
ATOM     91  C   UNL A   1      44.504  32.850  32.924  1.00  0.00     0.057 A 
ATOM     92  C   UNL A   1      44.901  31.509  32.795  1.00  0.00     0.134 A 
ATOM     93  C   UNL A   1      44.762  33.464  34.155  1.00  0.00     0.134 A 
ATOM     94  F   UNL A   1      44.798  30.862  31.629  1.00  0.00    -0.206 F 
ATOM     95  C   UNL A   1      45.488  30.805  33.853  1.00  0.00     0.040 A 
ATOM     96  C   UNL A   1      45.380  32.784  35.206  1.00  0.00     0.040 A 
ATOM     97  F   UNL A   1      44.467  34.761  34.337  1.00  0.00    -0.206 F 
ATOM     98  C   UNL A   1      45.736  31.447  35.063  1.00  0.00     0.006 A 
ENDBRANCH  74  91
ENDBRANCH  48  49
ENDBRANCH  40  43
ENDBRANCH  38  39
ENDBRANCH  37  38
ENDBRANCH  36  37
ENDBRANCH  35  36
ENDBRANCH   1  35
TORSDOF 18
ENDMDL
