MODEL 1
REMARK VINA RESULT:     -11.1      0.000      0.000
REMARK SMILES CC(C)[C@@H](CNC(=O)NCC1C(C)(C)C1(C)C)C(=O)NCCCCCCNC(=O)c1ccc(-c2c3nc(c(-c4c(F)cccc4F)c4ccc([nH]4)c(-c4c(F)cccc4F)c4nc(c(-c5c(F)cccc5F)c5ccc2[nH]5)C=C4)C=C3)cc1
REMARK SMILES IDX 22 1 21 2 20 3 18 4 19 5 4 7 2 8 1 9 3 10 5 11 6 12 7 13
REMARK SMILES IDX 8 15 9 16 10 18 11 19 12 20 15 21 13 22 14 23 16 24 17 25
REMARK SMILES IDX 23 26 24 27 25 28 26 29 27 30 28 31 29 33 30 34 31 35 83 36
REMARK SMILES IDX 32 37 82 38 33 39 34 40 35 41 76 42 36 43 81 44 75 45 77 46
REMARK SMILES IDX 37 47 80 48 74 49 73 50 38 52 64 53 47 54 63 55 48 56 51 57
REMARK SMILES IDX 62 58 78 59 49 60 50 61 61 63 79 64 52 65 39 66 40 67 45 68
REMARK SMILES IDX 41 69 42 70 44 71 46 72 43 73 65 74 66 75 71 76 67 77 68 78
REMARK SMILES IDX 70 79 72 80 69 81 53 82 54 83 59 84 55 85 56 86 58 87 60 88
REMARK SMILES IDX 57 89
REMARK H PARENT 20 6 6 14 9 17 27 32 77 51 51 62
REMARK Flexibility Score: inf
ROOT
ATOM      1  C   UNL A   1      37.312  23.741  26.037  1.00  0.00     0.021 C 
ENDROOT
BRANCH   1   2
ATOM      2  C   UNL A   1      35.870  23.490  25.619  1.00  0.00     0.116 C 
BRANCH   2   3
ATOM      3  N   UNL A   1      35.054  22.927  26.674  1.00  0.00    -0.356 N 
ATOM      4  C   UNL A   1      33.987  22.085  26.614  1.00  0.00     0.225 C 
ATOM      5  O   UNL A   1      33.630  21.552  27.671  1.00  0.00    -0.275 OA
ATOM      6  H   UNL A   1      35.314  23.197  27.584  1.00  0.00     0.163 HD
BRANCH   4   7
ATOM      7  C   UNL A   1      33.220  21.789  25.321  1.00  0.00     0.100 C 
BRANCH   7   8
ATOM      8  C   UNL A   1      33.119  20.278  24.963  1.00  0.00    -0.003 C 
ATOM      9  C   UNL A   1      32.363  20.032  23.653  1.00  0.00     0.008 C 
ATOM     10  C   UNL A   1      34.517  19.649  24.851  1.00  0.00     0.008 C 
ENDBRANCH   7   8
BRANCH   7  11
ATOM     11  C   UNL A   1      31.932  22.631  25.189  1.00  0.00     0.131 C 
BRANCH  11  12
ATOM     12  N   UNL A   1      30.944  22.443  26.227  1.00  0.00    -0.337 N 
ATOM     13  C   UNL A   1      30.112  23.264  26.879  1.00  0.00     0.314 C 
ATOM     14  H   UNL A   1      30.865  21.506  26.518  1.00  0.00     0.165 HD
ATOM     15  O   UNL A   1      29.513  22.805  27.856  1.00  0.00    -0.249 OA
ATOM     16  N   UNL A   1      29.888  24.536  26.555  1.00  0.00    -0.338 N 
ATOM     17  H   UNL A   1      29.352  25.001  27.237  1.00  0.00     0.165 HD
BRANCH  16  18
ATOM     18  C   UNL A   1      30.232  25.403  25.458  1.00  0.00     0.122 C 
BRANCH  18  19
ATOM     19  C   UNL A   1      30.862  26.721  25.807  1.00  0.00     0.021 C 
ATOM     20  C   UNL A   1      32.311  27.147  26.088  1.00  0.00    -0.025 C 
ATOM     21  C   UNL A   1      31.589  27.620  24.803  1.00  0.00    -0.025 C 
ATOM     22  C   UNL A   1      32.550  28.173  27.182  1.00  0.00     0.012 C 
ATOM     23  C   UNL A   1      33.477  26.192  26.002  1.00  0.00     0.012 C 
ATOM     24  C   UNL A   1      32.108  27.136  23.466  1.00  0.00     0.012 C 
ATOM     25  C   UNL A   1      31.042  29.030  24.691  1.00  0.00     0.012 C 
ENDBRANCH  18  19
ENDBRANCH  16  18
ENDBRANCH  11  12
ENDBRANCH   7  11
ENDBRANCH   4   7
ENDBRANCH   2   3
ENDBRANCH   1   2
BRANCH   1  26
ATOM     26  C   UNL A   1      38.247  22.549  25.809  1.00  0.00     0.002 C 
BRANCH  26  27
ATOM     27  C   UNL A   1      37.718  21.458  24.867  1.00  0.00     0.002 C 
BRANCH  27  28
ATOM     28  C   UNL A   1      38.371  20.082  25.007  1.00  0.00     0.021 C 
BRANCH  28  29
ATOM     29  C   UNL A   1      39.278  19.926  26.220  1.00  0.00     0.116 C 
BRANCH  29  30
ATOM     30  N   UNL A   1      40.472  19.154  25.923  1.00  0.00    -0.352 N 
ATOM     31  C   UNL A   1      41.785  19.558  25.918  1.00  0.00     0.251 C 
ATOM     32  H   UNL A   1      40.319  18.209  25.692  1.00  0.00     0.163 HD
ATOM     33  O   UNL A   1      42.661  18.827  25.478  1.00  0.00    -0.269 OA
BRANCH  31  34
ATOM     34  C   UNL A   1      42.129  20.899  26.436  1.00  0.00     0.039 A 
ATOM     35  C   UNL A   1      42.447  21.915  25.531  1.00  0.00     0.014 A 
ATOM     36  C   UNL A   1      42.131  21.150  27.810  1.00  0.00     0.014 A 
ATOM     37  C   UNL A   1      42.714  23.201  26.004  1.00  0.00     0.010 A 
ATOM     38  C   UNL A   1      42.322  22.446  28.273  1.00  0.00     0.010 A 
ATOM     39  C   UNL A   1      42.624  23.483  27.377  1.00  0.00    -0.014 A 
BRANCH  39  40
ATOM     40  C   UNL A   1      42.869  24.846  27.909  1.00  0.00     0.031 A 
ATOM     41  C   UNL A   1      44.248  25.227  28.370  1.00  0.00     0.074 A 
ATOM     42  C   UNL A   1      41.843  25.707  28.056  1.00  0.00     0.049 A 
ATOM     43  N   UNL A   1      44.648  26.313  28.982  1.00  0.00    -0.248 NA
ATOM     44  C   UNL A   1      45.316  24.240  28.139  1.00  0.00     0.031 C 
ATOM     45  C   UNL A   1      40.453  25.443  27.678  1.00  0.00     0.029 A 
ATOM     46  N   UNL A   1      41.810  26.974  28.580  1.00  0.00    -0.354 N 
ATOM     47  C   UNL A   1      46.002  26.129  29.227  1.00  0.00     0.074 A 
ATOM     48  C   UNL A   1      46.346  24.809  28.747  1.00  0.00     0.031 C 
ATOM     49  C   UNL A   1      39.707  26.520  27.970  1.00  0.00     0.029 A 
ATOM     50  C   UNL A   1      40.554  27.532  28.595  1.00  0.00     0.049 A 
ATOM     51  H   UNL A   1      42.610  27.440  28.914  1.00  0.00     0.167 HD
ATOM     52  C   UNL A   1      46.886  26.993  29.781  1.00  0.00     0.037 A 
ATOM     53  C   UNL A   1      40.132  28.718  29.073  1.00  0.00     0.037 A 
ATOM     54  C   UNL A   1      46.545  28.316  30.233  1.00  0.00     0.049 A 
ATOM     55  C   UNL A   1      41.130  29.653  29.700  1.00  0.00     0.074 A 
ATOM     56  C   UNL A   1      47.376  29.286  30.762  1.00  0.00     0.029 A 
ATOM     57  N   UNL A   1      45.266  28.852  30.207  1.00  0.00    -0.354 N 
ATOM     58  N   UNL A   1      42.419  29.491  29.879  1.00  0.00    -0.248 NA
ATOM     59  C   UNL A   1      40.615  30.940  30.190  1.00  0.00     0.031 C 
ATOM     60  C   UNL A   1      46.592  30.394  31.101  1.00  0.00     0.029 A 
ATOM     61  C   UNL A   1      45.282  30.135  30.729  1.00  0.00     0.049 A 
ATOM     62  H   UNL A   1      44.465  28.390  29.868  1.00  0.00     0.167 HD
ATOM     63  C   UNL A   1      42.874  30.665  30.463  1.00  0.00     0.074 A 
ATOM     64  C   UNL A   1      41.725  31.534  30.606  1.00  0.00     0.031 C 
ATOM     65  C   UNL A   1      44.132  30.995  30.844  1.00  0.00     0.037 A 
BRANCH  52  66
ATOM     66  C   UNL A   1      48.307  26.529  29.931  1.00  0.00     0.057 A 
ATOM     67  C   UNL A   1      48.736  25.805  31.051  1.00  0.00     0.134 A 
ATOM     68  C   UNL A   1      49.252  26.786  28.929  1.00  0.00     0.134 A 
ATOM     69  F   UNL A   1      47.886  25.536  32.053  1.00  0.00    -0.206 F 
ATOM     70  C   UNL A   1      50.059  25.380  31.184  1.00  0.00     0.040 A 
ATOM     71  C   UNL A   1      50.570  26.339  29.036  1.00  0.00     0.040 A 
ATOM     72  F   UNL A   1      48.908  27.468  27.825  1.00  0.00    -0.206 F 
ATOM     73  C   UNL A   1      50.978  25.642  30.170  1.00  0.00     0.006 A 
ENDBRANCH  52  66
BRANCH  53  74
ATOM     74  C   UNL A   1      38.701  29.099  28.962  1.00  0.00     0.057 A 
ATOM     75  C   UNL A   1      37.841  28.999  30.062  1.00  0.00     0.134 A 
ATOM     76  C   UNL A   1      38.155  29.559  27.758  1.00  0.00     0.134 A 
ATOM     77  F   UNL A   1      38.300  28.546  31.238  1.00  0.00    -0.206 F 
ATOM     78  C   UNL A   1      36.486  29.318  29.964  1.00  0.00     0.040 A 
ATOM     79  C   UNL A   1      36.807  29.909  27.653  1.00  0.00     0.040 A 
ATOM     80  F   UNL A   1      38.927  29.685  26.668  1.00  0.00    -0.206 F 
ATOM     81  C   UNL A   1      35.968  29.781  28.756  1.00  0.00     0.006 A 
ENDBRANCH  53  74
BRANCH  65  82
ATOM     82  C   UNL A   1      44.348  32.373  31.398  1.00  0.00     0.057 A 
ATOM     83  C   UNL A   1      44.628  33.471  30.573  1.00  0.00     0.134 A 
ATOM     84  C   UNL A   1      44.217  32.612  32.771  1.00  0.00     0.134 A 
ATOM     85  F   UNL A   1      44.778  33.308  29.251  1.00  0.00    -0.206 F 
ATOM     86  C   UNL A   1      44.788  34.754  31.100  1.00  0.00     0.040 A 
ATOM     87  C   UNL A   1      44.346  33.895  33.306  1.00  0.00     0.040 A 
ATOM     88  F   UNL A   1      43.940  31.607  33.615  1.00  0.00    -0.206 F 
ATOM     89  C   UNL A   1      44.638  34.969  32.470  1.00  0.00     0.006 A 
ENDBRANCH  65  82
ENDBRANCH  39  40
ENDBRANCH  31  34
ENDBRANCH  29  30
ENDBRANCH  28  29
ENDBRANCH  27  28
ENDBRANCH  26  27
ENDBRANCH   1  26
TORSDOF 18
ENDMDL
MODEL 2
REMARK VINA RESULT:     -11.0      1.061      6.117
REMARK SMILES CC(C)[C@@H](CNC(=O)NCC1C(C)(C)C1(C)C)C(=O)NCCCCCCNC(=O)c1ccc(-c2c3nc(c(-c4c(F)cccc4F)c4ccc([nH]4)c(-c4c(F)cccc4F)c4nc(c(-c5c(F)cccc5F)c5ccc2[nH]5)C=C4)C=C3)cc1
REMARK SMILES IDX 22 1 21 2 20 3 18 4 19 5 4 7 2 8 1 9 3 10 5 11 6 12 7 13
REMARK SMILES IDX 8 15 9 16 10 18 11 19 12 20 15 21 13 22 14 23 16 24 17 25
REMARK SMILES IDX 23 26 24 27 25 28 26 29 27 30 28 31 29 33 30 34 31 35 83 36
REMARK SMILES IDX 32 37 82 38 33 39 34 40 35 41 76 42 36 43 81 44 75 45 77 46
REMARK SMILES IDX 37 47 80 48 74 49 73 50 38 52 64 53 47 54 63 55 48 56 51 57
REMARK SMILES IDX 62 58 78 59 49 60 50 61 61 63 79 64 52 65 39 66 40 67 45 68
REMARK SMILES IDX 41 69 42 70 44 71 46 72 43 73 65 74 66 75 71 76 67 77 68 78
REMARK SMILES IDX 70 79 72 80 69 81 53 82 54 83 59 84 55 85 56 86 58 87 60 88
REMARK SMILES IDX 57 89
REMARK H PARENT 20 6 6 14 9 17 27 32 77 51 51 62
REMARK Flexibility Score: inf
ROOT
ATOM      1  C   UNL A   1      37.390  23.741  25.951  1.00  0.00     0.021 C 
ENDROOT
BRANCH   1   2
ATOM      2  C   UNL A   1      35.939  23.544  25.535  1.00  0.00     0.116 C 
BRANCH   2   3
ATOM      3  N   UNL A   1      35.118  22.952  26.571  1.00  0.00    -0.356 N 
ATOM      4  C   UNL A   1      34.132  22.018  26.494  1.00  0.00     0.225 C 
ATOM      5  O   UNL A   1      33.765  21.497  27.553  1.00  0.00    -0.275 OA
ATOM      6  H   UNL A   1      35.305  23.278  27.481  1.00  0.00     0.163 HD
BRANCH   4   7
ATOM      7  C   UNL A   1      33.464  21.607  25.177  1.00  0.00     0.100 C 
BRANCH   7   8
ATOM      8  C   UNL A   1      33.339  20.070  24.970  1.00  0.00    -0.003 C 
ATOM      9  C   UNL A   1      32.463  19.706  23.766  1.00  0.00     0.008 C 
ATOM     10  C   UNL A   1      34.724  19.430  24.783  1.00  0.00     0.008 C 
ENDBRANCH   7   8
BRANCH   7  11
ATOM     11  C   UNL A   1      32.222  22.464  24.849  1.00  0.00     0.131 C 
BRANCH  11  12
ATOM     12  N   UNL A   1      31.182  22.483  25.854  1.00  0.00    -0.337 N 
ATOM     13  C   UNL A   1      30.818  23.357  26.799  1.00  0.00     0.314 C 
ATOM     14  H   UNL A   1      30.619  21.675  25.839  1.00  0.00     0.165 HD
ATOM     15  O   UNL A   1      29.983  22.981  27.627  1.00  0.00    -0.249 OA
ATOM     16  N   UNL A   1      31.290  24.597  26.913  1.00  0.00    -0.338 N 
ATOM     17  H   UNL A   1      30.999  25.027  27.749  1.00  0.00     0.165 HD
BRANCH  16  18
ATOM     18  C   UNL A   1      32.119  25.468  26.120  1.00  0.00     0.122 C 
BRANCH  18  19
ATOM     19  C   UNL A   1      31.736  26.919  26.084  1.00  0.00     0.021 C 
ATOM     20  C   UNL A   1      32.498  28.211  26.414  1.00  0.00    -0.025 C 
ATOM     21  C   UNL A   1      32.113  27.881  24.952  1.00  0.00    -0.025 C 
ATOM     22  C   UNL A   1      31.736  29.327  27.109  1.00  0.00     0.012 C 
ATOM     23  C   UNL A   1      33.946  28.223  26.839  1.00  0.00     0.012 C 
ATOM     24  C   UNL A   1      33.223  27.612  23.959  1.00  0.00     0.012 C 
ATOM     25  C   UNL A   1      30.941  28.570  24.279  1.00  0.00     0.012 C 
ENDBRANCH  18  19
ENDBRANCH  16  18
ENDBRANCH  11  12
ENDBRANCH   7  11
ENDBRANCH   4   7
ENDBRANCH   2   3
ENDBRANCH   1   2
BRANCH   1  26
ATOM     26  C   UNL A   1      38.266  22.497  25.770  1.00  0.00     0.002 C 
BRANCH  26  27
ATOM     27  C   UNL A   1      37.733  21.443  24.789  1.00  0.00     0.002 C 
BRANCH  27  28
ATOM     28  C   UNL A   1      38.455  20.094  24.804  1.00  0.00     0.021 C 
BRANCH  28  29
ATOM     29  C   UNL A   1      39.163  19.762  26.110  1.00  0.00     0.116 C 
BRANCH  29  30
ATOM     30  N   UNL A   1      40.361  18.967  25.903  1.00  0.00    -0.352 N 
ATOM     31  C   UNL A   1      41.678  19.356  25.954  1.00  0.00     0.251 C 
ATOM     32  H   UNL A   1      40.208  18.016  25.698  1.00  0.00     0.163 HD
ATOM     33  O   UNL A   1      42.566  18.601  25.587  1.00  0.00    -0.269 OA
BRANCH  31  34
ATOM     34  C   UNL A   1      42.011  20.711  26.444  1.00  0.00     0.039 A 
ATOM     35  C   UNL A   1      42.091  20.932  27.822  1.00  0.00     0.014 A 
ATOM     36  C   UNL A   1      42.247  21.753  25.545  1.00  0.00     0.014 A 
ATOM     37  C   UNL A   1      42.464  22.191  28.296  1.00  0.00     0.010 A 
ATOM     38  C   UNL A   1      42.692  22.982  26.016  1.00  0.00     0.010 A 
ATOM     39  C   UNL A   1      42.796  23.217  27.396  1.00  0.00    -0.014 A 
BRANCH  39  40
ATOM     40  C   UNL A   1      43.228  24.556  27.867  1.00  0.00     0.031 A 
ATOM     41  C   UNL A   1      42.195  25.599  28.189  1.00  0.00     0.074 A 
ATOM     42  C   UNL A   1      44.539  24.860  27.926  1.00  0.00     0.049 A 
ATOM     43  N   UNL A   1      42.358  26.863  28.489  1.00  0.00    -0.248 NA
ATOM     44  C   UNL A   1      40.788  25.173  28.134  1.00  0.00     0.031 C 
ATOM     45  C   UNL A   1      45.637  23.945  27.607  1.00  0.00     0.029 A 
ATOM     46  N   UNL A   1      45.170  26.032  28.258  1.00  0.00    -0.354 N 
ATOM     47  C   UNL A   1      41.079  27.383  28.636  1.00  0.00     0.074 A 
ATOM     48  C   UNL A   1      40.150  26.314  28.341  1.00  0.00     0.031 C 
ATOM     49  C   UNL A   1      46.805  24.585  27.772  1.00  0.00     0.029 A 
ATOM     50  C   UNL A   1      46.540  25.967  28.165  1.00  0.00     0.049 A 
ATOM     51  H   UNL A   1      44.687  26.843  28.537  1.00  0.00     0.167 HD
ATOM     52  C   UNL A   1      40.711  28.632  29.007  1.00  0.00     0.037 A 
ATOM     53  C   UNL A   1      47.473  26.917  28.359  1.00  0.00     0.037 A 
ATOM     54  C   UNL A   1      41.639  29.685  29.326  1.00  0.00     0.049 A 
ATOM     55  C   UNL A   1      47.039  28.302  28.753  1.00  0.00     0.074 A 
ATOM     56  C   UNL A   1      41.369  30.969  29.761  1.00  0.00     0.029 A 
ATOM     57  N   UNL A   1      43.019  29.570  29.244  1.00  0.00    -0.354 N 
ATOM     58  N   UNL A   1      45.827  28.769  28.941  1.00  0.00    -0.248 NA
ATOM     59  C   UNL A   1      48.102  29.295  28.967  1.00  0.00     0.031 C 
ATOM     60  C   UNL A   1      42.584  31.649  29.897  1.00  0.00     0.029 A 
ATOM     61  C   UNL A   1      43.613  30.769  29.602  1.00  0.00     0.049 A 
ATOM     62  H   UNL A   1      43.504  28.757  28.971  1.00  0.00     0.167 HD
ATOM     63  C   UNL A   1      45.984  30.092  29.332  1.00  0.00     0.074 A 
ATOM     64  C   UNL A   1      47.407  30.354  29.358  1.00  0.00     0.031 C 
ATOM     65  C   UNL A   1      45.034  31.006  29.644  1.00  0.00     0.037 A 
BRANCH  52  66
ATOM     66  C   UNL A   1      39.240  28.927  29.085  1.00  0.00     0.057 A 
ATOM     67  C   UNL A   1      38.514  28.762  30.273  1.00  0.00     0.134 A 
ATOM     68  C   UNL A   1      38.546  29.407  27.966  1.00  0.00     0.134 A 
ATOM     69  F   UNL A   1      39.113  28.294  31.377  1.00  0.00    -0.206 F 
ATOM     70  C   UNL A   1      37.146  29.035  30.336  1.00  0.00     0.040 A 
ATOM     71  C   UNL A   1      37.186  29.713  28.027  1.00  0.00     0.040 A 
ATOM     72  F   UNL A   1      39.181  29.595  26.799  1.00  0.00    -0.206 F 
ATOM     73  C   UNL A   1      36.480  29.519  29.212  1.00  0.00     0.006 A 
ENDBRANCH  52  66
BRANCH  53  74
ATOM     74  C   UNL A   1      48.913  26.591  28.201  1.00  0.00     0.057 A 
ATOM     75  C   UNL A   1      49.692  26.212  29.301  1.00  0.00     0.134 A 
ATOM     76  C   UNL A   1      49.549  26.661  26.956  1.00  0.00     0.134 A 
ATOM     77  F   UNL A   1      49.144  26.146  30.524  1.00  0.00    -0.206 F 
ATOM     78  C   UNL A   1      51.055  25.939  29.175  1.00  0.00     0.040 A 
ATOM     79  C   UNL A   1      50.906  26.363  26.810  1.00  0.00     0.040 A 
ATOM     80  F   UNL A   1      48.859  27.011  25.861  1.00  0.00    -0.206 F 
ATOM     81  C   UNL A   1      51.663  26.009  27.923  1.00  0.00     0.006 A 
ENDBRANCH  53  74
BRANCH  65  82
ATOM     82  C   UNL A   1      45.498  32.359  30.099  1.00  0.00     0.057 A 
ATOM     83  C   UNL A   1      45.698  33.418  29.203  1.00  0.00     0.134 A 
ATOM     84  C   UNL A   1      45.692  32.618  31.462  1.00  0.00     0.134 A 
ATOM     85  F   UNL A   1      45.541  33.232  27.885  1.00  0.00    -0.206 F 
ATOM     86  C   UNL A   1      46.092  34.681  29.647  1.00  0.00     0.040 A 
ATOM     87  C   UNL A   1      46.059  33.885  31.919  1.00  0.00     0.040 A 
ATOM     88  F   UNL A   1      45.508  31.652  32.373  1.00  0.00    -0.206 F 
ATOM     89  C   UNL A   1      46.265  34.919  31.010  1.00  0.00     0.006 A 
ENDBRANCH  65  82
ENDBRANCH  39  40
ENDBRANCH  31  34
ENDBRANCH  29  30
ENDBRANCH  28  29
ENDBRANCH  27  28
ENDBRANCH  26  27
ENDBRANCH   1  26
TORSDOF 18
ENDMDL
MODEL 3
REMARK VINA RESULT:     -10.5      1.789      6.445
REMARK SMILES CC(C)[C@@H](CNC(=O)NCC1C(C)(C)C1(C)C)C(=O)NCCCCCCNC(=O)c1ccc(-c2c3nc(c(-c4c(F)cccc4F)c4ccc([nH]4)c(-c4c(F)cccc4F)c4nc(c(-c5c(F)cccc5F)c5ccc2[nH]5)C=C4)C=C3)cc1
REMARK SMILES IDX 22 1 21 2 20 3 18 4 19 5 4 7 2 8 1 9 3 10 5 11 6 12 7 13
REMARK SMILES IDX 8 15 9 16 10 18 11 19 12 20 15 21 13 22 14 23 16 24 17 25
REMARK SMILES IDX 23 26 24 27 25 28 26 29 27 30 28 31 29 33 30 34 31 35 83 36
REMARK SMILES IDX 32 37 82 38 33 39 34 40 35 41 76 42 36 43 81 44 75 45 77 46
REMARK SMILES IDX 37 47 80 48 74 49 73 50 38 52 64 53 47 54 63 55 48 56 51 57
REMARK SMILES IDX 62 58 78 59 49 60 50 61 61 63 79 64 52 65 39 66 40 67 45 68
REMARK SMILES IDX 41 69 42 70 44 71 46 72 43 73 65 74 66 75 71 76 67 77 68 78
REMARK SMILES IDX 70 79 72 80 69 81 53 82 54 83 59 84 55 85 56 86 58 87 60 88
REMARK SMILES IDX 57 89
REMARK H PARENT 20 6 6 14 9 17 27 32 77 51 51 62
REMARK Flexibility Score: inf
ROOT
ATOM      1  C   UNL A   1      36.760  22.889  25.853  1.00  0.00     0.021 C 
ENDROOT
BRANCH   1   2
ATOM      2  C   UNL A   1      35.790  23.957  25.367  1.00  0.00     0.116 C 
BRANCH   2   3
ATOM      3  N   UNL A   1      35.244  23.684  24.054  1.00  0.00    -0.356 N 
ATOM      4  C   UNL A   1      34.036  23.178  23.685  1.00  0.00     0.225 C 
ATOM      5  O   UNL A   1      33.721  23.283  22.494  1.00  0.00    -0.275 OA
ATOM      6  H   UNL A   1      35.845  23.900  23.305  1.00  0.00     0.163 HD
BRANCH   4   7
ATOM      7  C   UNL A   1      33.080  22.487  24.663  1.00  0.00     0.100 C 
BRANCH   7   8
ATOM      8  C   UNL A   1      33.545  21.079  25.134  1.00  0.00    -0.003 C 
ATOM      9  C   UNL A   1      33.797  21.016  26.644  1.00  0.00     0.008 C 
ATOM     10  C   UNL A   1      32.506  20.008  24.763  1.00  0.00     0.008 C 
ENDBRANCH   7   8
BRANCH   7  11
ATOM     11  C   UNL A   1      32.541  23.448  25.745  1.00  0.00     0.131 C 
BRANCH  11  12
ATOM     12  N   UNL A   1      31.366  23.003  26.459  1.00  0.00    -0.337 N 
ATOM     13  C   UNL A   1      30.240  23.603  26.862  1.00  0.00     0.314 C 
ATOM     14  H   UNL A   1      31.401  22.050  26.702  1.00  0.00     0.165 HD
ATOM     15  O   UNL A   1      29.502  22.972  27.623  1.00  0.00    -0.249 OA
ATOM     16  N   UNL A   1      29.860  24.829  26.506  1.00  0.00    -0.338 N 
ATOM     17  H   UNL A   1      29.076  25.135  27.016  1.00  0.00     0.165 HD
BRANCH  16  18
ATOM     18  C   UNL A   1      30.309  25.821  25.563  1.00  0.00     0.122 C 
BRANCH  18  19
ATOM     19  C   UNL A   1      31.456  26.691  25.989  1.00  0.00     0.021 C 
ATOM     20  C   UNL A   1      32.768  27.102  25.305  1.00  0.00    -0.025 C 
ATOM     21  C   UNL A   1      31.648  28.144  25.540  1.00  0.00    -0.025 C 
ATOM     22  C   UNL A   1      34.017  27.203  26.166  1.00  0.00     0.012 C 
ATOM     23  C   UNL A   1      33.132  26.674  23.904  1.00  0.00     0.012 C 
ATOM     24  C   UNL A   1      30.960  28.745  24.334  1.00  0.00     0.012 C 
ATOM     25  C   UNL A   1      31.747  29.155  26.666  1.00  0.00     0.012 C 
ENDBRANCH  18  19
ENDBRANCH  16  18
ENDBRANCH  11  12
ENDBRANCH   7  11
ENDBRANCH   4   7
ENDBRANCH   2   3
ENDBRANCH   1   2
BRANCH   1  26
ATOM     26  C   UNL A   1      37.402  22.068  24.730  1.00  0.00     0.002 C 
BRANCH  26  27
ATOM     27  C   UNL A   1      36.936  20.609  24.622  1.00  0.00     0.002 C 
BRANCH  27  28
ATOM     28  C   UNL A   1      38.018  19.548  24.833  1.00  0.00     0.021 C 
BRANCH  28  29
ATOM     29  C   UNL A   1      39.091  19.922  25.846  1.00  0.00     0.116 C 
BRANCH  29  30
ATOM     30  N   UNL A   1      40.222  19.011  25.816  1.00  0.00    -0.352 N 
ATOM     31  C   UNL A   1      41.562  19.290  25.946  1.00  0.00     0.251 C 
ATOM     32  H   UNL A   1      39.998  18.062  25.683  1.00  0.00     0.163 HD
ATOM     33  O   UNL A   1      42.402  18.430  25.725  1.00  0.00    -0.269 OA
BRANCH  31  34
ATOM     34  C   UNL A   1      41.980  20.652  26.341  1.00  0.00     0.039 A 
ATOM     35  C   UNL A   1      42.175  20.934  27.695  1.00  0.00     0.014 A 
ATOM     36  C   UNL A   1      42.182  21.640  25.375  1.00  0.00     0.014 A 
ATOM     37  C   UNL A   1      42.629  22.198  28.076  1.00  0.00     0.010 A 
ATOM     38  C   UNL A   1      42.705  22.871  25.749  1.00  0.00     0.010 A 
ATOM     39  C   UNL A   1      42.926  23.167  27.103  1.00  0.00    -0.014 A 
BRANCH  39  40
ATOM     40  C   UNL A   1      43.441  24.509  27.473  1.00  0.00     0.031 A 
ATOM     41  C   UNL A   1      42.483  25.571  27.933  1.00  0.00     0.074 A 
ATOM     42  C   UNL A   1      44.748  24.796  27.316  1.00  0.00     0.049 A 
ATOM     43  N   UNL A   1      42.704  26.838  28.178  1.00  0.00    -0.248 NA
ATOM     44  C   UNL A   1      41.080  25.162  28.111  1.00  0.00     0.031 C 
ATOM     45  C   UNL A   1      45.771  23.861  26.845  1.00  0.00     0.029 A 
ATOM     46  N   UNL A   1      45.435  25.965  27.519  1.00  0.00    -0.354 N 
ATOM     47  C   UNL A   1      41.469  27.377  28.517  1.00  0.00     0.074 A 
ATOM     48  C   UNL A   1      40.495  26.315  28.394  1.00  0.00     0.031 C 
ATOM     49  C   UNL A   1      46.957  24.489  26.809  1.00  0.00     0.029 A 
ATOM     50  C   UNL A   1      46.772  25.881  27.212  1.00  0.00     0.049 A 
ATOM     51  H   UNL A   1      45.011  26.788  27.855  1.00  0.00     0.167 HD
ATOM     52  C   UNL A   1      41.178  28.638  28.916  1.00  0.00     0.037 A 
ATOM     53  C   UNL A   1      47.733  26.822  27.235  1.00  0.00     0.037 A 
ATOM     54  C   UNL A   1      42.155  29.683  29.062  1.00  0.00     0.049 A 
ATOM     55  C   UNL A   1      47.381  28.220  27.666  1.00  0.00     0.074 A 
ATOM     56  C   UNL A   1      41.971  30.979  29.508  1.00  0.00     0.029 A 
ATOM     57  N   UNL A   1      43.503  29.549  28.763  1.00  0.00    -0.354 N 
ATOM     58  N   UNL A   1      46.220  28.706  28.035  1.00  0.00    -0.248 NA
ATOM     59  C   UNL A   1      48.475  29.203  27.688  1.00  0.00     0.031 C 
ATOM     60  C   UNL A   1      43.199  31.645  29.435  1.00  0.00     0.029 A 
ATOM     61  C   UNL A   1      44.160  30.746  28.999  1.00  0.00     0.049 A 
ATOM     62  H   UNL A   1      43.931  28.725  28.434  1.00  0.00     0.167 HD
ATOM     63  C   UNL A   1      46.450  30.033  28.368  1.00  0.00     0.074 A 
ATOM     64  C   UNL A   1      47.862  30.278  28.163  1.00  0.00     0.031 C 
ATOM     65  C   UNL A   1      45.571  30.966  28.809  1.00  0.00     0.037 A 
BRANCH  52  66
ATOM     66  C   UNL A   1      39.741  28.953  29.220  1.00  0.00     0.057 A 
ATOM     67  C   UNL A   1      38.855  29.401  28.231  1.00  0.00     0.134 A 
ATOM     68  C   UNL A   1      39.230  28.780  30.514  1.00  0.00     0.134 A 
ATOM     69  F   UNL A   1      39.282  29.600  26.976  1.00  0.00    -0.206 F 
ATOM     70  C   UNL A   1      37.522  29.694  28.523  1.00  0.00     0.040 A 
ATOM     71  C   UNL A   1      37.891  29.040  30.810  1.00  0.00     0.040 A 
ATOM     72  F   UNL A   1      40.021  28.347  31.508  1.00  0.00    -0.206 F 
ATOM     73  C   UNL A   1      37.036  29.508  29.815  1.00  0.00     0.006 A 
ENDBRANCH  52  66
BRANCH  53  74
ATOM     74  C   UNL A   1      49.127  26.474  26.857  1.00  0.00     0.057 A 
ATOM     75  C   UNL A   1      49.590  26.670  25.550  1.00  0.00     0.134 A 
ATOM     76  C   UNL A   1      50.023  25.927  27.783  1.00  0.00     0.134 A 
ATOM     77  F   UNL A   1      48.772  27.173  24.613  1.00  0.00    -0.206 F 
ATOM     78  C   UNL A   1      50.885  26.314  25.171  1.00  0.00     0.040 A 
ATOM     79  C   UNL A   1      51.330  25.591  27.424  1.00  0.00     0.040 A 
ATOM     80  F   UNL A   1      49.644  25.720  29.052  1.00  0.00    -0.206 F 
ATOM     81  C   UNL A   1      51.761  25.777  26.113  1.00  0.00     0.006 A 
ENDBRANCH  53  74
BRANCH  65  82
ATOM     82  C   UNL A   1      46.115  32.321  29.157  1.00  0.00     0.057 A 
ATOM     83  C   UNL A   1      46.619  32.616  30.430  1.00  0.00     0.134 A 
ATOM     84  C   UNL A   1      46.188  33.325  28.183  1.00  0.00     0.134 A 
ATOM     85  F   UNL A   1      46.568  31.703  31.411  1.00  0.00    -0.206 F 
ATOM     86  C   UNL A   1      47.158  33.870  30.727  1.00  0.00     0.040 A 
ATOM     87  C   UNL A   1      46.750  34.572  28.459  1.00  0.00     0.040 A 
ATOM     88  F   UNL A   1      45.733  33.104  26.940  1.00  0.00    -0.206 F 
ATOM     89  C   UNL A   1      47.232  34.848  29.736  1.00  0.00     0.006 A 
ENDBRANCH  65  82
ENDBRANCH  39  40
ENDBRANCH  31  34
ENDBRANCH  29  30
ENDBRANCH  28  29
ENDBRANCH  27  28
ENDBRANCH  26  27
ENDBRANCH   1  26
TORSDOF 18
ENDMDL
