MODEL 1
REMARK VINA RESULT:     -11.0      0.000      0.000
REMARK SMILES CCc1[nH]nc(-n2cccc2)c1C(=O)NCCCCCCNC(=O)c1ccc(-c2c3nc(c(-c4c(F)cccc4F)c4ccc([nH]4)c(-c4c(F)cccc4F)c4nc(c(-c5c(F)cccc5F)c5ccc2[nH]5)C=C4)C=C3)cc1
REMARK SMILES IDX 19 1 18 2 17 3 16 4 15 5 13 6 14 7 12 9 3 10 4 11 5 12 6 14
REMARK SMILES IDX 2 15 1 16 7 17 8 18 11 19 9 20 10 21 20 22 21 23 22 24 23 25
REMARK SMILES IDX 24 27 25 28 26 29 78 30 27 31 77 32 28 33 29 34 30 35 71 36
REMARK SMILES IDX 31 37 76 38 70 39 72 40 32 41 75 42 69 43 68 44 33 46 59 47
REMARK SMILES IDX 42 48 58 49 43 50 46 51 57 52 73 53 44 54 45 55 56 57 74 58
REMARK SMILES IDX 47 59 34 60 35 61 40 62 36 63 37 64 39 65 41 66 38 67 60 68
REMARK SMILES IDX 61 69 66 70 62 71 63 72 65 73 67 74 64 75 48 76 49 77 54 78
REMARK SMILES IDX 50 79 51 80 53 81 55 82 52 83
REMARK H PARENT 15 8 4 13 22 26 72 45 46 56
REMARK Flexibility Score: inf
ROOT
ATOM      1  C   UNL A   1      33.667  28.257  24.691  1.00  0.00     0.002 C 
ENDROOT
BRANCH   1   2
ATOM      2  C   UNL A   1      33.987  26.788  24.394  1.00  0.00     0.002 C 
BRANCH   2   3
ATOM      3  C   UNL A   1      33.609  26.330  22.983  1.00  0.00     0.021 C 
BRANCH   3   4
ATOM      4  C   UNL A   1      33.690  24.816  22.798  1.00  0.00     0.116 C 
BRANCH   4   5
ATOM      5  N   UNL A   1      32.372  24.273  22.662  1.00  0.00    -0.352 N 
ATOM      6  C   UNL A   1      31.295  24.106  23.475  1.00  0.00     0.256 C 
ATOM      7  O   UNL A   1      30.360  23.577  22.868  1.00  0.00    -0.269 OA
ATOM      8  H   UNL A   1      32.204  23.940  21.751  1.00  0.00     0.163 HD
BRANCH   6   9
ATOM      9  C   UNL A   1      31.149  24.564  24.864  1.00  0.00     0.105 A 
ATOM     10  C   UNL A   1      31.465  24.057  26.137  1.00  0.00     0.050 A 
ATOM     11  N   UNL A   1      31.253  25.094  27.016  1.00  0.00    -0.280 N 
ATOM     12  N   UNL A   1      30.782  26.207  26.465  1.00  0.00    -0.156 NA
ATOM     13  H   UNL A   1      31.436  25.017  27.981  1.00  0.00     0.190 HD
ATOM     14  C   UNL A   1      30.589  25.851  25.193  1.00  0.00     0.171 A 
BRANCH  10  15
ATOM     15  C   UNL A   1      31.940  22.776  26.745  1.00  0.00     0.053 C 
ATOM     16  C   UNL A   1      33.347  22.866  27.309  1.00  0.00     0.011 C 
ENDBRANCH  10  15
BRANCH  14  17
ATOM     17  N   UNL A   1      29.867  26.773  24.371  1.00  0.00    -0.307 N 
ATOM     18  C   UNL A   1      28.540  26.687  23.998  1.00  0.00     0.093 A 
ATOM     19  C   UNL A   1      30.346  27.979  23.892  1.00  0.00     0.093 A 
ATOM     20  C   UNL A   1      28.224  27.757  23.192  1.00  0.00     0.020 A 
ATOM     21  C   UNL A   1      29.377  28.566  23.108  1.00  0.00     0.020 A 
ENDBRANCH  14  17
ENDBRANCH   6   9
ENDBRANCH   4   5
ENDBRANCH   3   4
ENDBRANCH   2   3
ENDBRANCH   1   2
BRANCH   1  22
ATOM     22  C   UNL A   1      33.494  28.594  26.181  1.00  0.00     0.021 C 
BRANCH  22  23
ATOM     23  C   UNL A   1      34.820  28.665  26.933  1.00  0.00     0.116 C 
BRANCH  23  24
ATOM     24  N   UNL A   1      35.202  30.051  27.123  1.00  0.00    -0.352 N 
ATOM     25  C   UNL A   1      36.212  30.603  27.859  1.00  0.00     0.251 C 
ATOM     26  H   UNL A   1      34.641  30.703  26.641  1.00  0.00     0.163 HD
ATOM     27  O   UNL A   1      36.135  31.780  28.186  1.00  0.00    -0.269 OA
BRANCH  25  28
ATOM     28  C   UNL A   1      37.392  29.814  28.254  1.00  0.00     0.039 A 
ATOM     29  C   UNL A   1      38.486  29.810  27.379  1.00  0.00     0.014 A 
ATOM     30  C   UNL A   1      37.384  28.991  29.386  1.00  0.00     0.014 A 
ATOM     31  C   UNL A   1      39.581  29.003  27.649  1.00  0.00     0.010 A 
ATOM     32  C   UNL A   1      38.486  28.203  29.675  1.00  0.00     0.010 A 
ATOM     33  C   UNL A   1      39.581  28.214  28.804  1.00  0.00    -0.014 A 
BRANCH  33  34
ATOM     34  C   UNL A   1      40.824  27.523  29.187  1.00  0.00     0.031 A 
ATOM     35  C   UNL A   1      41.074  26.307  28.264  1.00  0.00     0.074 A 
ATOM     36  C   UNL A   1      41.500  28.053  30.256  1.00  0.00     0.049 A 
ATOM     37  N   UNL A   1      41.714  25.204  28.492  1.00  0.00    -0.248 NA
ATOM     38  C   UNL A   1      40.462  26.281  26.901  1.00  0.00     0.031 C 
ATOM     39  C   UNL A   1      41.092  29.274  30.993  1.00  0.00     0.029 A 
ATOM     40  N   UNL A   1      42.643  27.703  30.945  1.00  0.00    -0.354 N 
ATOM     41  C   UNL A   1      41.773  24.474  27.278  1.00  0.00     0.074 A 
ATOM     42  C   UNL A   1      40.877  25.124  26.376  1.00  0.00     0.031 C 
ATOM     43  C   UNL A   1      41.904  29.503  32.050  1.00  0.00     0.029 A 
ATOM     44  C   UNL A   1      42.926  28.477  32.109  1.00  0.00     0.049 A 
ATOM     45  H   UNL A   1      43.227  26.966  30.653  1.00  0.00     0.167 HD
ATOM     46  C   UNL A   1      42.682  23.474  27.059  1.00  0.00     0.037 A 
ATOM     47  C   UNL A   1      43.883  28.271  33.071  1.00  0.00     0.037 A 
ATOM     48  C   UNL A   1      43.476  23.301  28.226  1.00  0.00     0.049 A 
ATOM     49  C   UNL A   1      44.703  27.175  32.545  1.00  0.00     0.074 A 
ATOM     50  C   UNL A   1      43.178  22.803  29.467  1.00  0.00     0.029 A 
ATOM     51  N   UNL A   1      44.622  24.055  28.296  1.00  0.00    -0.354 N 
ATOM     52  N   UNL A   1      45.546  27.291  31.565  1.00  0.00    -0.248 NA
ATOM     53  C   UNL A   1      44.500  25.827  33.089  1.00  0.00     0.031 C 
ATOM     54  C   UNL A   1      43.839  23.704  30.322  1.00  0.00     0.029 A 
ATOM     55  C   UNL A   1      44.729  24.497  29.586  1.00  0.00     0.049 A 
ATOM     56  H   UNL A   1      45.246  24.242  27.558  1.00  0.00     0.167 HD
ATOM     57  C   UNL A   1      45.685  25.989  31.158  1.00  0.00     0.074 A 
ATOM     58  C   UNL A   1      45.322  25.156  32.287  1.00  0.00     0.031 C 
ATOM     59  C   UNL A   1      45.504  25.685  29.847  1.00  0.00     0.037 A 
BRANCH  46  60
ATOM     60  C   UNL A   1      43.168  22.768  25.822  1.00  0.00     0.057 A 
ATOM     61  C   UNL A   1      43.304  21.358  25.873  1.00  0.00     0.134 A 
ATOM     62  C   UNL A   1      43.847  23.404  24.780  1.00  0.00     0.134 A 
ATOM     63  F   UNL A   1      42.653  20.633  26.799  1.00  0.00    -0.206 F 
ATOM     64  C   UNL A   1      44.177  20.652  25.045  1.00  0.00     0.040 A 
ATOM     65  C   UNL A   1      44.691  22.696  23.911  1.00  0.00     0.040 A 
ATOM     66  F   UNL A   1      43.800  24.733  24.626  1.00  0.00    -0.206 F 
ATOM     67  C   UNL A   1      44.896  21.328  24.071  1.00  0.00     0.006 A 
ENDBRANCH  46  60
BRANCH  47  68
ATOM     68  C   UNL A   1      44.258  28.746  34.462  1.00  0.00     0.057 A 
ATOM     69  C   UNL A   1      43.584  28.460  35.649  1.00  0.00     0.134 A 
ATOM     70  C   UNL A   1      45.474  29.467  34.661  1.00  0.00     0.134 A 
ATOM     71  F   UNL A   1      42.368  27.903  35.642  1.00  0.00    -0.206 F 
ATOM     72  C   UNL A   1      44.134  28.748  36.919  1.00  0.00     0.040 A 
ATOM     73  C   UNL A   1      46.058  29.705  35.908  1.00  0.00     0.040 A 
ATOM     74  F   UNL A   1      46.175  29.976  33.638  1.00  0.00    -0.206 F 
ATOM     75  C   UNL A   1      45.394  29.325  37.052  1.00  0.00     0.006 A 
ENDBRANCH  47  68
BRANCH  59  76
ATOM     76  C   UNL A   1      45.786  26.828  28.885  1.00  0.00     0.057 A 
ATOM     77  C   UNL A   1      47.071  27.388  28.821  1.00  0.00     0.134 A 
ATOM     78  C   UNL A   1      44.818  27.476  28.102  1.00  0.00     0.134 A 
ATOM     79  F   UNL A   1      48.081  26.832  29.507  1.00  0.00    -0.206 F 
ATOM     80  C   UNL A   1      47.361  28.532  28.062  1.00  0.00     0.040 A 
ATOM     81  C   UNL A   1      45.088  28.618  27.332  1.00  0.00     0.040 A 
ATOM     82  F   UNL A   1      43.566  27.029  28.056  1.00  0.00    -0.206 F 
ATOM     83  C   UNL A   1      46.366  29.157  27.318  1.00  0.00     0.006 A 
ENDBRANCH  59  76
ENDBRANCH  33  34
ENDBRANCH  25  28
ENDBRANCH  23  24
ENDBRANCH  22  23
ENDBRANCH   1  22
TORSDOF 15
ENDMDL
MODEL 2
REMARK VINA RESULT:     -10.9      1.355      2.557
REMARK SMILES CCc1[nH]nc(-n2cccc2)c1C(=O)NCCCCCCNC(=O)c1ccc(-c2c3nc(c(-c4c(F)cccc4F)c4ccc([nH]4)c(-c4c(F)cccc4F)c4nc(c(-c5c(F)cccc5F)c5ccc2[nH]5)C=C4)C=C3)cc1
REMARK SMILES IDX 19 1 18 2 17 3 16 4 15 5 13 6 14 7 12 9 3 10 4 11 5 12 6 14
REMARK SMILES IDX 2 15 1 16 7 17 8 18 11 19 9 20 10 21 20 22 21 23 22 24 23 25
REMARK SMILES IDX 24 27 25 28 26 29 78 30 27 31 77 32 28 33 29 34 30 35 71 36
REMARK SMILES IDX 31 37 76 38 70 39 72 40 32 41 75 42 69 43 68 44 33 46 59 47
REMARK SMILES IDX 42 48 58 49 43 50 46 51 57 52 73 53 44 54 45 55 56 57 74 58
REMARK SMILES IDX 47 59 34 60 35 61 40 62 36 63 37 64 39 65 41 66 38 67 60 68
REMARK SMILES IDX 61 69 66 70 62 71 63 72 65 73 67 74 64 75 48 76 49 77 54 78
REMARK SMILES IDX 50 79 51 80 53 81 55 82 52 83
REMARK H PARENT 15 8 4 13 22 26 72 45 46 56
REMARK Flexibility Score: inf
ROOT
ATOM      1  C   UNL A   1      33.322  27.601  25.480  1.00  0.00     0.002 C 
ENDROOT
BRANCH   1   2
ATOM      2  C   UNL A   1      33.167  27.926  23.990  1.00  0.00     0.002 C 
BRANCH   2   3
ATOM      3  C   UNL A   1      33.552  26.783  23.049  1.00  0.00     0.021 C 
BRANCH   3   4
ATOM      4  C   UNL A   1      34.021  25.528  23.783  1.00  0.00     0.116 C 
BRANCH   4   5
ATOM      5  N   UNL A   1      33.282  24.392  23.322  1.00  0.00    -0.352 N 
ATOM      6  C   UNL A   1      32.728  23.288  23.891  1.00  0.00     0.256 C 
ATOM      7  O   UNL A   1      32.171  22.585  23.044  1.00  0.00    -0.269 OA
ATOM      8  H   UNL A   1      33.137  24.418  22.348  1.00  0.00     0.163 HD
BRANCH   6   9
ATOM      9  C   UNL A   1      32.665  22.962  25.323  1.00  0.00     0.105 A 
ATOM     10  C   UNL A   1      31.688  23.011  26.332  1.00  0.00     0.050 A 
ATOM     11  N   UNL A   1      32.231  22.355  27.413  1.00  0.00    -0.280 N 
ATOM     12  N   UNL A   1      33.477  21.930  27.239  1.00  0.00    -0.156 NA
ATOM     13  H   UNL A   1      31.734  22.211  28.251  1.00  0.00     0.190 HD
ATOM     14  C   UNL A   1      33.791  22.410  26.034  1.00  0.00     0.171 A 
BRANCH  10  15
ATOM     15  C   UNL A   1      30.305  23.550  26.527  1.00  0.00     0.053 C 
ATOM     16  C   UNL A   1      29.435  22.664  27.399  1.00  0.00     0.011 C 
ENDBRANCH  10  15
BRANCH  14  17
ATOM     17  N   UNL A   1      35.164  22.315  25.643  1.00  0.00    -0.307 N 
ATOM     18  C   UNL A   1      35.711  21.417  24.748  1.00  0.00     0.093 A 
ATOM     19  C   UNL A   1      36.175  23.184  26.013  1.00  0.00     0.093 A 
ATOM     20  C   UNL A   1      37.066  21.636  24.653  1.00  0.00     0.020 A 
ATOM     21  C   UNL A   1      37.364  22.746  25.473  1.00  0.00     0.020 A 
ENDBRANCH  14  17
ENDBRANCH   6   9
ENDBRANCH   4   5
ENDBRANCH   3   4
ENDBRANCH   2   3
ENDBRANCH   1   2
BRANCH   1  22
ATOM     22  C   UNL A   1      33.528  28.821  26.392  1.00  0.00     0.021 C 
BRANCH  22  23
ATOM     23  C   UNL A   1      34.903  28.843  27.054  1.00  0.00     0.116 C 
BRANCH  23  24
ATOM     24  N   UNL A   1      35.343  30.214  27.225  1.00  0.00    -0.352 N 
ATOM     25  C   UNL A   1      36.385  30.731  27.942  1.00  0.00     0.251 C 
ATOM     26  H   UNL A   1      34.802  30.884  26.745  1.00  0.00     0.163 HD
ATOM     27  O   UNL A   1      36.361  31.914  28.258  1.00  0.00    -0.269 OA
BRANCH  25  28
ATOM     28  C   UNL A   1      37.539  29.899  28.328  1.00  0.00     0.039 A 
ATOM     29  C   UNL A   1      38.667  29.939  27.497  1.00  0.00     0.014 A 
ATOM     30  C   UNL A   1      37.474  29.000  29.398  1.00  0.00     0.014 A 
ATOM     31  C   UNL A   1      39.739  29.098  27.754  1.00  0.00     0.010 A 
ATOM     32  C   UNL A   1      38.554  28.177  29.675  1.00  0.00     0.010 A 
ATOM     33  C   UNL A   1      39.682  28.231  28.851  1.00  0.00    -0.014 A 
BRANCH  33  34
ATOM     34  C   UNL A   1      40.901  27.497  29.234  1.00  0.00     0.031 A 
ATOM     35  C   UNL A   1      41.125  26.291  28.291  1.00  0.00     0.074 A 
ATOM     36  C   UNL A   1      41.580  27.987  30.319  1.00  0.00     0.049 A 
ATOM     37  N   UNL A   1      41.730  25.166  28.504  1.00  0.00    -0.248 NA
ATOM     38  C   UNL A   1      40.527  26.308  26.921  1.00  0.00     0.031 C 
ATOM     39  C   UNL A   1      41.200  29.206  31.075  1.00  0.00     0.029 A 
ATOM     40  N   UNL A   1      42.705  27.590  31.014  1.00  0.00    -0.354 N 
ATOM     41  C   UNL A   1      41.780  24.456  27.278  1.00  0.00     0.074 A 
ATOM     42  C   UNL A   1      40.913  25.150  26.379  1.00  0.00     0.031 C 
ATOM     43  C   UNL A   1      42.007  29.390  32.144  1.00  0.00     0.029 A 
ATOM     44  C   UNL A   1      42.997  28.334  32.195  1.00  0.00     0.049 A 
ATOM     45  H   UNL A   1      43.270  26.841  30.714  1.00  0.00     0.167 HD
ATOM     46  C   UNL A   1      42.661  23.434  27.050  1.00  0.00     0.037 A 
ATOM     47  C   UNL A   1      43.938  28.081  33.162  1.00  0.00     0.037 A 
ATOM     48  C   UNL A   1      43.437  23.215  28.221  1.00  0.00     0.049 A 
ATOM     49  C   UNL A   1      44.731  26.971  32.625  1.00  0.00     0.074 A 
ATOM     50  C   UNL A   1      43.110  22.705  29.449  1.00  0.00     0.029 A 
ATOM     51  N   UNL A   1      44.604  23.934  28.317  1.00  0.00    -0.354 N 
ATOM     52  N   UNL A   1      45.587  27.080  31.656  1.00  0.00    -0.248 NA
ATOM     53  C   UNL A   1      44.482  25.620  33.141  1.00  0.00     0.031 C 
ATOM     54  C   UNL A   1      43.789  23.569  30.328  1.00  0.00     0.029 A 
ATOM     55  C   UNL A   1      44.710  24.349  29.616  1.00  0.00     0.049 A 
ATOM     56  H   UNL A   1      45.241  24.116  27.589  1.00  0.00     0.167 HD
ATOM     57  C   UNL A   1      45.692  25.782  31.226  1.00  0.00     0.074 A 
ATOM     58  C   UNL A   1      45.292  24.939  32.336  1.00  0.00     0.031 C 
ATOM     59  C   UNL A   1      45.517  25.508  29.908  1.00  0.00     0.037 A 
BRANCH  46  60
ATOM     60  C   UNL A   1      43.140  22.737  25.805  1.00  0.00     0.057 A 
ATOM     61  C   UNL A   1      43.264  21.325  25.841  1.00  0.00     0.134 A 
ATOM     62  C   UNL A   1      43.821  23.378  24.768  1.00  0.00     0.134 A 
ATOM     63  F   UNL A   1      42.610  20.596  26.761  1.00  0.00    -0.206 F 
ATOM     64  C   UNL A   1      44.132  20.621  25.005  1.00  0.00     0.040 A 
ATOM     65  C   UNL A   1      44.658  22.673  23.890  1.00  0.00     0.040 A 
ATOM     66  F   UNL A   1      43.783  24.709  24.626  1.00  0.00    -0.206 F 
ATOM     67  C   UNL A   1      44.853  21.301  24.036  1.00  0.00     0.006 A 
ENDBRANCH  46  60
BRANCH  47  68
ATOM     68  C   UNL A   1      44.312  28.519  34.566  1.00  0.00     0.057 A 
ATOM     69  C   UNL A   1      43.618  28.229  35.741  1.00  0.00     0.134 A 
ATOM     70  C   UNL A   1      45.545  29.203  34.790  1.00  0.00     0.134 A 
ATOM     71  F   UNL A   1      42.388  27.705  35.711  1.00  0.00    -0.206 F 
ATOM     72  C   UNL A   1      44.163  28.477  37.021  1.00  0.00     0.040 A 
ATOM     73  C   UNL A   1      46.122  29.401  36.048  1.00  0.00     0.040 A 
ATOM     74  F   UNL A   1      46.269  29.713  33.785  1.00  0.00    -0.206 F 
ATOM     75  C   UNL A   1      45.436  29.018  37.177  1.00  0.00     0.006 A 
ENDBRANCH  47  68
BRANCH  59  76
ATOM     76  C   UNL A   1      45.842  26.660  28.970  1.00  0.00     0.057 A 
ATOM     77  C   UNL A   1      47.145  27.182  28.930  1.00  0.00     0.134 A 
ATOM     78  C   UNL A   1      44.903  27.351  28.190  1.00  0.00     0.134 A 
ATOM     79  F   UNL A   1      48.131  26.583  29.615  1.00  0.00    -0.206 F 
ATOM     80  C   UNL A   1      47.476  28.330  28.195  1.00  0.00     0.040 A 
ATOM     81  C   UNL A   1      45.216  28.498  27.444  1.00  0.00     0.040 A 
ATOM     82  F   UNL A   1      43.638  26.943  28.123  1.00  0.00    -0.206 F 
ATOM     83  C   UNL A   1      46.509  28.999  27.453  1.00  0.00     0.006 A 
ENDBRANCH  59  76
ENDBRANCH  33  34
ENDBRANCH  25  28
ENDBRANCH  23  24
ENDBRANCH  22  23
ENDBRANCH   1  22
TORSDOF 15
ENDMDL
MODEL 3
REMARK VINA RESULT:     -10.9      1.235      2.167
REMARK SMILES CCc1[nH]nc(-n2cccc2)c1C(=O)NCCCCCCNC(=O)c1ccc(-c2c3nc(c(-c4c(F)cccc4F)c4ccc([nH]4)c(-c4c(F)cccc4F)c4nc(c(-c5c(F)cccc5F)c5ccc2[nH]5)C=C4)C=C3)cc1
REMARK SMILES IDX 19 1 18 2 17 3 16 4 15 5 13 6 14 7 12 9 3 10 4 11 5 12 6 14
REMARK SMILES IDX 2 15 1 16 7 17 8 18 11 19 9 20 10 21 20 22 21 23 22 24 23 25
REMARK SMILES IDX 24 27 25 28 26 29 78 30 27 31 77 32 28 33 29 34 30 35 71 36
REMARK SMILES IDX 31 37 76 38 70 39 72 40 32 41 75 42 69 43 68 44 33 46 59 47
REMARK SMILES IDX 42 48 58 49 43 50 46 51 57 52 73 53 44 54 45 55 56 57 74 58
REMARK SMILES IDX 47 59 34 60 35 61 40 62 36 63 37 64 39 65 41 66 38 67 60 68
REMARK SMILES IDX 61 69 66 70 62 71 63 72 65 73 67 74 64 75 48 76 49 77 54 78
REMARK SMILES IDX 50 79 51 80 53 81 55 82 52 83
REMARK H PARENT 15 8 4 13 22 26 72 45 46 56
REMARK Flexibility Score: inf
ROOT
ATOM      1  C   UNL A   1      33.180  28.591  24.819  1.00  0.00     0.002 C 
ENDROOT
BRANCH   1   2
ATOM      2  C   UNL A   1      33.770  27.401  24.056  1.00  0.00     0.002 C 
BRANCH   2   3
ATOM      3  C   UNL A   1      32.772  26.669  23.155  1.00  0.00     0.021 C 
BRANCH   3   4
ATOM      4  C   UNL A   1      33.441  25.852  22.052  1.00  0.00     0.116 C 
BRANCH   4   5
ATOM      5  N   UNL A   1      32.987  24.495  22.111  1.00  0.00    -0.352 N 
ATOM      6  C   UNL A   1      33.236  23.413  22.896  1.00  0.00     0.256 C 
ATOM      7  O   UNL A   1      32.567  22.441  22.535  1.00  0.00    -0.269 OA
ATOM      8  H   UNL A   1      32.327  24.297  21.406  1.00  0.00     0.163 HD
BRANCH   6   9
ATOM      9  C   UNL A   1      34.087  23.360  24.092  1.00  0.00     0.105 A 
ATOM     10  C   UNL A   1      35.444  23.107  24.361  1.00  0.00     0.050 A 
ATOM     11  N   UNL A   1      35.631  23.428  25.686  1.00  0.00    -0.280 N 
ATOM     12  N   UNL A   1      34.533  23.813  26.327  1.00  0.00    -0.156 NA
ATOM     13  H   UNL A   1      36.511  23.377  26.125  1.00  0.00     0.190 HD
ATOM     14  C   UNL A   1      33.578  23.644  25.410  1.00  0.00     0.171 A 
BRANCH  10  15
ATOM     15  C   UNL A   1      36.656  22.615  23.635  1.00  0.00     0.053 C 
ATOM     16  C   UNL A   1      37.393  21.514  24.376  1.00  0.00     0.011 C 
ENDBRANCH  10  15
BRANCH  14  17
ATOM     17  N   UNL A   1      32.226  23.759  25.864  1.00  0.00    -0.307 N 
ATOM     18  C   UNL A   1      31.428  24.886  25.816  1.00  0.00     0.093 A 
ATOM     19  C   UNL A   1      31.437  22.725  26.334  1.00  0.00     0.093 A 
ATOM     20  C   UNL A   1      30.199  24.597  26.364  1.00  0.00     0.020 A 
ATOM     21  C   UNL A   1      30.212  23.230  26.712  1.00  0.00     0.020 A 
ENDBRANCH  14  17
ENDBRANCH   6   9
ENDBRANCH   4   5
ENDBRANCH   3   4
ENDBRANCH   2   3
ENDBRANCH   1   2
BRANCH   1  22
ATOM     22  C   UNL A   1      33.298  28.502  26.350  1.00  0.00     0.021 C 
BRANCH  22  23
ATOM     23  C   UNL A   1      34.739  28.609  26.843  1.00  0.00     0.116 C 
BRANCH  23  24
ATOM     24  N   UNL A   1      35.089  30.002  27.037  1.00  0.00    -0.352 N 
ATOM     25  C   UNL A   1      36.080  30.574  27.784  1.00  0.00     0.251 C 
ATOM     26  H   UNL A   1      34.519  30.642  26.552  1.00  0.00     0.163 HD
ATOM     27  O   UNL A   1      35.975  31.750  28.111  1.00  0.00    -0.269 OA
BRANCH  25  28
ATOM     28  C   UNL A   1      37.274  29.811  28.189  1.00  0.00     0.039 A 
ATOM     29  C   UNL A   1      38.366  29.811  27.310  1.00  0.00     0.014 A 
ATOM     30  C   UNL A   1      37.281  29.006  29.333  1.00  0.00     0.014 A 
ATOM     31  C   UNL A   1      39.474  29.026  27.590  1.00  0.00     0.010 A 
ATOM     32  C   UNL A   1      38.397  28.240  29.632  1.00  0.00     0.010 A 
ATOM     33  C   UNL A   1      39.489  28.255  28.758  1.00  0.00    -0.014 A 
BRANCH  33  34
ATOM     34  C   UNL A   1      40.744  27.590  29.149  1.00  0.00     0.031 A 
ATOM     35  C   UNL A   1      41.012  26.365  28.243  1.00  0.00     0.074 A 
ATOM     36  C   UNL A   1      41.412  28.147  30.209  1.00  0.00     0.049 A 
ATOM     37  N   UNL A   1      41.671  25.276  28.486  1.00  0.00    -0.248 NA
ATOM     38  C   UNL A   1      40.399  26.309  26.882  1.00  0.00     0.031 C 
ATOM     39  C   UNL A   1      40.986  29.372  30.929  1.00  0.00     0.029 A 
ATOM     40  N   UNL A   1      42.563  27.826  30.901  1.00  0.00    -0.354 N 
ATOM     41  C   UNL A   1      41.740  24.529  27.283  1.00  0.00     0.074 A 
ATOM     42  C   UNL A   1      40.831  25.151  26.373  1.00  0.00     0.031 C 
ATOM     43  C   UNL A   1      41.796  29.629  31.980  1.00  0.00     0.029 A 
ATOM     44  C   UNL A   1      42.834  28.621  32.053  1.00  0.00     0.049 A 
ATOM     45  H   UNL A   1      43.158  27.094  30.619  1.00  0.00     0.167 HD
ATOM     46  C   UNL A   1      42.665  23.542  27.077  1.00  0.00     0.037 A 
ATOM     47  C   UNL A   1      43.796  28.445  33.016  1.00  0.00     0.037 A 
ATOM     48  C   UNL A   1      43.463  23.398  28.245  1.00  0.00     0.049 A 
ATOM     49  C   UNL A   1      44.633  27.355  32.505  1.00  0.00     0.074 A 
ATOM     50  C   UNL A   1      43.175  22.914  29.493  1.00  0.00     0.029 A 
ATOM     51  N   UNL A   1      44.597  24.172  28.301  1.00  0.00    -0.354 N 
ATOM     52  N   UNL A   1      45.472  27.470  31.521  1.00  0.00    -0.248 NA
ATOM     53  C   UNL A   1      44.453  26.011  33.068  1.00  0.00     0.031 C 
ATOM     54  C   UNL A   1      43.823  23.838  30.334  1.00  0.00     0.029 A 
ATOM     55  C   UNL A   1      44.699  24.635  29.584  1.00  0.00     0.049 A 
ATOM     56  H   UNL A   1      45.217  24.358  27.559  1.00  0.00     0.167 HD
ATOM     57  C   UNL A   1      45.632  26.164  31.133  1.00  0.00     0.074 A 
ATOM     58  C   UNL A   1      45.285  25.342  32.275  1.00  0.00     0.031 C 
ATOM     59  C   UNL A   1      45.454  25.839  29.827  1.00  0.00     0.037 A 
BRANCH  46  60
ATOM     60  C   UNL A   1      43.160  22.826  25.849  1.00  0.00     0.057 A 
ATOM     61  C   UNL A   1      43.291  21.415  25.912  1.00  0.00     0.134 A 
ATOM     62  C   UNL A   1      43.850  23.452  24.809  1.00  0.00     0.134 A 
ATOM     63  F   UNL A   1      42.631  20.699  26.837  1.00  0.00    -0.206 F 
ATOM     64  C   UNL A   1      44.171  20.701  25.097  1.00  0.00     0.040 A 
ATOM     65  C   UNL A   1      44.700  22.736  23.953  1.00  0.00     0.040 A 
ATOM     66  F   UNL A   1      43.807  24.780  24.645  1.00  0.00    -0.206 F 
ATOM     67  C   UNL A   1      44.900  21.368  24.125  1.00  0.00     0.006 A 
ENDBRANCH  46  60
BRANCH  47  68
ATOM     68  C   UNL A   1      44.166  28.946  34.399  1.00  0.00     0.057 A 
ATOM     69  C   UNL A   1      45.369  29.545  34.773  1.00  0.00     0.134 A 
ATOM     70  C   UNL A   1      43.191  28.934  35.441  1.00  0.00     0.134 A 
ATOM     71  F   UNL A   1      46.434  29.531  33.965  1.00  0.00    -0.206 F 
ATOM     72  C   UNL A   1      45.537  30.189  36.020  1.00  0.00     0.040 A 
ATOM     73  C   UNL A   1      43.321  29.617  36.654  1.00  0.00     0.040 A 
ATOM     74  F   UNL A   1      42.039  28.257  35.331  1.00  0.00    -0.206 F 
ATOM     75  C   UNL A   1      44.497  30.270  36.942  1.00  0.00     0.006 A 
ENDBRANCH  47  68
BRANCH  59  76
ATOM     76  C   UNL A   1      45.715  26.972  28.847  1.00  0.00     0.057 A 
ATOM     77  C   UNL A   1      46.992  27.552  28.774  1.00  0.00     0.134 A 
ATOM     78  C   UNL A   1      44.736  27.592  28.057  1.00  0.00     0.134 A 
ATOM     79  F   UNL A   1      48.012  27.022  29.465  1.00  0.00    -0.206 F 
ATOM     80  C   UNL A   1      47.261  28.689  27.997  1.00  0.00     0.040 A 
ATOM     81  C   UNL A   1      44.987  28.727  27.270  1.00  0.00     0.040 A 
ATOM     82  F   UNL A   1      43.491  27.124  28.020  1.00  0.00    -0.206 F 
ATOM     83  C   UNL A   1      46.255  29.287  27.245  1.00  0.00     0.006 A 
ENDBRANCH  59  76
ENDBRANCH  33  34
ENDBRANCH  25  28
ENDBRANCH  23  24
ENDBRANCH  22  23
ENDBRANCH   1  22
TORSDOF 15
ENDMDL
