MODEL 1
REMARK VINA RESULT:     -12.4      0.000      0.000
REMARK SMILES O=C(NCCCCCCNC(=O)c1[nH]ncc1C[NH+]1CCC([N@H+]2CCC[C@@H](C(=O)N3CCCC3)C2)CC1)c1ccc(-c2c3nc(c(-c4c(F)cccc4F)c4ccc([nH]4)c(-c4c(F)cccc4F)c4nc(c(-c5c(F)cccc5F)c5ccc2[nH]5)C=C4)C=C3)cc1
REMARK SMILES IDX 7 1 6 2 5 3 4 4 3 5 1 6 2 7 38 9 39 10 91 11 40 12 90 13
REMARK SMILES IDX 41 14 42 15 43 16 84 17 44 18 89 19 83 20 85 21 45 22 88 23
REMARK SMILES IDX 82 24 81 25 46 27 72 28 55 29 71 30 56 31 59 32 70 33 86 34
REMARK SMILES IDX 57 35 58 36 69 38 87 39 60 40 47 41 48 42 53 43 49 44 50 45
REMARK SMILES IDX 52 46 54 47 51 48 73 49 74 50 79 51 75 52 76 53 78 54 80 55
REMARK SMILES IDX 77 56 61 57 62 58 67 59 63 60 64 61 66 62 68 63 65 64 8 65
REMARK SMILES IDX 9 66 10 67 11 68 12 70 13 71 14 72 17 73 15 74 16 76 18 77
REMARK SMILES IDX 19 78 20 79 37 80 21 82 36 83 22 84 23 85 24 86 35 87 25 89
REMARK SMILES IDX 27 90 26 91 28 92 29 93 30 94 31 95 34 96 32 97 33 98
REMARK H PARENT 3 8 85 26 59 37 10 69 14 75 19 81 23 88
REMARK Flexibility Score: inf
ROOT
ATOM      1  C   UNL A   1      32.430  29.612  26.734  1.00  0.00     0.002 C 
ENDROOT
BRANCH   1   2
ATOM      2  C   UNL A   1      31.544  30.726  26.172  1.00  0.00     0.002 C 
BRANCH   2   3
ATOM      3  C   UNL A   1      31.452  32.007  27.006  1.00  0.00     0.021 C 
BRANCH   3   4
ATOM      4  C   UNL A   1      32.715  32.862  27.055  1.00  0.00     0.116 C 
BRANCH   4   5
ATOM      5  N   UNL A   1      32.498  34.149  27.687  1.00  0.00    -0.352 N 
ATOM      6  O   UNL A   1      32.712  35.768  29.233  1.00  0.00    -0.269 OA
ATOM      7  C   UNL A   1      33.131  34.714  28.763  1.00  0.00     0.251 C 
ATOM      8  H   UNL A   1      31.789  34.699  27.281  1.00  0.00     0.163 HD
BRANCH   7   9
ATOM      9  C   UNL A   1      34.299  34.051  29.380  1.00  0.00     0.039 A 
ATOM     10  C   UNL A   1      34.149  33.086  30.382  1.00  0.00     0.014 A 
ATOM     11  C   UNL A   1      35.573  34.374  28.904  1.00  0.00     0.014 A 
ATOM     12  C   UNL A   1      35.275  32.514  30.972  1.00  0.00     0.010 A 
ATOM     13  C   UNL A   1      36.698  33.763  29.459  1.00  0.00     0.010 A 
ATOM     14  C   UNL A   1      36.559  32.842  30.510  1.00  0.00    -0.014 A 
BRANCH  14  15
ATOM     15  C   UNL A   1      37.759  32.189  31.084  1.00  0.00     0.031 A 
ATOM     16  C   UNL A   1      38.459  31.087  30.345  1.00  0.00     0.074 A 
ATOM     17  C   UNL A   1      38.186  32.561  32.304  1.00  0.00     0.049 A 
ATOM     18  N   UNL A   1      39.456  30.336  30.735  1.00  0.00    -0.248 NA
ATOM     19  C   UNL A   1      37.965  30.782  28.993  1.00  0.00     0.031 C 
ATOM     20  C   UNL A   1      37.579  33.611  33.126  1.00  0.00     0.029 A 
ATOM     21  N   UNL A   1      39.217  32.086  33.075  1.00  0.00    -0.354 N 
ATOM     22  C   UNL A   1      39.697  29.453  29.690  1.00  0.00     0.074 A 
ATOM     23  C   UNL A   1      38.731  29.753  28.654  1.00  0.00     0.031 C 
ATOM     24  C   UNL A   1      38.247  33.698  34.286  1.00  0.00     0.029 A 
ATOM     25  C   UNL A   1      39.296  32.683  34.307  1.00  0.00     0.049 A 
ATOM     26  H   UNL A   1      39.839  31.386  32.772  1.00  0.00     0.167 HD
ATOM     27  C   UNL A   1      40.638  28.482  29.605  1.00  0.00     0.037 A 
ATOM     28  C   UNL A   1      40.102  32.425  35.353  1.00  0.00     0.037 A 
ATOM     29  C   UNL A   1      41.607  28.197  30.631  1.00  0.00     0.049 A 
ATOM     30  C   UNL A   1      41.126  31.334  35.244  1.00  0.00     0.074 A 
ATOM     31  C   UNL A   1      42.634  27.270  30.614  1.00  0.00     0.029 A 
ATOM     32  N   UNL A   1      41.661  28.833  31.862  1.00  0.00    -0.354 N 
ATOM     33  N   UNL A   1      41.368  30.533  34.236  1.00  0.00    -0.248 NA
ATOM     34  C   UNL A   1      41.986  31.110  36.414  1.00  0.00     0.031 C 
ATOM     35  C   UNL A   1      43.290  27.321  31.850  1.00  0.00     0.029 A 
ATOM     36  C   UNL A   1      42.691  28.303  32.622  1.00  0.00     0.049 A 
ATOM     37  H   UNL A   1      41.057  29.553  32.154  1.00  0.00     0.167 HD
ATOM     38  C   UNL A   1      42.416  29.718  34.642  1.00  0.00     0.074 A 
ATOM     39  C   UNL A   1      42.768  30.127  35.986  1.00  0.00     0.031 C 
ATOM     40  C   UNL A   1      43.030  28.723  33.958  1.00  0.00     0.037 A 
BRANCH  27  41
ATOM     41  C   UNL A   1      40.649  27.642  28.364  1.00  0.00     0.057 A 
ATOM     42  C   UNL A   1      41.370  28.018  27.224  1.00  0.00     0.134 A 
ATOM     43  C   UNL A   1      39.950  26.430  28.318  1.00  0.00     0.134 A 
ATOM     44  F   UNL A   1      42.050  29.174  27.199  1.00  0.00    -0.206 F 
ATOM     45  C   UNL A   1      41.377  27.227  26.073  1.00  0.00     0.040 A 
ATOM     46  C   UNL A   1      39.965  25.621  27.180  1.00  0.00     0.040 A 
ATOM     47  F   UNL A   1      39.243  26.011  29.379  1.00  0.00    -0.206 F 
ATOM     48  C   UNL A   1      40.676  26.023  26.051  1.00  0.00     0.006 A 
ENDBRANCH  27  41
BRANCH  28  49
ATOM     49  C   UNL A   1      39.950  33.217  36.595  1.00  0.00     0.057 A 
ATOM     50  C   UNL A   1      39.057  32.826  37.596  1.00  0.00     0.134 A 
ATOM     51  C   UNL A   1      40.737  34.352  36.832  1.00  0.00     0.134 A 
ATOM     52  F   UNL A   1      38.269  31.756  37.418  1.00  0.00    -0.206 F 
ATOM     53  C   UNL A   1      38.953  33.534  38.795  1.00  0.00     0.040 A 
ATOM     54  C   UNL A   1      40.656  35.057  38.031  1.00  0.00     0.040 A 
ATOM     55  F   UNL A   1      41.617  34.768  35.910  1.00  0.00    -0.206 F 
ATOM     56  C   UNL A   1      39.760  34.648  39.017  1.00  0.00     0.006 A 
ENDBRANCH  28  49
BRANCH  40  57
ATOM     57  C   UNL A   1      44.164  28.021  34.642  1.00  0.00     0.057 A 
ATOM     58  C   UNL A   1      43.954  26.881  35.425  1.00  0.00     0.134 A 
ATOM     59  C   UNL A   1      45.481  28.463  34.471  1.00  0.00     0.134 A 
ATOM     60  F   UNL A   1      42.712  26.419  35.635  1.00  0.00    -0.206 F 
ATOM     61  C   UNL A   1      45.019  26.204  36.022  1.00  0.00     0.040 A 
ATOM     62  C   UNL A   1      46.555  27.785  35.048  1.00  0.00     0.040 A 
ATOM     63  F   UNL A   1      45.745  29.548  33.728  1.00  0.00    -0.206 F 
ATOM     64  C   UNL A   1      46.325  26.653  35.828  1.00  0.00     0.006 A 
ENDBRANCH  40  57
ENDBRANCH  14  15
ENDBRANCH   7   9
ENDBRANCH   4   5
ENDBRANCH   3   4
ENDBRANCH   2   3
ENDBRANCH   1   2
BRANCH   1  65
ATOM     65  C   UNL A   1      33.238  28.804  25.714  1.00  0.00     0.021 C 
BRANCH  65  66
ATOM     66  C   UNL A   1      33.139  29.279  24.268  1.00  0.00     0.116 C 
BRANCH  66  67
ATOM     67  N   UNL A   1      33.198  28.191  23.309  1.00  0.00    -0.351 N 
ATOM     68  C   UNL A   1      32.237  27.755  22.436  1.00  0.00     0.269 C 
ATOM     69  H   UNL A   1      34.049  27.697  23.283  1.00  0.00     0.163 HD
ATOM     70  O   UNL A   1      32.426  26.692  21.845  1.00  0.00    -0.268 OA
BRANCH  68  71
ATOM     71  C   UNL A   1      31.017  28.498  22.295  1.00  0.00     0.131 A 
ATOM     72  N   UNL A   1      31.009  29.724  21.685  1.00  0.00    -0.272 N 
ATOM     73  C   UNL A   1      29.708  28.287  22.721  1.00  0.00     0.057 A 
ATOM     74  N   UNL A   1      29.782  30.243  21.523  1.00  0.00    -0.183 NA
ATOM     75  H   UNL A   1      31.828  30.184  21.392  1.00  0.00     0.190 HD
ATOM     76  C   UNL A   1      28.995  29.373  22.157  1.00  0.00     0.145 A 
BRANCH  73  77
ATOM     77  C   UNL A   1      29.153  27.163  23.533  1.00  0.00     0.303 C 
BRANCH  77  78
ATOM     78  N   UNL A   1      30.154  26.324  24.196  1.00  0.00    -0.331 N 
ATOM     79  C   UNL A   1      30.153  26.444  25.652  1.00  0.00     0.268 C 
ATOM     80  C   UNL A   1      30.181  24.932  23.750  1.00  0.00     0.268 C 
ATOM     81  H   UNL A   1      31.041  26.718  23.879  1.00  0.00     0.348 HD
ATOM     82  C   UNL A   1      31.392  25.776  26.252  1.00  0.00     0.126 C 
ATOM     83  C   UNL A   1      31.434  24.228  24.273  1.00  0.00     0.126 C 
ATOM     84  C   UNL A   1      31.500  24.302  25.809  1.00  0.00     0.195 C 
BRANCH  84  85
ATOM     85  N   UNL A   1      32.640  23.533  26.377  1.00  0.00    -0.331 N 
ATOM     86  C   UNL A   1      32.349  22.847  27.642  1.00  0.00     0.262 C 
ATOM     87  C   UNL A   1      33.175  22.581  25.385  1.00  0.00     0.275 C 
ATOM     88  H   UNL A   1      33.346  24.235  26.603  1.00  0.00     0.348 HD
ATOM     89  C   UNL A   1      33.607  22.169  28.190  1.00  0.00     0.062 C 
ATOM     90  C   UNL A   1      34.439  21.849  25.821  1.00  0.00     0.134 C 
ATOM     91  C   UNL A   1      34.202  21.187  27.189  1.00  0.00     0.025 C 
BRANCH  90  92
ATOM     92  C   UNL A   1      34.955  20.752  24.875  1.00  0.00     0.231 C 
ATOM     93  O   UNL A   1      36.140  20.778  24.523  1.00  0.00    -0.274 OA
ATOM     94  N   UNL A   1      34.193  19.623  24.660  1.00  0.00    -0.342 N 
ATOM     95  C   UNL A   1      32.892  19.539  24.020  1.00  0.00     0.119 C 
ATOM     96  C   UNL A   1      34.837  18.321  24.594  1.00  0.00     0.119 C 
ATOM     97  C   UNL A   1      32.432  18.144  24.392  1.00  0.00     0.023 C 
ATOM     98  C   UNL A   1      33.718  17.328  24.284  1.00  0.00     0.023 C 
ENDBRANCH  90  92
ENDBRANCH  84  85
ENDBRANCH  77  78
ENDBRANCH  73  77
ENDBRANCH  68  71
ENDBRANCH  66  67
ENDBRANCH  65  66
ENDBRANCH   1  65
TORSDOF 17
ENDMDL
MODEL 2
REMARK VINA RESULT:     -12.3      0.438      5.970
REMARK SMILES O=C(NCCCCCCNC(=O)c1[nH]ncc1C[NH+]1CCC([N@H+]2CCC[C@@H](C(=O)N3CCCC3)C2)CC1)c1ccc(-c2c3nc(c(-c4c(F)cccc4F)c4ccc([nH]4)c(-c4c(F)cccc4F)c4nc(c(-c5c(F)cccc5F)c5ccc2[nH]5)C=C4)C=C3)cc1
REMARK SMILES IDX 7 1 6 2 5 3 4 4 3 5 1 6 2 7 38 9 39 10 91 11 40 12 90 13
REMARK SMILES IDX 41 14 42 15 43 16 84 17 44 18 89 19 83 20 85 21 45 22 88 23
REMARK SMILES IDX 82 24 81 25 46 27 72 28 55 29 71 30 56 31 59 32 70 33 86 34
REMARK SMILES IDX 57 35 58 36 69 38 87 39 60 40 47 41 48 42 53 43 49 44 50 45
REMARK SMILES IDX 52 46 54 47 51 48 73 49 74 50 79 51 75 52 76 53 78 54 80 55
REMARK SMILES IDX 77 56 61 57 62 58 67 59 63 60 64 61 66 62 68 63 65 64 8 65
REMARK SMILES IDX 9 66 10 67 11 68 12 70 13 71 14 72 17 73 15 74 16 76 18 77
REMARK SMILES IDX 19 78 20 79 37 80 21 82 36 83 22 84 23 85 24 86 35 87 25 89
REMARK SMILES IDX 27 90 26 91 28 92 29 93 30 94 31 95 34 96 32 97 33 98
REMARK H PARENT 3 8 85 26 59 37 10 69 14 75 19 81 23 88
REMARK Flexibility Score: inf
ROOT
ATOM      1  C   UNL A   1      32.436  29.664  26.784  1.00  0.00     0.002 C 
ENDROOT
BRANCH   1   2
ATOM      2  C   UNL A   1      31.518  30.758  26.232  1.00  0.00     0.002 C 
BRANCH   2   3
ATOM      3  C   UNL A   1      31.450  32.059  27.036  1.00  0.00     0.021 C 
BRANCH   3   4
ATOM      4  C   UNL A   1      32.658  32.983  26.908  1.00  0.00     0.116 C 
BRANCH   4   5
ATOM      5  N   UNL A   1      32.492  34.227  27.635  1.00  0.00    -0.352 N 
ATOM      6  O   UNL A   1      32.793  35.727  29.285  1.00  0.00    -0.269 OA
ATOM      7  C   UNL A   1      33.171  34.700  28.728  1.00  0.00     0.251 C 
ATOM      8  H   UNL A   1      31.786  34.821  27.292  1.00  0.00     0.163 HD
BRANCH   7   9
ATOM      9  C   UNL A   1      34.340  33.967  29.261  1.00  0.00     0.039 A 
ATOM     10  C   UNL A   1      35.640  34.243  28.823  1.00  0.00     0.014 A 
ATOM     11  C   UNL A   1      34.126  33.015  30.262  1.00  0.00     0.014 A 
ATOM     12  C   UNL A   1      36.712  33.502  29.315  1.00  0.00     0.010 A 
ATOM     13  C   UNL A   1      35.206  32.309  30.792  1.00  0.00     0.010 A 
ATOM     14  C   UNL A   1      36.505  32.534  30.310  1.00  0.00    -0.014 A 
BRANCH  14  15
ATOM     15  C   UNL A   1      37.648  31.788  30.889  1.00  0.00     0.031 A 
ATOM     16  C   UNL A   1      38.212  32.169  32.226  1.00  0.00     0.074 A 
ATOM     17  C   UNL A   1      38.209  30.795  30.177  1.00  0.00     0.049 A 
ATOM     18  N   UNL A   1      39.267  31.698  32.840  1.00  0.00    -0.248 NA
ATOM     19  C   UNL A   1      37.504  33.225  32.965  1.00  0.00     0.031 C 
ATOM     20  C   UNL A   1      37.758  30.343  28.859  1.00  0.00     0.029 A 
ATOM     21  N   UNL A   1      39.293  29.999  30.451  1.00  0.00    -0.354 N 
ATOM     22  C   UNL A   1      39.365  32.415  34.026  1.00  0.00     0.074 A 
ATOM     23  C   UNL A   1      38.270  33.362  34.039  1.00  0.00     0.031 C 
ATOM     24  C   UNL A   1      38.559  29.353  28.439  1.00  0.00     0.029 A 
ATOM     25  C   UNL A   1      39.604  29.133  29.434  1.00  0.00     0.049 A 
ATOM     26  H   UNL A   1      39.797  30.046  31.295  1.00  0.00     0.167 HD
ATOM     27  C   UNL A   1      40.285  32.291  35.013  1.00  0.00     0.037 A 
ATOM     28  C   UNL A   1      40.634  28.277  29.300  1.00  0.00     0.037 A 
ATOM     29  C   UNL A   1      41.363  31.337  35.004  1.00  0.00     0.049 A 
ATOM     30  C   UNL A   1      41.650  28.169  30.396  1.00  0.00     0.074 A 
ATOM     31  C   UNL A   1      42.314  31.100  35.982  1.00  0.00     0.029 A 
ATOM     32  N   UNL A   1      41.639  30.469  33.958  1.00  0.00    -0.354 N 
ATOM     33  N   UNL A   1      41.710  28.824  31.529  1.00  0.00    -0.248 NA
ATOM     34  C   UNL A   1      42.743  27.205  30.198  1.00  0.00     0.031 C 
ATOM     35  C   UNL A   1      43.186  30.109  35.514  1.00  0.00     0.029 A 
ATOM     36  C   UNL A   1      42.757  29.708  34.259  1.00  0.00     0.049 A 
ATOM     37  H   UNL A   1      41.117  30.402  33.126  1.00  0.00     0.167 HD
ATOM     38  C   UNL A   1      42.835  28.346  32.187  1.00  0.00     0.074 A 
ATOM     39  C   UNL A   1      43.425  27.338  31.328  1.00  0.00     0.031 C 
ATOM     40  C   UNL A   1      43.330  28.708  33.394  1.00  0.00     0.037 A 
BRANCH  27  41
ATOM     41  C   UNL A   1      40.176  33.228  36.177  1.00  0.00     0.057 A 
ATOM     42  C   UNL A   1      39.330  32.964  37.262  1.00  0.00     0.134 A 
ATOM     43  C   UNL A   1      40.944  34.398  36.225  1.00  0.00     0.134 A 
ATOM     44  F   UNL A   1      38.558  31.867  37.271  1.00  0.00    -0.206 F 
ATOM     45  C   UNL A   1      39.237  33.842  38.343  1.00  0.00     0.040 A 
ATOM     46  C   UNL A   1      40.874  35.274  37.309  1.00  0.00     0.040 A 
ATOM     47  F   UNL A   1      41.777  34.707  35.219  1.00  0.00    -0.206 F 
ATOM     48  C   UNL A   1      40.013  34.999  38.371  1.00  0.00     0.006 A 
ENDBRANCH  27  41
BRANCH  28  49
ATOM     49  C   UNL A   1      40.745  27.470  28.063  1.00  0.00     0.057 A 
ATOM     50  C   UNL A   1      41.467  27.933  26.961  1.00  0.00     0.134 A 
ATOM     51  C   UNL A   1      40.177  26.192  27.979  1.00  0.00     0.134 A 
ATOM     52  F   UNL A   1      42.020  29.154  26.981  1.00  0.00    -0.206 F 
ATOM     53  C   UNL A   1      41.627  27.151  25.815  1.00  0.00     0.040 A 
ATOM     54  C   UNL A   1      40.344  25.394  26.848  1.00  0.00     0.040 A 
ATOM     55  F   UNL A   1      39.481  25.692  29.010  1.00  0.00    -0.206 F 
ATOM     56  C   UNL A   1      41.071  25.875  25.761  1.00  0.00     0.006 A 
ENDBRANCH  28  49
BRANCH  40  57
ATOM     57  C   UNL A   1      44.559  27.996  33.872  1.00  0.00     0.057 A 
ATOM     58  C   UNL A   1      45.839  28.515  33.651  1.00  0.00     0.134 A 
ATOM     59  C   UNL A   1      44.454  26.808  34.604  1.00  0.00     0.134 A 
ATOM     60  F   UNL A   1      46.004  29.644  32.944  1.00  0.00    -0.206 F 
ATOM     61  C   UNL A   1      46.978  27.871  34.138  1.00  0.00     0.040 A 
ATOM     62  C   UNL A   1      45.583  26.164  35.111  1.00  0.00     0.040 A 
ATOM     63  F   UNL A   1      43.253  26.264  34.851  1.00  0.00    -0.206 F 
ATOM     64  C   UNL A   1      46.850  26.695  34.876  1.00  0.00     0.006 A 
ENDBRANCH  40  57
ENDBRANCH  14  15
ENDBRANCH   7   9
ENDBRANCH   4   5
ENDBRANCH   3   4
ENDBRANCH   2   3
ENDBRANCH   1   2
BRANCH   1  65
ATOM     65  C   UNL A   1      33.224  28.852  25.752  1.00  0.00     0.021 C 
BRANCH  65  66
ATOM     66  C   UNL A   1      33.125  29.341  24.310  1.00  0.00     0.116 C 
BRANCH  66  67
ATOM     67  N   UNL A   1      33.196  28.264  23.341  1.00  0.00    -0.351 N 
ATOM     68  C   UNL A   1      32.238  27.826  22.465  1.00  0.00     0.269 C 
ATOM     69  H   UNL A   1      34.053  27.781  23.307  1.00  0.00     0.163 HD
ATOM     70  O   UNL A   1      32.439  26.771  21.862  1.00  0.00    -0.268 OA
BRANCH  68  71
ATOM     71  C   UNL A   1      31.009  28.554  22.334  1.00  0.00     0.131 A 
ATOM     72  N   UNL A   1      30.987  29.796  21.757  1.00  0.00    -0.272 N 
ATOM     73  C   UNL A   1      29.700  28.314  22.746  1.00  0.00     0.057 A 
ATOM     74  N   UNL A   1      29.754  30.301  21.599  1.00  0.00    -0.183 NA
ATOM     75  H   UNL A   1      31.801  30.275  21.481  1.00  0.00     0.190 HD
ATOM     76  C   UNL A   1      28.975  29.405  22.206  1.00  0.00     0.145 A 
BRANCH  73  77
ATOM     77  C   UNL A   1      29.156  27.162  23.526  1.00  0.00     0.303 C 
BRANCH  77  78
ATOM     78  N   UNL A   1      30.164  26.329  24.186  1.00  0.00    -0.331 N 
ATOM     79  C   UNL A   1      30.168  26.451  25.642  1.00  0.00     0.268 C 
ATOM     80  C   UNL A   1      30.195  24.937  23.742  1.00  0.00     0.268 C 
ATOM     81  H   UNL A   1      31.047  26.727  23.865  1.00  0.00     0.348 HD
ATOM     82  C   UNL A   1      31.412  25.790  26.238  1.00  0.00     0.126 C 
ATOM     83  C   UNL A   1      31.454  24.240  24.261  1.00  0.00     0.126 C 
ATOM     84  C   UNL A   1      31.526  24.316  25.797  1.00  0.00     0.195 C 
BRANCH  84  85
ATOM     85  N   UNL A   1      32.672  23.554  26.362  1.00  0.00    -0.331 N 
ATOM     86  C   UNL A   1      32.390  22.870  27.630  1.00  0.00     0.262 C 
ATOM     87  C   UNL A   1      33.206  22.601  25.370  1.00  0.00     0.275 C 
ATOM     88  H   UNL A   1      33.376  24.259  26.582  1.00  0.00     0.348 HD
ATOM     89  C   UNL A   1      33.653  22.199  28.174  1.00  0.00     0.062 C 
ATOM     90  C   UNL A   1      34.475  21.876  25.802  1.00  0.00     0.134 C 
ATOM     91  C   UNL A   1      34.248  21.217  27.173  1.00  0.00     0.025 C 
BRANCH  90  92
ATOM     92  C   UNL A   1      34.991  20.779  24.857  1.00  0.00     0.231 C 
ATOM     93  O   UNL A   1      36.178  20.803  24.507  1.00  0.00    -0.274 OA
ATOM     94  N   UNL A   1      34.229  19.651  24.640  1.00  0.00    -0.342 N 
ATOM     95  C   UNL A   1      32.928  19.569  23.997  1.00  0.00     0.119 C 
ATOM     96  C   UNL A   1      34.871  18.348  24.575  1.00  0.00     0.119 C 
ATOM     97  C   UNL A   1      32.466  18.174  24.368  1.00  0.00     0.023 C 
ATOM     98  C   UNL A   1      33.750  17.357  24.262  1.00  0.00     0.023 C 
ENDBRANCH  90  92
ENDBRANCH  84  85
ENDBRANCH  77  78
ENDBRANCH  73  77
ENDBRANCH  68  71
ENDBRANCH  66  67
ENDBRANCH  65  66
ENDBRANCH   1  65
TORSDOF 17
ENDMDL
MODEL 3
REMARK VINA RESULT:     -12.2      2.937      5.375
REMARK SMILES O=C(NCCCCCCNC(=O)c1[nH]ncc1C[NH+]1CCC([N@H+]2CCC[C@@H](C(=O)N3CCCC3)C2)CC1)c1ccc(-c2c3nc(c(-c4c(F)cccc4F)c4ccc([nH]4)c(-c4c(F)cccc4F)c4nc(c(-c5c(F)cccc5F)c5ccc2[nH]5)C=C4)C=C3)cc1
REMARK SMILES IDX 7 1 6 2 5 3 4 4 3 5 1 6 2 7 38 9 39 10 91 11 40 12 90 13
REMARK SMILES IDX 41 14 42 15 43 16 84 17 44 18 89 19 83 20 85 21 45 22 88 23
REMARK SMILES IDX 82 24 81 25 46 27 72 28 55 29 71 30 56 31 59 32 70 33 86 34
REMARK SMILES IDX 57 35 58 36 69 38 87 39 60 40 47 41 48 42 53 43 49 44 50 45
REMARK SMILES IDX 52 46 54 47 51 48 73 49 74 50 79 51 75 52 76 53 78 54 80 55
REMARK SMILES IDX 77 56 61 57 62 58 67 59 63 60 64 61 66 62 68 63 65 64 8 65
REMARK SMILES IDX 9 66 10 67 11 68 12 70 13 71 14 72 17 73 15 74 16 76 18 77
REMARK SMILES IDX 19 78 20 79 37 80 21 82 36 83 22 84 23 85 24 86 35 87 25 89
REMARK SMILES IDX 27 90 26 91 28 92 29 93 30 94 31 95 34 96 32 97 33 98
REMARK H PARENT 3 8 85 26 59 37 10 69 14 75 19 81 23 88
REMARK Flexibility Score: inf
ROOT
ATOM      1  C   UNL A   1      31.626  25.584  26.173  1.00  0.00     0.002 C 
ENDROOT
BRANCH   1   2
ATOM      2  C   UNL A   1      32.511  26.473  25.295  1.00  0.00     0.002 C 
BRANCH   2   3
ATOM      3  C   UNL A   1      33.679  27.173  25.995  1.00  0.00     0.021 C 
BRANCH   3   4
ATOM      4  C   UNL A   1      34.130  28.493  25.377  1.00  0.00     0.116 C 
BRANCH   4   5
ATOM      5  N   UNL A   1      33.327  29.620  25.813  1.00  0.00    -0.352 N 
ATOM      6  O   UNL A   1      32.670  31.315  27.138  1.00  0.00    -0.269 OA
ATOM      7  C   UNL A   1      33.538  30.499  26.843  1.00  0.00     0.251 C 
ATOM      8  H   UNL A   1      32.509  29.776  25.289  1.00  0.00     0.163 HD
BRANCH   7   9
ATOM      9  C   UNL A   1      34.794  30.455  27.623  1.00  0.00     0.039 A 
ATOM     10  C   UNL A   1      35.192  29.301  28.307  1.00  0.00     0.014 A 
ATOM     11  C   UNL A   1      35.614  31.587  27.623  1.00  0.00     0.014 A 
ATOM     12  C   UNL A   1      36.360  29.311  29.067  1.00  0.00     0.010 A 
ATOM     13  C   UNL A   1      36.809  31.579  28.342  1.00  0.00     0.010 A 
ATOM     14  C   UNL A   1      37.182  30.447  29.085  1.00  0.00    -0.014 A 
BRANCH  14  15
ATOM     15  C   UNL A   1      38.461  30.444  29.836  1.00  0.00     0.031 A 
ATOM     16  C   UNL A   1      39.684  29.794  29.261  1.00  0.00     0.074 A 
ATOM     17  C   UNL A   1      38.499  30.989  31.066  1.00  0.00     0.049 A 
ATOM     18  N   UNL A   1      40.856  29.607  29.814  1.00  0.00    -0.248 NA
ATOM     19  C   UNL A   1      39.575  29.277  27.889  1.00  0.00     0.031 C 
ATOM     20  C   UNL A   1      37.370  31.637  31.736  1.00  0.00     0.029 A 
ATOM     21  N   UNL A   1      39.520  31.065  31.979  1.00  0.00    -0.354 N 
ATOM     22  C   UNL A   1      41.616  28.930  28.869  1.00  0.00     0.074 A 
ATOM     23  C   UNL A   1      40.769  28.727  27.713  1.00  0.00     0.031 C 
ATOM     24  C   UNL A   1      37.759  32.043  32.953  1.00  0.00     0.029 A 
ATOM     25  C   UNL A   1      39.147  31.644  33.166  1.00  0.00     0.049 A 
ATOM     26  H   UNL A   1      40.430  30.737  31.799  1.00  0.00     0.167 HD
ATOM     27  C   UNL A   1      42.903  28.517  28.961  1.00  0.00     0.037 A 
ATOM     28  C   UNL A   1      39.834  31.808  34.311  1.00  0.00     0.037 A 
ATOM     29  C   UNL A   1      43.747  28.735  30.106  1.00  0.00     0.049 A 
ATOM     30  C   UNL A   1      41.252  31.328  34.396  1.00  0.00     0.074 A 
ATOM     31  C   UNL A   1      45.081  28.402  30.272  1.00  0.00     0.029 A 
ATOM     32  N   UNL A   1      43.335  29.335  31.286  1.00  0.00    -0.354 N 
ATOM     33  N   UNL A   1      41.971  30.724  33.483  1.00  0.00    -0.248 NA
ATOM     34  C   UNL A   1      41.954  31.550  35.668  1.00  0.00     0.031 C 
ATOM     35  C   UNL A   1      45.467  28.770  31.566  1.00  0.00     0.029 A 
ATOM     36  C   UNL A   1      44.383  29.363  32.193  1.00  0.00     0.049 A 
ATOM     37  H   UNL A   1      42.432  29.689  31.456  1.00  0.00     0.167 HD
ATOM     38  C   UNL A   1      43.214  30.504  34.061  1.00  0.00     0.074 A 
ATOM     39  C   UNL A   1      43.153  31.047  35.403  1.00  0.00     0.031 C 
ATOM     40  C   UNL A   1      44.306  29.909  33.524  1.00  0.00     0.037 A 
BRANCH  27  41
ATOM     41  C   UNL A   1      43.470  27.767  27.793  1.00  0.00     0.057 A 
ATOM     42  C   UNL A   1      43.612  26.374  27.808  1.00  0.00     0.134 A 
ATOM     43  C   UNL A   1      43.856  28.445  26.631  1.00  0.00     0.134 A 
ATOM     44  F   UNL A   1      43.272  25.668  28.896  1.00  0.00    -0.206 F 
ATOM     45  C   UNL A   1      44.139  25.684  26.714  1.00  0.00     0.040 A 
ATOM     46  C   UNL A   1      44.365  27.765  25.524  1.00  0.00     0.040 A 
ATOM     47  F   UNL A   1      43.742  29.781  26.552  1.00  0.00    -0.206 F 
ATOM     48  C   UNL A   1      44.513  26.380  25.566  1.00  0.00     0.006 A 
ENDBRANCH  27  41
BRANCH  28  49
ATOM     49  C   UNL A   1      39.167  32.449  35.467  1.00  0.00     0.057 A 
ATOM     50  C   UNL A   1      38.411  31.699  36.372  1.00  0.00     0.134 A 
ATOM     51  C   UNL A   1      39.318  33.818  35.723  1.00  0.00     0.134 A 
ATOM     52  F   UNL A   1      38.222  30.387  36.170  1.00  0.00    -0.206 F 
ATOM     53  C   UNL A   1      37.830  32.287  37.497  1.00  0.00     0.040 A 
ATOM     54  C   UNL A   1      38.758  34.414  36.852  1.00  0.00     0.040 A 
ATOM     55  F   UNL A   1      40.039  34.585  34.893  1.00  0.00    -0.206 F 
ATOM     56  C   UNL A   1      38.010  33.647  37.743  1.00  0.00     0.006 A 
ENDBRANCH  28  49
BRANCH  40  57
ATOM     57  C   UNL A   1      45.533  29.833  34.379  1.00  0.00     0.057 A 
ATOM     58  C   UNL A   1      46.478  30.865  34.400  1.00  0.00     0.134 A 
ATOM     59  C   UNL A   1      45.743  28.740  35.228  1.00  0.00     0.134 A 
ATOM     60  F   UNL A   1      46.337  31.932  33.598  1.00  0.00    -0.206 F 
ATOM     61  C   UNL A   1      47.597  30.810  35.233  1.00  0.00     0.040 A 
ATOM     62  C   UNL A   1      46.848  28.681  36.077  1.00  0.00     0.040 A 
ATOM     63  F   UNL A   1      44.870  27.721  35.255  1.00  0.00    -0.206 F 
ATOM     64  C   UNL A   1      47.780  29.717  36.079  1.00  0.00     0.006 A 
ENDBRANCH  40  57
ENDBRANCH  14  15
ENDBRANCH   7   9
ENDBRANCH   4   5
ENDBRANCH   3   4
ENDBRANCH   2   3
ENDBRANCH   1   2
BRANCH   1  65
ATOM     65  C   UNL A   1      31.146  24.271  25.546  1.00  0.00     0.021 C 
BRANCH  65  66
ATOM     66  C   UNL A   1      30.964  23.105  26.513  1.00  0.00     0.116 C 
BRANCH  66  67
ATOM     67  N   UNL A   1      32.191  22.738  27.194  1.00  0.00    -0.351 N 
ATOM     68  C   UNL A   1      33.057  21.712  26.922  1.00  0.00     0.269 C 
ATOM     69  H   UNL A   1      32.436  23.306  27.960  1.00  0.00     0.163 HD
ATOM     70  O   UNL A   1      33.939  21.460  27.743  1.00  0.00    -0.268 OA
BRANCH  68  71
ATOM     71  C   UNL A   1      32.868  20.917  25.742  1.00  0.00     0.131 A 
ATOM     72  N   UNL A   1      32.358  19.649  25.824  1.00  0.00    -0.272 N 
ATOM     73  C   UNL A   1      33.161  21.112  24.394  1.00  0.00     0.057 A 
ATOM     74  N   UNL A   1      32.130  19.076  24.633  1.00  0.00    -0.183 NA
ATOM     75  H   UNL A   1      32.173  19.198  26.680  1.00  0.00     0.190 HD
ATOM     76  C   UNL A   1      32.624  19.961  23.767  1.00  0.00     0.145 A 
BRANCH  73  77
ATOM     77  C   UNL A   1      33.832  22.273  23.736  1.00  0.00     0.303 C 
BRANCH  77  78
ATOM     78  N   UNL A   1      35.195  22.545  24.199  1.00  0.00    -0.331 N 
ATOM     79  C   UNL A   1      35.283  23.635  25.166  1.00  0.00     0.268 C 
ATOM     80  C   UNL A   1      35.947  21.363  24.618  1.00  0.00     0.268 C 
ATOM     81  H   UNL A   1      35.670  22.872  23.356  1.00  0.00     0.348 HD
ATOM     82  C   UNL A   1      36.739  24.051  25.384  1.00  0.00     0.126 C 
ATOM     83  C   UNL A   1      37.427  21.708  24.794  1.00  0.00     0.126 C 
ATOM     84  C   UNL A   1      37.605  22.848  25.813  1.00  0.00     0.195 C 
BRANCH  84  85
ATOM     85  N   UNL A   1      39.032  23.145  26.107  1.00  0.00    -0.331 N 
ATOM     86  C   UNL A   1      39.253  23.998  27.282  1.00  0.00     0.262 C 
ATOM     87  C   UNL A   1      39.813  21.899  26.221  1.00  0.00     0.275 C 
ATOM     88  H   UNL A   1      39.359  23.689  25.308  1.00  0.00     0.348 HD
ATOM     89  C   UNL A   1      40.740  24.322  27.441  1.00  0.00     0.062 C 
ATOM     90  C   UNL A   1      41.316  22.099  26.377  1.00  0.00     0.134 C 
ATOM     91  C   UNL A   1      41.586  23.060  27.546  1.00  0.00     0.025 C 
BRANCH  90  92
ATOM     92  C   UNL A   1      42.152  20.835  26.632  1.00  0.00     0.231 C 
ATOM     93  O   UNL A   1      41.747  20.009  27.458  1.00  0.00    -0.274 OA
ATOM     94  N   UNL A   1      43.168  20.502  25.761  1.00  0.00    -0.342 N 
ATOM     95  C   UNL A   1      44.393  21.240  25.503  1.00  0.00     0.119 C 
ATOM     96  C   UNL A   1      43.364  19.113  25.379  1.00  0.00     0.119 C 
ATOM     97  C   UNL A   1      44.911  20.583  24.239  1.00  0.00     0.023 C 
ATOM     98  C   UNL A   1      44.595  19.109  24.474  1.00  0.00     0.023 C 
ENDBRANCH  90  92
ENDBRANCH  84  85
ENDBRANCH  77  78
ENDBRANCH  73  77
ENDBRANCH  68  71
ENDBRANCH  66  67
ENDBRANCH  65  66
ENDBRANCH   1  65
TORSDOF 17
ENDMDL
