MODEL 1
REMARK VINA RESULT:     -12.2      0.000      0.000
REMARK SMILES O=C(NCCCCCCNC(=O)[C@H]1C[C@](O)(c2ccc(F)cc2)[C@@H](c2ccc(F)cc2)O1)c1ccc(-c2c3nc(c(-c4c(F)cccc4F)c4ccc([nH]4)c(-c4c(F)cccc4F)c4nc(c(-c5c(F)cccc5F)c5ccc2[nH]5)C=C4)C=C3)cc1
REMARK SMILES IDX 6 1 5 2 4 3 3 4 1 5 2 6 33 8 34 9 86 10 35 11 85 12 36 13
REMARK SMILES IDX 37 14 38 15 79 16 39 17 84 18 78 19 80 20 40 21 83 22 77 23
REMARK SMILES IDX 76 24 41 26 67 27 50 28 66 29 51 30 54 31 65 32 81 33 52 34
REMARK SMILES IDX 53 35 64 37 82 38 55 39 42 40 43 41 48 42 44 43 45 44 47 45
REMARK SMILES IDX 49 46 46 47 68 48 69 49 74 50 70 51 71 52 73 53 75 54 72 55
REMARK SMILES IDX 56 56 57 57 62 58 58 59 59 60 61 61 63 62 60 63 7 64 8 65
REMARK SMILES IDX 9 66 10 67 11 68 12 70 13 71 14 72 32 73 15 74 24 75 17 76
REMARK SMILES IDX 18 77 23 78 19 79 22 80 20 81 21 82 16 83 25 85 26 86 31 87
REMARK SMILES IDX 27 88 30 89 28 90 29 91
REMARK H PARENT 3 7 80 25 54 36 10 69 16 84
REMARK Flexibility Score: inf
ROOT
ATOM      1  C   UNL A   1      34.558  33.941  29.173  1.00  0.00     0.002 C 
ENDROOT
BRANCH   1   2
ATOM      2  C   UNL A   1      33.243  34.719  29.189  1.00  0.00     0.021 C 
BRANCH   2   3
ATOM      3  C   UNL A   1      33.370  36.174  29.624  1.00  0.00     0.116 C 
BRANCH   3   4
ATOM      4  N   UNL A   1      32.500  36.496  30.743  1.00  0.00    -0.352 N 
ATOM      5  O   UNL A   1      31.630  36.228  32.817  1.00  0.00    -0.269 OA
ATOM      6  C   UNL A   1      32.543  36.007  32.028  1.00  0.00     0.251 C 
ATOM      7  H   UNL A   1      31.786  37.150  30.557  1.00  0.00     0.163 HD
BRANCH   6   8
ATOM      8  C   UNL A   1      33.701  35.189  32.446  1.00  0.00     0.039 A 
ATOM      9  C   UNL A   1      34.984  35.739  32.432  1.00  0.00     0.014 A 
ATOM     10  C   UNL A   1      33.507  33.864  32.845  1.00  0.00     0.014 A 
ATOM     11  C   UNL A   1      36.083  34.926  32.682  1.00  0.00     0.010 A 
ATOM     12  C   UNL A   1      34.608  33.071  33.185  1.00  0.00     0.010 A 
ATOM     13  C   UNL A   1      35.908  33.591  33.085  1.00  0.00    -0.014 A 
BRANCH  13  14
ATOM     14  C   UNL A   1      37.106  32.810  33.485  1.00  0.00     0.031 A 
ATOM     15  C   UNL A   1      37.739  31.804  32.565  1.00  0.00     0.074 A 
ATOM     16  C   UNL A   1      37.661  33.077  34.683  1.00  0.00     0.049 A 
ATOM     17  N   UNL A   1      38.832  31.106  32.746  1.00  0.00    -0.248 NA
ATOM     18  C   UNL A   1      37.067  31.541  31.284  1.00  0.00     0.031 C 
ATOM     19  C   UNL A   1      37.122  34.025  35.663  1.00  0.00     0.029 A 
ATOM     20  N   UNL A   1      38.814  32.619  35.266  1.00  0.00    -0.354 N 
ATOM     21  C   UNL A   1      38.974  30.315  31.613  1.00  0.00     0.074 A 
ATOM     22  C   UNL A   1      37.844  30.602  30.755  1.00  0.00     0.031 C 
ATOM     23  C   UNL A   1      37.982  34.139  36.685  1.00  0.00     0.029 A 
ATOM     24  C   UNL A   1      39.095  33.223  36.468  1.00  0.00     0.049 A 
ATOM     25  H   UNL A   1      39.384  31.925  34.863  1.00  0.00     0.167 HD
ATOM     26  C   UNL A   1      39.962  29.437  31.318  1.00  0.00     0.037 A 
ATOM     27  C   UNL A   1      40.133  33.059  37.309  1.00  0.00     0.037 A 
ATOM     28  C   UNL A   1      41.095  29.169  32.169  1.00  0.00     0.049 A 
ATOM     29  C   UNL A   1      41.202  32.069  36.957  1.00  0.00     0.074 A 
ATOM     30  C   UNL A   1      42.157  28.310  31.942  1.00  0.00     0.029 A 
ATOM     31  N   UNL A   1      41.314  29.756  33.406  1.00  0.00    -0.354 N 
ATOM     32  N   UNL A   1      41.326  31.340  35.876  1.00  0.00    -0.248 NA
ATOM     33  C   UNL A   1      42.269  31.870  37.947  1.00  0.00     0.031 C 
ATOM     34  C   UNL A   1      43.000  28.351  33.057  1.00  0.00     0.029 A 
ATOM     35  C   UNL A   1      42.485  29.264  33.961  1.00  0.00     0.049 A 
ATOM     36  H   UNL A   1      40.725  30.422  33.828  1.00  0.00     0.167 HD
ATOM     37  C   UNL A   1      42.480  30.592  36.055  1.00  0.00     0.074 A 
ATOM     38  C   UNL A   1      43.040  30.983  37.332  1.00  0.00     0.031 C 
ATOM     39  C   UNL A   1      43.021  29.657  35.238  1.00  0.00     0.037 A 
BRANCH  26  40
ATOM     40  C   UNL A   1      39.883  28.689  30.020  1.00  0.00     0.057 A 
ATOM     41  C   UNL A   1      39.233  27.450  29.949  1.00  0.00     0.134 A 
ATOM     42  C   UNL A   1      40.547  29.139  28.872  1.00  0.00     0.134 A 
ATOM     43  F   UNL A   1      38.586  26.959  31.016  1.00  0.00    -0.206 F 
ATOM     44  C   UNL A   1      39.264  26.675  28.788  1.00  0.00     0.040 A 
ATOM     45  C   UNL A   1      40.570  28.381  27.699  1.00  0.00     0.040 A 
ATOM     46  F   UNL A   1      41.183  30.321  28.874  1.00  0.00    -0.206 F 
ATOM     47  C   UNL A   1      39.937  27.140  27.660  1.00  0.00     0.006 A 
ENDBRANCH  26  40
BRANCH  27  48
ATOM     48  C   UNL A   1      40.201  33.853  38.560  1.00  0.00     0.057 A 
ATOM     49  C   UNL A   1      40.976  35.017  38.644  1.00  0.00     0.134 A 
ATOM     50  C   UNL A   1      39.513  33.450  39.709  1.00  0.00     0.134 A 
ATOM     51  F   UNL A   1      41.665  35.450  37.578  1.00  0.00    -0.206 F 
ATOM     52  C   UNL A   1      41.078  35.742  39.831  1.00  0.00     0.040 A 
ATOM     53  C   UNL A   1      39.585  34.181  40.897  1.00  0.00     0.040 A 
ATOM     54  F   UNL A   1      38.743  32.352  39.685  1.00  0.00    -0.206 F 
ATOM     55  C   UNL A   1      40.377  35.326  40.961  1.00  0.00     0.006 A 
ENDBRANCH  27  48
BRANCH  39  56
ATOM     56  C   UNL A   1      44.279  28.991  35.707  1.00  0.00     0.057 A 
ATOM     57  C   UNL A   1      45.535  29.506  35.363  1.00  0.00     0.134 A 
ATOM     58  C   UNL A   1      44.244  27.818  36.471  1.00  0.00     0.134 A 
ATOM     59  F   UNL A   1      45.635  30.622  34.627  1.00  0.00    -0.206 F 
ATOM     60  C   UNL A   1      46.714  28.873  35.760  1.00  0.00     0.040 A 
ATOM     61  C   UNL A   1      45.416  27.189  36.893  1.00  0.00     0.040 A 
ATOM     62  F   UNL A   1      43.071  27.284  36.843  1.00  0.00    -0.206 F 
ATOM     63  C   UNL A   1      46.655  27.714  36.533  1.00  0.00     0.006 A 
ENDBRANCH  39  56
ENDBRANCH  13  14
ENDBRANCH   6   8
ENDBRANCH   3   4
ENDBRANCH   2   3
ENDBRANCH   1   2
BRANCH   1  64
ATOM     64  C   UNL A   1      34.410  32.423  29.032  1.00  0.00     0.002 C 
BRANCH  64  65
ATOM     65  C   UNL A   1      35.056  31.818  27.779  1.00  0.00     0.021 C 
BRANCH  65  66
ATOM     66  C   UNL A   1      34.874  30.309  27.622  1.00  0.00     0.116 C 
BRANCH  66  67
ATOM     67  N   UNL A   1      33.488  29.913  27.756  1.00  0.00    -0.354 N 
ATOM     68  C   UNL A   1      32.814  28.904  27.133  1.00  0.00     0.249 C 
ATOM     69  H   UNL A   1      32.956  30.447  28.388  1.00  0.00     0.163 HD
ATOM     70  O   UNL A   1      31.610  28.800  27.378  1.00  0.00    -0.272 OA
BRANCH  68  71
ATOM     71  C   UNL A   1      33.566  27.899  26.215  1.00  0.00     0.211 C 
ATOM     72  C   UNL A   1      33.086  26.462  26.446  1.00  0.00     0.085 C 
ATOM     73  O   UNL A   1      33.459  28.175  24.815  1.00  0.00    -0.357 OA
ATOM     74  C   UNL A   1      32.707  25.922  25.071  1.00  0.00     0.123 C 
ATOM     75  C   UNL A   1      32.591  27.202  24.204  1.00  0.00     0.186 C 
BRANCH  74  76
ATOM     76  C   UNL A   1      33.779  24.923  24.594  1.00  0.00    -0.013 A 
ATOM     77  C   UNL A   1      33.594  24.234  23.375  1.00  0.00     0.010 A 
ATOM     78  C   UNL A   1      34.953  24.647  25.322  1.00  0.00     0.010 A 
ATOM     79  C   UNL A   1      34.564  23.360  22.878  1.00  0.00     0.039 A 
ATOM     80  C   UNL A   1      35.932  23.785  24.817  1.00  0.00     0.039 A 
ATOM     81  C   UNL A   1      35.732  23.157  23.596  1.00  0.00     0.123 A 
ATOM     82  F   UNL A   1      36.676  22.340  23.110  1.00  0.00    -0.207 F 
ENDBRANCH  74  76
BRANCH  74  83
ATOM     83  O   UNL A   1      31.479  25.191  25.178  1.00  0.00    -0.382 OA
ATOM     84  H   UNL A   1      31.252  25.075  26.115  1.00  0.00     0.212 HD
ENDBRANCH  74  83
BRANCH  75  85
ATOM     85  C   UNL A   1      31.249  27.877  23.961  1.00  0.00    -0.016 A 
ATOM     86  C   UNL A   1      31.078  29.270  23.948  1.00  0.00     0.009 A 
ATOM     87  C   UNL A   1      30.150  27.063  23.611  1.00  0.00     0.009 A 
ATOM     88  C   UNL A   1      29.857  29.831  23.562  1.00  0.00     0.039 A 
ATOM     89  C   UNL A   1      28.930  27.626  23.233  1.00  0.00     0.039 A 
ATOM     90  C   UNL A   1      28.799  29.005  23.201  1.00  0.00     0.123 A 
ATOM     91  F   UNL A   1      27.643  29.548  22.799  1.00  0.00    -0.207 F 
ENDBRANCH  75  85
ENDBRANCH  68  71
ENDBRANCH  66  67
ENDBRANCH  65  66
ENDBRANCH  64  65
ENDBRANCH   1  64
TORSDOF 16
ENDMDL
MODEL 2
REMARK VINA RESULT:     -12.1      5.209     10.218
REMARK SMILES O=C(NCCCCCCNC(=O)[C@H]1C[C@](O)(c2ccc(F)cc2)[C@@H](c2ccc(F)cc2)O1)c1ccc(-c2c3nc(c(-c4c(F)cccc4F)c4ccc([nH]4)c(-c4c(F)cccc4F)c4nc(c(-c5c(F)cccc5F)c5ccc2[nH]5)C=C4)C=C3)cc1
REMARK SMILES IDX 6 1 5 2 4 3 3 4 1 5 2 6 33 8 34 9 86 10 35 11 85 12 36 13
REMARK SMILES IDX 37 14 38 15 79 16 39 17 84 18 78 19 80 20 40 21 83 22 77 23
REMARK SMILES IDX 76 24 41 26 67 27 50 28 66 29 51 30 54 31 65 32 81 33 52 34
REMARK SMILES IDX 53 35 64 37 82 38 55 39 42 40 43 41 48 42 44 43 45 44 47 45
REMARK SMILES IDX 49 46 46 47 68 48 69 49 74 50 70 51 71 52 73 53 75 54 72 55
REMARK SMILES IDX 56 56 57 57 62 58 58 59 59 60 61 61 63 62 60 63 7 64 8 65
REMARK SMILES IDX 9 66 10 67 11 68 12 70 13 71 14 72 32 73 15 74 24 75 17 76
REMARK SMILES IDX 18 77 23 78 19 79 22 80 20 81 21 82 16 83 25 85 26 86 31 87
REMARK SMILES IDX 27 88 30 89 28 90 29 91
REMARK H PARENT 3 7 80 25 54 36 10 69 16 84
REMARK Flexibility Score: inf
ROOT
ATOM      1  C   UNL A   1      35.837  20.523  25.334  1.00  0.00     0.002 C 
ENDROOT
BRANCH   1   2
ATOM      2  C   UNL A   1      37.094  19.779  24.883  1.00  0.00     0.021 C 
BRANCH   2   3
ATOM      3  C   UNL A   1      38.402  20.375  25.388  1.00  0.00     0.116 C 
BRANCH   3   4
ATOM      4  N   UNL A   1      39.455  19.381  25.508  1.00  0.00    -0.352 N 
ATOM      5  O   UNL A   1      41.583  18.662  25.802  1.00  0.00    -0.269 OA
ATOM      6  C   UNL A   1      40.753  19.557  25.929  1.00  0.00     0.251 C 
ATOM      7  H   UNL A   1      39.207  18.461  25.255  1.00  0.00     0.163 HD
BRANCH   6   8
ATOM      8  C   UNL A   1      41.146  20.852  26.524  1.00  0.00     0.039 A 
ATOM      9  C   UNL A   1      41.556  21.902  25.700  1.00  0.00     0.014 A 
ATOM     10  C   UNL A   1      41.115  21.015  27.912  1.00  0.00     0.014 A 
ATOM     11  C   UNL A   1      42.065  23.063  26.269  1.00  0.00     0.010 A 
ATOM     12  C   UNL A   1      41.542  22.220  28.479  1.00  0.00     0.010 A 
ATOM     13  C   UNL A   1      42.041  23.247  27.663  1.00  0.00    -0.014 A 
BRANCH  13  14
ATOM     14  C   UNL A   1      42.456  24.563  28.210  1.00  0.00     0.031 A 
ATOM     15  C   UNL A   1      43.901  24.905  28.441  1.00  0.00     0.074 A 
ATOM     16  C   UNL A   1      41.498  25.482  28.434  1.00  0.00     0.049 A 
ATOM     17  N   UNL A   1      44.418  26.040  28.838  1.00  0.00    -0.248 NA
ATOM     18  C   UNL A   1      44.894  23.847  28.202  1.00  0.00     0.031 C 
ATOM     19  C   UNL A   1      40.060  25.254  28.258  1.00  0.00     0.029 A 
ATOM     20  N   UNL A   1      41.578  26.798  28.813  1.00  0.00    -0.354 N 
ATOM     21  C   UNL A   1      45.790  25.833  28.909  1.00  0.00     0.074 A 
ATOM     22  C   UNL A   1      46.027  24.455  28.532  1.00  0.00     0.031 C 
ATOM     23  C   UNL A   1      39.404  26.407  28.447  1.00  0.00     0.029 A 
ATOM     24  C   UNL A   1      40.363  27.438  28.826  1.00  0.00     0.049 A 
ATOM     25  H   UNL A   1      42.425  27.240  29.052  1.00  0.00     0.167 HD
ATOM     26  C   UNL A   1      46.758  26.716  29.249  1.00  0.00     0.037 A 
ATOM     27  C   UNL A   1      40.049  28.714  29.114  1.00  0.00     0.037 A 
ATOM     28  C   UNL A   1      46.517  28.092  29.606  1.00  0.00     0.049 A 
ATOM     29  C   UNL A   1      41.144  29.662  29.500  1.00  0.00     0.074 A 
ATOM     30  C   UNL A   1      47.440  29.068  29.945  1.00  0.00     0.029 A 
ATOM     31  N   UNL A   1      45.267  28.688  29.666  1.00  0.00    -0.354 N 
ATOM     32  N   UNL A   1      42.436  29.451  29.549  1.00  0.00    -0.248 NA
ATOM     33  C   UNL A   1      40.738  31.020  29.884  1.00  0.00     0.031 C 
ATOM     34  C   UNL A   1      46.746  30.243  30.245  1.00  0.00     0.029 A 
ATOM     35  C   UNL A   1      45.394  30.012  30.054  1.00  0.00     0.049 A 
ATOM     36  H   UNL A   1      44.415  28.238  29.464  1.00  0.00     0.167 HD
ATOM     37  C   UNL A   1      42.998  30.647  29.971  1.00  0.00     0.074 A 
ATOM     38  C   UNL A   1      41.910  31.589  30.130  1.00  0.00     0.031 C 
ATOM     39  C   UNL A   1      44.299  30.933  30.217  1.00  0.00     0.037 A 
BRANCH  26  40
ATOM     40  C   UNL A   1      48.181  26.242  29.259  1.00  0.00     0.057 A 
ATOM     41  C   UNL A   1      48.762  25.748  30.435  1.00  0.00     0.134 A 
ATOM     42  C   UNL A   1      49.008  26.378  28.137  1.00  0.00     0.134 A 
ATOM     43  F   UNL A   1      48.026  25.601  31.546  1.00  0.00    -0.206 F 
ATOM     44  C   UNL A   1      50.119  25.429  30.500  1.00  0.00     0.040 A 
ATOM     45  C   UNL A   1      50.364  26.046  28.185  1.00  0.00     0.040 A 
ATOM     46  F   UNL A   1      48.512  26.838  26.978  1.00  0.00    -0.206 F 
ATOM     47  C   UNL A   1      50.925  25.581  29.374  1.00  0.00     0.006 A 
ENDBRANCH  26  40
BRANCH  27  48
ATOM     48  C   UNL A   1      38.635  29.160  29.047  1.00  0.00     0.057 A 
ATOM     49  C   UNL A   1      37.798  29.105  30.169  1.00  0.00     0.134 A 
ATOM     50  C   UNL A   1      38.082  29.627  27.850  1.00  0.00     0.134 A 
ATOM     51  F   UNL A   1      38.268  28.658  31.343  1.00  0.00    -0.206 F 
ATOM     52  C   UNL A   1      36.457  29.481  30.099  1.00  0.00     0.040 A 
ATOM     53  C   UNL A   1      36.748  30.033  27.772  1.00  0.00     0.040 A 
ATOM     54  F   UNL A   1      38.839  29.718  26.746  1.00  0.00    -0.206 F 
ATOM     55  C   UNL A   1      35.930  29.952  28.897  1.00  0.00     0.006 A 
ENDBRANCH  27  48
BRANCH  39  56
ATOM     56  C   UNL A   1      44.611  32.322  30.687  1.00  0.00     0.057 A 
ATOM     57  C   UNL A   1      44.888  33.344  29.771  1.00  0.00     0.134 A 
ATOM     58  C   UNL A   1      44.673  32.636  32.050  1.00  0.00     0.134 A 
ATOM     59  F   UNL A   1      44.853  33.106  28.452  1.00  0.00    -0.206 F 
ATOM     60  C   UNL A   1      45.219  34.631  30.197  1.00  0.00     0.040 A 
ATOM     61  C   UNL A   1      44.980  33.924  32.488  1.00  0.00     0.040 A 
ATOM     62  F   UNL A   1      44.404  31.701  32.975  1.00  0.00    -0.206 F 
ATOM     63  C   UNL A   1      45.260  34.924  31.559  1.00  0.00     0.006 A 
ENDBRANCH  39  56
ENDBRANCH  13  14
ENDBRANCH   6   8
ENDBRANCH   3   4
ENDBRANCH   2   3
ENDBRANCH   1   2
BRANCH   1  64
ATOM     64  C   UNL A   1      34.515  19.850  24.954  1.00  0.00     0.002 C 
BRANCH  64  65
ATOM     65  C   UNL A   1      33.525  20.739  24.191  1.00  0.00     0.021 C 
BRANCH  65  66
ATOM     66  C   UNL A   1      32.114  20.784  24.772  1.00  0.00     0.116 C 
BRANCH  66  67
ATOM     67  N   UNL A   1      32.094  21.352  26.105  1.00  0.00    -0.354 N 
ATOM     68  C   UNL A   1      31.702  22.594  26.509  1.00  0.00     0.249 C 
ATOM     69  H   UNL A   1      32.409  20.756  26.822  1.00  0.00     0.163 HD
ATOM     70  O   UNL A   1      31.830  22.860  27.706  1.00  0.00    -0.272 OA
BRANCH  68  71
ATOM     71  C   UNL A   1      31.056  23.586  25.500  1.00  0.00     0.211 C 
ATOM     72  C   UNL A   1      31.009  25.010  26.066  1.00  0.00     0.085 C 
ATOM     73  O   UNL A   1      31.702  23.645  24.225  1.00  0.00    -0.357 OA
ATOM     74  C   UNL A   1      31.664  25.899  25.015  1.00  0.00     0.123 C 
ATOM     75  C   UNL A   1      32.418  24.889  24.112  1.00  0.00     0.186 C 
BRANCH  74  76
ATOM     76  C   UNL A   1      30.583  26.723  24.288  1.00  0.00    -0.013 A 
ATOM     77  C   UNL A   1      29.239  26.292  24.325  1.00  0.00     0.010 A 
ATOM     78  C   UNL A   1      30.867  27.901  23.570  1.00  0.00     0.010 A 
ATOM     79  C   UNL A   1      28.220  27.035  23.725  1.00  0.00     0.039 A 
ATOM     80  C   UNL A   1      29.845  28.655  22.984  1.00  0.00     0.039 A 
ATOM     81  C   UNL A   1      28.531  28.220  23.075  1.00  0.00     0.123 A 
ATOM     82  F   UNL A   1      27.553  28.950  22.522  1.00  0.00    -0.207 F 
ENDBRANCH  74  76
BRANCH  74  83
ATOM     83  O   UNL A   1      32.529  26.836  25.669  1.00  0.00    -0.382 OA
ATOM     84  H   UNL A   1      32.025  27.633  25.901  1.00  0.00     0.212 HD
ENDBRANCH  74  83
BRANCH  75  85
ATOM     85  C   UNL A   1      33.894  24.586  24.321  1.00  0.00    -0.016 A 
ATOM     86  C   UNL A   1      34.544  24.735  25.556  1.00  0.00     0.009 A 
ATOM     87  C   UNL A   1      34.613  24.010  23.251  1.00  0.00     0.009 A 
ATOM     88  C   UNL A   1      35.858  24.289  25.724  1.00  0.00     0.039 A 
ATOM     89  C   UNL A   1      35.927  23.573  23.420  1.00  0.00     0.039 A 
ATOM     90  C   UNL A   1      36.534  23.707  24.659  1.00  0.00     0.123 A 
ATOM     91  F   UNL A   1      37.780  23.251  24.834  1.00  0.00    -0.207 F 
ENDBRANCH  75  85
ENDBRANCH  68  71
ENDBRANCH  66  67
ENDBRANCH  65  66
ENDBRANCH  64  65
ENDBRANCH   1  64
TORSDOF 16
ENDMDL
MODEL 3
REMARK VINA RESULT:     -12.0      2.016      6.521
REMARK SMILES O=C(NCCCCCCNC(=O)[C@H]1C[C@](O)(c2ccc(F)cc2)[C@@H](c2ccc(F)cc2)O1)c1ccc(-c2c3nc(c(-c4c(F)cccc4F)c4ccc([nH]4)c(-c4c(F)cccc4F)c4nc(c(-c5c(F)cccc5F)c5ccc2[nH]5)C=C4)C=C3)cc1
REMARK SMILES IDX 6 1 5 2 4 3 3 4 1 5 2 6 33 8 34 9 86 10 35 11 85 12 36 13
REMARK SMILES IDX 37 14 38 15 79 16 39 17 84 18 78 19 80 20 40 21 83 22 77 23
REMARK SMILES IDX 76 24 41 26 67 27 50 28 66 29 51 30 54 31 65 32 81 33 52 34
REMARK SMILES IDX 53 35 64 37 82 38 55 39 42 40 43 41 48 42 44 43 45 44 47 45
REMARK SMILES IDX 49 46 46 47 68 48 69 49 74 50 70 51 71 52 73 53 75 54 72 55
REMARK SMILES IDX 56 56 57 57 62 58 58 59 59 60 61 61 63 62 60 63 7 64 8 65
REMARK SMILES IDX 9 66 10 67 11 68 12 70 13 71 14 72 32 73 15 74 24 75 17 76
REMARK SMILES IDX 18 77 23 78 19 79 22 80 20 81 21 82 16 83 25 85 26 86 31 87
REMARK SMILES IDX 27 88 30 89 28 90 29 91
REMARK H PARENT 3 7 80 25 54 36 10 69 16 84
REMARK Flexibility Score: inf
ROOT
ATOM      1  C   UNL A   1      31.465  30.871  25.884  1.00  0.00     0.002 C 
ENDROOT
BRANCH   1   2
ATOM      2  C   UNL A   1      31.244  32.244  26.517  1.00  0.00     0.021 C 
BRANCH   2   3
ATOM      3  C   UNL A   1      32.458  32.815  27.239  1.00  0.00     0.116 C 
BRANCH   3   4
ATOM      4  N   UNL A   1      32.270  34.203  27.628  1.00  0.00    -0.352 N 
ATOM      5  O   UNL A   1      32.555  36.030  28.936  1.00  0.00    -0.269 OA
ATOM      6  C   UNL A   1      32.946  34.921  28.588  1.00  0.00     0.251 C 
ATOM      7  H   UNL A   1      31.568  34.694  27.141  1.00  0.00     0.163 HD
BRANCH   6   8
ATOM      8  C   UNL A   1      34.148  34.329  29.213  1.00  0.00     0.039 A 
ATOM      9  C   UNL A   1      35.405  34.540  28.644  1.00  0.00     0.014 A 
ATOM     10  C   UNL A   1      34.018  33.552  30.367  1.00  0.00     0.014 A 
ATOM     11  C   UNL A   1      36.509  33.863  29.147  1.00  0.00     0.010 A 
ATOM     12  C   UNL A   1      35.146  32.943  30.926  1.00  0.00     0.010 A 
ATOM     13  C   UNL A   1      36.398  33.077  30.308  1.00  0.00    -0.014 A 
BRANCH  13  14
ATOM     14  C   UNL A   1      37.635  32.496  30.889  1.00  0.00     0.031 A 
ATOM     15  C   UNL A   1      38.197  32.977  32.198  1.00  0.00     0.074 A 
ATOM     16  C   UNL A   1      38.213  31.466  30.241  1.00  0.00     0.049 A 
ATOM     17  N   UNL A   1      39.222  32.512  32.867  1.00  0.00    -0.248 NA
ATOM     18  C   UNL A   1      37.533  34.122  32.839  1.00  0.00     0.031 C 
ATOM     19  C   UNL A   1      37.760  30.926  28.956  1.00  0.00     0.029 A 
ATOM     20  N   UNL A   1      39.268  30.661  30.584  1.00  0.00    -0.354 N 
ATOM     21  C   UNL A   1      39.335  33.310  33.998  1.00  0.00     0.074 A 
ATOM     22  C   UNL A   1      38.286  34.305  33.918  1.00  0.00     0.031 C 
ATOM     23  C   UNL A   1      38.478  29.834  28.659  1.00  0.00     0.029 A 
ATOM     24  C   UNL A   1      39.485  29.636  29.695  1.00  0.00     0.049 A 
ATOM     25  H   UNL A   1      39.817  30.804  31.388  1.00  0.00     0.167 HD
ATOM     26  C   UNL A   1      40.230  33.213  35.010  1.00  0.00     0.037 A 
ATOM     27  C   UNL A   1      40.395  28.646  29.705  1.00  0.00     0.037 A 
ATOM     28  C   UNL A   1      41.261  32.209  35.093  1.00  0.00     0.049 A 
ATOM     29  C   UNL A   1      41.379  28.576  30.835  1.00  0.00     0.074 A 
ATOM     30  C   UNL A   1      42.200  32.021  36.093  1.00  0.00     0.029 A 
ATOM     31  N   UNL A   1      41.487  31.225  34.143  1.00  0.00    -0.354 N 
ATOM     32  N   UNL A   1      41.463  29.332  31.902  1.00  0.00    -0.248 NA
ATOM     33  C   UNL A   1      42.402  27.525  30.756  1.00  0.00     0.031 C 
ATOM     34  C   UNL A   1      43.017  30.945  35.732  1.00  0.00     0.029 A 
ATOM     35  C   UNL A   1      42.561  30.438  34.526  1.00  0.00     0.049 A 
ATOM     36  H   UNL A   1      40.963  31.103  33.319  1.00  0.00     0.167 HD
ATOM     37  C   UNL A   1      42.548  28.852  32.620  1.00  0.00     0.074 A 
ATOM     38  C   UNL A   1      43.069  27.718  31.886  1.00  0.00     0.031 C 
ATOM     39  C   UNL A   1      43.073  29.319  33.778  1.00  0.00     0.037 A 
BRANCH  26  40
ATOM     40  C   UNL A   1      40.150  34.213  36.126  1.00  0.00     0.057 A 
ATOM     41  C   UNL A   1      39.362  33.960  37.257  1.00  0.00     0.134 A 
ATOM     42  C   UNL A   1      40.761  35.469  36.031  1.00  0.00     0.134 A 
ATOM     43  F   UNL A   1      38.744  32.779  37.404  1.00  0.00    -0.206 F 
ATOM     44  C   UNL A   1      39.167  34.930  38.242  1.00  0.00     0.040 A 
ATOM     45  C   UNL A   1      40.587  36.442  37.018  1.00  0.00     0.040 A 
ATOM     46  F   UNL A   1      41.535  35.771  34.976  1.00  0.00    -0.206 F 
ATOM     47  C   UNL A   1      39.778  36.176  38.122  1.00  0.00     0.006 A 
ENDBRANCH  26  40
BRANCH  27  48
ATOM     48  C   UNL A   1      40.412  27.646  28.609  1.00  0.00     0.057 A 
ATOM     49  C   UNL A   1      41.176  27.846  27.452  1.00  0.00     0.134 A 
ATOM     50  C   UNL A   1      39.643  26.480  28.684  1.00  0.00     0.134 A 
ATOM     51  F   UNL A   1      41.927  28.948  27.318  1.00  0.00    -0.206 F 
ATOM     52  C   UNL A   1      41.160  26.930  26.400  1.00  0.00     0.040 A 
ATOM     53  C   UNL A   1      39.639  25.542  27.650  1.00  0.00     0.040 A 
ATOM     54  F   UNL A   1      38.904  26.227  29.774  1.00  0.00    -0.206 F 
ATOM     55  C   UNL A   1      40.392  25.771  26.500  1.00  0.00     0.006 A 
ENDBRANCH  27  48
BRANCH  39  56
ATOM     56  C   UNL A   1      44.273  28.602  34.317  1.00  0.00     0.057 A 
ATOM     57  C   UNL A   1      45.568  29.035  34.004  1.00  0.00     0.134 A 
ATOM     58  C   UNL A   1      44.145  27.460  35.116  1.00  0.00     0.134 A 
ATOM     59  F   UNL A   1      45.758  30.118  33.237  1.00  0.00    -0.206 F 
ATOM     60  C   UNL A   1      46.694  28.353  34.467  1.00  0.00     0.040 A 
ATOM     61  C   UNL A   1      45.263  26.783  35.603  1.00  0.00     0.040 A 
ATOM     62  F   UNL A   1      42.931  27.004  35.461  1.00  0.00    -0.206 F 
ATOM     63  C   UNL A   1      46.542  27.226  35.274  1.00  0.00     0.006 A 
ENDBRANCH  39  56
ENDBRANCH  13  14
ENDBRANCH   6   8
ENDBRANCH   3   4
ENDBRANCH   2   3
ENDBRANCH   1   2
BRANCH   1  64
ATOM     64  C   UNL A   1      32.371  29.929  26.682  1.00  0.00     0.002 C 
BRANCH  64  65
ATOM     65  C   UNL A   1      31.655  28.754  27.361  1.00  0.00     0.021 C 
BRANCH  65  66
ATOM     66  C   UNL A   1      32.169  27.370  26.971  1.00  0.00     0.116 C 
BRANCH  66  67
ATOM     67  N   UNL A   1      31.097  26.400  26.877  1.00  0.00    -0.354 N 
ATOM     68  C   UNL A   1      31.152  25.085  26.520  1.00  0.00     0.249 C 
ATOM     69  H   UNL A   1      30.202  26.738  27.104  1.00  0.00     0.163 HD
ATOM     70  O   UNL A   1      30.081  24.475  26.464  1.00  0.00    -0.272 OA
BRANCH  68  71
ATOM     71  C   UNL A   1      32.520  24.389  26.270  1.00  0.00     0.211 C 
ATOM     72  C   UNL A   1      32.411  23.312  25.185  1.00  0.00     0.085 C 
ATOM     73  O   UNL A   1      33.580  25.275  25.901  1.00  0.00    -0.357 OA
ATOM     74  C   UNL A   1      33.499  23.634  24.166  1.00  0.00     0.123 C 
ATOM     75  C   UNL A   1      33.883  25.098  24.504  1.00  0.00     0.186 C 
BRANCH  74  76
ATOM     76  C   UNL A   1      34.654  22.622  24.306  1.00  0.00    -0.013 A 
ATOM     77  C   UNL A   1      35.953  22.990  23.892  1.00  0.00     0.010 A 
ATOM     78  C   UNL A   1      34.483  21.326  24.828  1.00  0.00     0.010 A 
ATOM     79  C   UNL A   1      37.039  22.125  24.049  1.00  0.00     0.039 A 
ATOM     80  C   UNL A   1      35.572  20.466  25.001  1.00  0.00     0.039 A 
ATOM     81  C   UNL A   1      36.840  20.877  24.619  1.00  0.00     0.123 A 
ATOM     82  F   UNL A   1      37.883  20.055  24.796  1.00  0.00    -0.207 F 
ENDBRANCH  74  76
BRANCH  74  83
ATOM     83  O   UNL A   1      32.966  23.473  22.846  1.00  0.00    -0.382 OA
ATOM     84  H   UNL A   1      32.454  24.263  22.606  1.00  0.00     0.212 HD
ENDBRANCH  74  83
BRANCH  75  85
ATOM     85  C   UNL A   1      33.272  26.271  23.752  1.00  0.00    -0.016 A 
ATOM     86  C   UNL A   1      32.014  26.218  23.131  1.00  0.00     0.009 A 
ATOM     87  C   UNL A   1      33.949  27.509  23.789  1.00  0.00     0.009 A 
ATOM     88  C   UNL A   1      31.438  27.374  22.596  1.00  0.00     0.039 A 
ATOM     89  C   UNL A   1      33.375  28.660  23.247  1.00  0.00     0.039 A 
ATOM     90  C   UNL A   1      32.119  28.583  22.665  1.00  0.00     0.123 A 
ATOM     91  F   UNL A   1      31.549  29.693  22.182  1.00  0.00    -0.207 F 
ENDBRANCH  75  85
ENDBRANCH  68  71
ENDBRANCH  66  67
ENDBRANCH  65  66
ENDBRANCH  64  65
ENDBRANCH   1  64
TORSDOF 16
ENDMDL
