MODEL 1
REMARK VINA RESULT:     -11.3      0.000      0.000
REMARK SMILES O=C(NCCCCCCNC(=O)[C@@H]1[C@H](C(=O)NCc2ccccc2Cl)[C@@H]2C=C[C@H]1C2)c1ccc(-c2c3nc(c(-c4c(F)cccc4F)c4ccc([nH]4)c(-c4c(F)cccc4F)c4nc(c(-c5c(F)cccc5F)c5ccc2[nH]5)C=C4)C=C3)cc1
REMARK SMILES IDX 7 1 6 2 5 3 4 4 3 5 1 6 2 7 31 9 32 10 84 11 33 12 83 13
REMARK SMILES IDX 34 14 35 15 36 16 77 17 37 18 82 19 76 20 78 21 38 22 81 23
REMARK SMILES IDX 75 24 74 25 39 27 65 28 48 29 64 30 49 31 52 32 63 33 79 34
REMARK SMILES IDX 50 35 51 36 62 38 80 39 53 40 40 41 41 42 46 43 42 44 43 45
REMARK SMILES IDX 45 46 47 47 44 48 66 49 67 50 72 51 68 52 69 53 71 54 73 55
REMARK SMILES IDX 70 56 54 57 55 58 60 59 56 60 57 61 59 62 61 63 58 64 8 65
REMARK SMILES IDX 9 66 10 67 11 68 12 70 13 71 14 72 29 73 26 74 28 75 30 76
REMARK SMILES IDX 27 77 15 78 16 79 17 80 18 82 19 83 20 84 24 85 21 86 23 87
REMARK SMILES IDX 25 88 22 89
REMARK H PARENT 3 8 78 26 52 37 10 69 17 81
REMARK Flexibility Score: inf
ROOT
ATOM      1  C   UNL A   1      38.799  22.184  26.134  1.00  0.00     0.002 C 
ENDROOT
BRANCH   1   2
ATOM      2  C   UNL A   1      38.114  21.103  25.293  1.00  0.00     0.002 C 
BRANCH   2   3
ATOM      3  C   UNL A   1      38.900  19.798  25.134  1.00  0.00     0.021 C 
BRANCH   3   4
ATOM      4  C   UNL A   1      39.717  19.399  26.360  1.00  0.00     0.116 C 
BRANCH   4   5
ATOM      5  N   UNL A   1      41.003  18.848  25.973  1.00  0.00    -0.352 N 
ATOM      6  O   UNL A   1      43.105  19.019  25.140  1.00  0.00    -0.269 OA
ATOM      7  C   UNL A   1      42.165  19.536  25.751  1.00  0.00     0.251 C 
ATOM      8  H   UNL A   1      41.044  17.870  25.856  1.00  0.00     0.163 HD
BRANCH   7   9
ATOM      9  C   UNL A   1      42.286  20.913  26.265  1.00  0.00     0.039 A 
ATOM     10  C   UNL A   1      42.275  21.134  27.646  1.00  0.00     0.014 A 
ATOM     11  C   UNL A   1      42.430  21.978  25.375  1.00  0.00     0.014 A 
ATOM     12  C   UNL A   1      42.343  22.430  28.139  1.00  0.00     0.010 A 
ATOM     13  C   UNL A   1      42.573  23.275  25.874  1.00  0.00     0.010 A 
ATOM     14  C   UNL A   1      42.543  23.506  27.260  1.00  0.00    -0.014 A 
BRANCH  14  15
ATOM     15  C   UNL A   1      42.900  24.835  27.813  1.00  0.00     0.031 A 
ATOM     16  C   UNL A   1      41.856  25.859  28.140  1.00  0.00     0.074 A 
ATOM     17  C   UNL A   1      44.209  25.108  27.980  1.00  0.00     0.049 A 
ATOM     18  N   UNL A   1      42.019  27.085  28.567  1.00  0.00    -0.248 NA
ATOM     19  C   UNL A   1      40.449  25.467  27.959  1.00  0.00     0.031 C 
ATOM     20  C   UNL A   1      45.307  24.186  27.671  1.00  0.00     0.029 A 
ATOM     21  N   UNL A   1      44.845  26.232  28.439  1.00  0.00    -0.354 N 
ATOM     22  C   UNL A   1      40.743  27.620  28.687  1.00  0.00     0.074 A 
ATOM     23  C   UNL A   1      39.814  26.589  28.279  1.00  0.00     0.031 C 
ATOM     24  C   UNL A   1      46.474  24.774  27.962  1.00  0.00     0.029 A 
ATOM     25  C   UNL A   1      46.215  26.136  28.407  1.00  0.00     0.049 A 
ATOM     26  H   UNL A   1      44.366  27.031  28.759  1.00  0.00     0.167 HD
ATOM     27  C   UNL A   1      40.394  28.862  29.100  1.00  0.00     0.037 A 
ATOM     28  C   UNL A   1      47.163  27.055  28.661  1.00  0.00     0.037 A 
ATOM     29  C   UNL A   1      41.335  29.869  29.519  1.00  0.00     0.049 A 
ATOM     30  C   UNL A   1      46.737  28.432  29.075  1.00  0.00     0.074 A 
ATOM     31  C   UNL A   1      41.075  31.129  30.031  1.00  0.00     0.029 A 
ATOM     32  N   UNL A   1      42.714  29.741  29.458  1.00  0.00    -0.354 N 
ATOM     33  N   UNL A   1      45.526  28.899  29.262  1.00  0.00    -0.248 NA
ATOM     34  C   UNL A   1      47.804  29.415  29.303  1.00  0.00     0.031 C 
ATOM     35  C   UNL A   1      42.293  31.787  30.217  1.00  0.00     0.029 A 
ATOM     36  C   UNL A   1      43.316  30.918  29.874  1.00  0.00     0.049 A 
ATOM     37  H   UNL A   1      43.195  28.934  29.162  1.00  0.00     0.167 HD
ATOM     38  C   UNL A   1      45.686  30.225  29.637  1.00  0.00     0.074 A 
ATOM     39  C   UNL A   1      47.110  30.478  29.683  1.00  0.00     0.031 C 
ATOM     40  C   UNL A   1      44.737  31.153  29.909  1.00  0.00     0.037 A 
BRANCH  27  41
ATOM     41  C   UNL A   1      38.939  29.229  29.103  1.00  0.00     0.057 A 
ATOM     42  C   UNL A   1      38.256  29.578  27.932  1.00  0.00     0.134 A 
ATOM     43  C   UNL A   1      38.187  29.123  30.282  1.00  0.00     0.134 A 
ATOM     44  F   UNL A   1      38.917  29.704  26.772  1.00  0.00    -0.206 F 
ATOM     45  C   UNL A   1      36.879  29.812  27.933  1.00  0.00     0.040 A 
ATOM     46  C   UNL A   1      36.807  29.332  30.291  1.00  0.00     0.040 A 
ATOM     47  F   UNL A   1      38.778  28.782  31.438  1.00  0.00    -0.206 F 
ATOM     48  C   UNL A   1      36.148  29.677  29.113  1.00  0.00     0.006 A 
ENDBRANCH  27  41
BRANCH  28  49
ATOM     49  C   UNL A   1      48.597  26.719  28.476  1.00  0.00     0.057 A 
ATOM     50  C   UNL A   1      49.251  26.956  27.263  1.00  0.00     0.134 A 
ATOM     51  C   UNL A   1      49.344  26.131  29.507  1.00  0.00     0.134 A 
ATOM     52  F   UNL A   1      48.586  27.501  26.233  1.00  0.00    -0.206 F 
ATOM     53  C   UNL A   1      50.586  26.595  27.070  1.00  0.00     0.040 A 
ATOM     54  C   UNL A   1      50.688  25.798  29.340  1.00  0.00     0.040 A 
ATOM     55  F   UNL A   1      48.780  25.885  30.698  1.00  0.00    -0.206 F 
ATOM     56  C   UNL A   1      51.309  26.019  28.112  1.00  0.00     0.006 A 
ENDBRANCH  28  49
BRANCH  40  57
ATOM     57  C   UNL A   1      45.214  32.522  30.287  1.00  0.00     0.057 A 
ATOM     58  C   UNL A   1      45.369  33.534  29.331  1.00  0.00     0.134 A 
ATOM     59  C   UNL A   1      45.485  32.844  31.623  1.00  0.00     0.134 A 
ATOM     60  F   UNL A   1      45.144  33.285  28.033  1.00  0.00    -0.206 F 
ATOM     61  C   UNL A   1      45.794  34.814  29.689  1.00  0.00     0.040 A 
ATOM     62  C   UNL A   1      45.883  34.127  31.997  1.00  0.00     0.040 A 
ATOM     63  F   UNL A   1      45.350  31.920  32.586  1.00  0.00    -0.206 F 
ATOM     64  C   UNL A   1      46.043  35.115  31.027  1.00  0.00     0.006 A 
ENDBRANCH  40  57
ENDBRANCH  14  15
ENDBRANCH   7   9
ENDBRANCH   4   5
ENDBRANCH   3   4
ENDBRANCH   2   3
ENDBRANCH   1   2
BRANCH   1  65
ATOM     65  C   UNL A   1      38.120  23.559  26.091  1.00  0.00     0.021 C 
BRANCH  65  66
ATOM     66  C   UNL A   1      36.939  23.703  25.124  1.00  0.00     0.116 C 
BRANCH  66  67
ATOM     67  N   UNL A   1      35.711  24.200  25.737  1.00  0.00    -0.356 N 
ATOM     68  C   UNL A   1      34.422  23.747  25.694  1.00  0.00     0.224 C 
ATOM     69  H   UNL A   1      35.834  25.010  26.283  1.00  0.00     0.163 HD
ATOM     70  O   UNL A   1      33.643  24.204  26.531  1.00  0.00    -0.275 OA
BRANCH  68  71
ATOM     71  C   UNL A   1      33.970  22.714  24.675  1.00  0.00     0.098 C 
ATOM     72  C   UNL A   1      33.881  22.966  23.135  1.00  0.00     0.098 C 
ATOM     73  C   UNL A   1      32.551  22.122  24.973  1.00  0.00     0.025 C 
ATOM     74  C   UNL A   1      32.640  22.074  22.744  1.00  0.00     0.025 C 
ATOM     75  C   UNL A   1      31.404  22.974  24.438  1.00  0.00    -0.027 C 
ATOM     76  C   UNL A   1      32.529  21.049  23.877  1.00  0.00     0.017 C 
ATOM     77  C   UNL A   1      31.404  22.864  23.099  1.00  0.00    -0.027 C 
BRANCH  72  78
ATOM     78  C   UNL A   1      33.597  24.381  22.599  1.00  0.00     0.224 C 
ATOM     79  O   UNL A   1      33.268  24.569  21.431  1.00  0.00    -0.275 OA
ATOM     80  N   UNL A   1      33.617  25.376  23.533  1.00  0.00    -0.352 N 
ATOM     81  H   UNL A   1      34.197  25.234  24.315  1.00  0.00     0.163 HD
BRANCH  80  82
ATOM     82  C   UNL A   1      32.877  26.615  23.494  1.00  0.00     0.153 C 
BRANCH  82  83
ATOM     83  C   UNL A   1      32.658  27.115  24.908  1.00  0.00    -0.010 A 
ATOM     84  C   UNL A   1      33.736  27.690  25.621  1.00  0.00     0.007 A 
ATOM     85  C   UNL A   1      31.415  27.055  25.550  1.00  0.00     0.046 A 
ATOM     86  C   UNL A   1      33.558  28.272  26.877  1.00  0.00     0.000 A 
ATOM     87  C   UNL A   1      31.247  27.607  26.826  1.00  0.00     0.021 A 
ATOM     88  Cl  UNL A   1      30.040  26.317  24.815  1.00  0.00    -0.084 Cl
ATOM     89  C   UNL A   1      32.308  28.233  27.480  1.00  0.00     0.002 A 
ENDBRANCH  82  83
ENDBRANCH  80  82
ENDBRANCH  72  78
ENDBRANCH  68  71
ENDBRANCH  66  67
ENDBRANCH  65  66
ENDBRANCH   1  65
TORSDOF 16
ENDMDL
MODEL 2
REMARK VINA RESULT:     -11.3      4.536      9.513
REMARK SMILES O=C(NCCCCCCNC(=O)[C@@H]1[C@H](C(=O)NCc2ccccc2Cl)[C@@H]2C=C[C@H]1C2)c1ccc(-c2c3nc(c(-c4c(F)cccc4F)c4ccc([nH]4)c(-c4c(F)cccc4F)c4nc(c(-c5c(F)cccc5F)c5ccc2[nH]5)C=C4)C=C3)cc1
REMARK SMILES IDX 7 1 6 2 5 3 4 4 3 5 1 6 2 7 31 9 32 10 84 11 33 12 83 13
REMARK SMILES IDX 34 14 35 15 36 16 77 17 37 18 82 19 76 20 78 21 38 22 81 23
REMARK SMILES IDX 75 24 74 25 39 27 65 28 48 29 64 30 49 31 52 32 63 33 79 34
REMARK SMILES IDX 50 35 51 36 62 38 80 39 53 40 40 41 41 42 46 43 42 44 43 45
REMARK SMILES IDX 45 46 47 47 44 48 66 49 67 50 72 51 68 52 69 53 71 54 73 55
REMARK SMILES IDX 70 56 54 57 55 58 60 59 56 60 57 61 59 62 61 63 58 64 8 65
REMARK SMILES IDX 9 66 10 67 11 68 12 70 13 71 14 72 29 73 26 74 28 75 30 76
REMARK SMILES IDX 27 77 15 78 16 79 17 80 18 82 19 83 20 84 24 85 21 86 23 87
REMARK SMILES IDX 25 88 22 89
REMARK H PARENT 3 8 78 26 52 37 10 69 17 81
REMARK Flexibility Score: inf
ROOT
ATOM      1  C   UNL A   1      31.789  29.556  27.253  1.00  0.00     0.002 C 
ENDROOT
BRANCH   1   2
ATOM      2  C   UNL A   1      31.579  30.664  26.216  1.00  0.00     0.002 C 
BRANCH   2   3
ATOM      3  C   UNL A   1      31.357  32.067  26.791  1.00  0.00     0.021 C 
BRANCH   3   4
ATOM      4  C   UNL A   1      32.624  32.748  27.300  1.00  0.00     0.116 C 
BRANCH   4   5
ATOM      5  N   UNL A   1      32.393  34.161  27.548  1.00  0.00    -0.352 N 
ATOM      6  O   UNL A   1      32.500  36.029  28.828  1.00  0.00    -0.269 OA
ATOM      7  C   UNL A   1      32.982  34.939  28.508  1.00  0.00     0.251 C 
ATOM      8  H   UNL A   1      31.740  34.608  26.961  1.00  0.00     0.163 HD
BRANCH   7   9
ATOM      9  C   UNL A   1      34.217  34.458  29.154  1.00  0.00     0.039 A 
ATOM     10  C   UNL A   1      34.141  33.833  30.403  1.00  0.00     0.014 A 
ATOM     11  C   UNL A   1      35.445  34.609  28.507  1.00  0.00     0.014 A 
ATOM     12  C   UNL A   1      35.303  33.417  31.040  1.00  0.00     0.010 A 
ATOM     13  C   UNL A   1      36.605  34.123  29.115  1.00  0.00     0.010 A 
ATOM     14  C   UNL A   1      36.538  33.513  30.379  1.00  0.00    -0.014 A 
BRANCH  14  15
ATOM     15  C   UNL A   1      37.715  32.810  30.944  1.00  0.00     0.031 A 
ATOM     16  C   UNL A   1      38.284  31.582  30.300  1.00  0.00     0.074 A 
ATOM     17  C   UNL A   1      38.239  33.293  32.087  1.00  0.00     0.049 A 
ATOM     18  N   UNL A   1      39.266  30.823  30.712  1.00  0.00    -0.248 NA
ATOM     19  C   UNL A   1      37.672  31.141  29.037  1.00  0.00     0.031 C 
ATOM     20  C   UNL A   1      37.744  34.472  32.807  1.00  0.00     0.029 A 
ATOM     21  N   UNL A   1      39.291  32.861  32.852  1.00  0.00    -0.354 N 
ATOM     22  C   UNL A   1      39.381  29.804  29.777  1.00  0.00     0.074 A 
ATOM     23  C   UNL A   1      38.360  30.034  28.776  1.00  0.00     0.031 C 
ATOM     24  C   UNL A   1      38.498  34.676  33.895  1.00  0.00     0.029 A 
ATOM     25  C   UNL A   1      39.480  33.605  33.992  1.00  0.00     0.049 A 
ATOM     26  H   UNL A   1      39.855  32.091  32.609  1.00  0.00     0.167 HD
ATOM     27  C   UNL A   1      40.260  28.773  29.766  1.00  0.00     0.037 A 
ATOM     28  C   UNL A   1      40.318  33.421  35.027  1.00  0.00     0.037 A 
ATOM     29  C   UNL A   1      41.281  28.572  30.764  1.00  0.00     0.049 A 
ATOM     30  C   UNL A   1      41.249  32.245  35.000  1.00  0.00     0.074 A 
ATOM     31  C   UNL A   1      42.271  27.605  30.797  1.00  0.00     0.029 A 
ATOM     32  N   UNL A   1      41.431  29.336  31.911  1.00  0.00    -0.354 N 
ATOM     33  N   UNL A   1      41.399  31.335  34.069  1.00  0.00    -0.248 NA
ATOM     34  C   UNL A   1      42.118  32.062  36.170  1.00  0.00     0.031 C 
ATOM     35  C   UNL A   1      42.978  27.742  31.994  1.00  0.00     0.029 A 
ATOM     36  C   UNL A   1      42.465  28.829  32.682  1.00  0.00     0.049 A 
ATOM     37  H   UNL A   1      40.885  30.121  32.144  1.00  0.00     0.167 HD
ATOM     38  C   UNL A   1      42.384  30.476  34.535  1.00  0.00     0.074 A 
ATOM     39  C   UNL A   1      42.817  30.993  35.816  1.00  0.00     0.031 C 
ATOM     40  C   UNL A   1      42.879  29.355  33.958  1.00  0.00     0.037 A 
BRANCH  27  41
ATOM     41  C   UNL A   1      40.160  27.761  28.663  1.00  0.00     0.057 A 
ATOM     42  C   UNL A   1      40.827  27.921  27.444  1.00  0.00     0.134 A 
ATOM     43  C   UNL A   1      39.472  26.557  28.871  1.00  0.00     0.134 A 
ATOM     44  F   UNL A   1      41.498  29.051  27.178  1.00  0.00    -0.206 F 
ATOM     45  C   UNL A   1      40.812  26.921  26.469  1.00  0.00     0.040 A 
ATOM     46  C   UNL A   1      39.469  25.541  27.913  1.00  0.00     0.040 A 
ATOM     47  F   UNL A   1      38.819  26.336  30.022  1.00  0.00    -0.206 F 
ATOM     48  C   UNL A   1      40.142  25.721  26.707  1.00  0.00     0.006 A 
ENDBRANCH  27  41
BRANCH  28  49
ATOM     49  C   UNL A   1      40.274  34.337  36.195  1.00  0.00     0.057 A 
ATOM     50  C   UNL A   1      40.996  35.536  36.209  1.00  0.00     0.134 A 
ATOM     51  C   UNL A   1      39.523  34.023  37.336  1.00  0.00     0.134 A 
ATOM     52  F   UNL A   1      41.747  35.883  35.154  1.00  0.00    -0.206 F 
ATOM     53  C   UNL A   1      40.995  36.374  37.325  1.00  0.00     0.040 A 
ATOM     54  C   UNL A   1      39.485  34.870  38.444  1.00  0.00     0.040 A 
ATOM     55  F   UNL A   1      38.801  32.894  37.384  1.00  0.00    -0.206 F 
ATOM     56  C   UNL A   1      40.234  36.044  38.444  1.00  0.00     0.006 A 
ENDBRANCH  28  49
BRANCH  40  57
ATOM     57  C   UNL A   1      43.948  28.620  34.708  1.00  0.00     0.057 A 
ATOM     58  C   UNL A   1      43.635  27.622  35.640  1.00  0.00     0.134 A 
ATOM     59  C   UNL A   1      45.302  28.884  34.469  1.00  0.00     0.134 A 
ATOM     60  F   UNL A   1      42.357  27.335  35.928  1.00  0.00    -0.206 F 
ATOM     61  C   UNL A   1      44.633  26.925  36.322  1.00  0.00     0.040 A 
ATOM     62  C   UNL A   1      46.309  28.174  35.124  1.00  0.00     0.040 A 
ATOM     63  F   UNL A   1      45.667  29.823  33.585  1.00  0.00    -0.206 F 
ATOM     64  C   UNL A   1      45.975  27.194  36.057  1.00  0.00     0.006 A 
ENDBRANCH  40  57
ENDBRANCH  14  15
ENDBRANCH   7   9
ENDBRANCH   4   5
ENDBRANCH   3   4
ENDBRANCH   2   3
ENDBRANCH   1   2
BRANCH   1  65
ATOM     65  C   UNL A   1      33.149  28.853  27.176  1.00  0.00     0.021 C 
BRANCH  65  66
ATOM     66  C   UNL A   1      33.975  29.106  25.909  1.00  0.00     0.116 C 
BRANCH  66  67
ATOM     67  N   UNL A   1      34.243  27.914  25.111  1.00  0.00    -0.356 N 
ATOM     68  C   UNL A   1      33.446  27.169  24.287  1.00  0.00     0.224 C 
ATOM     69  H   UNL A   1      35.169  27.586  25.179  1.00  0.00     0.163 HD
ATOM     70  O   UNL A   1      34.011  26.380  23.529  1.00  0.00    -0.275 OA
BRANCH  68  71
ATOM     71  C   UNL A   1      31.933  27.317  24.289  1.00  0.00     0.098 C 
ATOM     72  C   UNL A   1      30.979  26.667  25.342  1.00  0.00     0.098 C 
ATOM     73  C   UNL A   1      31.261  26.870  22.946  1.00  0.00     0.025 C 
ATOM     74  C   UNL A   1      29.705  26.362  24.464  1.00  0.00     0.025 C 
ATOM     75  C   UNL A   1      30.992  25.371  22.862  1.00  0.00    -0.027 C 
ATOM     76  C   UNL A   1      29.826  27.310  23.266  1.00  0.00     0.017 C 
ATOM     77  C   UNL A   1      29.989  25.087  23.707  1.00  0.00    -0.027 C 
BRANCH  72  78
ATOM     78  C   UNL A   1      31.371  25.345  26.028  1.00  0.00     0.224 C 
ATOM     79  O   UNL A   1      30.563  24.705  26.695  1.00  0.00    -0.275 OA
ATOM     80  N   UNL A   1      32.625  24.886  25.742  1.00  0.00    -0.352 N 
ATOM     81  H   UNL A   1      33.301  25.565  25.516  1.00  0.00     0.163 HD
BRANCH  80  82
ATOM     82  C   UNL A   1      33.061  23.511  25.734  1.00  0.00     0.153 C 
BRANCH  82  83
ATOM     83  C   UNL A   1      34.450  23.426  25.130  1.00  0.00    -0.010 A 
ATOM     84  C   UNL A   1      35.579  23.715  25.932  1.00  0.00     0.007 A 
ATOM     85  C   UNL A   1      34.677  23.051  23.801  1.00  0.00     0.046 A 
ATOM     86  C   UNL A   1      36.879  23.537  25.458  1.00  0.00     0.000 A 
ATOM     87  C   UNL A   1      35.983  22.908  23.316  1.00  0.00     0.021 A 
ATOM     88  Cl  UNL A   1      33.383  22.739  22.703  1.00  0.00    -0.084 Cl
ATOM     89  C   UNL A   1      37.082  23.130  24.147  1.00  0.00     0.002 A 
ENDBRANCH  82  83
ENDBRANCH  80  82
ENDBRANCH  72  78
ENDBRANCH  68  71
ENDBRANCH  66  67
ENDBRANCH  65  66
ENDBRANCH   1  65
TORSDOF 16
ENDMDL
MODEL 3
REMARK VINA RESULT:     -11.2      4.524      9.203
REMARK SMILES O=C(NCCCCCCNC(=O)[C@@H]1[C@H](C(=O)NCc2ccccc2Cl)[C@@H]2C=C[C@H]1C2)c1ccc(-c2c3nc(c(-c4c(F)cccc4F)c4ccc([nH]4)c(-c4c(F)cccc4F)c4nc(c(-c5c(F)cccc5F)c5ccc2[nH]5)C=C4)C=C3)cc1
REMARK SMILES IDX 7 1 6 2 5 3 4 4 3 5 1 6 2 7 31 9 32 10 84 11 33 12 83 13
REMARK SMILES IDX 34 14 35 15 36 16 77 17 37 18 82 19 76 20 78 21 38 22 81 23
REMARK SMILES IDX 75 24 74 25 39 27 65 28 48 29 64 30 49 31 52 32 63 33 79 34
REMARK SMILES IDX 50 35 51 36 62 38 80 39 53 40 40 41 41 42 46 43 42 44 43 45
REMARK SMILES IDX 45 46 47 47 44 48 66 49 67 50 72 51 68 52 69 53 71 54 73 55
REMARK SMILES IDX 70 56 54 57 55 58 60 59 56 60 57 61 59 62 61 63 58 64 8 65
REMARK SMILES IDX 9 66 10 67 11 68 12 70 13 71 14 72 29 73 26 74 28 75 30 76
REMARK SMILES IDX 27 77 15 78 16 79 17 80 18 82 19 83 20 84 24 85 21 86 23 87
REMARK SMILES IDX 25 88 22 89
REMARK H PARENT 3 8 78 26 52 37 10 69 17 81
REMARK Flexibility Score: inf
ROOT
ATOM      1  C   UNL A   1      32.495  28.924  26.854  1.00  0.00     0.002 C 
ENDROOT
BRANCH   1   2
ATOM      2  C   UNL A   1      31.420  29.996  27.060  1.00  0.00     0.002 C 
BRANCH   2   3
ATOM      3  C   UNL A   1      31.763  31.385  26.512  1.00  0.00     0.021 C 
BRANCH   3   4
ATOM      4  C   UNL A   1      32.961  32.050  27.185  1.00  0.00     0.116 C 
BRANCH   4   5
ATOM      5  N   UNL A   1      32.698  33.455  27.446  1.00  0.00    -0.352 N 
ATOM      6  O   UNL A   1      32.710  35.299  28.764  1.00  0.00    -0.269 OA
ATOM      7  C   UNL A   1      33.223  34.221  28.451  1.00  0.00     0.251 C 
ATOM      8  H   UNL A   1      32.072  33.905  26.832  1.00  0.00     0.163 HD
BRANCH   7   9
ATOM      9  C   UNL A   1      34.427  33.743  29.156  1.00  0.00     0.039 A 
ATOM     10  C   UNL A   1      34.292  32.813  30.192  1.00  0.00     0.014 A 
ATOM     11  C   UNL A   1      35.688  34.203  28.771  1.00  0.00     0.014 A 
ATOM     12  C   UNL A   1      35.416  32.390  30.891  1.00  0.00     0.010 A 
ATOM     13  C   UNL A   1      36.823  33.720  29.425  1.00  0.00     0.010 A 
ATOM     14  C   UNL A   1      36.694  32.801  30.480  1.00  0.00    -0.014 A 
BRANCH  14  15
ATOM     15  C   UNL A   1      37.886  32.124  31.044  1.00  0.00     0.031 A 
ATOM     16  C   UNL A   1      38.597  31.032  30.305  1.00  0.00     0.074 A 
ATOM     17  C   UNL A   1      38.292  32.500  32.273  1.00  0.00     0.049 A 
ATOM     18  N   UNL A   1      39.609  30.303  30.697  1.00  0.00    -0.248 NA
ATOM     19  C   UNL A   1      38.107  30.705  28.956  1.00  0.00     0.031 C 
ATOM     20  C   UNL A   1      37.655  33.541  33.088  1.00  0.00     0.029 A 
ATOM     21  N   UNL A   1      39.325  32.056  33.058  1.00  0.00    -0.354 N 
ATOM     22  C   UNL A   1      39.869  29.418  29.659  1.00  0.00     0.074 A 
ATOM     23  C   UNL A   1      38.901  29.694  28.619  1.00  0.00     0.031 C 
ATOM     24  C   UNL A   1      38.316  33.664  34.246  1.00  0.00     0.029 A 
ATOM     25  C   UNL A   1      39.376  32.666  34.289  1.00  0.00     0.049 A 
ATOM     26  H   UNL A   1      39.965  31.367  32.769  1.00  0.00     0.167 HD
ATOM     27  C   UNL A   1      40.830  28.466  29.593  1.00  0.00     0.037 A 
ATOM     28  C   UNL A   1      40.157  32.419  35.355  1.00  0.00     0.037 A 
ATOM     29  C   UNL A   1      41.797  28.220  30.633  1.00  0.00     0.049 A 
ATOM     30  C   UNL A   1      41.182  31.328  35.259  1.00  0.00     0.074 A 
ATOM     31  C   UNL A   1      42.860  27.333  30.625  1.00  0.00     0.029 A 
ATOM     32  N   UNL A   1      41.808  28.845  31.870  1.00  0.00    -0.354 N 
ATOM     33  N   UNL A   1      41.469  30.554  34.240  1.00  0.00    -0.248 NA
ATOM     34  C   UNL A   1      41.985  31.067  36.460  1.00  0.00     0.031 C 
ATOM     35  C   UNL A   1      43.474  27.373  31.880  1.00  0.00     0.029 A 
ATOM     36  C   UNL A   1      42.828  28.326  32.652  1.00  0.00     0.049 A 
ATOM     37  H   UNL A   1      41.184  29.553  32.152  1.00  0.00     0.167 HD
ATOM     38  C   UNL A   1      42.490  29.721  34.675  1.00  0.00     0.074 A 
ATOM     39  C   UNL A   1      42.794  30.106  36.036  1.00  0.00     0.031 C 
ATOM     40  C   UNL A   1      43.113  28.719  34.008  1.00  0.00     0.037 A 
BRANCH  27  41
ATOM     41  C   UNL A   1      40.887  27.593  28.373  1.00  0.00     0.057 A 
ATOM     42  C   UNL A   1      40.116  26.431  28.254  1.00  0.00     0.134 A 
ATOM     43  C   UNL A   1      41.642  27.986  27.259  1.00  0.00     0.134 A 
ATOM     44  F   UNL A   1      39.376  25.997  29.284  1.00  0.00    -0.206 F 
ATOM     45  C   UNL A   1      40.097  25.688  27.071  1.00  0.00     0.040 A 
ATOM     46  C   UNL A   1      41.614  27.264  26.065  1.00  0.00     0.040 A 
ATOM     47  F   UNL A   1      42.395  29.095  27.304  1.00  0.00    -0.206 F 
ATOM     48  C   UNL A   1      40.838  26.111  25.968  1.00  0.00     0.006 A 
ENDBRANCH  27  41
BRANCH  28  49
ATOM     49  C   UNL A   1      39.961  33.178  36.616  1.00  0.00     0.057 A 
ATOM     50  C   UNL A   1      39.006  32.787  37.561  1.00  0.00     0.134 A 
ATOM     51  C   UNL A   1      40.711  34.329  36.895  1.00  0.00     0.134 A 
ATOM     52  F   UNL A   1      38.245  31.705  37.343  1.00  0.00    -0.206 F 
ATOM     53  C   UNL A   1      38.785  33.527  38.723  1.00  0.00     0.040 A 
ATOM     54  C   UNL A   1      40.525  35.058  38.070  1.00  0.00     0.040 A 
ATOM     55  F   UNL A   1      41.648  34.753  36.035  1.00  0.00    -0.206 F 
ATOM     56  C   UNL A   1      39.549  34.663  38.982  1.00  0.00     0.006 A 
ENDBRANCH  28  49
BRANCH  40  57
ATOM     57  C   UNL A   1      44.188  27.979  34.744  1.00  0.00     0.057 A 
ATOM     58  C   UNL A   1      43.916  26.797  35.445  1.00  0.00     0.134 A 
ATOM     59  C   UNL A   1      45.513  28.430  34.721  1.00  0.00     0.134 A 
ATOM     60  F   UNL A   1      42.664  26.323  35.520  1.00  0.00    -0.206 F 
ATOM     61  C   UNL A   1      44.923  26.099  36.112  1.00  0.00     0.040 A 
ATOM     62  C   UNL A   1      46.534  27.726  35.360  1.00  0.00     0.040 A 
ATOM     63  F   UNL A   1      45.839  29.553  34.063  1.00  0.00    -0.206 F 
ATOM     64  C   UNL A   1      46.238  26.559  36.062  1.00  0.00     0.006 A 
ENDBRANCH  40  57
ENDBRANCH  14  15
ENDBRANCH   7   9
ENDBRANCH   4   5
ENDBRANCH   3   4
ENDBRANCH   2   3
ENDBRANCH   1   2
BRANCH   1  65
ATOM     65  C   UNL A   1      32.075  27.506  27.259  1.00  0.00     0.021 C 
BRANCH  65  66
ATOM     66  C   UNL A   1      31.601  26.588  26.127  1.00  0.00     0.116 C 
BRANCH  66  67
ATOM     67  N   UNL A   1      31.346  25.209  26.531  1.00  0.00    -0.356 N 
ATOM     68  C   UNL A   1      32.188  24.163  26.789  1.00  0.00     0.224 C 
ATOM     69  H   UNL A   1      30.392  24.992  26.637  1.00  0.00     0.163 HD
ATOM     70  O   UNL A   1      31.708  23.194  27.378  1.00  0.00    -0.275 OA
BRANCH  68  71
ATOM     71  C   UNL A   1      33.653  24.197  26.386  1.00  0.00     0.098 C 
ATOM     72  C   UNL A   1      34.187  24.737  25.020  1.00  0.00     0.098 C 
ATOM     73  C   UNL A   1      34.353  22.797  26.459  1.00  0.00     0.025 C 
ATOM     74  C   UNL A   1      35.424  23.790  24.772  1.00  0.00     0.025 C 
ATOM     75  C   UNL A   1      34.155  21.945  25.209  1.00  0.00    -0.027 C 
ATOM     76  C   UNL A   1      35.786  23.256  26.161  1.00  0.00     0.017 C 
ATOM     77  C   UNL A   1      34.880  22.494  24.221  1.00  0.00    -0.027 C 
BRANCH  72  78
ATOM     78  C   UNL A   1      33.306  24.656  23.761  1.00  0.00     0.224 C 
ATOM     79  O   UNL A   1      32.256  24.017  23.753  1.00  0.00    -0.275 OA
ATOM     80  N   UNL A   1      33.707  25.434  22.713  1.00  0.00    -0.352 N 
ATOM     81  H   UNL A   1      34.671  25.623  22.650  1.00  0.00     0.163 HD
BRANCH  80  82
ATOM     82  C   UNL A   1      32.867  26.007  21.689  1.00  0.00     0.153 C 
BRANCH  82  83
ATOM     83  C   UNL A   1      32.007  27.098  22.296  1.00  0.00    -0.010 A 
ATOM     84  C   UNL A   1      30.613  26.894  22.432  1.00  0.00     0.007 A 
ATOM     85  C   UNL A   1      32.533  28.311  22.757  1.00  0.00     0.046 A 
ATOM     86  C   UNL A   1      29.799  27.816  23.091  1.00  0.00     0.000 A 
ATOM     87  C   UNL A   1      31.706  29.251  23.385  1.00  0.00     0.021 A 
ATOM     88  Cl  UNL A   1      34.203  28.707  22.588  1.00  0.00    -0.084 Cl
ATOM     89  C   UNL A   1      30.348  28.997  23.571  1.00  0.00     0.002 A 
ENDBRANCH  82  83
ENDBRANCH  80  82
ENDBRANCH  72  78
ENDBRANCH  68  71
ENDBRANCH  66  67
ENDBRANCH  65  66
ENDBRANCH   1  65
TORSDOF 16
ENDMDL
