MODEL 1
REMARK VINA RESULT:     -11.5      0.000      0.000
REMARK SMILES O=C(NCCCCCCNC(=O)[C@@H](Cc1ccncc1)c1ccc(Cl)cc1)c1ccc(-c2c3nc(c(-c4c(F)cccc4F)c4ccc([nH]4)c(-c4c(F)cccc4F)c4nc(c(-c5c(F)cccc5F)c5ccc2[nH]5)C=C4)C=C3)cc1
REMARK SMILES IDX 6 1 5 2 4 3 3 4 1 5 2 6 28 8 29 9 81 10 30 11 80 12 31 13
REMARK SMILES IDX 32 14 33 15 74 16 34 17 79 18 73 19 75 20 35 21 78 22 72 23
REMARK SMILES IDX 71 24 36 26 62 27 45 28 61 29 46 30 49 31 60 32 76 33 47 34
REMARK SMILES IDX 48 35 59 37 77 38 50 39 37 40 38 41 43 42 39 43 40 44 42 45
REMARK SMILES IDX 44 46 41 47 63 48 64 49 69 50 65 51 66 52 68 53 70 54 67 55
REMARK SMILES IDX 51 56 52 57 57 58 53 59 54 60 56 61 58 62 55 63 7 64 8 65
REMARK SMILES IDX 9 66 10 67 11 68 12 70 13 71 14 72 15 73 16 74 20 75 17 76
REMARK SMILES IDX 19 77 18 78 21 79 22 80 27 81 23 82 26 83 24 84 25 85
REMARK H PARENT 3 7 75 25 49 36 10 69
REMARK Flexibility Score: inf
ROOT
ATOM      1  C   UNL A   1      36.990  20.313  24.655  1.00  0.00     0.002 C 
ENDROOT
BRANCH   1   2
ATOM      2  C   UNL A   1      38.114  19.327  24.991  1.00  0.00     0.021 C 
BRANCH   2   3
ATOM      3  C   UNL A   1      39.273  19.923  25.786  1.00  0.00     0.116 C 
BRANCH   3   4
ATOM      4  N   UNL A   1      40.347  18.959  25.966  1.00  0.00    -0.352 N 
ATOM      5  O   UNL A   1      42.475  18.227  26.020  1.00  0.00    -0.269 OA
ATOM      6  C   UNL A   1      41.691  19.164  26.145  1.00  0.00     0.251 C 
ATOM      7  H   UNL A   1      40.067  18.016  25.958  1.00  0.00     0.163 HD
BRANCH   6   8
ATOM      8  C   UNL A   1      42.204  20.507  26.489  1.00  0.00     0.039 A 
ATOM      9  C   UNL A   1      42.597  21.403  25.491  1.00  0.00     0.014 A 
ATOM     10  C   UNL A   1      42.220  20.901  27.830  1.00  0.00     0.014 A 
ATOM     11  C   UNL A   1      43.101  22.653  25.838  1.00  0.00     0.010 A 
ATOM     12  C   UNL A   1      42.658  22.182  28.173  1.00  0.00     0.010 A 
ATOM     13  C   UNL A   1      43.114  23.063  27.181  1.00  0.00    -0.014 A 
BRANCH  13  14
ATOM     14  C   UNL A   1      43.527  24.446  27.521  1.00  0.00     0.031 A 
ATOM     15  C   UNL A   1      42.520  25.481  27.926  1.00  0.00     0.074 A 
ATOM     16  C   UNL A   1      44.832  24.767  27.442  1.00  0.00     0.049 A 
ATOM     17  N   UNL A   1      42.709  26.738  28.234  1.00  0.00    -0.248 NA
ATOM     18  C   UNL A   1      41.115  25.051  27.983  1.00  0.00     0.031 C 
ATOM     19  C   UNL A   1      45.900  23.850  27.032  1.00  0.00     0.029 A 
ATOM     20  N   UNL A   1      45.485  25.945  27.696  1.00  0.00    -0.354 N 
ATOM     21  C   UNL A   1      41.450  27.256  28.506  1.00  0.00     0.074 A 
ATOM     22  C   UNL A   1      40.500  26.183  28.299  1.00  0.00     0.031 C 
ATOM     23  C   UNL A   1      47.074  24.495  27.079  1.00  0.00     0.029 A 
ATOM     24  C   UNL A   1      46.837  25.880  27.471  1.00  0.00     0.049 A 
ATOM     25  H   UNL A   1      45.028  26.759  28.009  1.00  0.00     0.167 HD
ATOM     26  C   UNL A   1      41.121  28.512  28.898  1.00  0.00     0.037 A 
ATOM     27  C   UNL A   1      47.783  26.834  27.546  1.00  0.00     0.037 A 
ATOM     28  C   UNL A   1      42.074  29.572  29.108  1.00  0.00     0.049 A 
ATOM     29  C   UNL A   1      47.392  28.220  27.965  1.00  0.00     0.074 A 
ATOM     30  C   UNL A   1      41.847  30.860  29.560  1.00  0.00     0.029 A 
ATOM     31  N   UNL A   1      43.437  29.469  28.866  1.00  0.00    -0.354 N 
ATOM     32  N   UNL A   1      46.205  28.681  28.278  1.00  0.00    -0.248 NA
ATOM     33  C   UNL A   1      48.467  29.218  28.042  1.00  0.00     0.031 C 
ATOM     34  C   UNL A   1      43.063  31.551  29.544  1.00  0.00     0.029 A 
ATOM     35  C   UNL A   1      44.058  30.680  29.129  1.00  0.00     0.049 A 
ATOM     36  H   UNL A   1      43.896  28.656  28.554  1.00  0.00     0.167 HD
ATOM     37  C   UNL A   1      46.390  30.018  28.602  1.00  0.00     0.074 A 
ATOM     38  C   UNL A   1      47.807  30.288  28.465  1.00  0.00     0.031 C 
ATOM     39  C   UNL A   1      45.468  30.936  28.980  1.00  0.00     0.037 A 
BRANCH  26  40
ATOM     40  C   UNL A   1      39.664  28.812  29.104  1.00  0.00     0.057 A 
ATOM     41  C   UNL A   1      38.846  29.273  28.064  1.00  0.00     0.134 A 
ATOM     42  C   UNL A   1      39.065  28.612  30.355  1.00  0.00     0.134 A 
ATOM     43  F   UNL A   1      39.357  29.496  26.843  1.00  0.00    -0.206 F 
ATOM     44  C   UNL A   1      37.492  29.550  28.267  1.00  0.00     0.040 A 
ATOM     45  C   UNL A   1      37.707  28.860  30.563  1.00  0.00     0.040 A 
ATOM     46  F   UNL A   1      39.788  28.164  31.393  1.00  0.00    -0.206 F 
ATOM     47  C   UNL A   1      36.918  29.339  29.519  1.00  0.00     0.006 A 
ENDBRANCH  26  40
BRANCH  27  48
ATOM     48  C   UNL A   1      49.186  26.497  27.201  1.00  0.00     0.057 A 
ATOM     49  C   UNL A   1      50.071  25.997  28.162  1.00  0.00     0.134 A 
ATOM     50  C   UNL A   1      49.660  26.628  25.889  1.00  0.00     0.134 A 
ATOM     51  F   UNL A   1      49.678  25.864  29.436  1.00  0.00    -0.206 F 
ATOM     52  C   UNL A   1      51.379  25.644  27.832  1.00  0.00     0.040 A 
ATOM     53  C   UNL A   1      50.957  26.254  25.540  1.00  0.00     0.040 A 
ATOM     54  F   UNL A   1      48.854  27.091  24.922  1.00  0.00    -0.206 F 
ATOM     55  C   UNL A   1      51.824  25.765  26.515  1.00  0.00     0.006 A 
ENDBRANCH  27  48
BRANCH  39  56
ATOM     56  C   UNL A   1      45.967  32.317  29.287  1.00  0.00     0.057 A 
ATOM     57  C   UNL A   1      45.998  33.323  28.313  1.00  0.00     0.134 A 
ATOM     58  C   UNL A   1      46.384  32.654  30.581  1.00  0.00     0.134 A 
ATOM     59  F   UNL A   1      45.627  33.061  27.051  1.00  0.00    -0.206 F 
ATOM     60  C   UNL A   1      46.442  34.613  28.612  1.00  0.00     0.040 A 
ATOM     61  C   UNL A   1      46.807  33.946  30.898  1.00  0.00     0.040 A 
ATOM     62  F   UNL A   1      46.373  31.738  31.560  1.00  0.00    -0.206 F 
ATOM     63  C   UNL A   1      46.841  34.928  29.910  1.00  0.00     0.006 A 
ENDBRANCH  39  56
ENDBRANCH  13  14
ENDBRANCH   6   8
ENDBRANCH   3   4
ENDBRANCH   2   3
ENDBRANCH   1   2
BRANCH   1  64
ATOM     64  C   UNL A   1      37.388  21.796  24.655  1.00  0.00     0.002 C 
BRANCH  64  65
ATOM     65  C   UNL A   1      36.285  22.751  24.199  1.00  0.00     0.021 C 
BRANCH  65  66
ATOM     66  C   UNL A   1      35.716  23.620  25.317  1.00  0.00     0.116 C 
BRANCH  66  67
ATOM     67  N   UNL A   1      35.274  22.802  26.424  1.00  0.00    -0.356 N 
ATOM     68  C   UNL A   1      34.195  21.985  26.548  1.00  0.00     0.227 C 
ATOM     69  H   UNL A   1      35.851  22.843  27.221  1.00  0.00     0.163 HD
ATOM     70  O   UNL A   1      34.061  21.413  27.637  1.00  0.00    -0.274 OA
BRANCH  68  71
ATOM     71  C   UNL A   1      33.161  21.768  25.434  1.00  0.00     0.113 C 
BRANCH  71  72
ATOM     72  C   UNL A   1      32.576  20.324  25.462  1.00  0.00     0.054 C 
BRANCH  72  73
ATOM     73  C   UNL A   1      32.973  19.244  24.473  1.00  0.00    -0.044 A 
ATOM     74  C   UNL A   1      33.985  18.307  24.703  1.00  0.00     0.024 A 
ATOM     75  C   UNL A   1      32.219  19.083  23.301  1.00  0.00     0.024 A 
ATOM     76  C   UNL A   1      34.239  17.321  23.759  1.00  0.00     0.111 A 
ATOM     77  C   UNL A   1      32.543  18.061  22.415  1.00  0.00     0.111 A 
ATOM     78  N   UNL A   1      33.552  17.188  22.608  1.00  0.00    -0.265 NA
ENDBRANCH  72  73
ENDBRANCH  71  72
BRANCH  71  79
ATOM     79  C   UNL A   1      32.237  22.939  25.101  1.00  0.00    -0.035 A 
ATOM     80  C   UNL A   1      31.663  23.038  23.819  1.00  0.00     0.006 A 
ATOM     81  C   UNL A   1      31.979  23.978  26.011  1.00  0.00     0.006 A 
ATOM     82  C   UNL A   1      30.752  24.053  23.510  1.00  0.00     0.021 A 
ATOM     83  C   UNL A   1      31.076  25.001  25.701  1.00  0.00     0.021 A 
ATOM     84  C   UNL A   1      30.447  25.019  24.462  1.00  0.00     0.041 A 
ATOM     85  Cl  UNL A   1      29.288  26.237  24.105  1.00  0.00    -0.084 Cl
ENDBRANCH  71  79
ENDBRANCH  68  71
ENDBRANCH  66  67
ENDBRANCH  65  66
ENDBRANCH  64  65
ENDBRANCH   1  64
TORSDOF 16
ENDMDL
MODEL 2
REMARK VINA RESULT:     -11.5      2.711      6.961
REMARK SMILES O=C(NCCCCCCNC(=O)[C@@H](Cc1ccncc1)c1ccc(Cl)cc1)c1ccc(-c2c3nc(c(-c4c(F)cccc4F)c4ccc([nH]4)c(-c4c(F)cccc4F)c4nc(c(-c5c(F)cccc5F)c5ccc2[nH]5)C=C4)C=C3)cc1
REMARK SMILES IDX 6 1 5 2 4 3 3 4 1 5 2 6 28 8 29 9 81 10 30 11 80 12 31 13
REMARK SMILES IDX 32 14 33 15 74 16 34 17 79 18 73 19 75 20 35 21 78 22 72 23
REMARK SMILES IDX 71 24 36 26 62 27 45 28 61 29 46 30 49 31 60 32 76 33 47 34
REMARK SMILES IDX 48 35 59 37 77 38 50 39 37 40 38 41 43 42 39 43 40 44 42 45
REMARK SMILES IDX 44 46 41 47 63 48 64 49 69 50 65 51 66 52 68 53 70 54 67 55
REMARK SMILES IDX 51 56 52 57 57 58 53 59 54 60 56 61 58 62 55 63 7 64 8 65
REMARK SMILES IDX 9 66 10 67 11 68 12 70 13 71 14 72 15 73 16 74 20 75 17 76
REMARK SMILES IDX 19 77 18 78 21 79 22 80 27 81 23 82 26 83 24 84 25 85
REMARK H PARENT 3 7 75 25 49 36 10 69
REMARK Flexibility Score: inf
ROOT
ATOM      1  C   UNL A   1      33.678  26.646  25.259  1.00  0.00     0.002 C 
ENDROOT
BRANCH   1   2
ATOM      2  C   UNL A   1      33.119  27.929  25.882  1.00  0.00     0.021 C 
BRANCH   2   3
ATOM      3  C   UNL A   1      33.703  28.286  27.246  1.00  0.00     0.116 C 
BRANCH   3   4
ATOM      4  N   UNL A   1      33.654  29.719  27.489  1.00  0.00    -0.352 N 
ATOM      5  O   UNL A   1      34.246  31.673  28.435  1.00  0.00    -0.269 OA
ATOM      6  C   UNL A   1      34.572  30.541  28.089  1.00  0.00     0.251 C 
ATOM      7  H   UNL A   1      32.835  30.167  27.175  1.00  0.00     0.163 HD
BRANCH   6   8
ATOM      8  C   UNL A   1      35.955  30.074  28.321  1.00  0.00     0.039 A 
ATOM      9  C   UNL A   1      36.929  30.192  27.326  1.00  0.00     0.014 A 
ATOM     10  C   UNL A   1      36.299  29.579  29.582  1.00  0.00     0.014 A 
ATOM     11  C   UNL A   1      38.219  29.722  27.557  1.00  0.00     0.010 A 
ATOM     12  C   UNL A   1      37.612  29.175  29.837  1.00  0.00     0.010 A 
ATOM     13  C   UNL A   1      38.578  29.231  28.822  1.00  0.00    -0.014 A 
BRANCH  13  14
ATOM     14  C   UNL A   1      39.988  28.861  29.091  1.00  0.00     0.031 A 
ATOM     15  C   UNL A   1      40.928  29.817  29.764  1.00  0.00     0.074 A 
ATOM     16  C   UNL A   1      40.422  27.647  28.701  1.00  0.00     0.049 A 
ATOM     17  N   UNL A   1      42.194  29.661  30.054  1.00  0.00    -0.248 NA
ATOM     18  C   UNL A   1      40.377  31.124  30.154  1.00  0.00     0.031 C 
ATOM     19  C   UNL A   1      39.605  26.645  28.012  1.00  0.00     0.029 A 
ATOM     20  N   UNL A   1      41.650  27.051  28.822  1.00  0.00    -0.354 N 
ATOM     21  C   UNL A   1      42.598  30.850  30.645  1.00  0.00     0.074 A 
ATOM     22  C   UNL A   1      41.448  31.730  30.646  1.00  0.00     0.031 C 
ATOM     23  C   UNL A   1      40.349  25.553  27.787  1.00  0.00     0.029 A 
ATOM     24  C   UNL A   1      41.706  25.797  28.267  1.00  0.00     0.049 A 
ATOM     25  H   UNL A   1      42.418  27.481  29.263  1.00  0.00     0.167 HD
ATOM     26  C   UNL A   1      43.817  31.174  31.144  1.00  0.00     0.037 A 
ATOM     27  C   UNL A   1      42.737  24.943  28.135  1.00  0.00     0.037 A 
ATOM     28  C   UNL A   1      44.954  30.288  31.144  1.00  0.00     0.049 A 
ATOM     29  C   UNL A   1      44.080  25.330  28.680  1.00  0.00     0.074 A 
ATOM     30  C   UNL A   1      46.213  30.500  31.677  1.00  0.00     0.029 A 
ATOM     31  N   UNL A   1      44.972  29.024  30.569  1.00  0.00    -0.354 N 
ATOM     32  N   UNL A   1      44.433  26.435  29.291  1.00  0.00    -0.248 NA
ATOM     33  C   UNL A   1      45.167  24.356  28.518  1.00  0.00     0.031 C 
ATOM     34  C   UNL A   1      47.008  29.388  31.382  1.00  0.00     0.029 A 
ATOM     35  C   UNL A   1      46.230  28.459  30.707  1.00  0.00     0.049 A 
ATOM     36  H   UNL A   1      44.205  28.593  30.129  1.00  0.00     0.167 HD
ATOM     37  C   UNL A   1      45.778  26.285  29.600  1.00  0.00     0.074 A 
ATOM     38  C   UNL A   1      46.171  24.974  29.124  1.00  0.00     0.031 C 
ATOM     39  C   UNL A   1      46.609  27.157  30.221  1.00  0.00     0.037 A 
BRANCH  26  40
ATOM     40  C   UNL A   1      43.988  32.553  31.713  1.00  0.00     0.057 A 
ATOM     41  C   UNL A   1      43.704  32.844  33.054  1.00  0.00     0.134 A 
ATOM     42  C   UNL A   1      44.470  33.598  30.914  1.00  0.00     0.134 A 
ATOM     43  F   UNL A   1      43.229  31.893  33.872  1.00  0.00    -0.206 F 
ATOM     44  C   UNL A   1      43.866  34.131  33.571  1.00  0.00     0.040 A 
ATOM     45  C   UNL A   1      44.661  34.882  31.426  1.00  0.00     0.040 A 
ATOM     46  F   UNL A   1      44.770  33.386  29.623  1.00  0.00    -0.206 F 
ATOM     47  C   UNL A   1      44.351  35.153  32.757  1.00  0.00     0.006 A 
ENDBRANCH  26  40
BRANCH  27  48
ATOM     48  C   UNL A   1      42.527  23.649  27.443  1.00  0.00     0.057 A 
ATOM     49  C   UNL A   1      42.675  23.533  26.057  1.00  0.00     0.134 A 
ATOM     50  C   UNL A   1      42.215  22.487  28.161  1.00  0.00     0.134 A 
ATOM     51  F   UNL A   1      42.957  24.613  25.316  1.00  0.00    -0.206 F 
ATOM     52  C   UNL A   1      42.514  22.308  25.408  1.00  0.00     0.040 A 
ATOM     53  C   UNL A   1      42.077  21.252  27.529  1.00  0.00     0.040 A 
ATOM     54  F   UNL A   1      42.072  22.534  29.494  1.00  0.00    -0.206 F 
ATOM     55  C   UNL A   1      42.223  21.161  26.146  1.00  0.00     0.006 A 
ENDBRANCH  27  48
BRANCH  39  56
ATOM     56  C   UNL A   1      48.025  26.712  30.438  1.00  0.00     0.057 A 
ATOM     57  C   UNL A   1      48.388  25.912  31.530  1.00  0.00     0.134 A 
ATOM     58  C   UNL A   1      49.029  27.055  29.524  1.00  0.00     0.134 A 
ATOM     59  F   UNL A   1      47.476  25.562  32.449  1.00  0.00    -0.206 F 
ATOM     60  C   UNL A   1      49.703  25.483  31.713  1.00  0.00     0.040 A 
ATOM     61  C   UNL A   1      50.343  26.611  29.684  1.00  0.00     0.040 A 
ATOM     62  F   UNL A   1      48.747  27.814  28.456  1.00  0.00    -0.206 F 
ATOM     63  C   UNL A   1      50.684  25.827  30.784  1.00  0.00     0.006 A 
ENDBRANCH  39  56
ENDBRANCH  13  14
ENDBRANCH   6   8
ENDBRANCH   3   4
ENDBRANCH   2   3
ENDBRANCH   1   2
BRANCH   1  64
ATOM     64  C   UNL A   1      33.423  25.357  26.052  1.00  0.00     0.002 C 
BRANCH  64  65
ATOM     65  C   UNL A   1      34.609  24.393  26.100  1.00  0.00     0.021 C 
BRANCH  65  66
ATOM     66  C   UNL A   1      34.259  23.007  26.634  1.00  0.00     0.116 C 
BRANCH  66  67
ATOM     67  N   UNL A   1      35.185  22.017  26.128  1.00  0.00    -0.356 N 
ATOM     68  C   UNL A   1      35.050  21.107  25.128  1.00  0.00     0.227 C 
ATOM     69  H   UNL A   1      36.058  22.001  26.583  1.00  0.00     0.163 HD
ATOM     70  O   UNL A   1      36.020  20.366  24.924  1.00  0.00    -0.274 OA
BRANCH  68  71
ATOM     71  C   UNL A   1      33.776  20.953  24.285  1.00  0.00     0.113 C 
BRANCH  71  72
ATOM     72  C   UNL A   1      32.812  19.885  24.882  1.00  0.00     0.054 C 
BRANCH  72  73
ATOM     73  C   UNL A   1      33.027  18.390  24.728  1.00  0.00    -0.044 A 
ATOM     74  C   UNL A   1      33.779  17.810  23.703  1.00  0.00     0.024 A 
ATOM     75  C   UNL A   1      32.551  17.527  25.726  1.00  0.00     0.024 A 
ATOM     76  C   UNL A   1      33.965  16.434  23.678  1.00  0.00     0.111 A 
ATOM     77  C   UNL A   1      32.790  16.162  25.622  1.00  0.00     0.111 A 
ATOM     78  N   UNL A   1      33.470  15.593  24.606  1.00  0.00    -0.265 NA
ENDBRANCH  72  73
ENDBRANCH  71  72
BRANCH  71  79
ATOM     79  C   UNL A   1      33.188  22.224  23.670  1.00  0.00    -0.035 A 
ATOM     80  C   UNL A   1      31.845  22.567  23.917  1.00  0.00     0.006 A 
ATOM     81  C   UNL A   1      33.920  23.049  22.800  1.00  0.00     0.006 A 
ATOM     82  C   UNL A   1      31.302  23.761  23.434  1.00  0.00     0.021 A 
ATOM     83  C   UNL A   1      33.377  24.239  22.307  1.00  0.00     0.021 A 
ATOM     84  C   UNL A   1      32.079  24.604  22.647  1.00  0.00     0.041 A 
ATOM     85  Cl  UNL A   1      31.434  26.099  22.096  1.00  0.00    -0.084 Cl
ENDBRANCH  71  79
ENDBRANCH  68  71
ENDBRANCH  66  67
ENDBRANCH  65  66
ENDBRANCH  64  65
ENDBRANCH   1  64
TORSDOF 16
ENDMDL
MODEL 3
REMARK VINA RESULT:     -11.5      0.248      6.302
REMARK SMILES O=C(NCCCCCCNC(=O)[C@@H](Cc1ccncc1)c1ccc(Cl)cc1)c1ccc(-c2c3nc(c(-c4c(F)cccc4F)c4ccc([nH]4)c(-c4c(F)cccc4F)c4nc(c(-c5c(F)cccc5F)c5ccc2[nH]5)C=C4)C=C3)cc1
REMARK SMILES IDX 6 1 5 2 4 3 3 4 1 5 2 6 28 8 29 9 81 10 30 11 80 12 31 13
REMARK SMILES IDX 32 14 33 15 74 16 34 17 79 18 73 19 75 20 35 21 78 22 72 23
REMARK SMILES IDX 71 24 36 26 62 27 45 28 61 29 46 30 49 31 60 32 76 33 47 34
REMARK SMILES IDX 48 35 59 37 77 38 50 39 37 40 38 41 43 42 39 43 40 44 42 45
REMARK SMILES IDX 44 46 41 47 63 48 64 49 69 50 65 51 66 52 68 53 70 54 67 55
REMARK SMILES IDX 51 56 52 57 57 58 53 59 54 60 56 61 58 62 55 63 7 64 8 65
REMARK SMILES IDX 9 66 10 67 11 68 12 70 13 71 14 72 15 73 16 74 20 75 17 76
REMARK SMILES IDX 19 77 18 78 21 79 22 80 27 81 23 82 26 83 24 84 25 85
REMARK H PARENT 3 7 75 25 49 36 10 69
REMARK Flexibility Score: inf
ROOT
ATOM      1  C   UNL A   1      37.002  20.245  24.637  1.00  0.00     0.002 C 
ENDROOT
BRANCH   1   2
ATOM      2  C   UNL A   1      38.115  19.257  25.001  1.00  0.00     0.021 C 
BRANCH   2   3
ATOM      3  C   UNL A   1      39.238  19.842  25.853  1.00  0.00     0.116 C 
BRANCH   3   4
ATOM      4  N   UNL A   1      40.334  18.899  26.011  1.00  0.00    -0.352 N 
ATOM      5  O   UNL A   1      42.472  18.198  25.991  1.00  0.00    -0.269 OA
ATOM      6  C   UNL A   1      41.681  19.127  26.124  1.00  0.00     0.251 C 
ATOM      7  H   UNL A   1      40.067  17.952  26.042  1.00  0.00     0.163 HD
BRANCH   6   8
ATOM      8  C   UNL A   1      42.188  20.486  26.407  1.00  0.00     0.039 A 
ATOM      9  C   UNL A   1      42.504  21.366  25.368  1.00  0.00     0.014 A 
ATOM     10  C   UNL A   1      42.277  20.912  27.736  1.00  0.00     0.014 A 
ATOM     11  C   UNL A   1      43.003  22.633  25.657  1.00  0.00     0.010 A 
ATOM     12  C   UNL A   1      42.710  22.208  28.024  1.00  0.00     0.010 A 
ATOM     13  C   UNL A   1      43.089  23.074  26.987  1.00  0.00    -0.014 A 
BRANCH  13  14
ATOM     14  C   UNL A   1      43.496  24.471  27.271  1.00  0.00     0.031 A 
ATOM     15  C   UNL A   1      44.929  24.901  27.159  1.00  0.00     0.074 A 
ATOM     16  C   UNL A   1      42.552  25.353  27.652  1.00  0.00     0.049 A 
ATOM     17  N   UNL A   1      45.457  26.075  27.392  1.00  0.00    -0.248 NA
ATOM     18  C   UNL A   1      45.898  23.876  26.743  1.00  0.00     0.031 C 
ATOM     19  C   UNL A   1      41.130  25.041  27.822  1.00  0.00     0.029 A 
ATOM     20  N   UNL A   1      42.642  26.683  27.968  1.00  0.00    -0.354 N 
ATOM     21  C   UNL A   1      46.819  25.931  27.166  1.00  0.00     0.074 A 
ATOM     22  C   UNL A   1      47.040  24.546  26.806  1.00  0.00     0.031 C 
ATOM     23  C   UNL A   1      40.480  26.152  28.194  1.00  0.00     0.029 A 
ATOM     24  C   UNL A   1      41.443  27.239  28.340  1.00  0.00     0.049 A 
ATOM     25  H   UNL A   1      43.484  27.192  27.933  1.00  0.00     0.167 HD
ATOM     26  C   UNL A   1      47.792  26.871  27.248  1.00  0.00     0.037 A 
ATOM     27  C   UNL A   1      41.150  28.477  28.774  1.00  0.00     0.037 A 
ATOM     28  C   UNL A   1      47.561  28.249  27.602  1.00  0.00     0.049 A 
ATOM     29  C   UNL A   1      42.246  29.496  28.873  1.00  0.00     0.074 A 
ATOM     30  C   UNL A   1      48.471  29.290  27.656  1.00  0.00     0.029 A 
ATOM     31  N   UNL A   1      46.331  28.774  27.976  1.00  0.00    -0.354 N 
ATOM     32  N   UNL A   1      43.521  29.362  28.598  1.00  0.00    -0.248 NA
ATOM     33  C   UNL A   1      41.868  30.835  29.342  1.00  0.00     0.031 C 
ATOM     34  C   UNL A   1      47.803  30.432  28.111  1.00  0.00     0.029 A 
ATOM     35  C   UNL A   1      46.465  30.116  28.293  1.00  0.00     0.049 A 
ATOM     36  H   UNL A   1      45.488  28.267  28.010  1.00  0.00     0.167 HD
ATOM     37  C   UNL A   1      44.096  30.601  28.846  1.00  0.00     0.074 A 
ATOM     38  C   UNL A   1      43.026  31.478  29.277  1.00  0.00     0.031 C 
ATOM     39  C   UNL A   1      45.393  30.975  28.727  1.00  0.00     0.037 A 
BRANCH  26  40
ATOM     40  C   UNL A   1      49.202  26.433  26.971  1.00  0.00     0.057 A 
ATOM     41  C   UNL A   1      50.058  25.997  27.990  1.00  0.00     0.134 A 
ATOM     42  C   UNL A   1      49.700  26.422  25.662  1.00  0.00     0.134 A 
ATOM     43  F   UNL A   1      49.649  25.991  29.268  1.00  0.00    -0.206 F 
ATOM     44  C   UNL A   1      51.368  25.592  27.721  1.00  0.00     0.040 A 
ATOM     45  C   UNL A   1      50.998  25.996  25.376  1.00  0.00     0.040 A 
ATOM     46  F   UNL A   1      48.930  26.819  24.637  1.00  0.00    -0.206 F 
ATOM     47  C   UNL A   1      51.839  25.587  26.409  1.00  0.00     0.006 A 
ENDBRANCH  26  40
BRANCH  27  48
ATOM     48  C   UNL A   1      39.755  28.804  29.157  1.00  0.00     0.057 A 
ATOM     49  C   UNL A   1      38.838  29.290  28.218  1.00  0.00     0.134 A 
ATOM     50  C   UNL A   1      39.294  28.595  30.463  1.00  0.00     0.134 A 
ATOM     51  F   UNL A   1      39.225  29.525  26.957  1.00  0.00    -0.206 F 
ATOM     52  C   UNL A   1      37.515  29.563  28.567  1.00  0.00     0.040 A 
ATOM     53  C   UNL A   1      37.968  28.838  30.819  1.00  0.00     0.040 A 
ATOM     54  F   UNL A   1      40.124  28.119  31.404  1.00  0.00    -0.206 F 
ATOM     55  C   UNL A   1      37.074  29.328  29.869  1.00  0.00     0.006 A 
ENDBRANCH  27  48
BRANCH  39  56
ATOM     56  C   UNL A   1      45.724  32.402  29.052  1.00  0.00     0.057 A 
ATOM     57  C   UNL A   1      46.149  32.787  30.330  1.00  0.00     0.134 A 
ATOM     58  C   UNL A   1      45.653  33.393  28.066  1.00  0.00     0.134 A 
ATOM     59  F   UNL A   1      46.223  31.888  31.323  1.00  0.00    -0.206 F 
ATOM     60  C   UNL A   1      46.477  34.113  30.619  1.00  0.00     0.040 A 
ATOM     61  C   UNL A   1      46.002  34.717  28.336  1.00  0.00     0.040 A 
ATOM     62  F   UNL A   1      45.258  33.089  26.821  1.00  0.00    -0.206 F 
ATOM     63  C   UNL A   1      46.411  35.081  29.617  1.00  0.00     0.006 A 
ENDBRANCH  39  56
ENDBRANCH  13  14
ENDBRANCH   6   8
ENDBRANCH   3   4
ENDBRANCH   2   3
ENDBRANCH   1   2
BRANCH   1  64
ATOM     64  C   UNL A   1      37.402  21.726  24.643  1.00  0.00     0.002 C 
BRANCH  64  65
ATOM     65  C   UNL A   1      36.308  22.684  24.172  1.00  0.00     0.021 C 
BRANCH  65  66
ATOM     66  C   UNL A   1      35.757  23.586  25.273  1.00  0.00     0.116 C 
BRANCH  66  67
ATOM     67  N   UNL A   1      35.286  22.797  26.390  1.00  0.00    -0.356 N 
ATOM     68  C   UNL A   1      34.191  22.003  26.515  1.00  0.00     0.227 C 
ATOM     69  H   UNL A   1      35.854  22.842  27.194  1.00  0.00     0.163 HD
ATOM     70  O   UNL A   1      34.032  21.453  27.612  1.00  0.00    -0.274 OA
BRANCH  68  71
ATOM     71  C   UNL A   1      33.167  21.784  25.391  1.00  0.00     0.113 C 
BRANCH  71  72
ATOM     72  C   UNL A   1      32.573  20.344  25.423  1.00  0.00     0.054 C 
BRANCH  72  73
ATOM     73  C   UNL A   1      32.963  19.260  24.436  1.00  0.00    -0.044 A 
ATOM     74  C   UNL A   1      33.964  18.313  24.670  1.00  0.00     0.024 A 
ATOM     75  C   UNL A   1      32.212  19.105  23.261  1.00  0.00     0.024 A 
ATOM     76  C   UNL A   1      34.212  17.324  23.726  1.00  0.00     0.111 A 
ATOM     77  C   UNL A   1      32.528  18.080  22.376  1.00  0.00     0.111 A 
ATOM     78  N   UNL A   1      33.528  17.198  22.573  1.00  0.00    -0.265 NA
ENDBRANCH  72  73
ENDBRANCH  71  72
BRANCH  71  79
ATOM     79  C   UNL A   1      32.252  22.958  25.042  1.00  0.00    -0.035 A 
ATOM     80  C   UNL A   1      31.699  23.057  23.751  1.00  0.00     0.006 A 
ATOM     81  C   UNL A   1      31.984  24.000  25.945  1.00  0.00     0.006 A 
ATOM     82  C   UNL A   1      30.798  24.075  23.425  1.00  0.00     0.021 A 
ATOM     83  C   UNL A   1      31.091  25.025  25.619  1.00  0.00     0.021 A 
ATOM     84  C   UNL A   1      30.481  25.044  24.370  1.00  0.00     0.041 A 
ATOM     85  Cl  UNL A   1      29.333  26.266  23.992  1.00  0.00    -0.084 Cl
ENDBRANCH  71  79
ENDBRANCH  68  71
ENDBRANCH  66  67
ENDBRANCH  65  66
ENDBRANCH  64  65
ENDBRANCH   1  64
TORSDOF 16
ENDMDL
