MODEL 1
REMARK VINA RESULT:     -12.9      0.000      0.000
REMARK SMILES O=C1[NH+]=C(Nc2ccc(C(=O)NCCCCCCNC(=O)c3ccc(-c4c5nc(c(-c6c(F)cccc6F)c6ccc([nH]6)c(-c6c(F)cccc6F)c6nc(c(-c7c(F)cccc7F)c7ccc4[nH]7)C=C6)C=C5)cc3)c(O)c2)S/C1=C\c1ccc[nH]1
REMARK SMILES IDX 15 1 14 2 13 3 12 4 10 5 11 6 9 8 6 9 7 10 78 11 8 12 76 13
REMARK SMILES IDX 5 14 1 15 2 16 3 17 80 18 4 19 79 21 81 22 82 24 83 25 86 26
REMARK SMILES IDX 84 27 85 28 77 30 16 32 17 33 18 34 19 35 20 36 21 38 22 39
REMARK SMILES IDX 23 40 75 41 24 42 74 43 25 44 26 45 27 46 68 47 28 48 73 49
REMARK SMILES IDX 67 50 69 51 29 52 72 53 66 54 65 55 30 57 56 58 39 59 55 60
REMARK SMILES IDX 40 61 43 62 54 63 70 64 41 65 42 66 53 68 71 69 44 70 31 71
REMARK SMILES IDX 32 72 37 73 33 74 34 75 36 76 38 77 35 78 57 79 58 80 63 81
REMARK SMILES IDX 59 82 60 83 62 84 64 85 61 86 45 87 46 88 51 89 47 90 48 91
REMARK SMILES IDX 50 92 52 93 49 94
REMARK H PARENT 12 7 3 20 5 23 86 29 77 31 19 37 69 56 43 67
REMARK Flexibility Score: inf
ROOT
ATOM      1  C   UNL A   1      31.754  29.753  25.367  1.00  0.00     0.002 C 
ENDROOT
BRANCH   1   2
ATOM      2  C   UNL A   1      33.107  29.411  24.735  1.00  0.00     0.021 C 
BRANCH   2   3
ATOM      3  C   UNL A   1      33.139  29.306  23.212  1.00  0.00     0.116 C 
BRANCH   3   4
ATOM      4  N   UNL A   1      31.831  29.326  22.584  1.00  0.00    -0.352 N 
ATOM      5  C   UNL A   1      30.942  28.306  22.348  1.00  0.00     0.255 C 
ATOM      6  O   UNL A   1      29.887  28.561  21.770  1.00  0.00    -0.269 OA
ATOM      7  H   UNL A   1      31.534  30.213  22.275  1.00  0.00     0.163 HD
BRANCH   5   8
ATOM      8  C   UNL A   1      31.236  26.900  22.725  1.00  0.00     0.081 A 
ATOM      9  C   UNL A   1      31.513  24.196  23.510  1.00  0.00     0.129 A 
ATOM     10  C   UNL A   1      30.731  25.081  24.257  1.00  0.00     0.053 A 
ATOM     11  C   UNL A   1      32.203  24.696  22.399  1.00  0.00     0.098 A 
ATOM     12  C   UNL A   1      30.597  26.419  23.875  1.00  0.00     0.022 A 
ATOM     13  C   UNL A   1      32.097  26.041  22.036  1.00  0.00     0.132 A 
BRANCH   9  14
ATOM     14  N   UNL A   1      31.563  22.826  23.785  1.00  0.00    -0.234 N 
ATOM     15  O   UNL A   1      35.945  21.621  24.835  1.00  0.00    -0.240 OA
ATOM     16  C   UNL A   1      34.757  21.476  24.572  1.00  0.00     0.346 C 
ATOM     17  N   UNL A   1      33.893  22.494  24.242  1.00  0.00    -0.199 N 
ATOM     18  C   UNL A   1      34.072  20.153  24.587  1.00  0.00     0.111 C 
ATOM     19  C   UNL A   1      32.680  22.095  24.058  1.00  0.00     0.322 C 
ATOM     20  H   UNL A   1      34.173  23.434  24.155  1.00  0.00     0.316 HD
ATOM     21  S   UNL A   1      32.404  20.376  24.231  1.00  0.00     0.006 SA
ATOM     22  C   UNL A   1      34.721  19.015  24.869  1.00  0.00     0.050 C 
ATOM     23  H   UNL A   1      30.705  22.340  23.780  1.00  0.00     0.313 HD
BRANCH  22  24
ATOM     24  C   UNL A   1      34.093  17.748  24.823  1.00  0.00     0.039 A 
ATOM     25  C   UNL A   1      33.956  16.787  23.842  1.00  0.00     0.027 A 
ATOM     26  N   UNL A   1      33.456  17.283  25.948  1.00  0.00    -0.362 N 
ATOM     27  C   UNL A   1      33.181  15.733  24.377  1.00  0.00     0.020 A 
ATOM     28  C   UNL A   1      32.876  16.069  25.676  1.00  0.00     0.083 A 
ATOM     29  H   UNL A   1      33.420  17.749  26.815  1.00  0.00     0.166 HD
ENDBRANCH  22  24
ENDBRANCH   9  14
BRANCH  13  30
ATOM     30  O   UNL A   1      32.911  26.438  21.011  1.00  0.00    -0.507 OA
ATOM     31  H   UNL A   1      32.580  27.002  20.340  1.00  0.00     0.293 HD
ENDBRANCH  13  30
ENDBRANCH   5   8
ENDBRANCH   3   4
ENDBRANCH   2   3
ENDBRANCH   1   2
BRANCH   1  32
ATOM     32  C   UNL A   1      31.782  30.373  26.768  1.00  0.00     0.002 C 
BRANCH  32  33
ATOM     33  C   UNL A   1      31.545  31.881  26.851  1.00  0.00     0.021 C 
BRANCH  33  34
ATOM     34  C   UNL A   1      32.758  32.727  27.218  1.00  0.00     0.116 C 
BRANCH  34  35
ATOM     35  N   UNL A   1      32.412  34.091  27.576  1.00  0.00    -0.352 N 
ATOM     36  C   UNL A   1      32.966  34.917  28.524  1.00  0.00     0.251 C 
ATOM     37  H   UNL A   1      31.669  34.484  27.063  1.00  0.00     0.163 HD
ATOM     38  O   UNL A   1      32.445  35.997  28.780  1.00  0.00    -0.269 OA
BRANCH  36  39
ATOM     39  C   UNL A   1      34.173  34.489  29.266  1.00  0.00     0.039 A 
ATOM     40  C   UNL A   1      34.019  33.959  30.548  1.00  0.00     0.014 A 
ATOM     41  C   UNL A   1      35.447  34.603  28.702  1.00  0.00     0.014 A 
ATOM     42  C   UNL A   1      35.133  33.467  31.234  1.00  0.00     0.010 A 
ATOM     43  C   UNL A   1      36.545  34.045  29.354  1.00  0.00     0.010 A 
ATOM     44  C   UNL A   1      36.398  33.463  30.622  1.00  0.00    -0.014 A 
BRANCH  44  45
ATOM     45  C   UNL A   1      37.566  32.824  31.281  1.00  0.00     0.031 A 
ATOM     46  C   UNL A   1      38.209  31.606  30.678  1.00  0.00     0.074 A 
ATOM     47  C   UNL A   1      38.007  33.304  32.460  1.00  0.00     0.049 A 
ATOM     48  N   UNL A   1      39.188  30.872  31.146  1.00  0.00    -0.248 NA
ATOM     49  C   UNL A   1      37.667  31.135  29.394  1.00  0.00     0.031 C 
ATOM     50  C   UNL A   1      37.442  34.455  33.168  1.00  0.00     0.029 A 
ATOM     51  N   UNL A   1      39.022  32.880  33.280  1.00  0.00    -0.354 N 
ATOM     52  C   UNL A   1      39.374  29.853  30.220  1.00  0.00     0.074 A 
ATOM     53  C   UNL A   1      38.371  30.031  29.192  1.00  0.00     0.031 C 
ATOM     54  C   UNL A   1      38.130  34.657  34.303  1.00  0.00     0.029 A 
ATOM     55  C   UNL A   1      39.153  33.624  34.428  1.00  0.00     0.049 A 
ATOM     56  H   UNL A   1      39.603  32.114  33.066  1.00  0.00     0.167 HD
ATOM     57  C   UNL A   1      40.307  28.872  30.217  1.00  0.00     0.037 A 
ATOM     58  C   UNL A   1      39.990  33.480  35.474  1.00  0.00     0.037 A 
ATOM     59  C   UNL A   1      41.310  28.706  31.238  1.00  0.00     0.049 A 
ATOM     60  C   UNL A   1      40.991  32.358  35.463  1.00  0.00     0.074 A 
ATOM     61  C   UNL A   1      42.333  27.776  31.295  1.00  0.00     0.029 A 
ATOM     62  N   UNL A   1      41.408  29.478  32.386  1.00  0.00    -0.354 N 
ATOM     63  N   UNL A   1      41.203  31.447  34.546  1.00  0.00    -0.248 NA
ATOM     64  C   UNL A   1      41.873  32.245  36.635  1.00  0.00     0.031 C 
ATOM     65  C   UNL A   1      43.013  27.947  32.506  1.00  0.00     0.029 A 
ATOM     66  C   UNL A   1      42.452  29.023  33.174  1.00  0.00     0.049 A 
ATOM     67  H   UNL A   1      40.822  30.237  32.608  1.00  0.00     0.167 HD
ATOM     68  C   UNL A   1      42.256  30.671  35.014  1.00  0.00     0.074 A 
ATOM     69  C   UNL A   1      42.652  31.231  36.289  1.00  0.00     0.031 C 
ATOM     70  C   UNL A   1      42.840  29.591  34.441  1.00  0.00     0.037 A 
BRANCH  57  71
ATOM     71  C   UNL A   1      40.288  27.894  29.077  1.00  0.00     0.057 A 
ATOM     72  C   UNL A   1      41.062  28.084  27.926  1.00  0.00     0.134 A 
ATOM     73  C   UNL A   1      39.524  26.721  29.154  1.00  0.00     0.134 A 
ATOM     74  F   UNL A   1      41.810  29.188  27.783  1.00  0.00    -0.206 F 
ATOM     75  C   UNL A   1      41.059  27.157  26.880  1.00  0.00     0.040 A 
ATOM     76  C   UNL A   1      39.536  25.774  28.129  1.00  0.00     0.040 A 
ATOM     77  F   UNL A   1      38.765  26.471  30.232  1.00  0.00    -0.206 F 
ATOM     78  C   UNL A   1      40.300  25.994  26.985  1.00  0.00     0.006 A 
ENDBRANCH  57  71
BRANCH  58  79
ATOM     79  C   UNL A   1      39.919  34.422  36.622  1.00  0.00     0.057 A 
ATOM     80  C   UNL A   1      40.641  35.620  36.622  1.00  0.00     0.134 A 
ATOM     81  C   UNL A   1      39.146  34.137  37.755  1.00  0.00     0.134 A 
ATOM     82  F   UNL A   1      41.416  35.941  35.574  1.00  0.00    -0.206 F 
ATOM     83  C   UNL A   1      40.619  36.490  37.714  1.00  0.00     0.040 A 
ATOM     84  C   UNL A   1      39.089  35.012  38.841  1.00  0.00     0.040 A 
ATOM     85  F   UNL A   1      38.423  33.010  37.817  1.00  0.00    -0.206 F 
ATOM     86  C   UNL A   1      39.837  36.188  38.827  1.00  0.00     0.006 A 
ENDBRANCH  58  79
BRANCH  70  87
ATOM     87  C   UNL A   1      43.992  28.961  35.170  1.00  0.00     0.057 A 
ATOM     88  C   UNL A   1      43.814  27.883  36.047  1.00  0.00     0.134 A 
ATOM     89  C   UNL A   1      45.302  29.408  34.956  1.00  0.00     0.134 A 
ATOM     90  F   UNL A   1      42.583  27.414  36.307  1.00  0.00    -0.206 F 
ATOM     91  C   UNL A   1      44.894  27.289  36.702  1.00  0.00     0.040 A 
ATOM     92  C   UNL A   1      46.393  28.802  35.580  1.00  0.00     0.040 A 
ATOM     93  F   UNL A   1      45.546  30.430  34.121  1.00  0.00    -0.206 F 
ATOM     94  C   UNL A   1      46.189  27.743  36.461  1.00  0.00     0.006 A 
ENDBRANCH  70  87
ENDBRANCH  44  45
ENDBRANCH  36  39
ENDBRANCH  34  35
ENDBRANCH  33  34
ENDBRANCH  32  33
ENDBRANCH   1  32
TORSDOF 16
ENDMDL
MODEL 2
REMARK VINA RESULT:     -12.7      5.271     10.413
REMARK SMILES O=C1[NH+]=C(Nc2ccc(C(=O)NCCCCCCNC(=O)c3ccc(-c4c5nc(c(-c6c(F)cccc6F)c6ccc([nH]6)c(-c6c(F)cccc6F)c6nc(c(-c7c(F)cccc7F)c7ccc4[nH]7)C=C6)C=C5)cc3)c(O)c2)S/C1=C\c1ccc[nH]1
REMARK SMILES IDX 15 1 14 2 13 3 12 4 10 5 11 6 9 8 6 9 7 10 78 11 8 12 76 13
REMARK SMILES IDX 5 14 1 15 2 16 3 17 80 18 4 19 79 21 81 22 82 24 83 25 86 26
REMARK SMILES IDX 84 27 85 28 77 30 16 32 17 33 18 34 19 35 20 36 21 38 22 39
REMARK SMILES IDX 23 40 75 41 24 42 74 43 25 44 26 45 27 46 68 47 28 48 73 49
REMARK SMILES IDX 67 50 69 51 29 52 72 53 66 54 65 55 30 57 56 58 39 59 55 60
REMARK SMILES IDX 40 61 43 62 54 63 70 64 41 65 42 66 53 68 71 69 44 70 31 71
REMARK SMILES IDX 32 72 37 73 33 74 34 75 36 76 38 77 35 78 57 79 58 80 63 81
REMARK SMILES IDX 59 82 60 83 62 84 64 85 61 86 45 87 46 88 51 89 47 90 48 91
REMARK SMILES IDX 50 92 52 93 49 94
REMARK H PARENT 12 7 3 20 5 23 86 29 77 31 19 37 69 56 43 67
REMARK Flexibility Score: inf
ROOT
ATOM      1  C   UNL A   1      36.642  21.793  25.800  1.00  0.00     0.002 C 
ENDROOT
BRANCH   1   2
ATOM      2  C   UNL A   1      35.324  22.359  26.337  1.00  0.00     0.021 C 
BRANCH   2   3
ATOM      3  C   UNL A   1      34.479  21.419  27.193  1.00  0.00     0.116 C 
BRANCH   3   4
ATOM      4  N   UNL A   1      33.493  20.657  26.449  1.00  0.00    -0.352 N 
ATOM      5  C   UNL A   1      32.515  21.076  25.580  1.00  0.00     0.255 C 
ATOM      6  O   UNL A   1      31.770  20.238  25.078  1.00  0.00    -0.269 OA
ATOM      7  H   UNL A   1      33.530  19.683  26.591  1.00  0.00     0.163 HD
BRANCH   5   8
ATOM      8  C   UNL A   1      32.299  22.512  25.269  1.00  0.00     0.081 A 
ATOM      9  C   UNL A   1      31.794  25.160  24.413  1.00  0.00     0.129 A 
ATOM     10  C   UNL A   1      32.395  24.235  23.556  1.00  0.00     0.053 A 
ATOM     11  C   UNL A   1      31.504  24.761  25.723  1.00  0.00     0.098 A 
ATOM     12  C   UNL A   1      32.651  22.926  23.978  1.00  0.00     0.022 A 
ATOM     13  C   UNL A   1      31.791  23.464  26.157  1.00  0.00     0.132 A 
BRANCH   9  14
ATOM     14  N   UNL A   1      31.402  26.433  23.984  1.00  0.00    -0.234 N 
ATOM     15  O   UNL A   1      26.750  26.744  24.124  1.00  0.00    -0.240 OA
ATOM     16  C   UNL A   1      27.905  27.069  23.876  1.00  0.00     0.346 C 
ATOM     17  N   UNL A   1      29.012  26.290  24.121  1.00  0.00    -0.199 N 
ATOM     18  C   UNL A   1      28.274  28.381  23.275  1.00  0.00     0.111 C 
ATOM     19  C   UNL A   1      30.123  26.873  23.819  1.00  0.00     0.322 C 
ATOM     20  H   UNL A   1      28.962  25.379  24.489  1.00  0.00     0.316 HD
ATOM     21  S   UNL A   1      29.986  28.482  23.145  1.00  0.00     0.006 SA
ATOM     22  C   UNL A   1      27.355  29.297  22.939  1.00  0.00     0.050 C 
ATOM     23  H   UNL A   1      32.122  27.075  23.781  1.00  0.00     0.313 HD
BRANCH  22  24
ATOM     24  C   UNL A   1      27.692  30.519  22.310  1.00  0.00     0.039 A 
ATOM     25  C   UNL A   1      28.017  31.776  22.780  1.00  0.00     0.027 A 
ATOM     26  N   UNL A   1      27.737  30.567  20.938  1.00  0.00    -0.362 N 
ATOM     27  C   UNL A   1      28.221  32.614  21.661  1.00  0.00     0.020 A 
ATOM     28  C   UNL A   1      28.032  31.846  20.535  1.00  0.00     0.083 A 
ATOM     29  H   UNL A   1      27.580  29.804  20.337  1.00  0.00     0.166 HD
ENDBRANCH  22  24
ENDBRANCH   9  14
BRANCH  13  30
ATOM     30  O   UNL A   1      31.577  23.230  27.487  1.00  0.00    -0.507 OA
ATOM     31  H   UNL A   1      30.913  23.705  27.947  1.00  0.00     0.293 HD
ENDBRANCH  13  30
ENDBRANCH   5   8
ENDBRANCH   3   4
ENDBRANCH   2   3
ENDBRANCH   1   2
BRANCH   1  32
ATOM     32  C   UNL A   1      36.559  20.496  24.990  1.00  0.00     0.002 C 
BRANCH  32  33
ATOM     33  C   UNL A   1      37.868  19.732  24.788  1.00  0.00     0.021 C 
BRANCH  33  34
ATOM     34  C   UNL A   1      39.010  20.109  25.724  1.00  0.00     0.116 C 
BRANCH  34  35
ATOM     35  N   UNL A   1      40.032  19.081  25.816  1.00  0.00    -0.352 N 
ATOM     36  C   UNL A   1      41.378  19.201  26.060  1.00  0.00     0.251 C 
ATOM     37  H   UNL A   1      39.712  18.159  25.684  1.00  0.00     0.163 HD
ATOM     38  O   UNL A   1      42.112  18.223  25.962  1.00  0.00    -0.269 OA
BRANCH  36  39
ATOM     39  C   UNL A   1      41.954  20.519  26.407  1.00  0.00     0.039 A 
ATOM     40  C   UNL A   1      42.434  21.333  25.378  1.00  0.00     0.014 A 
ATOM     41  C   UNL A   1      42.016  20.956  27.733  1.00  0.00     0.014 A 
ATOM     42  C   UNL A   1      42.901  22.616  25.669  1.00  0.00     0.010 A 
ATOM     43  C   UNL A   1      42.412  22.262  28.014  1.00  0.00     0.010 A 
ATOM     44  C   UNL A   1      42.850  23.109  26.984  1.00  0.00    -0.014 A 
BRANCH  44  45
ATOM     45  C   UNL A   1      43.216  24.516  27.292  1.00  0.00     0.031 A 
ATOM     46  C   UNL A   1      44.654  24.955  27.257  1.00  0.00     0.074 A 
ATOM     47  C   UNL A   1      42.256  25.384  27.668  1.00  0.00     0.049 A 
ATOM     48  N   UNL A   1      45.170  26.118  27.564  1.00  0.00    -0.248 NA
ATOM     49  C   UNL A   1      45.645  23.948  26.845  1.00  0.00     0.031 C 
ATOM     50  C   UNL A   1      40.830  25.070  27.781  1.00  0.00     0.029 A 
ATOM     51  N   UNL A   1      42.333  26.703  28.038  1.00  0.00    -0.354 N 
ATOM     52  C   UNL A   1      46.542  25.982  27.391  1.00  0.00     0.074 A 
ATOM     53  C   UNL A   1      46.783  24.609  27.004  1.00  0.00     0.031 C 
ATOM     54  C   UNL A   1      40.166  26.169  28.171  1.00  0.00     0.029 A 
ATOM     55  C   UNL A   1      41.121  27.251  28.383  1.00  0.00     0.049 A 
ATOM     56  H   UNL A   1      43.178  27.209  28.055  1.00  0.00     0.167 HD
ATOM     57  C   UNL A   1      47.508  26.921  27.522  1.00  0.00     0.037 A 
ATOM     58  C   UNL A   1      40.814  28.482  28.835  1.00  0.00     0.037 A 
ATOM     59  C   UNL A   1      47.261  28.290  27.897  1.00  0.00     0.049 A 
ATOM     60  C   UNL A   1      41.912  29.495  29.009  1.00  0.00     0.074 A 
ATOM     61  C   UNL A   1      48.168  29.330  28.002  1.00  0.00     0.029 A 
ATOM     62  N   UNL A   1      46.021  28.806  28.240  1.00  0.00    -0.354 N 
ATOM     63  N   UNL A   1      43.195  29.373  28.771  1.00  0.00    -0.248 NA
ATOM     64  C   UNL A   1      41.520  30.819  29.515  1.00  0.00     0.031 C 
ATOM     65  C   UNL A   1      47.487  30.460  28.468  1.00  0.00     0.029 A 
ATOM     66  C   UNL A   1      46.144  30.141  28.591  1.00  0.00     0.049 A 
ATOM     67  H   UNL A   1      45.176  28.300  28.234  1.00  0.00     0.167 HD
ATOM     68  C   UNL A   1      43.758  30.607  29.069  1.00  0.00     0.074 A 
ATOM     69  C   UNL A   1      42.674  31.470  29.489  1.00  0.00     0.031 C 
ATOM     70  C   UNL A   1      45.057  30.991  29.004  1.00  0.00     0.037 A 
BRANCH  57  71
ATOM     71  C   UNL A   1      48.928  26.502  27.264  1.00  0.00     0.057 A 
ATOM     72  C   UNL A   1      49.744  25.989  28.280  1.00  0.00     0.134 A 
ATOM     73  C   UNL A   1      49.469  26.566  25.973  1.00  0.00     0.134 A 
ATOM     74  F   UNL A   1      49.293  25.907  29.541  1.00  0.00    -0.206 F 
ATOM     75  C   UNL A   1      51.055  25.577  28.028  1.00  0.00     0.040 A 
ATOM     76  C   UNL A   1      50.767  26.130  25.703  1.00  0.00     0.040 A 
ATOM     77  F   UNL A   1      48.740  27.040  24.951  1.00  0.00    -0.206 F 
ATOM     78  C   UNL A   1      51.566  25.640  26.733  1.00  0.00     0.006 A 
ENDBRANCH  57  71
BRANCH  58  79
ATOM     79  C   UNL A   1      39.406  28.830  29.159  1.00  0.00     0.057 A 
ATOM     80  C   UNL A   1      38.533  29.307  28.174  1.00  0.00     0.134 A 
ATOM     81  C   UNL A   1      38.904  28.714  30.461  1.00  0.00     0.134 A 
ATOM     82  F   UNL A   1      38.958  29.458  26.911  1.00  0.00    -0.206 F 
ATOM     83  C   UNL A   1      37.222  29.680  28.476  1.00  0.00     0.040 A 
ATOM     84  C   UNL A   1      37.586  29.054  30.771  1.00  0.00     0.040 A 
ATOM     85  F   UNL A   1      39.685  28.257  31.450  1.00  0.00    -0.206 F 
ATOM     86  C   UNL A   1      36.744  29.549  29.778  1.00  0.00     0.006 A 
ENDBRANCH  58  79
BRANCH  70  87
ATOM     87  C   UNL A   1      45.375  32.414  29.364  1.00  0.00     0.057 A 
ATOM     88  C   UNL A   1      45.318  33.448  28.420  1.00  0.00     0.134 A 
ATOM     89  C   UNL A   1      45.699  32.760  30.682  1.00  0.00     0.134 A 
ATOM     90  F   UNL A   1      45.027  33.183  27.137  1.00  0.00    -0.206 F 
ATOM     91  C   UNL A   1      45.593  34.771  28.771  1.00  0.00     0.040 A 
ATOM     92  C   UNL A   1      45.945  34.084  31.051  1.00  0.00     0.040 A 
ATOM     93  F   UNL A   1      45.762  31.822  31.638  1.00  0.00    -0.206 F 
ATOM     94  C   UNL A   1      45.898  35.093  30.092  1.00  0.00     0.006 A 
ENDBRANCH  70  87
ENDBRANCH  44  45
ENDBRANCH  36  39
ENDBRANCH  34  35
ENDBRANCH  33  34
ENDBRANCH  32  33
ENDBRANCH   1  32
TORSDOF 16
ENDMDL
MODEL 3
REMARK VINA RESULT:     -12.7      5.265     11.174
REMARK SMILES O=C1[NH+]=C(Nc2ccc(C(=O)NCCCCCCNC(=O)c3ccc(-c4c5nc(c(-c6c(F)cccc6F)c6ccc([nH]6)c(-c6c(F)cccc6F)c6nc(c(-c7c(F)cccc7F)c7ccc4[nH]7)C=C6)C=C5)cc3)c(O)c2)S/C1=C\c1ccc[nH]1
REMARK SMILES IDX 15 1 14 2 13 3 12 4 10 5 11 6 9 8 6 9 7 10 78 11 8 12 76 13
REMARK SMILES IDX 5 14 1 15 2 16 3 17 80 18 4 19 79 21 81 22 82 24 83 25 86 26
REMARK SMILES IDX 84 27 85 28 77 30 16 32 17 33 18 34 19 35 20 36 21 38 22 39
REMARK SMILES IDX 23 40 75 41 24 42 74 43 25 44 26 45 27 46 68 47 28 48 73 49
REMARK SMILES IDX 67 50 69 51 29 52 72 53 66 54 65 55 30 57 56 58 39 59 55 60
REMARK SMILES IDX 40 61 43 62 54 63 70 64 41 65 42 66 53 68 71 69 44 70 31 71
REMARK SMILES IDX 32 72 37 73 33 74 34 75 36 76 38 77 35 78 57 79 58 80 63 81
REMARK SMILES IDX 59 82 60 83 62 84 64 85 61 86 45 87 46 88 51 89 47 90 48 91
REMARK SMILES IDX 50 92 52 93 49 94
REMARK H PARENT 12 7 3 20 5 23 86 29 77 31 19 37 69 56 43 67
REMARK Flexibility Score: inf
ROOT
ATOM      1  C   UNL A   1      35.831  21.250  24.903  1.00  0.00     0.002 C 
ENDROOT
BRANCH   1   2
ATOM      2  C   UNL A   1      35.421  21.926  26.215  1.00  0.00     0.021 C 
BRANCH   2   3
ATOM      3  C   UNL A   1      34.367  21.206  27.052  1.00  0.00     0.116 C 
BRANCH   3   4
ATOM      4  N   UNL A   1      33.591  20.223  26.318  1.00  0.00    -0.352 N 
ATOM      5  C   UNL A   1      32.579  20.392  25.404  1.00  0.00     0.255 C 
ATOM      6  O   UNL A   1      32.045  19.395  24.922  1.00  0.00    -0.269 OA
ATOM      7  H   UNL A   1      33.826  19.285  26.506  1.00  0.00     0.163 HD
BRANCH   5   8
ATOM      8  C   UNL A   1      32.078  21.735  25.020  1.00  0.00     0.081 A 
ATOM      9  C   UNL A   1      31.072  24.184  24.023  1.00  0.00     0.129 A 
ATOM     10  C   UNL A   1      31.923  23.392  23.247  1.00  0.00     0.053 A 
ATOM     11  C   UNL A   1      30.780  23.765  25.326  1.00  0.00     0.098 A 
ATOM     12  C   UNL A   1      32.427  22.184  23.739  1.00  0.00     0.022 A 
ATOM     13  C   UNL A   1      31.310  22.575  25.832  1.00  0.00     0.132 A 
BRANCH   9  14
ATOM     14  N   UNL A   1      30.445  25.327  23.516  1.00  0.00    -0.234 N 
ATOM     15  O   UNL A   1      32.446  29.123  25.345  1.00  0.00    -0.240 OA
ATOM     16  C   UNL A   1      31.633  28.458  24.716  1.00  0.00     0.346 C 
ATOM     17  N   UNL A   1      31.631  27.084  24.638  1.00  0.00    -0.199 N 
ATOM     18  C   UNL A   1      30.523  29.058  23.923  1.00  0.00     0.111 C 
ATOM     19  C   UNL A   1      30.703  26.617  23.872  1.00  0.00     0.322 C 
ATOM     20  H   UNL A   1      32.273  26.514  25.120  1.00  0.00     0.316 HD
ATOM     21  S   UNL A   1      29.648  27.803  23.137  1.00  0.00     0.006 SA
ATOM     22  C   UNL A   1      30.322  30.381  23.863  1.00  0.00     0.050 C 
ATOM     23  H   UNL A   1      29.748  25.187  22.834  1.00  0.00     0.313 HD
BRANCH  22  24
ATOM     24  C   UNL A   1      29.233  30.955  23.166  1.00  0.00     0.039 A 
ATOM     25  C   UNL A   1      27.864  30.914  23.337  1.00  0.00     0.027 A 
ATOM     26  N   UNL A   1      29.489  31.741  22.069  1.00  0.00    -0.362 N 
ATOM     27  C   UNL A   1      27.277  31.662  22.290  1.00  0.00     0.020 A 
ATOM     28  C   UNL A   1      28.303  32.154  21.515  1.00  0.00     0.083 A 
ATOM     29  H   UNL A   1      30.385  31.971  21.731  1.00  0.00     0.166 HD
ENDBRANCH  22  24
ENDBRANCH   9  14
BRANCH  13  30
ATOM     30  O   UNL A   1      31.054  22.334  27.153  1.00  0.00    -0.507 OA
ATOM     31  H   UNL A   1      30.232  22.585  27.526  1.00  0.00     0.293 HD
ENDBRANCH  13  30
ENDBRANCH   5   8
ENDBRANCH   3   4
ENDBRANCH   2   3
ENDBRANCH   1   2
BRANCH   1  32
ATOM     32  C   UNL A   1      37.327  21.226  24.576  1.00  0.00     0.002 C 
BRANCH  32  33
ATOM     33  C   UNL A   1      38.098  19.975  24.998  1.00  0.00     0.021 C 
BRANCH  33  34
ATOM     34  C   UNL A   1      39.245  20.197  25.976  1.00  0.00     0.116 C 
BRANCH  34  35
ATOM     35  N   UNL A   1      40.230  19.130  25.949  1.00  0.00    -0.352 N 
ATOM     36  C   UNL A   1      41.596  19.194  26.079  1.00  0.00     0.251 C 
ATOM     37  H   UNL A   1      39.865  18.226  25.817  1.00  0.00     0.163 HD
ATOM     38  O   UNL A   1      42.280  18.194  25.888  1.00  0.00    -0.269 OA
BRANCH  36  39
ATOM     39  C   UNL A   1      42.250  20.479  26.414  1.00  0.00     0.039 A 
ATOM     40  C   UNL A   1      42.766  21.259  25.378  1.00  0.00     0.014 A 
ATOM     41  C   UNL A   1      42.350  20.916  27.738  1.00  0.00     0.014 A 
ATOM     42  C   UNL A   1      43.309  22.515  25.658  1.00  0.00     0.010 A 
ATOM     43  C   UNL A   1      42.822  22.199  28.009  1.00  0.00     0.010 A 
ATOM     44  C   UNL A   1      43.298  23.015  26.972  1.00  0.00    -0.014 A 
BRANCH  44  45
ATOM     45  C   UNL A   1      43.748  24.399  27.269  1.00  0.00     0.031 A 
ATOM     46  C   UNL A   1      42.754  25.457  27.662  1.00  0.00     0.074 A 
ATOM     47  C   UNL A   1      45.049  24.720  27.120  1.00  0.00     0.049 A 
ATOM     48  N   UNL A   1      42.950  26.731  27.888  1.00  0.00    -0.248 NA
ATOM     49  C   UNL A   1      41.351  25.032  27.794  1.00  0.00     0.031 C 
ATOM     50  C   UNL A   1      46.105  23.795  26.705  1.00  0.00     0.029 A 
ATOM     51  N   UNL A   1      45.704  25.914  27.288  1.00  0.00    -0.354 N 
ATOM     52  C   UNL A   1      41.699  27.261  28.182  1.00  0.00     0.074 A 
ATOM     53  C   UNL A   1      40.744  26.181  28.053  1.00  0.00     0.031 C 
ATOM     54  C   UNL A   1      47.276  24.449  26.671  1.00  0.00     0.029 A 
ATOM     55  C   UNL A   1      47.049  25.849  27.013  1.00  0.00     0.049 A 
ATOM     56  H   UNL A   1      45.253  26.740  27.577  1.00  0.00     0.167 HD
ATOM     57  C   UNL A   1      41.380  28.526  28.546  1.00  0.00     0.037 A 
ATOM     58  C   UNL A   1      47.991  26.812  27.020  1.00  0.00     0.037 A 
ATOM     59  C   UNL A   1      42.337  29.594  28.684  1.00  0.00     0.049 A 
ATOM     60  C   UNL A   1      47.603  28.216  27.391  1.00  0.00     0.074 A 
ATOM     61  C   UNL A   1      42.119  30.895  29.102  1.00  0.00     0.029 A 
ATOM     62  N   UNL A   1      43.689  29.489  28.395  1.00  0.00    -0.354 N 
ATOM     63  N   UNL A   1      46.429  28.686  27.738  1.00  0.00    -0.248 NA
ATOM     64  C   UNL A   1      48.670  29.227  27.372  1.00  0.00     0.031 C 
ATOM     65  C   UNL A   1      43.327  31.593  29.008  1.00  0.00     0.029 A 
ATOM     66  C   UNL A   1      44.311  30.711  28.592  1.00  0.00     0.049 A 
ATOM     67  H   UNL A   1      44.141  28.667  28.095  1.00  0.00     0.167 HD
ATOM     68  C   UNL A   1      46.622  30.035  28.006  1.00  0.00     0.074 A 
ATOM     69  C   UNL A   1      48.029  30.306  27.798  1.00  0.00     0.031 C 
ATOM     70  C   UNL A   1      45.714  30.967  28.386  1.00  0.00     0.037 A 
BRANCH  57  71
ATOM     71  C   UNL A   1      39.934  28.830  28.818  1.00  0.00     0.057 A 
ATOM     72  C   UNL A   1      39.387  28.732  30.104  1.00  0.00     0.134 A 
ATOM     73  C   UNL A   1      39.092  29.275  27.791  1.00  0.00     0.134 A 
ATOM     74  F   UNL A   1      40.134  28.304  31.132  1.00  0.00    -0.206 F 
ATOM     75  C   UNL A   1      38.047  29.041  30.354  1.00  0.00     0.040 A 
ATOM     76  C   UNL A   1      37.760  29.616  28.034  1.00  0.00     0.040 A 
ATOM     77  F   UNL A   1      39.553  29.400  26.537  1.00  0.00    -0.206 F 
ATOM     78  C   UNL A   1      37.233  29.492  29.317  1.00  0.00     0.006 A 
ENDBRANCH  57  71
BRANCH  58  79
ATOM     79  C   UNL A   1      49.396  26.484  26.663  1.00  0.00     0.057 A 
ATOM     80  C   UNL A   1      49.876  26.671  25.361  1.00  0.00     0.134 A 
ATOM     81  C   UNL A   1      50.287  25.957  27.606  1.00  0.00     0.134 A 
ATOM     82  F   UNL A   1      49.066  27.155  24.408  1.00  0.00    -0.206 F 
ATOM     83  C   UNL A   1      51.179  26.323  25.003  1.00  0.00     0.040 A 
ATOM     84  C   UNL A   1      51.603  25.634  27.270  1.00  0.00     0.040 A 
ATOM     85  F   UNL A   1      49.895  25.759  28.873  1.00  0.00    -0.206 F 
ATOM     86  C   UNL A   1      52.049  25.807  25.962  1.00  0.00     0.006 A 
ENDBRANCH  58  79
BRANCH  70  87
ATOM     87  C   UNL A   1      46.218  32.360  28.635  1.00  0.00     0.057 A 
ATOM     88  C   UNL A   1      46.232  33.335  27.628  1.00  0.00     0.134 A 
ATOM     89  C   UNL A   1      46.652  32.744  29.911  1.00  0.00     0.134 A 
ATOM     90  F   UNL A   1      45.842  33.030  26.381  1.00  0.00    -0.206 F 
ATOM     91  C   UNL A   1      46.680  34.633  27.876  1.00  0.00     0.040 A 
ATOM     92  C   UNL A   1      47.072  34.048  30.178  1.00  0.00     0.040 A 
ATOM     93  F   UNL A   1      46.656  31.864  30.923  1.00  0.00    -0.206 F 
ATOM     94  C   UNL A   1      47.093  34.995  29.157  1.00  0.00     0.006 A 
ENDBRANCH  70  87
ENDBRANCH  44  45
ENDBRANCH  36  39
ENDBRANCH  34  35
ENDBRANCH  33  34
ENDBRANCH  32  33
ENDBRANCH   1  32
TORSDOF 16
ENDMDL
