MODEL 1
REMARK VINA RESULT:     -11.8      0.000      0.000
REMARK SMILES COc1cccc(/C=C(/CC(=O)NCCCCCCNC(=O)c2ccc(-c3c4nc(c(-c5c(F)cccc5F)c5ccc([nH]5)c(-c5c(F)cccc5F)c5nc(c(-c6c(F)cccc6F)c6ccc3[nH]6)C=C5)C=C4)cc2)c2nc3ccccc3o2)c1
REMARK SMILES IDX 16 1 15 2 14 3 13 4 11 5 12 6 10 8 9 9 8 10 7 11 3 12 4 13
REMARK SMILES IDX 86 14 5 15 6 16 2 17 1 18 77 19 78 20 85 21 79 22 84 23
REMARK SMILES IDX 80 24 83 25 81 26 82 27 17 28 18 29 19 30 20 31 21 32 22 34
REMARK SMILES IDX 23 35 24 36 76 37 25 38 75 39 26 40 27 41 28 42 69 43 29 44
REMARK SMILES IDX 74 45 68 46 70 47 30 48 73 49 67 50 66 51 31 53 57 54 40 55
REMARK SMILES IDX 56 56 41 57 44 58 55 59 71 60 42 61 43 62 54 64 72 65 45 66
REMARK SMILES IDX 32 67 33 68 38 69 34 70 35 71 37 72 39 73 36 74 58 75 59 76
REMARK SMILES IDX 64 77 60 78 61 79 63 80 65 81 62 82 46 83 47 84 52 85 48 86
REMARK SMILES IDX 49 87 51 88 53 89 50 90
REMARK H PARENT 13 7 20 33 70 52 44 63
REMARK Flexibility Score: inf
ROOT
ATOM      1  C   UNL A   1      34.307  22.089  24.391  1.00  0.00     0.002 C 
ENDROOT
BRANCH   1   2
ATOM      2  C   UNL A   1      33.173  21.671  23.446  1.00  0.00     0.021 C 
BRANCH   2   3
ATOM      3  C   UNL A   1      32.118  22.750  23.198  1.00  0.00     0.116 C 
BRANCH   3   4
ATOM      4  N   UNL A   1      32.471  23.626  22.101  1.00  0.00    -0.356 N 
ATOM      5  C   UNL A   1      32.975  24.895  22.125  1.00  0.00     0.224 C 
ATOM      6  O   UNL A   1      33.277  25.422  21.052  1.00  0.00    -0.275 OA
ATOM      7  H   UNL A   1      32.325  23.250  21.202  1.00  0.00     0.163 HD
BRANCH   5   8
ATOM      8  C   UNL A   1      33.247  25.594  23.456  1.00  0.00     0.141 C 
BRANCH   8   9
ATOM      9  C   UNL A   1      32.267  26.724  23.770  1.00  0.00     0.025 C 
ATOM     10  C   UNL A   1      31.058  26.686  23.155  1.00  0.00     0.018 C 
BRANCH  10  11
ATOM     11  C   UNL A   1      29.883  27.582  23.005  1.00  0.00    -0.021 A 
ATOM     12  C   UNL A   1      29.079  29.755  22.189  1.00  0.00     0.119 A 
ATOM     13  C   UNL A   1      27.816  29.489  22.702  1.00  0.00     0.046 A 
ATOM     14  C   UNL A   1      30.101  28.812  22.342  1.00  0.00     0.054 A 
ATOM     15  C   UNL A   1      27.572  28.282  23.345  1.00  0.00     0.004 A 
ATOM     16  C   UNL A   1      28.600  27.344  23.502  1.00  0.00     0.008 A 
BRANCH  12  17
ATOM     17  O   UNL A   1      29.243  30.990  21.625  1.00  0.00    -0.497 OA
ATOM     18  C   UNL A   1      28.033  31.631  21.231  1.00  0.00     0.278 C 
ENDBRANCH  12  17
ENDBRANCH  10  11
BRANCH   9  19
ATOM     19  C   UNL A   1      32.677  27.780  24.648  1.00  0.00     0.223 A 
ATOM     20  N   UNL A   1      33.884  27.863  25.194  1.00  0.00    -0.210 NA
ATOM     21  O   UNL A   1      31.826  28.766  25.127  1.00  0.00    -0.436 OA
ATOM     22  C   UNL A   1      33.834  28.934  26.041  1.00  0.00     0.110 A 
ATOM     23  C   UNL A   1      32.584  29.512  25.979  1.00  0.00     0.155 A 
ATOM     24  C   UNL A   1      34.800  29.481  26.894  1.00  0.00     0.032 A 
ATOM     25  C   UNL A   1      32.205  30.652  26.678  1.00  0.00     0.049 A 
ATOM     26  C   UNL A   1      34.457  30.626  27.627  1.00  0.00     0.003 A 
ATOM     27  C   UNL A   1      33.186  31.205  27.510  1.00  0.00     0.004 A 
ENDBRANCH   9  19
ENDBRANCH   8   9
ENDBRANCH   5   8
ENDBRANCH   3   4
ENDBRANCH   2   3
ENDBRANCH   1   2
BRANCH   1  28
ATOM     28  C   UNL A   1      35.563  22.647  23.714  1.00  0.00     0.002 C 
BRANCH  28  29
ATOM     29  C   UNL A   1      36.338  23.691  24.522  1.00  0.00     0.021 C 
BRANCH  29  30
ATOM     30  C   UNL A   1      36.594  23.319  25.979  1.00  0.00     0.116 C 
BRANCH  30  31
ATOM     31  N   UNL A   1      37.710  22.400  26.127  1.00  0.00    -0.352 N 
ATOM     32  C   UNL A   1      39.014  22.657  26.463  1.00  0.00     0.251 C 
ATOM     33  H   UNL A   1      37.498  21.453  25.963  1.00  0.00     0.163 HD
ATOM     34  O   UNL A   1      39.857  21.764  26.372  1.00  0.00    -0.269 OA
BRANCH  32  35
ATOM     35  C   UNL A   1      39.424  24.003  26.921  1.00  0.00     0.039 A 
ATOM     36  C   UNL A   1      39.996  24.884  25.997  1.00  0.00     0.014 A 
ATOM     37  C   UNL A   1      39.293  24.386  28.259  1.00  0.00     0.014 A 
ATOM     38  C   UNL A   1      40.402  26.156  26.405  1.00  0.00     0.010 A 
ATOM     39  C   UNL A   1      39.633  25.679  28.650  1.00  0.00     0.010 A 
ATOM     40  C   UNL A   1      40.209  26.571  27.733  1.00  0.00    -0.014 A 
BRANCH  40  41
ATOM     41  C   UNL A   1      40.653  27.912  28.192  1.00  0.00     0.031 A 
ATOM     42  C   UNL A   1      42.119  28.253  28.205  1.00  0.00     0.074 A 
ATOM     43  C   UNL A   1      39.749  28.805  28.640  1.00  0.00     0.049 A 
ATOM     44  N   UNL A   1      42.714  29.339  28.631  1.00  0.00    -0.248 NA
ATOM     45  C   UNL A   1      43.041  27.226  27.694  1.00  0.00     0.031 C 
ATOM     46  C   UNL A   1      38.303  28.585  28.712  1.00  0.00     0.029 A 
ATOM     47  N   UNL A   1      39.917  30.077  29.127  1.00  0.00    -0.354 N 
ATOM     48  C   UNL A   1      44.075  29.117  28.456  1.00  0.00     0.074 A 
ATOM     49  C   UNL A   1      44.221  27.776  27.936  1.00  0.00     0.031 C 
ATOM     50  C   UNL A   1      37.715  29.692  29.195  1.00  0.00     0.029 A 
ATOM     51  C   UNL A   1      38.742  30.685  29.496  1.00  0.00     0.049 A 
ATOM     52  H   UNL A   1      40.797  30.513  29.206  1.00  0.00     0.167 HD
ATOM     53  C   UNL A   1      45.108  29.962  28.684  1.00  0.00     0.037 A 
ATOM     54  C   UNL A   1      38.519  31.906  30.020  1.00  0.00     0.037 A 
ATOM     55  C   UNL A   1      44.960  31.308  29.171  1.00  0.00     0.049 A 
ATOM     56  C   UNL A   1      39.684  32.827  30.260  1.00  0.00     0.074 A 
ATOM     57  C   UNL A   1      45.942  32.258  29.394  1.00  0.00     0.029 A 
ATOM     58  N   UNL A   1      43.749  31.896  29.506  1.00  0.00    -0.354 N 
ATOM     59  N   UNL A   1      40.960  32.623  30.042  1.00  0.00    -0.248 NA
ATOM     60  C   UNL A   1      39.375  34.156  30.809  1.00  0.00     0.031 C 
ATOM     61  C   UNL A   1      45.328  33.411  29.895  1.00  0.00     0.029 A 
ATOM     62  C   UNL A   1      43.960  33.194  29.941  1.00  0.00     0.049 A 
ATOM     63  H   UNL A   1      42.871  31.456  29.444  1.00  0.00     0.167 HD
ATOM     64  C   UNL A   1      41.600  33.805  30.392  1.00  0.00     0.074 A 
ATOM     65  C   UNL A   1      40.571  34.726  30.827  1.00  0.00     0.031 C 
ATOM     66  C   UNL A   1      42.922  34.103  30.352  1.00  0.00     0.037 A 
BRANCH  53  67
ATOM     67  C   UNL A   1      46.491  29.455  28.398  1.00  0.00     0.057 A 
ATOM     68  C   UNL A   1      47.087  29.607  27.138  1.00  0.00     0.134 A 
ATOM     69  C   UNL A   1      47.249  28.833  29.399  1.00  0.00     0.134 A 
ATOM     70  F   UNL A   1      46.410  30.181  26.132  1.00  0.00    -0.206 F 
ATOM     71  C   UNL A   1      48.373  29.134  26.876  1.00  0.00     0.040 A 
ATOM     72  C   UNL A   1      48.547  28.382  29.157  1.00  0.00     0.040 A 
ATOM     73  F   UNL A   1      46.744  28.663  30.630  1.00  0.00    -0.206 F 
ATOM     74  C   UNL A   1      49.110  28.526  27.890  1.00  0.00     0.006 A 
ENDBRANCH  53  67
BRANCH  54  75
ATOM     75  C   UNL A   1      37.134  32.346  30.326  1.00  0.00     0.057 A 
ATOM     76  C   UNL A   1      36.403  33.110  29.409  1.00  0.00     0.134 A 
ATOM     77  C   UNL A   1      36.517  32.033  31.542  1.00  0.00     0.134 A 
ATOM     78  F   UNL A   1      36.949  33.458  28.234  1.00  0.00    -0.206 F 
ATOM     79  C   UNL A   1      35.117  33.569  29.699  1.00  0.00     0.040 A 
ATOM     80  C   UNL A   1      35.223  32.464  31.835  1.00  0.00     0.040 A 
ATOM     81  F   UNL A   1      37.162  31.298  32.460  1.00  0.00    -0.206 F 
ATOM     82  C   UNL A   1      34.522  33.242  30.915  1.00  0.00     0.006 A 
ENDBRANCH  54  75
BRANCH  66  83
ATOM     83  C   UNL A   1      43.324  35.496  30.737  1.00  0.00     0.057 A 
ATOM     84  C   UNL A   1      43.419  36.528  29.795  1.00  0.00     0.134 A 
ATOM     85  C   UNL A   1      43.582  35.815  32.076  1.00  0.00     0.134 A 
ATOM     86  F   UNL A   1      43.197  36.285  28.495  1.00  0.00    -0.206 F 
ATOM     87  C   UNL A   1      43.778  37.825  30.170  1.00  0.00     0.040 A 
ATOM     88  C   UNL A   1      43.917  37.112  32.466  1.00  0.00     0.040 A 
ATOM     89  F   UNL A   1      43.500  34.873  33.028  1.00  0.00    -0.206 F 
ATOM     90  C   UNL A   1      44.022  38.119  31.510  1.00  0.00     0.006 A 
ENDBRANCH  66  83
ENDBRANCH  40  41
ENDBRANCH  32  35
ENDBRANCH  30  31
ENDBRANCH  29  30
ENDBRANCH  28  29
ENDBRANCH   1  28
TORSDOF 17
ENDMDL
MODEL 2
REMARK VINA RESULT:     -11.7      0.804      2.969
REMARK SMILES COc1cccc(/C=C(/CC(=O)NCCCCCCNC(=O)c2ccc(-c3c4nc(c(-c5c(F)cccc5F)c5ccc([nH]5)c(-c5c(F)cccc5F)c5nc(c(-c6c(F)cccc6F)c6ccc3[nH]6)C=C5)C=C4)cc2)c2nc3ccccc3o2)c1
REMARK SMILES IDX 16 1 15 2 14 3 13 4 11 5 12 6 10 8 9 9 8 10 7 11 3 12 4 13
REMARK SMILES IDX 86 14 5 15 6 16 2 17 1 18 77 19 78 20 85 21 79 22 84 23
REMARK SMILES IDX 80 24 83 25 81 26 82 27 17 28 18 29 19 30 20 31 21 32 22 34
REMARK SMILES IDX 23 35 24 36 76 37 25 38 75 39 26 40 27 41 28 42 69 43 29 44
REMARK SMILES IDX 74 45 68 46 70 47 30 48 73 49 67 50 66 51 31 53 57 54 40 55
REMARK SMILES IDX 56 56 41 57 44 58 55 59 71 60 42 61 43 62 54 64 72 65 45 66
REMARK SMILES IDX 32 67 33 68 38 69 34 70 35 71 37 72 39 73 36 74 58 75 59 76
REMARK SMILES IDX 64 77 60 78 61 79 63 80 65 81 62 82 46 83 47 84 52 85 48 86
REMARK SMILES IDX 49 87 51 88 53 89 50 90
REMARK H PARENT 13 7 20 33 70 52 44 63
REMARK Flexibility Score: inf
ROOT
ATOM      1  C   UNL A   1      34.057  22.294  24.256  1.00  0.00     0.002 C 
ENDROOT
BRANCH   1   2
ATOM      2  C   UNL A   1      32.975  22.267  23.169  1.00  0.00     0.021 C 
BRANCH   2   3
ATOM      3  C   UNL A   1      32.034  23.472  23.174  1.00  0.00     0.116 C 
BRANCH   3   4
ATOM      4  N   UNL A   1      32.239  24.339  22.033  1.00  0.00    -0.356 N 
ATOM      5  C   UNL A   1      33.032  25.444  21.908  1.00  0.00     0.224 C 
ATOM      6  O   UNL A   1      33.110  25.983  20.802  1.00  0.00    -0.275 OA
ATOM      7  H   UNL A   1      31.730  24.096  21.226  1.00  0.00     0.163 HD
BRANCH   5   8
ATOM      8  C   UNL A   1      33.874  25.929  23.087  1.00  0.00     0.141 C 
BRANCH   8   9
ATOM      9  C   UNL A   1      33.318  27.179  23.768  1.00  0.00     0.025 C 
ATOM     10  C   UNL A   1      34.060  27.725  24.764  1.00  0.00     0.018 C 
BRANCH  10  11
ATOM     11  C   UNL A   1      33.894  28.785  25.792  1.00  0.00    -0.021 A 
ATOM     12  C   UNL A   1      32.487  30.634  26.591  1.00  0.00     0.119 A 
ATOM     13  C   UNL A   1      33.422  30.930  27.575  1.00  0.00     0.046 A 
ATOM     14  C   UNL A   1      32.723  29.575  25.708  1.00  0.00     0.054 A 
ATOM     15  C   UNL A   1      34.573  30.160  27.687  1.00  0.00     0.004 A 
ATOM     16  C   UNL A   1      34.809  29.106  26.797  1.00  0.00     0.008 A 
BRANCH  12  17
ATOM     17  O   UNL A   1      31.415  31.479  26.518  1.00  0.00    -0.497 OA
ATOM     18  C   UNL A   1      30.653  31.374  25.320  1.00  0.00     0.278 C 
ENDBRANCH  12  17
ENDBRANCH  10  11
BRANCH   9  19
ATOM     19  C   UNL A   1      32.039  27.684  23.363  1.00  0.00     0.223 A 
ATOM     20  N   UNL A   1      31.874  28.743  22.581  1.00  0.00    -0.210 NA
ATOM     21  O   UNL A   1      30.828  27.202  23.841  1.00  0.00    -0.436 OA
ATOM     22  C   UNL A   1      30.526  28.959  22.528  1.00  0.00     0.110 A 
ATOM     23  C   UNL A   1      29.877  27.996  23.272  1.00  0.00     0.155 A 
ATOM     24  C   UNL A   1      29.773  29.942  21.876  1.00  0.00     0.032 A 
ATOM     25  C   UNL A   1      28.497  27.890  23.397  1.00  0.00     0.049 A 
ATOM     26  C   UNL A   1      28.377  29.880  21.982  1.00  0.00     0.003 A 
ATOM     27  C   UNL A   1      27.753  28.865  22.720  1.00  0.00     0.004 A 
ENDBRANCH   9  19
ENDBRANCH   8   9
ENDBRANCH   5   8
ENDBRANCH   3   4
ENDBRANCH   2   3
ENDBRANCH   1   2
BRANCH   1  28
ATOM     28  C   UNL A   1      35.471  22.638  23.776  1.00  0.00     0.002 C 
BRANCH  28  29
ATOM     29  C   UNL A   1      36.191  23.728  24.576  1.00  0.00     0.021 C 
BRANCH  29  30
ATOM     30  C   UNL A   1      36.564  23.340  26.003  1.00  0.00     0.116 C 
BRANCH  30  31
ATOM     31  N   UNL A   1      37.668  22.395  26.049  1.00  0.00    -0.352 N 
ATOM     32  C   UNL A   1      38.997  22.618  26.299  1.00  0.00     0.251 C 
ATOM     33  H   UNL A   1      37.425  21.457  25.875  1.00  0.00     0.163 HD
ATOM     34  O   UNL A   1      39.813  21.711  26.126  1.00  0.00    -0.269 OA
BRANCH  32  35
ATOM     35  C   UNL A   1      39.467  23.943  26.763  1.00  0.00     0.039 A 
ATOM     36  C   UNL A   1      39.364  24.256  28.122  1.00  0.00     0.014 A 
ATOM     37  C   UNL A   1      39.964  24.892  25.866  1.00  0.00     0.014 A 
ATOM     38  C   UNL A   1      39.789  25.503  28.585  1.00  0.00     0.010 A 
ATOM     39  C   UNL A   1      40.453  26.108  26.338  1.00  0.00     0.010 A 
ATOM     40  C   UNL A   1      40.353  26.434  27.699  1.00  0.00    -0.014 A 
BRANCH  40  41
ATOM     41  C   UNL A   1      40.793  27.773  28.167  1.00  0.00     0.031 A 
ATOM     42  C   UNL A   1      42.258  28.117  28.187  1.00  0.00     0.074 A 
ATOM     43  C   UNL A   1      39.886  28.662  28.617  1.00  0.00     0.049 A 
ATOM     44  N   UNL A   1      42.850  29.202  28.620  1.00  0.00    -0.248 NA
ATOM     45  C   UNL A   1      43.183  27.094  27.673  1.00  0.00     0.031 C 
ATOM     46  C   UNL A   1      38.440  28.440  28.683  1.00  0.00     0.029 A 
ATOM     47  N   UNL A   1      40.050  29.933  29.111  1.00  0.00    -0.354 N 
ATOM     48  C   UNL A   1      44.211  28.983  28.449  1.00  0.00     0.074 A 
ATOM     49  C   UNL A   1      44.361  27.644  27.922  1.00  0.00     0.031 C 
ATOM     50  C   UNL A   1      37.849  29.544  29.169  1.00  0.00     0.029 A 
ATOM     51  C   UNL A   1      38.873  30.537  29.479  1.00  0.00     0.049 A 
ATOM     52  H   UNL A   1      40.929  30.369  29.195  1.00  0.00     0.167 HD
ATOM     53  C   UNL A   1      45.243  29.828  28.685  1.00  0.00     0.037 A 
ATOM     54  C   UNL A   1      38.646  31.754  30.009  1.00  0.00     0.037 A 
ATOM     55  C   UNL A   1      45.091  31.171  29.178  1.00  0.00     0.049 A 
ATOM     56  C   UNL A   1      39.809  32.677  30.257  1.00  0.00     0.074 A 
ATOM     57  C   UNL A   1      46.070  32.121  29.409  1.00  0.00     0.029 A 
ATOM     58  N   UNL A   1      43.878  31.755  29.512  1.00  0.00    -0.354 N 
ATOM     59  N   UNL A   1      41.086  32.475  30.042  1.00  0.00    -0.248 NA
ATOM     60  C   UNL A   1      39.496  34.002  30.812  1.00  0.00     0.031 C 
ATOM     61  C   UNL A   1      45.453  33.271  29.914  1.00  0.00     0.029 A 
ATOM     62  C   UNL A   1      44.085  33.051  29.954  1.00  0.00     0.049 A 
ATOM     63  H   UNL A   1      43.001  31.314  29.444  1.00  0.00     0.167 HD
ATOM     64  C   UNL A   1      41.723  33.657  30.400  1.00  0.00     0.074 A 
ATOM     65  C   UNL A   1      40.691  34.573  30.837  1.00  0.00     0.031 C 
ATOM     66  C   UNL A   1      43.045  33.957  30.366  1.00  0.00     0.037 A 
BRANCH  53  67
ATOM     67  C   UNL A   1      46.628  29.324  28.401  1.00  0.00     0.057 A 
ATOM     68  C   UNL A   1      47.396  28.686  29.384  1.00  0.00     0.134 A 
ATOM     69  C   UNL A   1      47.190  29.452  27.125  1.00  0.00     0.134 A 
ATOM     70  F   UNL A   1      46.922  28.543  30.630  1.00  0.00    -0.206 F 
ATOM     71  C   UNL A   1      48.684  28.219  29.116  1.00  0.00     0.040 A 
ATOM     72  C   UNL A   1      48.466  28.964  26.836  1.00  0.00     0.040 A 
ATOM     73  F   UNL A   1      46.506  30.045  26.135  1.00  0.00    -0.206 F 
ATOM     74  C   UNL A   1      49.219  28.351  27.836  1.00  0.00     0.006 A 
ENDBRANCH  53  67
BRANCH  54  75
ATOM     75  C   UNL A   1      37.260  32.191  30.312  1.00  0.00     0.057 A 
ATOM     76  C   UNL A   1      36.653  31.866  31.530  1.00  0.00     0.134 A 
ATOM     77  C   UNL A   1      36.503  32.921  29.389  1.00  0.00     0.134 A 
ATOM     78  F   UNL A   1      37.322  31.151  32.447  1.00  0.00    -0.206 F 
ATOM     79  C   UNL A   1      35.336  32.230  31.813  1.00  0.00     0.040 A 
ATOM     80  C   UNL A   1      35.193  33.314  29.667  1.00  0.00     0.040 A 
ATOM     81  F   UNL A   1      37.029  33.270  28.205  1.00  0.00    -0.206 F 
ATOM     82  C   UNL A   1      34.603  32.961  30.880  1.00  0.00     0.006 A 
ENDBRANCH  54  75
BRANCH  66  83
ATOM     83  C   UNL A   1      43.444  35.348  30.759  1.00  0.00     0.057 A 
ATOM     84  C   UNL A   1      43.511  36.392  29.829  1.00  0.00     0.134 A 
ATOM     85  C   UNL A   1      43.726  35.654  32.097  1.00  0.00     0.134 A 
ATOM     86  F   UNL A   1      43.265  36.163  28.530  1.00  0.00    -0.206 F 
ATOM     87  C   UNL A   1      43.868  37.687  30.212  1.00  0.00     0.040 A 
ATOM     88  C   UNL A   1      44.058  36.948  32.496  1.00  0.00     0.040 A 
ATOM     89  F   UNL A   1      43.671  34.700  33.039  1.00  0.00    -0.206 F 
ATOM     90  C   UNL A   1      44.136  37.968  31.551  1.00  0.00     0.006 A 
ENDBRANCH  66  83
ENDBRANCH  40  41
ENDBRANCH  32  35
ENDBRANCH  30  31
ENDBRANCH  29  30
ENDBRANCH  28  29
ENDBRANCH   1  28
TORSDOF 17
ENDMDL
MODEL 3
REMARK VINA RESULT:     -11.6      3.723      9.171
REMARK SMILES COc1cccc(/C=C(/CC(=O)NCCCCCCNC(=O)c2ccc(-c3c4nc(c(-c5c(F)cccc5F)c5ccc([nH]5)c(-c5c(F)cccc5F)c5nc(c(-c6c(F)cccc6F)c6ccc3[nH]6)C=C5)C=C4)cc2)c2nc3ccccc3o2)c1
REMARK SMILES IDX 16 1 15 2 14 3 13 4 11 5 12 6 10 8 9 9 8 10 7 11 3 12 4 13
REMARK SMILES IDX 86 14 5 15 6 16 2 17 1 18 77 19 78 20 85 21 79 22 84 23
REMARK SMILES IDX 80 24 83 25 81 26 82 27 17 28 18 29 19 30 20 31 21 32 22 34
REMARK SMILES IDX 23 35 24 36 76 37 25 38 75 39 26 40 27 41 28 42 69 43 29 44
REMARK SMILES IDX 74 45 68 46 70 47 30 48 73 49 67 50 66 51 31 53 57 54 40 55
REMARK SMILES IDX 56 56 41 57 44 58 55 59 71 60 42 61 43 62 54 64 72 65 45 66
REMARK SMILES IDX 32 67 33 68 38 69 34 70 35 71 37 72 39 73 36 74 58 75 59 76
REMARK SMILES IDX 64 77 60 78 61 79 63 80 65 81 62 82 46 83 47 84 52 85 48 86
REMARK SMILES IDX 49 87 51 88 53 89 50 90
REMARK H PARENT 13 7 20 33 70 52 44 63
REMARK Flexibility Score: inf
ROOT
ATOM      1  C   UNL A   1      30.847  27.771  23.929  1.00  0.00     0.002 C 
ENDROOT
BRANCH   1   2
ATOM      2  C   UNL A   1      29.732  26.762  24.233  1.00  0.00     0.021 C 
BRANCH   2   3
ATOM      3  C   UNL A   1      30.156  25.296  24.142  1.00  0.00     0.116 C 
BRANCH   3   4
ATOM      4  N   UNL A   1      30.325  24.688  25.444  1.00  0.00    -0.356 N 
ATOM      5  C   UNL A   1      31.467  24.448  26.154  1.00  0.00     0.224 C 
ATOM      6  O   UNL A   1      31.360  23.985  27.292  1.00  0.00    -0.275 OA
ATOM      7  H   UNL A   1      29.491  24.403  25.885  1.00  0.00     0.163 HD
BRANCH   5   8
ATOM      8  C   UNL A   1      32.829  24.840  25.583  1.00  0.00     0.141 C 
BRANCH   8   9
ATOM      9  C   UNL A   1      33.849  23.701  25.584  1.00  0.00     0.025 C 
ATOM     10  C   UNL A   1      35.132  24.018  25.891  1.00  0.00     0.018 C 
BRANCH  10  11
ATOM     11  C   UNL A   1      36.456  23.344  25.872  1.00  0.00    -0.021 A 
ATOM     12  C   UNL A   1      37.670  21.272  25.357  1.00  0.00     0.119 A 
ATOM     13  C   UNL A   1      38.845  21.831  25.844  1.00  0.00     0.046 A 
ATOM     14  C   UNL A   1      36.488  22.020  25.374  1.00  0.00     0.054 A 
ATOM     15  C   UNL A   1      38.842  23.134  26.324  1.00  0.00     0.004 A 
ATOM     16  C   UNL A   1      37.656  23.877  26.347  1.00  0.00     0.008 A 
BRANCH  12  17
ATOM     17  O   UNL A   1      37.754  19.966  24.959  1.00  0.00    -0.497 OA
ATOM     18  C   UNL A   1      36.501  19.336  24.712  1.00  0.00     0.278 C 
ENDBRANCH  12  17
ENDBRANCH  10  11
BRANCH   9  19
ATOM     19  C   UNL A   1      33.422  22.382  25.223  1.00  0.00     0.223 A 
ATOM     20  N   UNL A   1      33.352  21.366  26.074  1.00  0.00    -0.210 NA
ATOM     21  O   UNL A   1      33.152  21.983  23.921  1.00  0.00    -0.436 OA
ATOM     22  C   UNL A   1      33.017  20.276  25.323  1.00  0.00     0.110 A 
ATOM     23  C   UNL A   1      32.860  20.654  24.006  1.00  0.00     0.155 A 
ATOM     24  C   UNL A   1      32.825  18.935  25.677  1.00  0.00     0.032 A 
ATOM     25  C   UNL A   1      32.473  19.802  22.979  1.00  0.00     0.049 A 
ATOM     26  C   UNL A   1      32.443  18.037  24.670  1.00  0.00     0.003 A 
ATOM     27  C   UNL A   1      32.260  18.468  23.349  1.00  0.00     0.004 A 
ENDBRANCH   9  19
ENDBRANCH   8   9
ENDBRANCH   5   8
ENDBRANCH   3   4
ENDBRANCH   2   3
ENDBRANCH   1   2
BRANCH   1  28
ATOM     28  C   UNL A   1      31.668  28.237  25.136  1.00  0.00     0.002 C 
BRANCH  28  29
ATOM     29  C   UNL A   1      33.167  28.419  24.882  1.00  0.00     0.021 C 
BRANCH  29  30
ATOM     30  C   UNL A   1      33.996  28.740  26.121  1.00  0.00     0.116 C 
BRANCH  30  31
ATOM     31  N   UNL A   1      33.795  30.104  26.583  1.00  0.00    -0.352 N 
ATOM     32  C   UNL A   1      34.494  30.820  27.519  1.00  0.00     0.251 C 
ATOM     33  H   UNL A   1      33.046  30.584  26.160  1.00  0.00     0.163 HD
ATOM     34  O   UNL A   1      34.067  31.910  27.900  1.00  0.00    -0.269 OA
BRANCH  32  35
ATOM     35  C   UNL A   1      35.753  30.291  28.089  1.00  0.00     0.039 A 
ATOM     36  C   UNL A   1      36.928  30.390  27.337  1.00  0.00     0.014 A 
ATOM     37  C   UNL A   1      35.777  29.658  29.336  1.00  0.00     0.014 A 
ATOM     38  C   UNL A   1      38.128  29.889  27.846  1.00  0.00     0.010 A 
ATOM     39  C   UNL A   1      36.986  29.222  29.874  1.00  0.00     0.010 A 
ATOM     40  C   UNL A   1      38.170  29.315  29.127  1.00  0.00    -0.014 A 
BRANCH  40  41
ATOM     41  C   UNL A   1      39.431  28.758  29.679  1.00  0.00     0.031 A 
ATOM     42  C   UNL A   1      40.054  29.378  30.901  1.00  0.00     0.074 A 
ATOM     43  C   UNL A   1      40.042  27.728  29.061  1.00  0.00     0.049 A 
ATOM     44  N   UNL A   1      41.182  29.085  31.497  1.00  0.00    -0.248 NA
ATOM     45  C   UNL A   1      39.322  30.495  31.520  1.00  0.00     0.031 C 
ATOM     46  C   UNL A   1      39.561  27.060  27.850  1.00  0.00     0.029 A 
ATOM     47  N   UNL A   1      41.206  27.067  29.366  1.00  0.00    -0.354 N 
ATOM     48  C   UNL A   1      41.302  29.990  32.545  1.00  0.00     0.074 A 
ATOM     49  C   UNL A   1      40.160  30.875  32.472  1.00  0.00     0.031 C 
ATOM     50  C   UNL A   1      40.412  26.072  27.528  1.00  0.00     0.029 A 
ATOM     51  C   UNL A   1      41.512  26.058  28.486  1.00  0.00     0.049 A 
ATOM     52  H   UNL A   1      41.769  27.296  30.141  1.00  0.00     0.167 HD
ATOM     53  C   UNL A   1      42.261  30.063  33.497  1.00  0.00     0.037 A 
ATOM     54  C   UNL A   1      42.564  25.217  28.457  1.00  0.00     0.037 A 
ATOM     55  C   UNL A   1      43.380  29.162  33.589  1.00  0.00     0.049 A 
ATOM     56  C   UNL A   1      43.615  25.315  29.529  1.00  0.00     0.074 A 
ATOM     57  C   UNL A   1      44.383  29.126  34.541  1.00  0.00     0.029 A 
ATOM     58  N   UNL A   1      43.639  28.134  32.694  1.00  0.00    -0.354 N 
ATOM     59  N   UNL A   1      43.689  26.143  30.543  1.00  0.00    -0.248 NA
ATOM     60  C   UNL A   1      44.725  24.354  29.458  1.00  0.00     0.031 C 
ATOM     61  C   UNL A   1      45.268  28.095  34.206  1.00  0.00     0.029 A 
ATOM     62  C   UNL A   1      44.791  27.462  33.069  1.00  0.00     0.049 A 
ATOM     63  H   UNL A   1      43.086  27.915  31.910  1.00  0.00     0.167 HD
ATOM     64  C   UNL A   1      44.828  25.779  31.249  1.00  0.00     0.074 A 
ATOM     65  C   UNL A   1      45.410  24.651  30.553  1.00  0.00     0.031 C 
ATOM     66  C   UNL A   1      45.345  26.328  32.376  1.00  0.00     0.037 A 
BRANCH  53  67
ATOM     67  C   UNL A   1      42.135  31.150  34.524  1.00  0.00     0.057 A 
ATOM     68  C   UNL A   1      41.389  30.974  35.697  1.00  0.00     0.134 A 
ATOM     69  C   UNL A   1      42.789  32.377  34.353  1.00  0.00     0.134 A 
ATOM     70  F   UNL A   1      40.727  29.827  35.915  1.00  0.00    -0.206 F 
ATOM     71  C   UNL A   1      41.274  31.987  36.649  1.00  0.00     0.040 A 
ATOM     72  C   UNL A   1      42.706  33.388  35.312  1.00  0.00     0.040 A 
ATOM     73  F   UNL A   1      43.527  32.610  33.258  1.00  0.00    -0.206 F 
ATOM     74  C   UNL A   1      41.940  33.197  36.461  1.00  0.00     0.006 A 
ENDBRANCH  53  67
BRANCH  54  75
ATOM     75  C   UNL A   1      42.665  24.184  27.395  1.00  0.00     0.057 A 
ATOM     76  C   UNL A   1      42.244  22.870  27.626  1.00  0.00     0.134 A 
ATOM     77  C   UNL A   1      43.201  24.477  26.135  1.00  0.00     0.134 A 
ATOM     78  F   UNL A   1      41.739  22.524  28.821  1.00  0.00    -0.206 F 
ATOM     79  C   UNL A   1      42.372  21.877  26.654  1.00  0.00     0.040 A 
ATOM     80  C   UNL A   1      43.313  23.501  25.145  1.00  0.00     0.040 A 
ATOM     81  F   UNL A   1      43.616  25.720  25.848  1.00  0.00    -0.206 F 
ATOM     82  C   UNL A   1      42.905  22.194  25.406  1.00  0.00     0.006 A 
ENDBRANCH  54  75
BRANCH  66  83
ATOM     83  C   UNL A   1      46.568  25.683  32.956  1.00  0.00     0.057 A 
ATOM     84  C   UNL A   1      46.489  24.718  33.967  1.00  0.00     0.134 A 
ATOM     85  C   UNL A   1      47.840  26.006  32.467  1.00  0.00     0.134 A 
ATOM     86  F   UNL A   1      45.302  24.373  34.488  1.00  0.00    -0.206 F 
ATOM     87  C   UNL A   1      47.635  24.112  34.488  1.00  0.00     0.040 A 
ATOM     88  C   UNL A   1      48.990  25.390  32.960  1.00  0.00     0.040 A 
ATOM     89  F   UNL A   1      47.984  26.917  31.492  1.00  0.00    -0.206 F 
ATOM     90  C   UNL A   1      48.890  24.445  33.978  1.00  0.00     0.006 A 
ENDBRANCH  66  83
ENDBRANCH  40  41
ENDBRANCH  32  35
ENDBRANCH  30  31
ENDBRANCH  29  30
ENDBRANCH  28  29
ENDBRANCH   1  28
TORSDOF 17
ENDMDL
