MODEL 1
REMARK VINA RESULT:     -13.0      0.000      0.000
REMARK SMILES COc1ccc(-c2[nH]nc3nc(-c4ccc(C(F)(F)F)cc4)cc(C(=O)NCCCCCCNC(=O)c4ccc(-c5c6nc(c(-c7c(F)cccc7F)c7ccc([nH]7)c(-c7c(F)cccc7F)c7nc(c(-c8c(F)cccc8F)c8ccc5[nH]8)C=C7)C=C6)cc4)c23)cc1
REMARK SMILES IDX 30 1 29 2 28 3 27 4 25 5 26 6 24 8 7 9 8 10 91 11 9 12 10 14
REMARK SMILES IDX 11 15 23 16 12 17 6 18 3 19 4 20 93 21 5 22 92 23 2 24 1 25
REMARK SMILES IDX 13 26 14 27 22 28 15 29 21 30 16 31 17 32 18 33 19 34 20 35
REMARK SMILES IDX 31 36 32 37 33 38 34 39 35 40 36 42 37 43 38 44 90 45 39 46
REMARK SMILES IDX 89 47 40 48 41 49 42 50 83 51 43 52 88 53 82 54 84 55 44 56
REMARK SMILES IDX 87 57 81 58 80 59 45 61 71 62 54 63 70 64 55 65 58 66 69 67
REMARK SMILES IDX 85 68 56 69 57 70 68 72 86 73 59 74 46 75 47 76 52 77 48 78
REMARK SMILES IDX 49 79 51 80 53 81 50 82 72 83 73 84 78 85 74 86 75 87 77 88
REMARK SMILES IDX 79 89 76 90 60 91 61 92 66 93 62 94 63 95 65 96 67 97 64 98
REMARK H PARENT 27 7 8 13 34 41 84 60 58 71
REMARK Flexibility Score: inf
ROOT
ATOM      1  C   UNL A   1      37.955  21.567  25.609  1.00  0.00     0.002 C 
ENDROOT
BRANCH   1   2
ATOM      2  C   UNL A   1      36.769  22.539  25.678  1.00  0.00     0.021 C 
BRANCH   2   3
ATOM      3  C   UNL A   1      36.754  23.533  24.520  1.00  0.00     0.116 C 
BRANCH   3   4
ATOM      4  N   UNL A   1      35.648  23.285  23.624  1.00  0.00    -0.352 N 
ATOM      5  C   UNL A   1      34.309  23.562  23.604  1.00  0.00     0.252 C 
ATOM      6  O   UNL A   1      33.802  23.434  22.495  1.00  0.00    -0.269 OA
ATOM      7  H   UNL A   1      35.930  22.789  22.822  1.00  0.00     0.163 HD
BRANCH   5   8
ATOM      8  C   UNL A   1      33.513  24.051  24.754  1.00  0.00     0.055 A 
ATOM      9  C   UNL A   1      32.055  22.049  25.337  1.00  0.00     0.075 A 
ATOM     10  N   UNL A   1      30.980  21.969  26.192  1.00  0.00    -0.275 N 
ATOM     11  C   UNL A   1      32.461  23.375  25.408  1.00  0.00     0.059 A 
ATOM     12  N   UNL A   1      30.666  23.106  26.827  1.00  0.00    -0.154 NA
ATOM     13  H   UNL A   1      30.475  21.134  26.327  1.00  0.00     0.190 HD
ATOM     14  C   UNL A   1      31.564  23.977  26.373  1.00  0.00     0.182 A 
ATOM     15  N   UNL A   1      31.641  25.282  26.744  1.00  0.00    -0.226 NA
ATOM     16  C   UNL A   1      33.633  25.332  25.300  1.00  0.00     0.043 A 
ATOM     17  C   UNL A   1      32.688  25.922  26.175  1.00  0.00     0.074 A 
BRANCH   9  18
ATOM     18  C   UNL A   1      32.512  20.852  24.635  1.00  0.00     0.001 A 
ATOM     19  C   UNL A   1      33.277  18.453  23.380  1.00  0.00     0.118 A 
ATOM     20  C   UNL A   1      33.798  18.795  24.627  1.00  0.00     0.047 A 
ATOM     21  C   UNL A   1      32.382  19.317  22.749  1.00  0.00     0.047 A 
ATOM     22  C   UNL A   1      33.428  19.991  25.249  1.00  0.00     0.014 A 
ATOM     23  C   UNL A   1      32.015  20.520  23.367  1.00  0.00     0.014 A 
BRANCH  19  24
ATOM     24  O   UNL A   1      33.661  17.228  22.907  1.00  0.00    -0.497 OA
ATOM     25  C   UNL A   1      33.793  16.204  23.886  1.00  0.00     0.278 C 
ENDBRANCH  19  24
ENDBRANCH   9  18
BRANCH  17  26
ATOM     26  C   UNL A   1      32.816  27.371  26.421  1.00  0.00     0.000 A 
ATOM     27  C   UNL A   1      31.807  28.104  27.055  1.00  0.00     0.011 A 
ATOM     28  C   UNL A   1      34.026  28.030  26.121  1.00  0.00     0.011 A 
ATOM     29  C   UNL A   1      32.023  29.439  27.427  1.00  0.00     0.014 A 
ATOM     30  C   UNL A   1      34.242  29.361  26.487  1.00  0.00     0.014 A 
ATOM     31  C   UNL A   1      33.247  30.075  27.161  1.00  0.00     0.056 A 
BRANCH  31  32
ATOM     32  C   UNL A   1      33.478  31.501  27.604  1.00  0.00     0.416 C 
ATOM     33  F   UNL A   1      33.612  31.617  28.953  1.00  0.00    -0.166 F 
ATOM     34  F   UNL A   1      34.613  32.030  27.067  1.00  0.00    -0.166 F 
ATOM     35  F   UNL A   1      32.473  32.351  27.251  1.00  0.00    -0.166 F 
ENDBRANCH  31  32
ENDBRANCH  17  26
ENDBRANCH   5   8
ENDBRANCH   3   4
ENDBRANCH   2   3
ENDBRANCH   1   2
BRANCH   1  36
ATOM     36  C   UNL A   1      37.655  20.216  24.936  1.00  0.00     0.002 C 
BRANCH  36  37
ATOM     37  C   UNL A   1      38.647  19.082  25.243  1.00  0.00     0.021 C 
BRANCH  37  38
ATOM     38  C   UNL A   1      39.775  19.523  26.157  1.00  0.00     0.116 C 
BRANCH  38  39
ATOM     39  N   UNL A   1      41.056  18.988  25.715  1.00  0.00    -0.352 N 
ATOM     40  C   UNL A   1      42.258  19.645  25.582  1.00  0.00     0.251 C 
ATOM     41  H   UNL A   1      41.062  18.032  25.479  1.00  0.00     0.163 HD
ATOM     42  O   UNL A   1      43.149  19.190  24.883  1.00  0.00    -0.269 OA
BRANCH  40  43
ATOM     43  C   UNL A   1      42.453  20.910  26.308  1.00  0.00     0.039 A 
ATOM     44  C   UNL A   1      42.751  22.085  25.615  1.00  0.00     0.014 A 
ATOM     45  C   UNL A   1      42.339  20.906  27.699  1.00  0.00     0.014 A 
ATOM     46  C   UNL A   1      42.878  23.270  26.330  1.00  0.00     0.010 A 
ATOM     47  C   UNL A   1      42.326  22.092  28.386  1.00  0.00     0.010 A 
ATOM     48  C   UNL A   1      42.650  23.265  27.715  1.00  0.00    -0.014 A 
BRANCH  48  49
ATOM     49  C   UNL A   1      42.619  24.514  28.461  1.00  0.00     0.031 A 
ATOM     50  C   UNL A   1      41.361  25.292  28.290  1.00  0.00     0.074 A 
ATOM     51  C   UNL A   1      43.541  24.824  29.396  1.00  0.00     0.049 A 
ATOM     52  N   UNL A   1      41.227  26.455  27.747  1.00  0.00    -0.248 NA
ATOM     53  C   UNL A   1      40.081  24.642  28.620  1.00  0.00     0.031 C 
ATOM     54  C   UNL A   1      44.656  24.007  29.887  1.00  0.00     0.029 A 
ATOM     55  N   UNL A   1      43.603  25.917  30.200  1.00  0.00    -0.354 N 
ATOM     56  C   UNL A   1      39.877  26.781  27.857  1.00  0.00     0.074 A 
ATOM     57  C   UNL A   1      39.201  25.566  28.227  1.00  0.00     0.031 C 
ATOM     58  C   UNL A   1      45.113  24.517  31.052  1.00  0.00     0.029 A 
ATOM     59  C   UNL A   1      44.438  25.775  31.304  1.00  0.00     0.049 A 
ATOM     60  H   UNL A   1      43.097  26.742  30.017  1.00  0.00     0.167 HD
ATOM     61  C   UNL A   1      39.474  28.082  27.869  1.00  0.00     0.037 A 
ATOM     62  C   UNL A   1      44.508  26.618  32.366  1.00  0.00     0.037 A 
ATOM     63  C   UNL A   1      40.515  28.944  27.362  1.00  0.00     0.049 A 
ATOM     64  C   UNL A   1      43.932  27.920  31.931  1.00  0.00     0.074 A 
ATOM     65  C   UNL A   1      41.221  29.008  26.174  1.00  0.00     0.029 A 
ATOM     66  N   UNL A   1      41.255  29.663  28.271  1.00  0.00    -0.354 N 
ATOM     67  N   UNL A   1      44.495  28.693  31.042  1.00  0.00    -0.248 NA
ATOM     68  C   UNL A   1      42.498  28.104  32.102  1.00  0.00     0.031 C 
ATOM     69  C   UNL A   1      42.563  29.288  26.566  1.00  0.00     0.029 A 
ATOM     70  C   UNL A   1      42.575  29.477  27.948  1.00  0.00     0.049 A 
ATOM     71  H   UNL A   1      40.904  30.206  29.012  1.00  0.00     0.167 HD
ATOM     72  C   UNL A   1      43.448  29.129  30.243  1.00  0.00     0.074 A 
ATOM     73  C   UNL A   1      42.233  28.785  30.982  1.00  0.00     0.031 C 
ATOM     74  C   UNL A   1      43.637  29.446  28.926  1.00  0.00     0.037 A 
BRANCH  61  75
ATOM     75  C   UNL A   1      38.326  28.620  28.693  1.00  0.00     0.057 A 
ATOM     76  C   UNL A   1      37.508  29.626  28.142  1.00  0.00     0.134 A 
ATOM     77  C   UNL A   1      38.177  28.430  30.083  1.00  0.00     0.134 A 
ATOM     78  F   UNL A   1      37.546  29.904  26.830  1.00  0.00    -0.206 F 
ATOM     79  C   UNL A   1      36.693  30.448  28.928  1.00  0.00     0.040 A 
ATOM     80  C   UNL A   1      37.328  29.213  30.868  1.00  0.00     0.040 A 
ATOM     81  F   UNL A   1      38.911  27.553  30.775  1.00  0.00    -0.206 F 
ATOM     82  C   UNL A   1      36.611  30.252  30.300  1.00  0.00     0.006 A 
ENDBRANCH  61  75
BRANCH  62  83
ATOM     83  C   UNL A   1      44.730  26.278  33.794  1.00  0.00     0.057 A 
ATOM     84  C   UNL A   1      43.664  25.910  34.629  1.00  0.00     0.134 A 
ATOM     85  C   UNL A   1      46.018  26.044  34.309  1.00  0.00     0.134 A 
ATOM     86  F   UNL A   1      42.397  26.050  34.216  1.00  0.00    -0.206 F 
ATOM     87  C   UNL A   1      43.867  25.326  35.889  1.00  0.00     0.040 A 
ATOM     88  C   UNL A   1      46.234  25.469  35.566  1.00  0.00     0.040 A 
ATOM     89  F   UNL A   1      47.114  26.283  33.575  1.00  0.00    -0.206 F 
ATOM     90  C   UNL A   1      45.157  25.094  36.356  1.00  0.00     0.006 A 
ENDBRANCH  62  83
BRANCH  74  91
ATOM     91  C   UNL A   1      45.041  29.532  28.392  1.00  0.00     0.057 A 
ATOM     92  C   UNL A   1      45.757  28.449  27.860  1.00  0.00     0.134 A 
ATOM     93  C   UNL A   1      45.615  30.800  28.235  1.00  0.00     0.134 A 
ATOM     94  F   UNL A   1      45.250  27.210  27.865  1.00  0.00    -0.206 F 
ATOM     95  C   UNL A   1      46.997  28.616  27.234  1.00  0.00     0.040 A 
ATOM     96  C   UNL A   1      46.834  30.986  27.581  1.00  0.00     0.040 A 
ATOM     97  F   UNL A   1      44.965  31.893  28.667  1.00  0.00    -0.206 F 
ATOM     98  C   UNL A   1      47.535  29.891  27.085  1.00  0.00     0.006 A 
ENDBRANCH  74  91
ENDBRANCH  48  49
ENDBRANCH  40  43
ENDBRANCH  38  39
ENDBRANCH  37  38
ENDBRANCH  36  37
ENDBRANCH   1  36
TORSDOF 17
ENDMDL
MODEL 2
REMARK VINA RESULT:     -12.8      2.964      7.074
REMARK SMILES COc1ccc(-c2[nH]nc3nc(-c4ccc(C(F)(F)F)cc4)cc(C(=O)NCCCCCCNC(=O)c4ccc(-c5c6nc(c(-c7c(F)cccc7F)c7ccc([nH]7)c(-c7c(F)cccc7F)c7nc(c(-c8c(F)cccc8F)c8ccc5[nH]8)C=C7)C=C6)cc4)c23)cc1
REMARK SMILES IDX 30 1 29 2 28 3 27 4 25 5 26 6 24 8 7 9 8 10 91 11 9 12 10 14
REMARK SMILES IDX 11 15 23 16 12 17 6 18 3 19 4 20 93 21 5 22 92 23 2 24 1 25
REMARK SMILES IDX 13 26 14 27 22 28 15 29 21 30 16 31 17 32 18 33 19 34 20 35
REMARK SMILES IDX 31 36 32 37 33 38 34 39 35 40 36 42 37 43 38 44 90 45 39 46
REMARK SMILES IDX 89 47 40 48 41 49 42 50 83 51 43 52 88 53 82 54 84 55 44 56
REMARK SMILES IDX 87 57 81 58 80 59 45 61 71 62 54 63 70 64 55 65 58 66 69 67
REMARK SMILES IDX 85 68 56 69 57 70 68 72 86 73 59 74 46 75 47 76 52 77 48 78
REMARK SMILES IDX 49 79 51 80 53 81 50 82 72 83 73 84 78 85 74 86 75 87 77 88
REMARK SMILES IDX 79 89 76 90 60 91 61 92 66 93 62 94 63 95 65 96 67 97 64 98
REMARK H PARENT 27 7 8 13 34 41 84 60 58 71
REMARK Flexibility Score: inf
ROOT
ATOM      1  C   UNL A   1      33.220  26.577  26.373  1.00  0.00     0.002 C 
ENDROOT
BRANCH   1   2
ATOM      2  C   UNL A   1      33.651  25.216  25.812  1.00  0.00     0.021 C 
BRANCH   2   3
ATOM      3  C   UNL A   1      33.397  24.069  26.786  1.00  0.00     0.116 C 
BRANCH   3   4
ATOM      4  N   UNL A   1      32.053  23.554  26.658  1.00  0.00    -0.352 N 
ATOM      5  C   UNL A   1      31.089  23.534  25.691  1.00  0.00     0.252 C 
ATOM      6  O   UNL A   1      30.203  22.712  25.903  1.00  0.00    -0.269 OA
ATOM      7  H   UNL A   1      31.756  23.101  27.481  1.00  0.00     0.163 HD
BRANCH   5   8
ATOM      8  C   UNL A   1      31.098  24.338  24.447  1.00  0.00     0.055 A 
ATOM      9  C   UNL A   1      32.658  23.027  22.925  1.00  0.00     0.075 A 
ATOM     10  N   UNL A   1      33.204  23.384  21.713  1.00  0.00    -0.275 N 
ATOM     11  C   UNL A   1      31.890  24.121  23.300  1.00  0.00     0.059 A 
ATOM     12  N   UNL A   1      32.845  24.592  21.257  1.00  0.00    -0.154 NA
ATOM     13  H   UNL A   1      33.816  22.794  21.216  1.00  0.00     0.190 HD
ATOM     14  C   UNL A   1      32.033  25.056  22.203  1.00  0.00     0.182 A 
ATOM     15  N   UNL A   1      31.414  26.266  22.174  1.00  0.00    -0.226 NA
ATOM     16  C   UNL A   1      30.370  25.519  24.274  1.00  0.00     0.043 A 
ATOM     17  C   UNL A   1      30.598  26.456  23.236  1.00  0.00     0.074 A 
BRANCH   9  18
ATOM     18  C   UNL A   1      32.944  21.709  23.486  1.00  0.00     0.001 A 
ATOM     19  C   UNL A   1      33.582  19.131  24.418  1.00  0.00     0.118 A 
ATOM     20  C   UNL A   1      32.504  19.324  23.554  1.00  0.00     0.047 A 
ATOM     21  C   UNL A   1      34.336  20.230  24.830  1.00  0.00     0.047 A 
ATOM     22  C   UNL A   1      32.179  20.604  23.098  1.00  0.00     0.014 A 
ATOM     23  C   UNL A   1      34.007  21.516  24.380  1.00  0.00     0.014 A 
BRANCH  19  24
ATOM     24  O   UNL A   1      33.842  17.827  24.739  1.00  0.00    -0.497 OA
ATOM     25  C   UNL A   1      32.918  17.216  25.629  1.00  0.00     0.278 C 
ENDBRANCH  19  24
ENDBRANCH   9  18
BRANCH  17  26
ATOM     26  C   UNL A   1      29.949  27.774  23.368  1.00  0.00     0.000 A 
ATOM     27  C   UNL A   1      30.685  28.940  23.606  1.00  0.00     0.011 A 
ATOM     28  C   UNL A   1      28.563  27.901  23.138  1.00  0.00     0.011 A 
ATOM     29  C   UNL A   1      30.065  30.196  23.559  1.00  0.00     0.014 A 
ATOM     30  C   UNL A   1      27.942  29.151  23.094  1.00  0.00     0.014 A 
ATOM     31  C   UNL A   1      28.692  30.316  23.288  1.00  0.00     0.056 A 
BRANCH  31  32
ATOM     32  C   UNL A   1      28.047  31.679  23.200  1.00  0.00     0.416 C 
ATOM     33  F   UNL A   1      27.692  32.013  21.930  1.00  0.00    -0.166 F 
ATOM     34  F   UNL A   1      26.907  31.759  23.942  1.00  0.00    -0.166 F 
ATOM     35  F   UNL A   1      28.847  32.689  23.645  1.00  0.00    -0.166 F 
ENDBRANCH  31  32
ENDBRANCH  17  26
ENDBRANCH   5   8
ENDBRANCH   3   4
ENDBRANCH   2   3
ENDBRANCH   1   2
BRANCH   1  36
ATOM     36  C   UNL A   1      33.690  27.798  25.562  1.00  0.00     0.002 C 
BRANCH  36  37
ATOM     37  C   UNL A   1      34.068  29.041  26.385  1.00  0.00     0.021 C 
BRANCH  37  38
ATOM     38  C   UNL A   1      35.319  28.834  27.217  1.00  0.00     0.116 C 
BRANCH  38  39
ATOM     39  N   UNL A   1      35.324  29.696  28.391  1.00  0.00    -0.352 N 
ATOM     40  C   UNL A   1      36.270  29.781  29.387  1.00  0.00     0.251 C 
ATOM     41  H   UNL A   1      34.549  30.297  28.485  1.00  0.00     0.163 HD
ATOM     42  O   UNL A   1      35.999  30.270  30.472  1.00  0.00    -0.269 OA
BRANCH  40  43
ATOM     43  C   UNL A   1      37.625  29.274  29.117  1.00  0.00     0.039 A 
ATOM     44  C   UNL A   1      38.362  29.767  28.037  1.00  0.00     0.014 A 
ATOM     45  C   UNL A   1      38.151  28.292  29.956  1.00  0.00     0.014 A 
ATOM     46  C   UNL A   1      39.656  29.301  27.842  1.00  0.00     0.010 A 
ATOM     47  C   UNL A   1      39.470  27.937  29.848  1.00  0.00     0.010 A 
ATOM     48  C   UNL A   1      40.207  28.395  28.763  1.00  0.00    -0.014 A 
BRANCH  48  49
ATOM     49  C   UNL A   1      41.609  28.016  28.674  1.00  0.00     0.031 A 
ATOM     50  C   UNL A   1      41.853  26.778  27.884  1.00  0.00     0.074 A 
ATOM     51  C   UNL A   1      42.608  28.832  29.071  1.00  0.00     0.049 A 
ATOM     52  N   UNL A   1      42.327  25.656  28.313  1.00  0.00    -0.248 NA
ATOM     53  C   UNL A   1      41.375  26.724  26.492  1.00  0.00     0.031 C 
ATOM     54  C   UNL A   1      42.521  30.206  29.575  1.00  0.00     0.029 A 
ATOM     55  N   UNL A   1      43.950  28.632  28.994  1.00  0.00    -0.354 N 
ATOM     56  C   UNL A   1      42.409  24.820  27.201  1.00  0.00     0.074 A 
ATOM     57  C   UNL A   1      41.645  25.459  26.164  1.00  0.00     0.031 C 
ATOM     58  C   UNL A   1      43.739  30.788  29.517  1.00  0.00     0.029 A 
ATOM     59  C   UNL A   1      44.713  29.788  29.127  1.00  0.00     0.049 A 
ATOM     60  H   UNL A   1      44.349  27.743  28.854  1.00  0.00     0.167 HD
ATOM     61  C   UNL A   1      43.304  23.793  27.168  1.00  0.00     0.037 A 
ATOM     62  C   UNL A   1      46.042  29.901  28.873  1.00  0.00     0.037 A 
ATOM     63  C   UNL A   1      43.780  23.488  28.495  1.00  0.00     0.049 A 
ATOM     64  C   UNL A   1      46.614  28.527  28.910  1.00  0.00     0.074 A 
ATOM     65  C   UNL A   1      43.167  23.123  29.680  1.00  0.00     0.029 A 
ATOM     66  N   UNL A   1      45.032  23.934  28.849  1.00  0.00    -0.354 N 
ATOM     67  N   UNL A   1      46.693  27.812  29.999  1.00  0.00    -0.248 NA
ATOM     68  C   UNL A   1      46.616  27.773  27.664  1.00  0.00     0.031 C 
ATOM     69  C   UNL A   1      43.859  23.860  30.686  1.00  0.00     0.029 A 
ATOM     70  C   UNL A   1      44.908  24.543  30.071  1.00  0.00     0.049 A 
ATOM     71  H   UNL A   1      45.858  23.836  28.324  1.00  0.00     0.167 HD
ATOM     72  C   UNL A   1      46.309  26.537  29.610  1.00  0.00     0.074 A 
ATOM     73  C   UNL A   1      46.336  26.559  28.147  1.00  0.00     0.031 C 
ATOM     74  C   UNL A   1      45.709  25.672  30.483  1.00  0.00     0.037 A 
BRANCH  61  75
ATOM     75  C   UNL A   1      44.045  23.338  25.931  1.00  0.00     0.057 A 
ATOM     76  C   UNL A   1      44.109  21.960  25.647  1.00  0.00     0.134 A 
ATOM     77  C   UNL A   1      44.942  24.138  25.193  1.00  0.00     0.134 A 
ATOM     78  F   UNL A   1      43.305  21.088  26.275  1.00  0.00    -0.206 F 
ATOM     79  C   UNL A   1      45.065  21.413  24.783  1.00  0.00     0.040 A 
ATOM     80  C   UNL A   1      45.866  23.605  24.289  1.00  0.00     0.040 A 
ATOM     81  F   UNL A   1      45.049  25.458  25.371  1.00  0.00    -0.206 F 
ATOM     82  C   UNL A   1      45.957  22.236  24.110  1.00  0.00     0.006 A 
ENDBRANCH  61  75
BRANCH  62  83
ATOM     83  C   UNL A   1      46.769  31.055  28.286  1.00  0.00     0.057 A 
ATOM     84  C   UNL A   1      46.459  31.535  27.004  1.00  0.00     0.134 A 
ATOM     85  C   UNL A   1      47.597  31.883  29.065  1.00  0.00     0.134 A 
ATOM     86  F   UNL A   1      45.641  30.844  26.198  1.00  0.00    -0.206 F 
ATOM     87  C   UNL A   1      46.926  32.773  26.536  1.00  0.00     0.040 A 
ATOM     88  C   UNL A   1      48.076  33.116  28.607  1.00  0.00     0.040 A 
ATOM     89  F   UNL A   1      47.901  31.569  30.333  1.00  0.00    -0.206 F 
ATOM     90  C   UNL A   1      47.729  33.572  27.343  1.00  0.00     0.006 A 
ENDBRANCH  62  83
BRANCH  74  91
ATOM     91  C   UNL A   1      45.660  26.029  31.944  1.00  0.00     0.057 A 
ATOM     92  C   UNL A   1      44.549  26.594  32.588  1.00  0.00     0.134 A 
ATOM     93  C   UNL A   1      46.712  25.606  32.766  1.00  0.00     0.134 A 
ATOM     94  F   UNL A   1      43.449  26.937  31.905  1.00  0.00    -0.206 F 
ATOM     95  C   UNL A   1      44.502  26.761  33.976  1.00  0.00     0.040 A 
ATOM     96  C   UNL A   1      46.663  25.732  34.156  1.00  0.00     0.040 A 
ATOM     97  F   UNL A   1      47.786  25.004  32.231  1.00  0.00    -0.206 F 
ATOM     98  C   UNL A   1      45.559  26.319  34.766  1.00  0.00     0.006 A 
ENDBRANCH  74  91
ENDBRANCH  48  49
ENDBRANCH  40  43
ENDBRANCH  38  39
ENDBRANCH  37  38
ENDBRANCH  36  37
ENDBRANCH   1  36
TORSDOF 17
ENDMDL
MODEL 3
REMARK VINA RESULT:     -12.7      2.998      6.907
REMARK SMILES COc1ccc(-c2[nH]nc3nc(-c4ccc(C(F)(F)F)cc4)cc(C(=O)NCCCCCCNC(=O)c4ccc(-c5c6nc(c(-c7c(F)cccc7F)c7ccc([nH]7)c(-c7c(F)cccc7F)c7nc(c(-c8c(F)cccc8F)c8ccc5[nH]8)C=C7)C=C6)cc4)c23)cc1
REMARK SMILES IDX 30 1 29 2 28 3 27 4 25 5 26 6 24 8 7 9 8 10 91 11 9 12 10 14
REMARK SMILES IDX 11 15 23 16 12 17 6 18 3 19 4 20 93 21 5 22 92 23 2 24 1 25
REMARK SMILES IDX 13 26 14 27 22 28 15 29 21 30 16 31 17 32 18 33 19 34 20 35
REMARK SMILES IDX 31 36 32 37 33 38 34 39 35 40 36 42 37 43 38 44 90 45 39 46
REMARK SMILES IDX 89 47 40 48 41 49 42 50 83 51 43 52 88 53 82 54 84 55 44 56
REMARK SMILES IDX 87 57 81 58 80 59 45 61 71 62 54 63 70 64 55 65 58 66 69 67
REMARK SMILES IDX 85 68 56 69 57 70 68 72 86 73 59 74 46 75 47 76 52 77 48 78
REMARK SMILES IDX 49 79 51 80 53 81 50 82 72 83 73 84 78 85 74 86 75 87 77 88
REMARK SMILES IDX 79 89 76 90 60 91 61 92 66 93 62 94 63 95 65 96 67 97 64 98
REMARK H PARENT 27 7 8 13 34 41 84 60 58 71
REMARK Flexibility Score: inf
ROOT
ATOM      1  C   UNL A   1      33.227  26.650  26.335  1.00  0.00     0.002 C 
ENDROOT
BRANCH   1   2
ATOM      2  C   UNL A   1      33.693  25.302  25.771  1.00  0.00     0.021 C 
BRANCH   2   3
ATOM      3  C   UNL A   1      33.477  24.149  26.747  1.00  0.00     0.116 C 
BRANCH   3   4
ATOM      4  N   UNL A   1      32.136  23.619  26.652  1.00  0.00    -0.352 N 
ATOM      5  C   UNL A   1      31.153  23.577  25.703  1.00  0.00     0.252 C 
ATOM      6  O   UNL A   1      30.279  22.750  25.942  1.00  0.00    -0.269 OA
ATOM      7  H   UNL A   1      31.858  23.174  27.485  1.00  0.00     0.163 HD
BRANCH   5   8
ATOM      8  C   UNL A   1      31.131  24.366  24.449  1.00  0.00     0.055 A 
ATOM      9  C   UNL A   1      32.682  23.055  22.917  1.00  0.00     0.075 A 
ATOM     10  N   UNL A   1      33.202  23.403  21.691  1.00  0.00    -0.275 N 
ATOM     11  C   UNL A   1      31.906  24.144  23.291  1.00  0.00     0.059 A 
ATOM     12  N   UNL A   1      32.820  24.600  21.226  1.00  0.00    -0.154 NA
ATOM     13  H   UNL A   1      33.813  22.814  21.192  1.00  0.00     0.190 HD
ATOM     14  C   UNL A   1      32.019  25.067  22.181  1.00  0.00     0.182 A 
ATOM     15  N   UNL A   1      31.384  26.268  22.147  1.00  0.00    -0.226 NA
ATOM     16  C   UNL A   1      30.386  25.536  24.273  1.00  0.00     0.043 A 
ATOM     17  C   UNL A   1      30.584  26.462  23.220  1.00  0.00     0.074 A 
BRANCH   9  18
ATOM     18  C   UNL A   1      32.994  21.748  23.490  1.00  0.00     0.001 A 
ATOM     19  C   UNL A   1      33.672  19.187  24.440  1.00  0.00     0.118 A 
ATOM     20  C   UNL A   1      32.541  19.369  23.644  1.00  0.00     0.047 A 
ATOM     21  C   UNL A   1      34.459  20.288  24.776  1.00  0.00     0.047 A 
ATOM     22  C   UNL A   1      32.196  20.641  23.178  1.00  0.00     0.014 A 
ATOM     23  C   UNL A   1      34.111  21.566  24.317  1.00  0.00     0.014 A 
BRANCH  19  24
ATOM     24  O   UNL A   1      33.943  17.889  24.774  1.00  0.00    -0.497 OA
ATOM     25  C   UNL A   1      32.831  17.123  25.219  1.00  0.00     0.278 C 
ENDBRANCH  19  24
ENDBRANCH   9  18
BRANCH  17  26
ATOM     26  C   UNL A   1      29.921  27.774  23.347  1.00  0.00     0.000 A 
ATOM     27  C   UNL A   1      30.646  28.951  23.555  1.00  0.00     0.011 A 
ATOM     28  C   UNL A   1      28.530  27.880  23.141  1.00  0.00     0.011 A 
ATOM     29  C   UNL A   1      30.009  30.199  23.502  1.00  0.00     0.014 A 
ATOM     30  C   UNL A   1      27.891  29.121  23.092  1.00  0.00     0.014 A 
ATOM     31  C   UNL A   1      28.630  30.298  23.256  1.00  0.00     0.056 A 
BRANCH  31  32
ATOM     32  C   UNL A   1      27.966  31.651  23.162  1.00  0.00     0.416 C 
ATOM     33  F   UNL A   1      27.568  31.956  21.897  1.00  0.00    -0.166 F 
ATOM     34  F   UNL A   1      26.848  31.732  23.937  1.00  0.00    -0.166 F 
ATOM     35  F   UNL A   1      28.767  32.679  23.562  1.00  0.00    -0.166 F 
ENDBRANCH  31  32
ENDBRANCH  17  26
ENDBRANCH   5   8
ENDBRANCH   3   4
ENDBRANCH   2   3
ENDBRANCH   1   2
BRANCH   1  36
ATOM     36  C   UNL A   1      33.603  27.879  25.487  1.00  0.00     0.002 C 
BRANCH  36  37
ATOM     37  C   UNL A   1      33.375  29.246  26.154  1.00  0.00     0.021 C 
BRANCH  37  38
ATOM     38  C   UNL A   1      34.185  29.420  27.425  1.00  0.00     0.116 C 
BRANCH  38  39
ATOM     39  N   UNL A   1      34.124  30.793  27.908  1.00  0.00    -0.352 N 
ATOM     40  C   UNL A   1      34.918  31.404  28.852  1.00  0.00     0.251 C 
ATOM     41  H   UNL A   1      33.424  31.357  27.507  1.00  0.00     0.163 HD
ATOM     42  O   UNL A   1      34.554  32.424  29.415  1.00  0.00    -0.269 OA
BRANCH  40  43
ATOM     43  C   UNL A   1      36.225  30.806  29.167  1.00  0.00     0.039 A 
ATOM     44  C   UNL A   1      36.302  29.529  29.728  1.00  0.00     0.014 A 
ATOM     45  C   UNL A   1      37.379  31.542  28.898  1.00  0.00     0.014 A 
ATOM     46  C   UNL A   1      37.555  28.977  29.965  1.00  0.00     0.010 A 
ATOM     47  C   UNL A   1      38.609  30.946  29.001  1.00  0.00     0.010 A 
ATOM     48  C   UNL A   1      38.703  29.689  29.584  1.00  0.00    -0.014 A 
BRANCH  48  49
ATOM     49  C   UNL A   1      40.017  29.069  29.673  1.00  0.00     0.031 A 
ATOM     50  C   UNL A   1      40.540  28.953  31.062  1.00  0.00     0.074 A 
ATOM     51  C   UNL A   1      40.600  28.451  28.625  1.00  0.00     0.049 A 
ATOM     52  N   UNL A   1      41.581  29.533  31.558  1.00  0.00    -0.248 NA
ATOM     53  C   UNL A   1      39.732  28.232  32.061  1.00  0.00     0.031 C 
ATOM     54  C   UNL A   1      40.057  28.218  27.282  1.00  0.00     0.029 A 
ATOM     55  N   UNL A   1      41.785  27.788  28.580  1.00  0.00    -0.354 N 
ATOM     56  C   UNL A   1      41.684  29.084  32.874  1.00  0.00     0.074 A 
ATOM     57  C   UNL A   1      40.433  28.445  33.177  1.00  0.00     0.031 C 
ATOM     58  C   UNL A   1      40.788  27.270  26.656  1.00  0.00     0.029 A 
ATOM     59  C   UNL A   1      41.935  26.947  27.482  1.00  0.00     0.049 A 
ATOM     60  H   UNL A   1      42.481  27.893  29.270  1.00  0.00     0.167 HD
ATOM     61  C   UNL A   1      42.889  29.070  33.511  1.00  0.00     0.037 A 
ATOM     62  C   UNL A   1      42.911  26.018  27.314  1.00  0.00     0.037 A 
ATOM     63  C   UNL A   1      43.839  29.912  32.825  1.00  0.00     0.049 A 
ATOM     64  C   UNL A   1      44.027  26.385  28.229  1.00  0.00     0.074 A 
ATOM     65  C   UNL A   1      43.864  31.248  32.471  1.00  0.00     0.029 A 
ATOM     66  N   UNL A   1      44.788  29.303  32.038  1.00  0.00    -0.354 N 
ATOM     67  N   UNL A   1      44.760  27.454  28.075  1.00  0.00    -0.248 NA
ATOM     68  C   UNL A   1      43.985  25.844  29.580  1.00  0.00     0.031 C 
ATOM     69  C   UNL A   1      44.418  31.264  31.157  1.00  0.00     0.029 A 
ATOM     70  C   UNL A   1      44.788  29.958  30.833  1.00  0.00     0.049 A 
ATOM     71  H   UNL A   1      45.357  28.542  32.291  1.00  0.00     0.167 HD
ATOM     72  C   UNL A   1      44.901  27.970  29.356  1.00  0.00     0.074 A 
ATOM     73  C   UNL A   1      44.456  26.900  30.250  1.00  0.00     0.031 C 
ATOM     74  C   UNL A   1      45.068  29.309  29.574  1.00  0.00     0.037 A 
BRANCH  61  75
ATOM     75  C   UNL A   1      43.328  28.010  34.496  1.00  0.00     0.057 A 
ATOM     76  C   UNL A   1      43.762  28.411  35.775  1.00  0.00     0.134 A 
ATOM     77  C   UNL A   1      43.636  26.676  34.156  1.00  0.00     0.134 A 
ATOM     78  F   UNL A   1      43.528  29.652  36.225  1.00  0.00    -0.206 F 
ATOM     79  C   UNL A   1      44.537  27.586  36.600  1.00  0.00     0.040 A 
ATOM     80  C   UNL A   1      44.365  25.829  34.995  1.00  0.00     0.040 A 
ATOM     81  F   UNL A   1      43.342  26.147  32.964  1.00  0.00    -0.206 F 
ATOM     82  C   UNL A   1      44.853  26.294  36.204  1.00  0.00     0.006 A 
ENDBRANCH  61  75
BRANCH  62  83
ATOM     83  C   UNL A   1      42.807  24.683  26.675  1.00  0.00     0.057 A 
ATOM     84  C   UNL A   1      43.464  24.398  25.468  1.00  0.00     0.134 A 
ATOM     85  C   UNL A   1      42.284  23.571  27.362  1.00  0.00     0.134 A 
ATOM     86  F   UNL A   1      44.037  25.381  24.759  1.00  0.00    -0.206 F 
ATOM     87  C   UNL A   1      43.612  23.089  24.986  1.00  0.00     0.040 A 
ATOM     88  C   UNL A   1      42.418  22.261  26.889  1.00  0.00     0.040 A 
ATOM     89  F   UNL A   1      41.701  23.707  28.562  1.00  0.00    -0.206 F 
ATOM     90  C   UNL A   1      43.096  22.014  25.704  1.00  0.00     0.006 A 
ENDBRANCH  62  83
BRANCH  74  91
ATOM     91  C   UNL A   1      45.320  30.213  28.397  1.00  0.00     0.057 A 
ATOM     92  C   UNL A   1      44.313  30.838  27.645  1.00  0.00     0.134 A 
ATOM     93  C   UNL A   1      46.636  30.615  28.140  1.00  0.00     0.134 A 
ATOM     94  F   UNL A   1      43.018  30.601  27.883  1.00  0.00    -0.206 F 
ATOM     95  C   UNL A   1      44.606  31.790  26.663  1.00  0.00     0.040 A 
ATOM     96  C   UNL A   1      46.940  31.591  27.188  1.00  0.00     0.040 A 
ATOM     97  F   UNL A   1      47.650  30.106  28.857  1.00  0.00    -0.206 F 
ATOM     98  C   UNL A   1      45.924  32.176  26.439  1.00  0.00     0.006 A 
ENDBRANCH  74  91
ENDBRANCH  48  49
ENDBRANCH  40  43
ENDBRANCH  38  39
ENDBRANCH  37  38
ENDBRANCH  36  37
ENDBRANCH   1  36
TORSDOF 17
ENDMDL
