MODEL 1
REMARK VINA RESULT:     -12.2      0.000      0.000
REMARK SMILES Cc1c(CC(=O)NCCCCCCNC(=O)c2ccc(-c3c4nc(c(-c5c(F)cccc5F)c5ccc([nH]5)c(-c5c(F)cccc5F)c5nc(c(-c6c(F)cccc6F)c6ccc3[nH]6)C=C5)C=C4)cc2)cccc1-c1ccn(C(F)F)c(=O)c1
REMARK SMILES IDX 10 1 9 2 8 3 7 4 5 5 6 6 4 8 3 9 1 10 2 11 74 12 71 13 73 14
REMARK SMILES IDX 72 15 75 16 76 17 84 18 77 19 82 20 78 21 83 22 79 23 80 24
REMARK SMILES IDX 81 25 11 26 12 27 13 28 14 29 15 30 16 32 17 33 18 34 70 35
REMARK SMILES IDX 19 36 69 37 20 38 21 39 22 40 63 41 23 42 68 43 62 44 64 45
REMARK SMILES IDX 24 46 67 47 61 48 60 49 25 51 51 52 34 53 50 54 35 55 38 56
REMARK SMILES IDX 49 57 65 58 36 59 37 60 48 62 66 63 39 64 26 65 27 66 32 67
REMARK SMILES IDX 28 68 29 69 31 70 33 71 30 72 52 73 53 74 58 75 54 76 55 77
REMARK SMILES IDX 57 78 59 79 56 80 40 81 41 82 46 83 42 84 43 85 45 86 47 87
REMARK SMILES IDX 44 88
REMARK H PARENT 7 7 14 31 64 50 38 61
REMARK Flexibility Score: inf
ROOT
ATOM      1  C   UNL A   1      36.052  23.341  25.756  1.00  0.00     0.002 C 
ENDROOT
BRANCH   1   2
ATOM      2  C   UNL A   1      35.788  21.830  25.690  1.00  0.00     0.021 C 
BRANCH   2   3
ATOM      3  C   UNL A   1      34.591  21.346  26.510  1.00  0.00     0.116 C 
BRANCH   3   4
ATOM      4  N   UNL A   1      33.865  20.276  25.860  1.00  0.00    -0.356 N 
ATOM      5  C   UNL A   1      32.616  20.294  25.306  1.00  0.00     0.224 C 
ATOM      6  O   UNL A   1      32.200  19.262  24.775  1.00  0.00    -0.275 OA
ATOM      7  H   UNL A   1      34.337  19.414  25.808  1.00  0.00     0.163 HD
BRANCH   5   8
ATOM      8  C   UNL A   1      31.783  21.572  25.303  1.00  0.00     0.135 C 
BRANCH   8   9
ATOM      9  C   UNL A   1      32.434  22.741  24.585  1.00  0.00    -0.035 A 
ATOM     10  C   UNL A   1      32.045  24.314  26.550  1.00  0.00     0.045 C 
ATOM     11  C   UNL A   1      32.504  24.050  25.132  1.00  0.00    -0.040 A 
ATOM     12  C   UNL A   1      33.056  25.092  24.344  1.00  0.00    -0.015 A 
ATOM     13  C   UNL A   1      32.979  22.494  23.311  1.00  0.00     0.004 A 
ATOM     14  C   UNL A   1      33.577  24.811  23.070  1.00  0.00     0.009 A 
ATOM     15  C   UNL A   1      33.550  23.517  22.561  1.00  0.00     0.001 A 
BRANCH  12  16
ATOM     16  C   UNL A   1      33.041  26.506  24.785  1.00  0.00    -0.011 A 
ATOM     17  C   UNL A   1      33.976  27.059  25.744  1.00  0.00     0.027 A 
ATOM     18  C   UNL A   1      32.050  27.283  24.313  1.00  0.00     0.080 A 
ATOM     19  C   UNL A   1      33.804  28.299  26.217  1.00  0.00     0.095 A 
ATOM     20  C   UNL A   1      31.873  28.678  24.797  1.00  0.00     0.255 A 
ATOM     21  N   UNL A   1      32.762  29.093  25.774  1.00  0.00    -0.258 N 
ATOM     22  O   UNL A   1      30.951  29.342  24.333  1.00  0.00    -0.269 OA
BRANCH  21  23
ATOM     23  C   UNL A   1      32.562  30.412  26.318  1.00  0.00     0.451 C 
ATOM     24  F   UNL A   1      31.569  30.415  27.239  1.00  0.00    -0.185 F 
ATOM     25  F   UNL A   1      33.691  30.865  26.918  1.00  0.00    -0.185 F 
ENDBRANCH  21  23
ENDBRANCH  12  16
ENDBRANCH   8   9
ENDBRANCH   5   8
ENDBRANCH   3   4
ENDBRANCH   2   3
ENDBRANCH   1   2
BRANCH   1  26
ATOM     26  C   UNL A   1      37.525  23.785  25.732  1.00  0.00     0.002 C 
BRANCH  26  27
ATOM     27  C   UNL A   1      38.572  22.667  25.696  1.00  0.00     0.021 C 
BRANCH  27  28
ATOM     28  C   UNL A   1      39.506  22.645  26.899  1.00  0.00     0.116 C 
BRANCH  28  29
ATOM     29  N   UNL A   1      40.866  23.075  26.596  1.00  0.00    -0.352 N 
ATOM     30  C   UNL A   1      41.388  24.355  26.531  1.00  0.00     0.251 C 
ATOM     31  H   UNL A   1      41.504  22.350  26.410  1.00  0.00     0.163 HD
ATOM     32  O   UNL A   1      42.562  24.522  26.236  1.00  0.00    -0.269 OA
BRANCH  30  33
ATOM     33  C   UNL A   1      40.555  25.507  26.959  1.00  0.00     0.039 A 
ATOM     34  C   UNL A   1      40.713  26.711  26.263  1.00  0.00     0.014 A 
ATOM     35  C   UNL A   1      39.800  25.469  28.129  1.00  0.00     0.014 A 
ATOM     36  C   UNL A   1      40.343  27.906  26.873  1.00  0.00     0.010 A 
ATOM     37  C   UNL A   1      39.503  26.655  28.774  1.00  0.00     0.010 A 
ATOM     38  C   UNL A   1      39.846  27.871  28.176  1.00  0.00    -0.014 A 
BRANCH  38  39
ATOM     39  C   UNL A   1      39.816  29.053  29.028  1.00  0.00     0.031 A 
ATOM     40  C   UNL A   1      38.754  30.066  28.890  1.00  0.00     0.074 A 
ATOM     41  C   UNL A   1      40.777  29.213  29.965  1.00  0.00     0.049 A 
ATOM     42  N   UNL A   1      38.918  31.325  29.126  1.00  0.00    -0.248 NA
ATOM     43  C   UNL A   1      37.412  29.729  28.431  1.00  0.00     0.031 C 
ATOM     44  C   UNL A   1      40.819  30.204  31.034  1.00  0.00     0.029 A 
ATOM     45  N   UNL A   1      42.042  28.610  29.993  1.00  0.00    -0.354 N 
ATOM     46  C   UNL A   1      37.676  31.917  29.104  1.00  0.00     0.074 A 
ATOM     47  C   UNL A   1      36.782  30.895  28.605  1.00  0.00     0.031 C 
ATOM     48  C   UNL A   1      42.090  30.347  31.441  1.00  0.00     0.029 A 
ATOM     49  C   UNL A   1      42.924  29.558  30.548  1.00  0.00     0.049 A 
ATOM     50  H   UNL A   1      42.269  27.704  29.687  1.00  0.00     0.167 HD
ATOM     51  C   UNL A   1      37.503  33.160  29.641  1.00  0.00     0.037 A 
ATOM     52  C   UNL A   1      43.985  30.039  29.841  1.00  0.00     0.037 A 
ATOM     53  C   UNL A   1      38.751  33.688  30.183  1.00  0.00     0.049 A 
ATOM     54  C   UNL A   1      43.955  31.535  29.633  1.00  0.00     0.074 A 
ATOM     55  C   UNL A   1      39.279  33.668  31.464  1.00  0.00     0.029 A 
ATOM     56  N   UNL A   1      39.790  34.050  29.334  1.00  0.00    -0.354 N 
ATOM     57  N   UNL A   1      42.885  32.266  29.766  1.00  0.00    -0.248 NA
ATOM     58  C   UNL A   1      45.118  32.313  29.209  1.00  0.00     0.031 C 
ATOM     59  C   UNL A   1      40.657  33.967  31.379  1.00  0.00     0.029 A 
ATOM     60  C   UNL A   1      40.967  34.189  30.048  1.00  0.00     0.049 A 
ATOM     61  H   UNL A   1      39.702  34.191  28.364  1.00  0.00     0.167 HD
ATOM     62  C   UNL A   1      43.173  33.558  29.413  1.00  0.00     0.074 A 
ATOM     63  C   UNL A   1      44.589  33.544  29.099  1.00  0.00     0.031 C 
ATOM     64  C   UNL A   1      42.215  34.529  29.388  1.00  0.00     0.037 A 
BRANCH  51  65
ATOM     65  C   UNL A   1      36.139  33.723  29.973  1.00  0.00     0.057 A 
ATOM     66  C   UNL A   1      35.279  34.198  28.965  1.00  0.00     0.134 A 
ATOM     67  C   UNL A   1      35.644  33.877  31.279  1.00  0.00     0.134 A 
ATOM     68  F   UNL A   1      35.540  34.010  27.665  1.00  0.00    -0.206 F 
ATOM     69  C   UNL A   1      34.100  34.903  29.239  1.00  0.00     0.040 A 
ATOM     70  C   UNL A   1      34.494  34.625  31.572  1.00  0.00     0.040 A 
ATOM     71  F   UNL A   1      36.234  33.276  32.321  1.00  0.00    -0.206 F 
ATOM     72  C   UNL A   1      33.727  35.161  30.548  1.00  0.00     0.006 A 
ENDBRANCH  51  65
BRANCH  52  73
ATOM     73  C   UNL A   1      44.542  29.071  28.862  1.00  0.00     0.057 A 
ATOM     74  C   UNL A   1      45.396  28.054  29.321  1.00  0.00     0.134 A 
ATOM     75  C   UNL A   1      43.990  28.913  27.587  1.00  0.00     0.134 A 
ATOM     76  F   UNL A   1      45.960  28.146  30.537  1.00  0.00    -0.206 F 
ATOM     77  C   UNL A   1      45.609  26.883  28.591  1.00  0.00     0.040 A 
ATOM     78  C   UNL A   1      44.205  27.748  26.842  1.00  0.00     0.040 A 
ATOM     79  F   UNL A   1      43.151  29.832  27.087  1.00  0.00    -0.206 F 
ATOM     80  C   UNL A   1      44.985  26.714  27.359  1.00  0.00     0.006 A 
ENDBRANCH  52  73
BRANCH  64  81
ATOM     81  C   UNL A   1      42.400  35.912  28.829  1.00  0.00     0.057 A 
ATOM     82  C   UNL A   1      41.830  36.350  27.625  1.00  0.00     0.134 A 
ATOM     83  C   UNL A   1      43.062  36.905  29.583  1.00  0.00     0.134 A 
ATOM     84  F   UNL A   1      41.087  35.532  26.866  1.00  0.00    -0.206 F 
ATOM     85  C   UNL A   1      41.958  37.669  27.172  1.00  0.00     0.040 A 
ATOM     86  C   UNL A   1      43.156  38.235  29.163  1.00  0.00     0.040 A 
ATOM     87  F   UNL A   1      43.630  36.626  30.766  1.00  0.00    -0.206 F 
ATOM     88  C   UNL A   1      42.614  38.619  27.946  1.00  0.00     0.006 A 
ENDBRANCH  64  81
ENDBRANCH  38  39
ENDBRANCH  30  33
ENDBRANCH  28  29
ENDBRANCH  27  28
ENDBRANCH  26  27
ENDBRANCH   1  26
TORSDOF 16
ENDMDL
MODEL 2
REMARK VINA RESULT:     -12.1      3.824      9.401
REMARK SMILES Cc1c(CC(=O)NCCCCCCNC(=O)c2ccc(-c3c4nc(c(-c5c(F)cccc5F)c5ccc([nH]5)c(-c5c(F)cccc5F)c5nc(c(-c6c(F)cccc6F)c6ccc3[nH]6)C=C5)C=C4)cc2)cccc1-c1ccn(C(F)F)c(=O)c1
REMARK SMILES IDX 10 1 9 2 8 3 7 4 5 5 6 6 4 8 3 9 1 10 2 11 74 12 71 13 73 14
REMARK SMILES IDX 72 15 75 16 76 17 84 18 77 19 82 20 78 21 83 22 79 23 80 24
REMARK SMILES IDX 81 25 11 26 12 27 13 28 14 29 15 30 16 32 17 33 18 34 70 35
REMARK SMILES IDX 19 36 69 37 20 38 21 39 22 40 63 41 23 42 68 43 62 44 64 45
REMARK SMILES IDX 24 46 67 47 61 48 60 49 25 51 51 52 34 53 50 54 35 55 38 56
REMARK SMILES IDX 49 57 65 58 36 59 37 60 48 62 66 63 39 64 26 65 27 66 32 67
REMARK SMILES IDX 28 68 29 69 31 70 33 71 30 72 52 73 53 74 58 75 54 76 55 77
REMARK SMILES IDX 57 78 59 79 56 80 40 81 41 82 46 83 42 84 43 85 45 86 47 87
REMARK SMILES IDX 44 88
REMARK H PARENT 7 7 14 31 64 50 38 61
REMARK Flexibility Score: inf
ROOT
ATOM      1  C   UNL A   1      33.024  28.954  24.889  1.00  0.00     0.002 C 
ENDROOT
BRANCH   1   2
ATOM      2  C   UNL A   1      33.959  28.711  23.696  1.00  0.00     0.021 C 
BRANCH   2   3
ATOM      3  C   UNL A   1      33.283  28.757  22.325  1.00  0.00     0.116 C 
BRANCH   3   4
ATOM      4  N   UNL A   1      31.861  29.019  22.411  1.00  0.00    -0.356 N 
ATOM      5  C   UNL A   1      30.822  28.132  22.436  1.00  0.00     0.224 C 
ATOM      6  O   UNL A   1      29.678  28.579  22.542  1.00  0.00    -0.275 OA
ATOM      7  H   UNL A   1      31.608  29.968  22.461  1.00  0.00     0.163 HD
BRANCH   5   8
ATOM      8  C   UNL A   1      31.077  26.629  22.384  1.00  0.00     0.135 C 
BRANCH   8   9
ATOM      9  C   UNL A   1      31.492  26.019  23.711  1.00  0.00    -0.035 A 
ATOM     10  C   UNL A   1      33.705  25.182  22.766  1.00  0.00     0.045 C 
ATOM     11  C   UNL A   1      32.693  25.280  23.887  1.00  0.00    -0.040 A 
ATOM     12  C   UNL A   1      32.947  24.677  25.146  1.00  0.00    -0.015 A 
ATOM     13  C   UNL A   1      30.625  26.200  24.805  1.00  0.00     0.004 A 
ATOM     14  C   UNL A   1      32.050  24.867  26.210  1.00  0.00     0.009 A 
ATOM     15  C   UNL A   1      30.902  25.633  26.044  1.00  0.00     0.001 A 
BRANCH  12  16
ATOM     16  C   UNL A   1      34.102  23.780  25.371  1.00  0.00    -0.011 A 
ATOM     17  C   UNL A   1      35.424  24.247  25.737  1.00  0.00     0.027 A 
ATOM     18  C   UNL A   1      33.911  22.467  25.145  1.00  0.00     0.080 A 
ATOM     19  C   UNL A   1      36.458  23.396  25.766  1.00  0.00     0.095 A 
ATOM     20  C   UNL A   1      35.041  21.504  25.217  1.00  0.00     0.255 A 
ATOM     21  N   UNL A   1      36.283  22.053  25.491  1.00  0.00    -0.258 N 
ATOM     22  O   UNL A   1      34.810  20.318  25.000  1.00  0.00    -0.269 OA
BRANCH  21  23
ATOM     23  C   UNL A   1      37.408  21.152  25.486  1.00  0.00     0.451 C 
ATOM     24  F   UNL A   1      37.772  20.832  24.221  1.00  0.00    -0.185 F 
ATOM     25  F   UNL A   1      38.479  21.712  26.102  1.00  0.00    -0.185 F 
ENDBRANCH  21  23
ENDBRANCH  12  16
ENDBRANCH   8   9
ENDBRANCH   5   8
ENDBRANCH   3   4
ENDBRANCH   2   3
ENDBRANCH   1   2
BRANCH   1  26
ATOM     26  C   UNL A   1      33.650  28.832  26.290  1.00  0.00     0.002 C 
BRANCH  26  27
ATOM     27  C   UNL A   1      34.369  30.075  26.823  1.00  0.00     0.021 C 
BRANCH  27  28
ATOM     28  C   UNL A   1      34.200  30.302  28.321  1.00  0.00     0.116 C 
BRANCH  28  29
ATOM     29  N   UNL A   1      35.115  31.293  28.872  1.00  0.00    -0.352 N 
ATOM     30  C   UNL A   1      36.447  31.157  29.227  1.00  0.00     0.251 C 
ATOM     31  H   UNL A   1      34.732  32.188  29.013  1.00  0.00     0.163 HD
ATOM     32  O   UNL A   1      37.053  32.107  29.700  1.00  0.00    -0.269 OA
BRANCH  30  33
ATOM     33  C   UNL A   1      37.167  29.901  28.897  1.00  0.00     0.039 A 
ATOM     34  C   UNL A   1      37.391  28.994  29.941  1.00  0.00     0.014 A 
ATOM     35  C   UNL A   1      37.780  29.712  27.662  1.00  0.00     0.014 A 
ATOM     36  C   UNL A   1      38.420  28.065  29.827  1.00  0.00     0.010 A 
ATOM     37  C   UNL A   1      38.854  28.847  27.572  1.00  0.00     0.010 A 
ATOM     38  C   UNL A   1      39.219  28.081  28.683  1.00  0.00    -0.014 A 
BRANCH  38  39
ATOM     39  C   UNL A   1      40.532  27.449  28.643  1.00  0.00     0.031 A 
ATOM     40  C   UNL A   1      40.681  26.021  28.309  1.00  0.00     0.074 A 
ATOM     41  C   UNL A   1      41.628  28.194  28.910  1.00  0.00     0.049 A 
ATOM     42  N   UNL A   1      41.612  25.261  28.780  1.00  0.00    -0.248 NA
ATOM     43  C   UNL A   1      39.749  25.326  27.430  1.00  0.00     0.031 C 
ATOM     44  C   UNL A   1      43.025  27.813  28.732  1.00  0.00     0.029 A 
ATOM     45  N   UNL A   1      41.679  29.406  29.610  1.00  0.00    -0.354 N 
ATOM     46  C   UNL A   1      41.567  24.072  28.089  1.00  0.00     0.074 A 
ATOM     47  C   UNL A   1      40.352  24.139  27.306  1.00  0.00     0.031 C 
ATOM     48  C   UNL A   1      43.787  28.593  29.513  1.00  0.00     0.029 A 
ATOM     49  C   UNL A   1      42.893  29.404  30.325  1.00  0.00     0.049 A 
ATOM     50  H   UNL A   1      41.001  30.119  29.604  1.00  0.00     0.167 HD
ATOM     51  C   UNL A   1      42.627  23.213  28.137  1.00  0.00     0.037 A 
ATOM     52  C   UNL A   1      42.915  29.467  31.686  1.00  0.00     0.037 A 
ATOM     53  C   UNL A   1      43.703  23.737  28.973  1.00  0.00     0.049 A 
ATOM     54  C   UNL A   1      43.576  28.280  32.345  1.00  0.00     0.074 A 
ATOM     55  C   UNL A   1      44.843  24.460  28.660  1.00  0.00     0.029 A 
ATOM     56  N   UNL A   1      43.542  23.831  30.351  1.00  0.00    -0.354 N 
ATOM     57  N   UNL A   1      43.778  27.138  31.749  1.00  0.00    -0.248 NA
ATOM     58  C   UNL A   1      44.013  28.271  33.740  1.00  0.00     0.031 C 
ATOM     59  C   UNL A   1      45.339  25.039  29.849  1.00  0.00     0.029 A 
ATOM     60  C   UNL A   1      44.514  24.652  30.891  1.00  0.00     0.049 A 
ATOM     61  H   UNL A   1      42.838  23.377  30.868  1.00  0.00     0.167 HD
ATOM     62  C   UNL A   1      44.304  26.247  32.647  1.00  0.00     0.074 A 
ATOM     63  C   UNL A   1      44.460  27.010  33.871  1.00  0.00     0.031 C 
ATOM     64  C   UNL A   1      44.549  24.947  32.314  1.00  0.00     0.037 A 
BRANCH  51  65
ATOM     65  C   UNL A   1      42.806  22.081  27.150  1.00  0.00     0.057 A 
ATOM     66  C   UNL A   1      42.041  20.903  27.242  1.00  0.00     0.134 A 
ATOM     67  C   UNL A   1      43.763  22.072  26.123  1.00  0.00     0.134 A 
ATOM     68  F   UNL A   1      41.001  20.798  28.079  1.00  0.00    -0.206 F 
ATOM     69  C   UNL A   1      42.307  19.759  26.479  1.00  0.00     0.040 A 
ATOM     70  C   UNL A   1      44.078  20.920  25.386  1.00  0.00     0.040 A 
ATOM     71  F   UNL A   1      44.407  23.192  25.763  1.00  0.00    -0.206 F 
ATOM     72  C   UNL A   1      43.361  19.748  25.579  1.00  0.00     0.006 A 
ENDBRANCH  51  65
BRANCH  52  73
ATOM     73  C   UNL A   1      41.773  30.217  32.270  1.00  0.00     0.057 A 
ATOM     74  C   UNL A   1      41.785  31.621  32.220  1.00  0.00     0.134 A 
ATOM     75  C   UNL A   1      40.550  29.599  32.547  1.00  0.00     0.134 A 
ATOM     76  F   UNL A   1      42.929  32.277  31.960  1.00  0.00    -0.206 F 
ATOM     77  C   UNL A   1      40.615  32.374  32.334  1.00  0.00     0.040 A 
ATOM     78  C   UNL A   1      39.373  30.345  32.674  1.00  0.00     0.040 A 
ATOM     79  F   UNL A   1      40.455  28.263  32.592  1.00  0.00    -0.206 F 
ATOM     80  C   UNL A   1      39.397  31.731  32.530  1.00  0.00     0.006 A 
ENDBRANCH  52  73
BRANCH  64  81
ATOM     81  C   UNL A   1      44.935  23.863  33.282  1.00  0.00     0.057 A 
ATOM     82  C   UNL A   1      44.049  22.883  33.750  1.00  0.00     0.134 A 
ATOM     83  C   UNL A   1      46.283  23.697  33.666  1.00  0.00     0.134 A 
ATOM     84  F   UNL A   1      42.763  22.867  33.373  1.00  0.00    -0.206 F 
ATOM     85  C   UNL A   1      44.462  21.841  34.591  1.00  0.00     0.040 A 
ATOM     86  C   UNL A   1      46.714  22.635  34.466  1.00  0.00     0.040 A 
ATOM     87  F   UNL A   1      47.238  24.550  33.266  1.00  0.00    -0.206 F 
ATOM     88  C   UNL A   1      45.799  21.709  34.943  1.00  0.00     0.006 A 
ENDBRANCH  64  81
ENDBRANCH  38  39
ENDBRANCH  30  33
ENDBRANCH  28  29
ENDBRANCH  27  28
ENDBRANCH  26  27
ENDBRANCH   1  26
TORSDOF 16
ENDMDL
MODEL 3
REMARK VINA RESULT:     -12.0      3.944      9.154
REMARK SMILES Cc1c(CC(=O)NCCCCCCNC(=O)c2ccc(-c3c4nc(c(-c5c(F)cccc5F)c5ccc([nH]5)c(-c5c(F)cccc5F)c5nc(c(-c6c(F)cccc6F)c6ccc3[nH]6)C=C5)C=C4)cc2)cccc1-c1ccn(C(F)F)c(=O)c1
REMARK SMILES IDX 10 1 9 2 8 3 7 4 5 5 6 6 4 8 3 9 1 10 2 11 74 12 71 13 73 14
REMARK SMILES IDX 72 15 75 16 76 17 84 18 77 19 82 20 78 21 83 22 79 23 80 24
REMARK SMILES IDX 81 25 11 26 12 27 13 28 14 29 15 30 16 32 17 33 18 34 70 35
REMARK SMILES IDX 19 36 69 37 20 38 21 39 22 40 63 41 23 42 68 43 62 44 64 45
REMARK SMILES IDX 24 46 67 47 61 48 60 49 25 51 51 52 34 53 50 54 35 55 38 56
REMARK SMILES IDX 49 57 65 58 36 59 37 60 48 62 66 63 39 64 26 65 27 66 32 67
REMARK SMILES IDX 28 68 29 69 31 70 33 71 30 72 52 73 53 74 58 75 54 76 55 77
REMARK SMILES IDX 57 78 59 79 56 80 40 81 41 82 46 83 42 84 43 85 45 86 47 87
REMARK SMILES IDX 44 88
REMARK H PARENT 7 7 14 31 64 50 38 61
REMARK Flexibility Score: inf
ROOT
ATOM      1  C   UNL A   1      33.331  27.869  25.936  1.00  0.00     0.002 C 
ENDROOT
BRANCH   1   2
ATOM      2  C   UNL A   1      33.049  26.363  26.027  1.00  0.00     0.021 C 
BRANCH   2   3
ATOM      3  C   UNL A   1      31.585  25.966  25.830  1.00  0.00     0.116 C 
BRANCH   3   4
ATOM      4  N   UNL A   1      31.138  24.982  26.793  1.00  0.00    -0.356 N 
ATOM      5  C   UNL A   1      30.823  23.667  26.599  1.00  0.00     0.224 C 
ATOM      6  O   UNL A   1      30.487  22.998  27.579  1.00  0.00    -0.275 OA
ATOM      7  H   UNL A   1      31.051  25.305  27.718  1.00  0.00     0.163 HD
BRANCH   5   8
ATOM      8  C   UNL A   1      30.932  23.034  25.216  1.00  0.00     0.135 C 
BRANCH   8   9
ATOM      9  C   UNL A   1      32.299  23.177  24.570  1.00  0.00    -0.035 A 
ATOM     10  C   UNL A   1      33.446  21.883  26.440  1.00  0.00     0.045 C 
ATOM     11  C   UNL A   1      33.496  22.699  25.166  1.00  0.00    -0.040 A 
ATOM     12  C   UNL A   1      34.733  22.959  24.522  1.00  0.00    -0.015 A 
ATOM     13  C   UNL A   1      32.360  23.826  23.322  1.00  0.00     0.004 A 
ATOM     14  C   UNL A   1      34.756  23.624  23.285  1.00  0.00     0.009 A 
ATOM     15  C   UNL A   1      33.575  24.045  22.682  1.00  0.00     0.001 A 
BRANCH  12  16
ATOM     16  C   UNL A   1      36.033  22.617  25.143  1.00  0.00    -0.011 A 
ATOM     17  C   UNL A   1      36.795  23.533  25.969  1.00  0.00     0.027 A 
ATOM     18  C   UNL A   1      36.553  21.412  24.851  1.00  0.00     0.080 A 
ATOM     19  C   UNL A   1      38.034  23.216  26.364  1.00  0.00     0.095 A 
ATOM     20  C   UNL A   1      37.910  21.027  25.321  1.00  0.00     0.255 A 
ATOM     21  N   UNL A   1      38.598  21.997  26.032  1.00  0.00    -0.258 N 
ATOM     22  O   UNL A   1      38.335  19.915  25.025  1.00  0.00    -0.269 OA
BRANCH  21  23
ATOM     23  C   UNL A   1      39.946  21.681  26.429  1.00  0.00     0.451 C 
ATOM     24  F   UNL A   1      40.834  22.048  25.475  1.00  0.00    -0.185 F 
ATOM     25  F   UNL A   1      40.276  22.320  27.578  1.00  0.00    -0.185 F 
ENDBRANCH  21  23
ENDBRANCH  12  16
ENDBRANCH   8   9
ENDBRANCH   5   8
ENDBRANCH   3   4
ENDBRANCH   2   3
ENDBRANCH   1   2
BRANCH   1  26
ATOM     26  C   UNL A   1      32.231  28.809  26.458  1.00  0.00     0.002 C 
BRANCH  26  27
ATOM     27  C   UNL A   1      32.698  30.010  27.286  1.00  0.00     0.021 C 
BRANCH  27  28
ATOM     28  C   UNL A   1      34.206  30.231  27.272  1.00  0.00     0.116 C 
BRANCH  28  29
ATOM     29  N   UNL A   1      34.686  31.074  28.360  1.00  0.00    -0.352 N 
ATOM     30  C   UNL A   1      35.812  30.929  29.152  1.00  0.00     0.251 C 
ATOM     31  H   UNL A   1      34.129  31.859  28.562  1.00  0.00     0.163 HD
ATOM     32  O   UNL A   1      36.042  31.734  30.041  1.00  0.00    -0.269 OA
BRANCH  30  33
ATOM     33  C   UNL A   1      36.807  29.877  28.822  1.00  0.00     0.039 A 
ATOM     34  C   UNL A   1      37.085  28.921  29.806  1.00  0.00     0.014 A 
ATOM     35  C   UNL A   1      37.589  29.945  27.672  1.00  0.00     0.014 A 
ATOM     36  C   UNL A   1      38.288  28.223  29.759  1.00  0.00     0.010 A 
ATOM     37  C   UNL A   1      38.820  29.317  27.660  1.00  0.00     0.010 A 
ATOM     38  C   UNL A   1      39.198  28.517  28.743  1.00  0.00    -0.014 A 
BRANCH  38  39
ATOM     39  C   UNL A   1      40.607  28.156  28.833  1.00  0.00     0.031 A 
ATOM     40  C   UNL A   1      41.112  26.902  28.245  1.00  0.00     0.074 A 
ATOM     41  C   UNL A   1      41.461  28.993  29.461  1.00  0.00     0.049 A 
ATOM     42  N   UNL A   1      42.103  26.226  28.721  1.00  0.00    -0.248 NA
ATOM     43  C   UNL A   1      40.498  26.290  27.073  1.00  0.00     0.031 C 
ATOM     44  C   UNL A   1      42.918  28.920  29.488  1.00  0.00     0.029 A 
ATOM     45  N   UNL A   1      41.141  29.987  30.396  1.00  0.00    -0.354 N 
ATOM     46  C   UNL A   1      42.423  25.253  27.802  1.00  0.00     0.074 A 
ATOM     47  C   UNL A   1      41.356  25.294  26.825  1.00  0.00     0.031 C 
ATOM     48  C   UNL A   1      43.365  29.607  30.551  1.00  0.00     0.029 A 
ATOM     49  C   UNL A   1      42.202  30.024  31.320  1.00  0.00     0.049 A 
ATOM     50  H   UNL A   1      40.333  30.549  30.404  1.00  0.00     0.167 HD
ATOM     51  C   UNL A   1      43.624  24.610  27.879  1.00  0.00     0.037 A 
ATOM     52  C   UNL A   1      42.002  29.756  32.642  1.00  0.00     0.037 A 
ATOM     53  C   UNL A   1      44.420  25.094  29.003  1.00  0.00     0.049 A 
ATOM     54  C   UNL A   1      42.798  28.579  33.155  1.00  0.00     0.074 A 
ATOM     55  C   UNL A   1      45.410  26.061  29.080  1.00  0.00     0.029 A 
ATOM     56  N   UNL A   1      44.035  24.819  30.310  1.00  0.00    -0.354 N 
ATOM     57  N   UNL A   1      43.331  27.671  32.387  1.00  0.00    -0.248 NA
ATOM     58  C   UNL A   1      43.009  28.306  34.575  1.00  0.00     0.031 C 
ATOM     59  C   UNL A   1      45.582  26.410  30.438  1.00  0.00     0.029 A 
ATOM     60  C   UNL A   1      44.712  25.641  31.192  1.00  0.00     0.049 A 
ATOM     61  H   UNL A   1      43.376  24.136  30.571  1.00  0.00     0.167 HD
ATOM     62  C   UNL A   1      43.895  26.695  33.165  1.00  0.00     0.074 A 
ATOM     63  C   UNL A   1      43.693  27.151  34.526  1.00  0.00     0.031 C 
ATOM     64  C   UNL A   1      44.464  25.581  32.622  1.00  0.00     0.037 A 
BRANCH  51  65
ATOM     65  C   UNL A   1      44.193  23.803  26.733  1.00  0.00     0.057 A 
ATOM     66  C   UNL A   1      45.042  24.390  25.776  1.00  0.00     0.134 A 
ATOM     67  C   UNL A   1      43.889  22.454  26.489  1.00  0.00     0.134 A 
ATOM     68  F   UNL A   1      45.533  25.627  25.928  1.00  0.00    -0.206 F 
ATOM     69  C   UNL A   1      45.430  23.738  24.598  1.00  0.00     0.040 A 
ATOM     70  C   UNL A   1      44.225  21.804  25.292  1.00  0.00     0.040 A 
ATOM     71  F   UNL A   1      43.287  21.698  27.418  1.00  0.00    -0.206 F 
ATOM     72  C   UNL A   1      44.982  22.455  24.329  1.00  0.00     0.006 A 
ENDBRANCH  51  65
BRANCH  52  73
ATOM     73  C   UNL A   1      40.650  30.127  33.131  1.00  0.00     0.057 A 
ATOM     74  C   UNL A   1      40.352  31.484  33.342  1.00  0.00     0.134 A 
ATOM     75  C   UNL A   1      39.571  29.241  33.058  1.00  0.00     0.134 A 
ATOM     76  F   UNL A   1      41.343  32.387  33.423  1.00  0.00    -0.206 F 
ATOM     77  C   UNL A   1      39.038  31.955  33.374  1.00  0.00     0.040 A 
ATOM     78  C   UNL A   1      38.250  29.701  33.098  1.00  0.00     0.040 A 
ATOM     79  F   UNL A   1      39.775  27.934  32.839  1.00  0.00    -0.206 F 
ATOM     80  C   UNL A   1      37.981  31.064  33.218  1.00  0.00     0.006 A 
ENDBRANCH  52  73
BRANCH  64  81
ATOM     81  C   UNL A   1      44.925  24.379  33.399  1.00  0.00     0.057 A 
ATOM     82  C   UNL A   1      44.245  23.153  33.416  1.00  0.00     0.134 A 
ATOM     83  C   UNL A   1      46.175  24.388  34.056  1.00  0.00     0.134 A 
ATOM     84  F   UNL A   1      43.099  22.981  32.743  1.00  0.00    -0.206 F 
ATOM     85  C   UNL A   1      44.744  22.029  34.089  1.00  0.00     0.040 A 
ATOM     86  C   UNL A   1      46.704  23.261  34.689  1.00  0.00     0.040 A 
ATOM     87  F   UNL A   1      46.940  25.490  34.092  1.00  0.00    -0.206 F 
ATOM     88  C   UNL A   1      45.981  22.078  34.719  1.00  0.00     0.006 A 
ENDBRANCH  64  81
ENDBRANCH  38  39
ENDBRANCH  30  33
ENDBRANCH  28  29
ENDBRANCH  27  28
ENDBRANCH  26  27
ENDBRANCH   1  26
TORSDOF 16
ENDMDL
