MODEL 1
REMARK VINA RESULT:     -11.9      0.000      0.000
REMARK SMILES CC(C)Oc1ccc([C@@H]2CC(=O)Nc3c(C(=O)NCCCCCCNC(=O)c4ccc(-c5c6nc(c(-c7c(F)cccc7F)c7ccc([nH]7)c(-c7c(F)cccc7F)c7nc(c(-c8c(F)cccc8F)c8ccc5[nH]8)C=C7)C=C6)cc4)nsc32)cc1
REMARK SMILES IDX 21 1 20 2 19 3 18 4 16 5 17 6 15 8 9 9 10 10 84 11 11 12
REMARK SMILES IDX 14 13 83 14 12 15 13 16 82 17 8 19 5 20 6 21 86 22 7 23
REMARK SMILES IDX 85 24 4 25 2 26 1 27 3 28 22 29 23 30 24 31 25 32 26 33
REMARK SMILES IDX 27 35 28 36 29 37 81 38 30 39 80 40 31 41 32 42 33 43 74 44
REMARK SMILES IDX 34 45 79 46 73 47 75 48 35 49 78 50 72 51 71 52 36 54 62 55
REMARK SMILES IDX 45 56 61 57 46 58 49 59 60 60 76 61 47 62 48 63 59 65 77 66
REMARK SMILES IDX 50 67 37 68 38 69 43 70 39 71 40 72 42 73 44 74 41 75 63 76
REMARK SMILES IDX 64 77 69 78 65 79 66 80 68 81 70 82 67 83 51 84 52 85 57 86
REMARK SMILES IDX 53 87 54 88 56 89 58 90 55 91
REMARK H PARENT 18 7 13 18 25 34 75 53 49 64
REMARK Flexibility Score: inf
ROOT
ATOM      1  C   UNL A   1      37.225  22.090  24.602  1.00  0.00     0.002 C 
ENDROOT
BRANCH   1   2
ATOM      2  C   UNL A   1      36.469  20.787  24.863  1.00  0.00     0.021 C 
BRANCH   2   3
ATOM      3  C   UNL A   1      35.218  20.891  25.714  1.00  0.00     0.116 C 
BRANCH   3   4
ATOM      4  N   UNL A   1      34.106  20.025  25.403  1.00  0.00    -0.351 N 
ATOM      5  C   UNL A   1      32.910  20.342  24.771  1.00  0.00     0.273 C 
ATOM      6  O   UNL A   1      32.145  19.405  24.533  1.00  0.00    -0.267 OA
ATOM      7  H   UNL A   1      34.207  19.085  25.677  1.00  0.00     0.163 HD
BRANCH   5   8
ATOM      8  C   UNL A   1      32.553  21.753  24.469  1.00  0.00     0.165 A 
ATOM      9  C   UNL A   1      30.577  24.929  24.964  1.00  0.00     0.073 C 
ATOM     10  C   UNL A   1      29.793  24.556  26.241  1.00  0.00     0.114 C 
ATOM     11  C   UNL A   1      31.448  23.804  24.508  1.00  0.00     0.058 A 
ATOM     12  C   UNL A   1      30.187  23.272  26.946  1.00  0.00     0.225 C 
ATOM     13  C   UNL A   1      31.786  22.701  25.249  1.00  0.00     0.089 A 
ATOM     14  S   UNL A   1      32.245  23.723  23.016  1.00  0.00    -0.038 S 
ATOM     15  O   UNL A   1      29.520  22.818  27.877  1.00  0.00    -0.275 OA
ATOM     16  N   UNL A   1      31.300  22.597  26.535  1.00  0.00    -0.323 N 
ATOM     17  N   UNL A   1      32.929  22.240  23.273  1.00  0.00    -0.185 NA
ATOM     18  H   UNL A   1      31.771  22.018  27.177  1.00  0.00     0.170 HD
BRANCH   9  19
ATOM     19  C   UNL A   1      31.382  26.192  25.210  1.00  0.00    -0.039 A 
ATOM     20  C   UNL A   1      32.949  28.468  25.643  1.00  0.00     0.119 A 
ATOM     21  C   UNL A   1      32.082  28.418  24.552  1.00  0.00     0.047 A 
ATOM     22  C   UNL A   1      32.962  27.431  26.567  1.00  0.00     0.047 A 
ATOM     23  C   UNL A   1      31.300  27.283  24.331  1.00  0.00     0.008 A 
ATOM     24  C   UNL A   1      32.212  26.287  26.336  1.00  0.00     0.008 A 
BRANCH  20  25
ATOM     25  O   UNL A   1      33.721  29.581  25.801  1.00  0.00    -0.491 OA
BRANCH  25  26
ATOM     26  C   UNL A   1      33.958  30.003  27.161  1.00  0.00     0.167 C 
ATOM     27  C   UNL A   1      35.431  29.976  27.567  1.00  0.00     0.052 C 
ATOM     28  C   UNL A   1      33.286  31.329  27.523  1.00  0.00     0.052 C 
ENDBRANCH  25  26
ENDBRANCH  20  25
ENDBRANCH   9  19
ENDBRANCH   5   8
ENDBRANCH   3   4
ENDBRANCH   2   3
ENDBRANCH   1   2
BRANCH   1  29
ATOM     29  C   UNL A   1      38.142  22.647  25.708  1.00  0.00     0.002 C 
BRANCH  29  30
ATOM     30  C   UNL A   1      39.258  21.756  26.276  1.00  0.00     0.021 C 
BRANCH  30  31
ATOM     31  C   UNL A   1      40.404  22.501  26.933  1.00  0.00     0.116 C 
BRANCH  31  32
ATOM     32  N   UNL A   1      41.637  22.540  26.131  1.00  0.00    -0.352 N 
ATOM     33  C   UNL A   1      42.315  23.644  25.617  1.00  0.00     0.251 C 
ATOM     34  H   UNL A   1      42.038  21.664  25.928  1.00  0.00     0.163 HD
ATOM     35  O   UNL A   1      43.125  23.534  24.717  1.00  0.00    -0.269 OA
BRANCH  33  36
ATOM     36  C   UNL A   1      42.042  24.964  26.219  1.00  0.00     0.039 A 
ATOM     37  C   UNL A   1      41.046  25.848  25.788  1.00  0.00     0.014 A 
ATOM     38  C   UNL A   1      42.816  25.274  27.319  1.00  0.00     0.014 A 
ATOM     39  C   UNL A   1      40.863  27.030  26.510  1.00  0.00     0.010 A 
ATOM     40  C   UNL A   1      42.327  26.153  28.222  1.00  0.00     0.010 A 
ATOM     41  C   UNL A   1      41.540  27.169  27.726  1.00  0.00    -0.014 A 
BRANCH  41  42
ATOM     42  C   UNL A   1      41.520  28.343  28.578  1.00  0.00     0.031 A 
ATOM     43  C   UNL A   1      42.633  29.288  28.337  1.00  0.00     0.074 A 
ATOM     44  C   UNL A   1      40.387  28.672  29.248  1.00  0.00     0.049 A 
ATOM     45  N   UNL A   1      43.584  29.601  29.148  1.00  0.00    -0.248 NA
ATOM     46  C   UNL A   1      42.805  29.828  26.978  1.00  0.00     0.031 C 
ATOM     47  C   UNL A   1      39.086  27.977  29.273  1.00  0.00     0.029 A 
ATOM     48  N   UNL A   1      40.124  29.794  29.970  1.00  0.00    -0.354 N 
ATOM     49  C   UNL A   1      44.368  30.534  28.475  1.00  0.00     0.074 A 
ATOM     50  C   UNL A   1      43.971  30.469  27.095  1.00  0.00     0.031 C 
ATOM     51  C   UNL A   1      38.134  28.796  29.778  1.00  0.00     0.029 A 
ATOM     52  C   UNL A   1      38.775  30.002  30.258  1.00  0.00     0.049 A 
ATOM     53  H   UNL A   1      40.833  30.411  30.266  1.00  0.00     0.167 HD
ATOM     54  C   UNL A   1      45.114  31.449  29.153  1.00  0.00     0.037 A 
ATOM     55  C   UNL A   1      38.253  31.124  30.820  1.00  0.00     0.037 A 
ATOM     56  C   UNL A   1      45.172  31.116  30.555  1.00  0.00     0.049 A 
ATOM     57  C   UNL A   1      39.386  31.843  31.464  1.00  0.00     0.074 A 
ATOM     58  C   UNL A   1      45.680  30.054  31.274  1.00  0.00     0.029 A 
ATOM     59  N   UNL A   1      44.275  31.746  31.387  1.00  0.00    -0.354 N 
ATOM     60  N   UNL A   1      40.040  31.370  32.491  1.00  0.00    -0.248 NA
ATOM     61  C   UNL A   1      40.118  32.802  30.646  1.00  0.00     0.031 C 
ATOM     62  C   UNL A   1      44.713  29.808  32.291  1.00  0.00     0.029 A 
ATOM     63  C   UNL A   1      43.722  30.787  32.197  1.00  0.00     0.049 A 
ATOM     64  H   UNL A   1      44.067  32.708  31.398  1.00  0.00     0.167 HD
ATOM     65  C   UNL A   1      41.377  31.639  32.221  1.00  0.00     0.074 A 
ATOM     66  C   UNL A   1      41.357  32.573  31.095  1.00  0.00     0.031 C 
ATOM     67  C   UNL A   1      42.374  30.848  32.717  1.00  0.00     0.037 A 
BRANCH  54  68
ATOM     68  C   UNL A   1      45.492  32.818  28.654  1.00  0.00     0.057 A 
ATOM     69  C   UNL A   1      44.469  33.731  28.337  1.00  0.00     0.134 A 
ATOM     70  C   UNL A   1      46.778  33.183  28.208  1.00  0.00     0.134 A 
ATOM     71  F   UNL A   1      43.201  33.503  28.710  1.00  0.00    -0.206 F 
ATOM     72  C   UNL A   1      44.693  34.871  27.557  1.00  0.00     0.040 A 
ATOM     73  C   UNL A   1      47.022  34.348  27.474  1.00  0.00     0.040 A 
ATOM     74  F   UNL A   1      47.847  32.395  28.365  1.00  0.00    -0.206 F 
ATOM     75  C   UNL A   1      45.973  35.177  27.114  1.00  0.00     0.006 A 
ENDBRANCH  54  68
BRANCH  55  76
ATOM     76  C   UNL A   1      36.935  31.756  30.571  1.00  0.00     0.057 A 
ATOM     77  C   UNL A   1      35.889  31.683  31.502  1.00  0.00     0.134 A 
ATOM     78  C   UNL A   1      36.756  32.679  29.523  1.00  0.00     0.134 A 
ATOM     79  F   UNL A   1      35.980  30.866  32.562  1.00  0.00    -0.206 F 
ATOM     80  C   UNL A   1      34.743  32.489  31.407  1.00  0.00     0.040 A 
ATOM     81  C   UNL A   1      35.618  33.486  29.414  1.00  0.00     0.040 A 
ATOM     82  F   UNL A   1      37.723  32.889  28.616  1.00  0.00    -0.206 F 
ATOM     83  C   UNL A   1      34.609  33.402  30.365  1.00  0.00     0.006 A 
ENDBRANCH  55  76
BRANCH  67  84
ATOM     84  C   UNL A   1      42.009  29.783  33.718  1.00  0.00     0.057 A 
ATOM     85  C   UNL A   1      41.749  28.445  33.381  1.00  0.00     0.134 A 
ATOM     86  C   UNL A   1      42.146  30.070  35.079  1.00  0.00     0.134 A 
ATOM     87  F   UNL A   1      41.695  28.051  32.105  1.00  0.00    -0.206 F 
ATOM     88  C   UNL A   1      41.613  27.446  34.351  1.00  0.00     0.040 A 
ATOM     89  C   UNL A   1      42.043  29.079  36.057  1.00  0.00     0.040 A 
ATOM     90  F   UNL A   1      42.455  31.315  35.475  1.00  0.00    -0.206 F 
ATOM     91  C   UNL A   1      41.773  27.762  35.695  1.00  0.00     0.006 A 
ENDBRANCH  67  84
ENDBRANCH  41  42
ENDBRANCH  33  36
ENDBRANCH  31  32
ENDBRANCH  30  31
ENDBRANCH  29  30
ENDBRANCH   1  29
TORSDOF 16
ENDMDL
MODEL 2
REMARK VINA RESULT:     -11.8      2.873      8.162
REMARK SMILES CC(C)Oc1ccc([C@@H]2CC(=O)Nc3c(C(=O)NCCCCCCNC(=O)c4ccc(-c5c6nc(c(-c7c(F)cccc7F)c7ccc([nH]7)c(-c7c(F)cccc7F)c7nc(c(-c8c(F)cccc8F)c8ccc5[nH]8)C=C7)C=C6)cc4)nsc32)cc1
REMARK SMILES IDX 21 1 20 2 19 3 18 4 16 5 17 6 15 8 9 9 10 10 84 11 11 12
REMARK SMILES IDX 14 13 83 14 12 15 13 16 82 17 8 19 5 20 6 21 86 22 7 23
REMARK SMILES IDX 85 24 4 25 2 26 1 27 3 28 22 29 23 30 24 31 25 32 26 33
REMARK SMILES IDX 27 35 28 36 29 37 81 38 30 39 80 40 31 41 32 42 33 43 74 44
REMARK SMILES IDX 34 45 79 46 73 47 75 48 35 49 78 50 72 51 71 52 36 54 62 55
REMARK SMILES IDX 45 56 61 57 46 58 49 59 60 60 76 61 47 62 48 63 59 65 77 66
REMARK SMILES IDX 50 67 37 68 38 69 43 70 39 71 40 72 42 73 44 74 41 75 63 76
REMARK SMILES IDX 64 77 69 78 65 79 66 80 68 81 70 82 67 83 51 84 52 85 57 86
REMARK SMILES IDX 53 87 54 88 56 89 58 90 55 91
REMARK H PARENT 18 7 13 18 25 34 75 53 49 64
REMARK Flexibility Score: inf
ROOT
ATOM      1  C   UNL A   1      33.506  28.430  26.029  1.00  0.00     0.002 C 
ENDROOT
BRANCH   1   2
ATOM      2  C   UNL A   1      32.992  29.220  24.825  1.00  0.00     0.021 C 
BRANCH   2   3
ATOM      3  C   UNL A   1      31.544  29.670  24.880  1.00  0.00     0.116 C 
BRANCH   3   4
ATOM      4  N   UNL A   1      30.773  29.644  23.661  1.00  0.00    -0.351 N 
ATOM      5  C   UNL A   1      30.299  28.544  22.956  1.00  0.00     0.273 C 
ATOM      6  O   UNL A   1      29.579  28.779  21.983  1.00  0.00    -0.267 OA
ATOM      7  H   UNL A   1      30.555  30.524  23.275  1.00  0.00     0.163 HD
BRANCH   5   8
ATOM      8  C   UNL A   1      30.707  27.164  23.326  1.00  0.00     0.165 A 
ATOM      9  C   UNL A   1      32.217  23.776  22.633  1.00  0.00     0.073 C 
ATOM     10  C   UNL A   1      32.804  24.031  21.228  1.00  0.00     0.114 C 
ATOM     11  C   UNL A   1      31.509  24.982  23.158  1.00  0.00     0.058 A 
ATOM     12  C   UNL A   1      32.794  25.461  20.722  1.00  0.00     0.225 C 
ATOM     13  C   UNL A   1      31.608  26.253  22.652  1.00  0.00     0.089 A 
ATOM     14  S   UNL A   1      30.512  25.017  24.527  1.00  0.00    -0.038 S 
ATOM     15  O   UNL A   1      33.098  25.735  19.559  1.00  0.00    -0.275 OA
ATOM     16  N   UNL A   1      32.433  26.469  21.569  1.00  0.00    -0.323 N 
ATOM     17  N   UNL A   1      30.126  26.620  24.411  1.00  0.00    -0.185 NA
ATOM     18  H   UNL A   1      32.772  27.378  21.401  1.00  0.00     0.170 HD
BRANCH   9  19
ATOM     19  C   UNL A   1      33.320  23.325  23.573  1.00  0.00    -0.039 A 
ATOM     20  C   UNL A   1      35.386  22.434  25.233  1.00  0.00     0.119 A 
ATOM     21  C   UNL A   1      35.369  23.758  24.796  1.00  0.00     0.047 A 
ATOM     22  C   UNL A   1      34.329  21.587  24.928  1.00  0.00     0.047 A 
ATOM     23  C   UNL A   1      34.340  24.205  23.965  1.00  0.00     0.008 A 
ATOM     24  C   UNL A   1      33.321  22.016  24.076  1.00  0.00     0.008 A 
BRANCH  20  25
ATOM     25  O   UNL A   1      36.429  22.028  26.014  1.00  0.00    -0.491 OA
BRANCH  25  26
ATOM     26  C   UNL A   1      37.641  21.668  25.318  1.00  0.00     0.167 C 
ATOM     27  C   UNL A   1      38.918  22.065  26.058  1.00  0.00     0.052 C 
ATOM     28  C   UNL A   1      37.677  20.210  24.852  1.00  0.00     0.052 C 
ENDBRANCH  25  26
ENDBRANCH  20  25
ENDBRANCH   9  19
ENDBRANCH   5   8
ENDBRANCH   3   4
ENDBRANCH   2   3
ENDBRANCH   1   2
BRANCH   1  29
ATOM     29  C   UNL A   1      34.373  29.156  27.075  1.00  0.00     0.002 C 
BRANCH  29  30
ATOM     30  C   UNL A   1      34.081  30.631  27.397  1.00  0.00     0.021 C 
BRANCH  30  31
ATOM     31  C   UNL A   1      35.281  31.438  27.854  1.00  0.00     0.116 C 
BRANCH  31  32
ATOM     32  N   UNL A   1      35.093  32.119  29.144  1.00  0.00    -0.352 N 
ATOM     33  C   UNL A   1      35.578  31.764  30.402  1.00  0.00     0.251 C 
ATOM     34  H   UNL A   1      34.549  32.939  29.116  1.00  0.00     0.163 HD
ATOM     35  O   UNL A   1      35.097  32.217  31.424  1.00  0.00    -0.269 OA
BRANCH  33  36
ATOM     36  C   UNL A   1      36.722  30.832  30.464  1.00  0.00     0.039 A 
ATOM     37  C   UNL A   1      36.615  29.439  30.536  1.00  0.00     0.014 A 
ATOM     38  C   UNL A   1      37.964  31.429  30.385  1.00  0.00     0.014 A 
ATOM     39  C   UNL A   1      37.794  28.689  30.513  1.00  0.00     0.010 A 
ATOM     40  C   UNL A   1      39.000  30.698  29.917  1.00  0.00     0.010 A 
ATOM     41  C   UNL A   1      38.989  29.354  30.221  1.00  0.00    -0.014 A 
BRANCH  41  42
ATOM     42  C   UNL A   1      40.311  28.755  30.211  1.00  0.00     0.031 A 
ATOM     43  C   UNL A   1      40.949  28.671  31.543  1.00  0.00     0.074 A 
ATOM     44  C   UNL A   1      40.719  28.036  29.135  1.00  0.00     0.049 A 
ATOM     45  N   UNL A   1      42.014  29.279  31.941  1.00  0.00    -0.248 NA
ATOM     46  C   UNL A   1      40.234  27.956  32.613  1.00  0.00     0.031 C 
ATOM     47  C   UNL A   1      40.001  27.756  27.877  1.00  0.00     0.029 A 
ATOM     48  N   UNL A   1      41.845  27.288  28.994  1.00  0.00    -0.354 N 
ATOM     49  C   UNL A   1      42.219  28.867  33.255  1.00  0.00     0.074 A 
ATOM     50  C   UNL A   1      40.996  28.238  33.673  1.00  0.00     0.031 C 
ATOM     51  C   UNL A   1      40.604  26.739  27.219  1.00  0.00     0.029 A 
ATOM     52  C   UNL A   1      41.829  26.404  27.914  1.00  0.00     0.049 A 
ATOM     53  H   UNL A   1      42.612  27.364  29.607  1.00  0.00     0.167 HD
ATOM     54  C   UNL A   1      43.463  28.870  33.808  1.00  0.00     0.037 A 
ATOM     55  C   UNL A   1      42.760  25.446  27.665  1.00  0.00     0.037 A 
ATOM     56  C   UNL A   1      44.389  29.588  32.969  1.00  0.00     0.049 A 
ATOM     57  C   UNL A   1      43.970  25.817  28.449  1.00  0.00     0.074 A 
ATOM     58  C   UNL A   1      44.490  30.897  32.544  1.00  0.00     0.029 A 
ATOM     59  N   UNL A   1      45.156  28.845  32.101  1.00  0.00    -0.354 N 
ATOM     60  N   UNL A   1      44.683  26.883  28.200  1.00  0.00    -0.248 NA
ATOM     61  C   UNL A   1      44.063  25.309  29.811  1.00  0.00     0.031 C 
ATOM     62  C   UNL A   1      44.891  30.806  31.180  1.00  0.00     0.029 A 
ATOM     63  C   UNL A   1      45.105  29.460  30.876  1.00  0.00     0.049 A 
ATOM     64  H   UNL A   1      45.650  28.022  32.319  1.00  0.00     0.167 HD
ATOM     65  C   UNL A   1      44.977  27.418  29.449  1.00  0.00     0.074 A 
ATOM     66  C   UNL A   1      44.616  26.372  30.405  1.00  0.00     0.031 C 
ATOM     67  C   UNL A   1      45.187  28.757  29.615  1.00  0.00     0.037 A 
BRANCH  54  68
ATOM     68  C   UNL A   1      43.943  27.947  34.898  1.00  0.00     0.057 A 
ATOM     69  C   UNL A   1      44.495  28.506  36.065  1.00  0.00     0.134 A 
ATOM     70  C   UNL A   1      44.148  26.562  34.743  1.00  0.00     0.134 A 
ATOM     71  F   UNL A   1      44.364  29.815  36.332  1.00  0.00    -0.206 F 
ATOM     72  C   UNL A   1      45.269  27.762  36.962  1.00  0.00     0.040 A 
ATOM     73  C   UNL A   1      44.875  25.798  35.662  1.00  0.00     0.040 A 
ATOM     74  F   UNL A   1      43.750  25.890  33.659  1.00  0.00    -0.206 F 
ATOM     75  C   UNL A   1      45.469  26.403  36.756  1.00  0.00     0.006 A 
ENDBRANCH  54  68
BRANCH  55  76
ATOM     76  C   UNL A   1      42.570  24.104  27.064  1.00  0.00     0.057 A 
ATOM     77  C   UNL A   1      42.965  23.817  25.749  1.00  0.00     0.134 A 
ATOM     78  C   UNL A   1      42.236  22.991  27.858  1.00  0.00     0.134 A 
ATOM     79  F   UNL A   1      43.344  24.804  24.924  1.00  0.00    -0.206 F 
ATOM     80  C   UNL A   1      43.038  22.503  25.259  1.00  0.00     0.040 A 
ATOM     81  C   UNL A   1      42.303  21.676  27.381  1.00  0.00     0.040 A 
ATOM     82  F   UNL A   1      41.917  23.138  29.153  1.00  0.00    -0.206 F 
ATOM     83  C   UNL A   1      42.717  21.427  26.079  1.00  0.00     0.006 A 
ENDBRANCH  55  76
BRANCH  67  84
ATOM     84  C   UNL A   1      45.276  29.624  28.386  1.00  0.00     0.057 A 
ATOM     85  C   UNL A   1      44.194  30.345  27.854  1.00  0.00     0.134 A 
ATOM     86  C   UNL A   1      46.538  29.914  27.863  1.00  0.00     0.134 A 
ATOM     87  F   UNL A   1      42.961  30.210  28.353  1.00  0.00    -0.206 F 
ATOM     88  C   UNL A   1      44.359  31.293  26.839  1.00  0.00     0.040 A 
ATOM     89  C   UNL A   1      46.723  30.879  26.870  1.00  0.00     0.040 A 
ATOM     90  F   UNL A   1      47.628  29.310  28.362  1.00  0.00    -0.206 F 
ATOM     91  C   UNL A   1      45.631  31.570  26.352  1.00  0.00     0.006 A 
ENDBRANCH  67  84
ENDBRANCH  41  42
ENDBRANCH  33  36
ENDBRANCH  31  32
ENDBRANCH  30  31
ENDBRANCH  29  30
ENDBRANCH   1  29
TORSDOF 16
ENDMDL
MODEL 3
REMARK VINA RESULT:     -11.7      1.634      2.372
REMARK SMILES CC(C)Oc1ccc([C@@H]2CC(=O)Nc3c(C(=O)NCCCCCCNC(=O)c4ccc(-c5c6nc(c(-c7c(F)cccc7F)c7ccc([nH]7)c(-c7c(F)cccc7F)c7nc(c(-c8c(F)cccc8F)c8ccc5[nH]8)C=C7)C=C6)cc4)nsc32)cc1
REMARK SMILES IDX 21 1 20 2 19 3 18 4 16 5 17 6 15 8 9 9 10 10 84 11 11 12
REMARK SMILES IDX 14 13 83 14 12 15 13 16 82 17 8 19 5 20 6 21 86 22 7 23
REMARK SMILES IDX 85 24 4 25 2 26 1 27 3 28 22 29 23 30 24 31 25 32 26 33
REMARK SMILES IDX 27 35 28 36 29 37 81 38 30 39 80 40 31 41 32 42 33 43 74 44
REMARK SMILES IDX 34 45 79 46 73 47 75 48 35 49 78 50 72 51 71 52 36 54 62 55
REMARK SMILES IDX 45 56 61 57 46 58 49 59 60 60 76 61 47 62 48 63 59 65 77 66
REMARK SMILES IDX 50 67 37 68 38 69 43 70 39 71 40 72 42 73 44 74 41 75 63 76
REMARK SMILES IDX 64 77 69 78 65 79 66 80 68 81 70 82 67 83 51 84 52 85 57 86
REMARK SMILES IDX 53 87 54 88 56 89 58 90 55 91
REMARK H PARENT 18 7 13 18 25 34 75 53 49 64
REMARK Flexibility Score: inf
ROOT
ATOM      1  C   UNL A   1      36.746  23.008  24.829  1.00  0.00     0.002 C 
ENDROOT
BRANCH   1   2
ATOM      2  C   UNL A   1      36.038  21.653  24.786  1.00  0.00     0.021 C 
BRANCH   2   3
ATOM      3  C   UNL A   1      35.232  21.274  26.014  1.00  0.00     0.116 C 
BRANCH   3   4
ATOM      4  N   UNL A   1      33.911  20.726  25.822  1.00  0.00    -0.351 N 
ATOM      5  C   UNL A   1      32.746  21.382  25.444  1.00  0.00     0.273 C 
ATOM      6  O   UNL A   1      31.751  20.678  25.255  1.00  0.00    -0.267 OA
ATOM      7  H   UNL A   1      33.823  19.758  25.982  1.00  0.00     0.163 HD
BRANCH   5   8
ATOM      8  C   UNL A   1      32.698  22.864  25.348  1.00  0.00     0.165 A 
ATOM      9  C   UNL A   1      33.087  26.156  23.546  1.00  0.00     0.073 C 
ATOM     10  C   UNL A   1      33.336  25.644  22.110  1.00  0.00     0.114 C 
ATOM     11  C   UNL A   1      32.923  25.027  24.509  1.00  0.00     0.058 A 
ATOM     12  C   UNL A   1      33.140  24.161  21.860  1.00  0.00     0.225 C 
ATOM     13  C   UNL A   1      32.698  23.716  24.177  1.00  0.00     0.089 A 
ATOM     14  S   UNL A   1      32.907  25.172  26.197  1.00  0.00    -0.038 S 
ATOM     15  O   UNL A   1      33.463  23.640  20.791  1.00  0.00    -0.275 OA
ATOM     16  N   UNL A   1      32.601  23.382  22.843  1.00  0.00    -0.323 N 
ATOM     17  N   UNL A   1      32.721  23.557  26.501  1.00  0.00    -0.185 NA
ATOM     18  H   UNL A   1      32.129  22.555  22.592  1.00  0.00     0.170 HD
BRANCH   9  19
ATOM     19  C   UNL A   1      31.880  27.077  23.557  1.00  0.00    -0.039 A 
ATOM     20  C   UNL A   1      29.696  28.823  23.501  1.00  0.00     0.119 A 
ATOM     21  C   UNL A   1      29.519  27.478  23.179  1.00  0.00     0.047 A 
ATOM     22  C   UNL A   1      30.933  29.274  23.945  1.00  0.00     0.047 A 
ATOM     23  C   UNL A   1      30.608  26.604  23.203  1.00  0.00     0.008 A 
ATOM     24  C   UNL A   1      32.025  28.418  23.941  1.00  0.00     0.008 A 
BRANCH  20  25
ATOM     25  O   UNL A   1      28.614  29.650  23.429  1.00  0.00    -0.491 OA
BRANCH  25  26
ATOM     26  C   UNL A   1      28.740  30.786  22.548  1.00  0.00     0.167 C 
ATOM     27  C   UNL A   1      28.115  30.571  21.170  1.00  0.00     0.052 C 
ATOM     28  C   UNL A   1      28.297  32.109  23.179  1.00  0.00     0.052 C 
ENDBRANCH  25  26
ENDBRANCH  20  25
ENDBRANCH   9  19
ENDBRANCH   5   8
ENDBRANCH   3   4
ENDBRANCH   2   3
ENDBRANCH   1   2
BRANCH   1  29
ATOM     29  C   UNL A   1      37.947  23.186  25.777  1.00  0.00     0.002 C 
BRANCH  29  30
ATOM     30  C   UNL A   1      38.877  21.991  26.041  1.00  0.00     0.021 C 
BRANCH  30  31
ATOM     31  C   UNL A   1      40.041  22.275  26.971  1.00  0.00     0.116 C 
BRANCH  31  32
ATOM     32  N   UNL A   1      41.359  22.217  26.321  1.00  0.00    -0.352 N 
ATOM     33  C   UNL A   1      42.170  23.265  25.888  1.00  0.00     0.251 C 
ATOM     34  H   UNL A   1      41.718  21.313  26.171  1.00  0.00     0.163 HD
ATOM     35  O   UNL A   1      43.072  23.088  25.091  1.00  0.00    -0.269 OA
BRANCH  33  36
ATOM     36  C   UNL A   1      41.922  24.608  26.449  1.00  0.00     0.039 A 
ATOM     37  C   UNL A   1      40.994  25.526  25.944  1.00  0.00     0.014 A 
ATOM     38  C   UNL A   1      42.644  24.907  27.587  1.00  0.00     0.014 A 
ATOM     39  C   UNL A   1      40.822  26.730  26.632  1.00  0.00     0.010 A 
ATOM     40  C   UNL A   1      42.144  25.825  28.444  1.00  0.00     0.010 A 
ATOM     41  C   UNL A   1      41.434  26.864  27.883  1.00  0.00    -0.014 A 
BRANCH  41  42
ATOM     42  C   UNL A   1      41.417  28.055  28.711  1.00  0.00     0.031 A 
ATOM     43  C   UNL A   1      42.505  29.014  28.419  1.00  0.00     0.074 A 
ATOM     44  C   UNL A   1      40.297  28.379  29.406  1.00  0.00     0.049 A 
ATOM     45  N   UNL A   1      43.473  29.361  29.196  1.00  0.00    -0.248 NA
ATOM     46  C   UNL A   1      42.629  29.528  27.045  1.00  0.00     0.031 C 
ATOM     47  C   UNL A   1      39.010  27.662  29.483  1.00  0.00     0.029 A 
ATOM     48  N   UNL A   1      40.036  29.510  30.113  1.00  0.00    -0.354 N 
ATOM     49  C   UNL A   1      44.221  30.292  28.481  1.00  0.00     0.074 A 
ATOM     50  C   UNL A   1      43.786  30.191  27.114  1.00  0.00     0.031 C 
ATOM     51  C   UNL A   1      38.059  28.475  29.999  1.00  0.00     0.029 A 
ATOM     52  C   UNL A   1      38.692  29.702  30.435  1.00  0.00     0.049 A 
ATOM     53  H   UNL A   1      40.741  30.146  30.376  1.00  0.00     0.167 HD
ATOM     54  C   UNL A   1      44.969  31.234  29.119  1.00  0.00     0.037 A 
ATOM     55  C   UNL A   1      38.166  30.825  30.989  1.00  0.00     0.037 A 
ATOM     56  C   UNL A   1      45.074  30.932  30.525  1.00  0.00     0.049 A 
ATOM     57  C   UNL A   1      39.304  31.578  31.585  1.00  0.00     0.074 A 
ATOM     58  C   UNL A   1      45.621  29.894  31.250  1.00  0.00     0.029 A 
ATOM     59  N   UNL A   1      44.189  31.563  31.369  1.00  0.00    -0.354 N 
ATOM     60  N   UNL A   1      39.995  31.138  32.603  1.00  0.00    -0.248 NA
ATOM     61  C   UNL A   1      39.995  32.531  30.727  1.00  0.00     0.031 C 
ATOM     62  C   UNL A   1      44.687  29.653  32.299  1.00  0.00     0.029 A 
ATOM     63  C   UNL A   1      43.677  30.613  32.214  1.00  0.00     0.049 A 
ATOM     64  H   UNL A   1      43.965  32.522  31.366  1.00  0.00     0.167 HD
ATOM     65  C   UNL A   1      41.319  31.424  32.288  1.00  0.00     0.074 A 
ATOM     66  C   UNL A   1      41.250  32.334  31.145  1.00  0.00     0.031 C 
ATOM     67  C   UNL A   1      42.344  30.661  32.772  1.00  0.00     0.037 A 
BRANCH  54  68
ATOM     68  C   UNL A   1      45.309  32.599  28.581  1.00  0.00     0.057 A 
ATOM     69  C   UNL A   1      44.264  33.507  28.328  1.00  0.00     0.134 A 
ATOM     70  C   UNL A   1      46.559  32.961  28.041  1.00  0.00     0.134 A 
ATOM     71  F   UNL A   1      43.026  33.281  28.793  1.00  0.00    -0.206 F 
ATOM     72  C   UNL A   1      44.430  34.640  27.524  1.00  0.00     0.040 A 
ATOM     73  C   UNL A   1      46.748  34.118  27.280  1.00  0.00     0.040 A 
ATOM     74  F   UNL A   1      47.638  32.176  28.129  1.00  0.00    -0.206 F 
ATOM     75  C   UNL A   1      45.675  34.943  26.988  1.00  0.00     0.006 A 
ENDBRANCH  54  68
BRANCH  55  76
ATOM     76  C   UNL A   1      36.830  31.430  30.765  1.00  0.00     0.057 A 
ATOM     77  C   UNL A   1      35.976  31.756  31.829  1.00  0.00     0.134 A 
ATOM     78  C   UNL A   1      36.467  31.949  29.508  1.00  0.00     0.134 A 
ATOM     79  F   UNL A   1      36.256  31.347  33.075  1.00  0.00    -0.206 F 
ATOM     80  C   UNL A   1      34.839  32.563  31.656  1.00  0.00     0.040 A 
ATOM     81  C   UNL A   1      35.335  32.751  29.322  1.00  0.00     0.040 A 
ATOM     82  F   UNL A   1      37.249  31.764  28.434  1.00  0.00    -0.206 F 
ATOM     83  C   UNL A   1      34.521  33.072  30.401  1.00  0.00     0.006 A 
ENDBRANCH  55  76
BRANCH  67  84
ATOM     84  C   UNL A   1      42.026  29.611  33.805  1.00  0.00     0.057 A 
ATOM     85  C   UNL A   1      41.778  28.262  33.503  1.00  0.00     0.134 A 
ATOM     86  C   UNL A   1      42.199  29.928  35.154  1.00  0.00     0.134 A 
ATOM     87  F   UNL A   1      41.692  27.841  32.237  1.00  0.00    -0.206 F 
ATOM     88  C   UNL A   1      41.688  27.282  34.496  1.00  0.00     0.040 A 
ATOM     89  C   UNL A   1      42.142  28.956  36.155  1.00  0.00     0.040 A 
ATOM     90  F   UNL A   1      42.500  31.185  35.516  1.00  0.00    -0.206 F 
ATOM     91  C   UNL A   1      41.883  27.628  35.828  1.00  0.00     0.006 A 
ENDBRANCH  67  84
ENDBRANCH  41  42
ENDBRANCH  33  36
ENDBRANCH  31  32
ENDBRANCH  30  31
ENDBRANCH  29  30
ENDBRANCH   1  29
TORSDOF 16
ENDMDL
