MODEL 1
REMARK VINA RESULT:     -11.3      0.000      0.000
REMARK SMILES CC[C@H](C)[C@H](NC(=O)N1CCCCC1)C(=O)NCCCCCCNC(=O)c1ccc(-c2c3nc(c(-c4c(F)cccc4F)c4ccc([nH]4)c(-c4c(F)cccc4F)c4nc(c(-c5c(F)cccc5F)c5ccc2[nH]5)C=C4)C=C3)cc1
REMARK SMILES IDX 20 1 19 2 18 3 17 4 15 5 16 6 5 8 3 9 4 10 2 11 1 12 6 13
REMARK SMILES IDX 7 14 8 16 9 17 10 18 14 19 11 20 13 21 12 22 21 23 22 24
REMARK SMILES IDX 23 25 24 26 25 27 26 29 27 30 28 31 80 32 29 33 79 34 30 35
REMARK SMILES IDX 31 36 32 37 73 38 33 39 78 40 72 41 74 42 34 43 77 44 71 45
REMARK SMILES IDX 70 46 35 48 61 49 44 50 60 51 45 52 48 53 59 54 75 55 46 56
REMARK SMILES IDX 47 57 58 59 76 60 49 61 36 62 37 63 42 64 38 65 39 66 41 67
REMARK SMILES IDX 43 68 40 69 62 70 63 71 68 72 64 73 65 74 67 75 69 76 66 77
REMARK SMILES IDX 50 78 51 79 56 80 52 81 53 82 55 83 57 84 54 85
REMARK H PARENT 17 7 6 15 24 28 74 47 48 58
REMARK Flexibility Score: inf
ROOT
ATOM      1  C   UNL A   1      32.523  29.947  26.982  1.00  0.00     0.002 C 
ENDROOT
BRANCH   1   2
ATOM      2  C   UNL A   1      31.864  28.729  27.631  1.00  0.00     0.021 C 
BRANCH   2   3
ATOM      3  C   UNL A   1      32.194  27.408  26.948  1.00  0.00     0.116 C 
BRANCH   3   4
ATOM      4  N   UNL A   1      31.046  26.548  26.775  1.00  0.00    -0.354 N 
ATOM      5  C   UNL A   1      30.575  25.944  25.649  1.00  0.00     0.242 C 
ATOM      6  O   UNL A   1      29.610  25.182  25.782  1.00  0.00    -0.273 OA
ATOM      7  H   UNL A   1      30.528  26.371  27.592  1.00  0.00     0.163 HD
BRANCH   5   8
ATOM      8  C   UNL A   1      31.266  26.100  24.278  1.00  0.00     0.176 C 
BRANCH   8   9
ATOM      9  C   UNL A   1      32.383  24.963  24.107  1.00  0.00     0.018 C 
ATOM     10  C   UNL A   1      32.256  24.072  22.851  1.00  0.00     0.010 C 
BRANCH   9  11
ATOM     11  C   UNL A   1      33.834  25.513  24.273  1.00  0.00     0.002 C 
ATOM     12  C   UNL A   1      34.726  24.812  25.287  1.00  0.00     0.004 C 
ENDBRANCH   9  11
ENDBRANCH   8   9
BRANCH   8  13
ATOM     13  N   UNL A   1      31.744  27.451  23.896  1.00  0.00    -0.326 N 
ATOM     14  C   UNL A   1      31.376  28.457  23.075  1.00  0.00     0.318 C 
ATOM     15  H   UNL A   1      32.569  27.681  24.383  1.00  0.00     0.166 HD
ATOM     16  O   UNL A   1      32.317  29.175  22.719  1.00  0.00    -0.249 OA
ATOM     17  N   UNL A   1      30.085  28.741  22.719  1.00  0.00    -0.325 N 
ATOM     18  C   UNL A   1      29.827  29.974  21.973  1.00  0.00     0.121 C 
ATOM     19  C   UNL A   1      28.897  28.071  23.204  1.00  0.00     0.121 C 
ATOM     20  C   UNL A   1      28.968  30.902  22.826  1.00  0.00     0.022 C 
ATOM     21  C   UNL A   1      27.554  28.772  22.999  1.00  0.00     0.022 C 
ATOM     22  C   UNL A   1      27.593  30.297  23.090  1.00  0.00     0.004 C 
ENDBRANCH   8  13
ENDBRANCH   5   8
ENDBRANCH   3   4
ENDBRANCH   2   3
ENDBRANCH   1   2
BRANCH   1  23
ATOM     23  C   UNL A   1      31.603  30.750  26.064  1.00  0.00     0.002 C 
BRANCH  23  24
ATOM     24  C   UNL A   1      31.363  32.188  26.521  1.00  0.00     0.021 C 
BRANCH  24  25
ATOM     25  C   UNL A   1      32.546  32.808  27.249  1.00  0.00     0.116 C 
BRANCH  25  26
ATOM     26  N   UNL A   1      32.303  34.197  27.612  1.00  0.00    -0.352 N 
ATOM     27  C   UNL A   1      32.947  34.949  28.558  1.00  0.00     0.251 C 
ATOM     28  H   UNL A   1      31.585  34.653  27.116  1.00  0.00     0.163 HD
ATOM     29  O   UNL A   1      32.540  36.058  28.884  1.00  0.00    -0.269 OA
BRANCH  27  30
ATOM     30  C   UNL A   1      34.145  34.375  29.188  1.00  0.00     0.039 A 
ATOM     31  C   UNL A   1      34.004  33.560  30.310  1.00  0.00     0.014 A 
ATOM     32  C   UNL A   1      35.393  34.584  28.594  1.00  0.00     0.014 A 
ATOM     33  C   UNL A   1      35.127  32.913  30.821  1.00  0.00     0.010 A 
ATOM     34  C   UNL A   1      36.490  33.872  29.052  1.00  0.00     0.010 A 
ATOM     35  C   UNL A   1      36.370  33.049  30.181  1.00  0.00    -0.014 A 
BRANCH  35  36
ATOM     36  C   UNL A   1      37.577  32.376  30.709  1.00  0.00     0.031 A 
ATOM     37  C   UNL A   1      38.213  32.893  31.968  1.00  0.00     0.074 A 
ATOM     38  C   UNL A   1      38.125  31.352  30.030  1.00  0.00     0.049 A 
ATOM     39  N   UNL A   1      39.292  32.480  32.581  1.00  0.00    -0.248 NA
ATOM     40  C   UNL A   1      37.574  34.058  32.603  1.00  0.00     0.031 C 
ATOM     41  C   UNL A   1      37.625  30.808  28.765  1.00  0.00     0.029 A 
ATOM     42  N   UNL A   1      39.224  30.583  30.311  1.00  0.00    -0.354 N 
ATOM     43  C   UNL A   1      39.470  33.346  33.650  1.00  0.00     0.074 A 
ATOM     44  C   UNL A   1      38.431  34.347  33.568  1.00  0.00     0.031 C 
ATOM     45  C   UNL A   1      38.393  29.768  28.401  1.00  0.00     0.029 A 
ATOM     46  C   UNL A   1      39.450  29.590  29.390  1.00  0.00     0.049 A 
ATOM     47  H   UNL A   1      39.796  30.729  31.098  1.00  0.00     0.167 HD
ATOM     48  C   UNL A   1      40.398  33.294  34.634  1.00  0.00     0.037 A 
ATOM     49  C   UNL A   1      40.401  28.637  29.363  1.00  0.00     0.037 A 
ATOM     50  C   UNL A   1      41.398  32.266  34.732  1.00  0.00     0.049 A 
ATOM     51  C   UNL A   1      41.401  28.579  30.484  1.00  0.00     0.074 A 
ATOM     52  C   UNL A   1      42.339  32.066  35.725  1.00  0.00     0.029 A 
ATOM     53  N   UNL A   1      41.580  31.258  33.795  1.00  0.00    -0.354 N 
ATOM     54  N   UNL A   1      41.510  29.353  31.537  1.00  0.00    -0.248 NA
ATOM     55  C   UNL A   1      42.403  27.507  30.418  1.00  0.00     0.031 C 
ATOM     56  C   UNL A   1      43.115  30.958  35.371  1.00  0.00     0.029 A 
ATOM     57  C   UNL A   1      42.629  30.442  34.179  1.00  0.00     0.049 A 
ATOM     58  H   UNL A   1      41.042  31.141  32.979  1.00  0.00     0.167 HD
ATOM     59  C   UNL A   1      42.569  28.843  32.276  1.00  0.00     0.074 A 
ATOM     60  C   UNL A   1      43.061  27.688  31.555  1.00  0.00     0.031 C 
ATOM     61  C   UNL A   1      43.089  29.289  33.447  1.00  0.00     0.037 A 
BRANCH  48  62
ATOM     62  C   UNL A   1      40.359  34.374  35.675  1.00  0.00     0.057 A 
ATOM     63  C   UNL A   1      41.070  35.573  35.525  1.00  0.00     0.134 A 
ATOM     64  C   UNL A   1      39.610  34.211  36.847  1.00  0.00     0.134 A 
ATOM     65  F   UNL A   1      41.822  35.787  34.434  1.00  0.00    -0.206 F 
ATOM     66  C   UNL A   1      41.066  36.555  36.517  1.00  0.00     0.040 A 
ATOM     67  C   UNL A   1      39.575  35.199  37.834  1.00  0.00     0.040 A 
ATOM     68  F   UNL A   1      38.905  33.089  37.055  1.00  0.00    -0.206 F 
ATOM     69  C   UNL A   1      40.313  36.371  37.675  1.00  0.00     0.006 A 
ENDBRANCH  48  62
BRANCH  49  70
ATOM     70  C   UNL A   1      40.413  27.627  28.276  1.00  0.00     0.057 A 
ATOM     71  C   UNL A   1      39.743  26.407  28.425  1.00  0.00     0.134 A 
ATOM     72  C   UNL A   1      41.090  27.848  27.071  1.00  0.00     0.134 A 
ATOM     73  F   UNL A   1      39.088  26.131  29.563  1.00  0.00    -0.206 F 
ATOM     74  C   UNL A   1      39.762  25.432  27.425  1.00  0.00     0.040 A 
ATOM     75  C   UNL A   1      41.099  26.891  26.053  1.00  0.00     0.040 A 
ATOM     76  F   UNL A   1      41.742  29.000  26.861  1.00  0.00    -0.206 F 
ATOM     77  C   UNL A   1      40.440  25.676  26.233  1.00  0.00     0.006 A 
ENDBRANCH  49  70
BRANCH  61  78
ATOM     78  C   UNL A   1      44.218  28.498  34.035  1.00  0.00     0.057 A 
ATOM     79  C   UNL A   1      45.557  28.803  33.760  1.00  0.00     0.134 A 
ATOM     80  C   UNL A   1      43.961  27.442  34.918  1.00  0.00     0.134 A 
ATOM     81  F   UNL A   1      45.868  29.795  32.912  1.00  0.00    -0.206 F 
ATOM     82  C   UNL A   1      46.601  28.069  34.324  1.00  0.00     0.040 A 
ATOM     83  C   UNL A   1      44.996  26.718  35.510  1.00  0.00     0.040 A 
ATOM     84  F   UNL A   1      42.699  27.107  35.230  1.00  0.00    -0.206 F 
ATOM     85  C   UNL A   1      46.320  27.027  35.207  1.00  0.00     0.006 A 
ENDBRANCH  61  78
ENDBRANCH  35  36
ENDBRANCH  27  30
ENDBRANCH  25  26
ENDBRANCH  24  25
ENDBRANCH  23  24
ENDBRANCH   1  23
TORSDOF 16
ENDMDL
MODEL 2
REMARK VINA RESULT:     -11.2      1.261      3.276
REMARK SMILES CC[C@H](C)[C@H](NC(=O)N1CCCCC1)C(=O)NCCCCCCNC(=O)c1ccc(-c2c3nc(c(-c4c(F)cccc4F)c4ccc([nH]4)c(-c4c(F)cccc4F)c4nc(c(-c5c(F)cccc5F)c5ccc2[nH]5)C=C4)C=C3)cc1
REMARK SMILES IDX 20 1 19 2 18 3 17 4 15 5 16 6 5 8 3 9 4 10 2 11 1 12 6 13
REMARK SMILES IDX 7 14 8 16 9 17 10 18 14 19 11 20 13 21 12 22 21 23 22 24
REMARK SMILES IDX 23 25 24 26 25 27 26 29 27 30 28 31 80 32 29 33 79 34 30 35
REMARK SMILES IDX 31 36 32 37 73 38 33 39 78 40 72 41 74 42 34 43 77 44 71 45
REMARK SMILES IDX 70 46 35 48 61 49 44 50 60 51 45 52 48 53 59 54 75 55 46 56
REMARK SMILES IDX 47 57 58 59 76 60 49 61 36 62 37 63 42 64 38 65 39 66 41 67
REMARK SMILES IDX 43 68 40 69 62 70 63 71 68 72 64 73 65 74 67 75 69 76 66 77
REMARK SMILES IDX 50 78 51 79 56 80 52 81 53 82 55 83 57 84 54 85
REMARK H PARENT 17 7 6 15 24 28 74 47 48 58
REMARK Flexibility Score: inf
ROOT
ATOM      1  C   UNL A   1      32.303  29.605  27.162  1.00  0.00     0.002 C 
ENDROOT
BRANCH   1   2
ATOM      2  C   UNL A   1      31.490  28.363  27.532  1.00  0.00     0.021 C 
BRANCH   2   3
ATOM      3  C   UNL A   1      31.836  27.128  26.710  1.00  0.00     0.116 C 
BRANCH   3   4
ATOM      4  N   UNL A   1      30.729  26.629  25.927  1.00  0.00    -0.354 N 
ATOM      5  C   UNL A   1      30.661  26.348  24.597  1.00  0.00     0.242 C 
ATOM      6  O   UNL A   1      29.609  25.849  24.181  1.00  0.00    -0.273 OA
ATOM      7  H   UNL A   1      29.900  26.468  26.431  1.00  0.00     0.163 HD
BRANCH   5   8
ATOM      8  C   UNL A   1      31.869  26.532  23.653  1.00  0.00     0.176 C 
BRANCH   8   9
ATOM      9  C   UNL A   1      31.704  27.898  22.830  1.00  0.00     0.018 C 
ATOM     10  C   UNL A   1      30.520  28.800  23.246  1.00  0.00     0.010 C 
BRANCH   9  11
ATOM     11  C   UNL A   1      33.034  28.708  22.735  1.00  0.00     0.002 C 
ATOM     12  C   UNL A   1      33.979  28.626  23.925  1.00  0.00     0.004 C 
ENDBRANCH   9  11
ENDBRANCH   8   9
BRANCH   8  13
ATOM     13  N   UNL A   1      32.260  25.381  22.802  1.00  0.00    -0.326 N 
ATOM     14  C   UNL A   1      33.324  24.567  22.635  1.00  0.00     0.318 C 
ATOM     15  H   UNL A   1      31.536  25.142  22.180  1.00  0.00     0.166 HD
ATOM     16  O   UNL A   1      33.397  24.076  21.502  1.00  0.00    -0.249 OA
ATOM     17  N   UNL A   1      34.206  24.223  23.622  1.00  0.00    -0.325 N 
ATOM     18  C   UNL A   1      35.198  23.184  23.334  1.00  0.00     0.121 C 
ATOM     19  C   UNL A   1      34.123  24.605  25.016  1.00  0.00     0.121 C 
ATOM     20  C   UNL A   1      34.934  21.980  24.232  1.00  0.00     0.022 C 
ATOM     21  C   UNL A   1      34.964  23.817  26.019  1.00  0.00     0.022 C 
ATOM     22  C   UNL A   1      35.135  22.331  25.703  1.00  0.00     0.004 C 
ENDBRANCH   8  13
ENDBRANCH   5   8
ENDBRANCH   3   4
ENDBRANCH   2   3
ENDBRANCH   1   2
BRANCH   1  23
ATOM     23  C   UNL A   1      31.624  30.528  26.150  1.00  0.00     0.002 C 
BRANCH  23  24
ATOM     24  C   UNL A   1      31.418  31.957  26.648  1.00  0.00     0.021 C 
BRANCH  24  25
ATOM     25  C   UNL A   1      32.678  32.603  27.203  1.00  0.00     0.116 C 
BRANCH  25  26
ATOM     26  N   UNL A   1      32.464  33.994  27.579  1.00  0.00    -0.352 N 
ATOM     27  C   UNL A   1      33.095  34.712  28.560  1.00  0.00     0.251 C 
ATOM     28  H   UNL A   1      31.781  34.480  27.063  1.00  0.00     0.163 HD
ATOM     29  O   UNL A   1      32.710  35.828  28.887  1.00  0.00    -0.269 OA
BRANCH  27  30
ATOM     30  C   UNL A   1      34.249  34.090  29.226  1.00  0.00     0.039 A 
ATOM     31  C   UNL A   1      34.034  33.143  30.226  1.00  0.00     0.014 A 
ATOM     32  C   UNL A   1      35.538  34.396  28.780  1.00  0.00     0.014 A 
ATOM     33  C   UNL A   1      35.126  32.463  30.758  1.00  0.00     0.010 A 
ATOM     34  C   UNL A   1      36.612  33.657  29.250  1.00  0.00     0.010 A 
ATOM     35  C   UNL A   1      36.417  32.701  30.257  1.00  0.00    -0.014 A 
BRANCH  35  36
ATOM     36  C   UNL A   1      37.593  31.995  30.812  1.00  0.00     0.031 A 
ATOM     37  C   UNL A   1      38.076  32.346  32.191  1.00  0.00     0.074 A 
ATOM     38  C   UNL A   1      38.249  31.093  30.060  1.00  0.00     0.049 A 
ATOM     39  N   UNL A   1      39.104  31.880  32.851  1.00  0.00    -0.248 NA
ATOM     40  C   UNL A   1      37.326  33.390  32.909  1.00  0.00     0.031 C 
ATOM     41  C   UNL A   1      37.903  30.721  28.686  1.00  0.00     0.029 A 
ATOM     42  N   UNL A   1      39.347  30.324  30.346  1.00  0.00    -0.354 N 
ATOM     43  C   UNL A   1      39.137  32.591  34.043  1.00  0.00     0.074 A 
ATOM     44  C   UNL A   1      38.069  33.563  33.990  1.00  0.00     0.031 C 
ATOM     45  C   UNL A   1      38.748  29.766  28.265  1.00  0.00     0.029 A 
ATOM     46  C   UNL A   1      39.707  29.479  29.326  1.00  0.00     0.049 A 
ATOM     47  H   UNL A   1      39.830  30.373  31.202  1.00  0.00     0.167 HD
ATOM     48  C   UNL A   1      39.961  32.426  35.103  1.00  0.00     0.037 A 
ATOM     49  C   UNL A   1      40.695  28.566  29.268  1.00  0.00     0.037 A 
ATOM     50  C   UNL A   1      40.990  31.423  35.162  1.00  0.00     0.049 A 
ATOM     51  C   UNL A   1      41.580  28.378  30.469  1.00  0.00     0.074 A 
ATOM     52  C   UNL A   1      41.834  31.111  36.212  1.00  0.00     0.029 A 
ATOM     53  N   UNL A   1      41.309  30.564  34.120  1.00  0.00    -0.354 N 
ATOM     54  N   UNL A   1      41.548  28.998  31.625  1.00  0.00    -0.248 NA
ATOM     55  C   UNL A   1      42.628  27.356  30.363  1.00  0.00     0.031 C 
ATOM     56  C   UNL A   1      42.689  30.087  35.792  1.00  0.00     0.029 A 
ATOM     57  C   UNL A   1      42.348  29.732  34.496  1.00  0.00     0.049 A 
ATOM     58  H   UNL A   1      40.861  30.549  33.243  1.00  0.00     0.167 HD
ATOM     59  C   UNL A   1      42.549  28.419  32.394  1.00  0.00     0.074 A 
ATOM     60  C   UNL A   1      43.161  27.392  31.576  1.00  0.00     0.031 C 
ATOM     61  C   UNL A   1      42.928  28.709  33.664  1.00  0.00     0.037 A 
BRANCH  48  62
ATOM     62  C   UNL A   1      39.772  33.346  36.273  1.00  0.00     0.057 A 
ATOM     63  C   UNL A   1      38.882  33.047  37.314  1.00  0.00     0.134 A 
ATOM     64  C   UNL A   1      40.481  34.550  36.357  1.00  0.00     0.134 A 
ATOM     65  F   UNL A   1      38.158  31.917  37.288  1.00  0.00    -0.206 F 
ATOM     66  C   UNL A   1      38.677  33.928  38.377  1.00  0.00     0.040 A 
ATOM     67  C   UNL A   1      40.307  35.426  37.431  1.00  0.00     0.040 A 
ATOM     68  F   UNL A   1      41.351  34.898  35.397  1.00  0.00    -0.206 F 
ATOM     69  C   UNL A   1      39.395  35.121  38.439  1.00  0.00     0.006 A 
ENDBRANCH  48  62
BRANCH  49  70
ATOM     70  C   UNL A   1      40.860  27.722  28.059  1.00  0.00     0.057 A 
ATOM     71  C   UNL A   1      41.645  28.156  26.984  1.00  0.00     0.134 A 
ATOM     72  C   UNL A   1      40.242  26.472  27.942  1.00  0.00     0.134 A 
ATOM     73  F   UNL A   1      42.251  29.352  27.031  1.00  0.00    -0.206 F 
ATOM     74  C   UNL A   1      41.793  27.389  25.827  1.00  0.00     0.040 A 
ATOM     75  C   UNL A   1      40.400  25.683  26.800  1.00  0.00     0.040 A 
ATOM     76  F   UNL A   1      39.486  25.993  28.940  1.00  0.00    -0.206 F 
ATOM     77  C   UNL A   1      41.172  26.146  25.735  1.00  0.00     0.006 A 
ENDBRANCH  49  70
BRANCH  61  78
ATOM     78  C   UNL A   1      44.026  27.874  34.253  1.00  0.00     0.057 A 
ATOM     79  C   UNL A   1      43.766  26.652  34.886  1.00  0.00     0.134 A 
ATOM     80  C   UNL A   1      45.361  28.282  34.152  1.00  0.00     0.134 A 
ATOM     81  F   UNL A   1      42.507  26.213  35.026  1.00  0.00    -0.206 F 
ATOM     82  C   UNL A   1      44.796  25.876  35.418  1.00  0.00     0.040 A 
ATOM     83  C   UNL A   1      46.402  27.502  34.655  1.00  0.00     0.040 A 
ATOM     84  F   UNL A   1      45.676  29.439  33.548  1.00  0.00    -0.206 F 
ATOM     85  C   UNL A   1      46.120  26.299  35.297  1.00  0.00     0.006 A 
ENDBRANCH  61  78
ENDBRANCH  35  36
ENDBRANCH  27  30
ENDBRANCH  25  26
ENDBRANCH  24  25
ENDBRANCH  23  24
ENDBRANCH   1  23
TORSDOF 16
ENDMDL
MODEL 3
REMARK VINA RESULT:     -11.2      5.349     10.329
REMARK SMILES CC[C@H](C)[C@H](NC(=O)N1CCCCC1)C(=O)NCCCCCCNC(=O)c1ccc(-c2c3nc(c(-c4c(F)cccc4F)c4ccc([nH]4)c(-c4c(F)cccc4F)c4nc(c(-c5c(F)cccc5F)c5ccc2[nH]5)C=C4)C=C3)cc1
REMARK SMILES IDX 20 1 19 2 18 3 17 4 15 5 16 6 5 8 3 9 4 10 2 11 1 12 6 13
REMARK SMILES IDX 7 14 8 16 9 17 10 18 14 19 11 20 13 21 12 22 21 23 22 24
REMARK SMILES IDX 23 25 24 26 25 27 26 29 27 30 28 31 80 32 29 33 79 34 30 35
REMARK SMILES IDX 31 36 32 37 73 38 33 39 78 40 72 41 74 42 34 43 77 44 71 45
REMARK SMILES IDX 70 46 35 48 61 49 44 50 60 51 45 52 48 53 59 54 75 55 46 56
REMARK SMILES IDX 47 57 58 59 76 60 49 61 36 62 37 63 42 64 38 65 39 66 41 67
REMARK SMILES IDX 43 68 40 69 62 70 63 71 68 72 64 73 65 74 67 75 69 76 66 77
REMARK SMILES IDX 50 78 51 79 56 80 52 81 53 82 55 83 57 84 54 85
REMARK H PARENT 17 7 6 15 24 28 74 47 48 58
REMARK Flexibility Score: inf
ROOT
ATOM      1  C   UNL A   1      37.372  22.133  25.322  1.00  0.00     0.002 C 
ENDROOT
BRANCH   1   2
ATOM      2  C   UNL A   1      37.050  23.277  24.359  1.00  0.00     0.021 C 
BRANCH   2   3
ATOM      3  C   UNL A   1      35.594  23.726  24.396  1.00  0.00     0.116 C 
BRANCH   3   4
ATOM      4  N   UNL A   1      34.916  23.584  23.129  1.00  0.00    -0.354 N 
ATOM      5  C   UNL A   1      33.665  23.117  22.860  1.00  0.00     0.242 C 
ATOM      6  O   UNL A   1      33.286  23.173  21.685  1.00  0.00    -0.273 OA
ATOM      7  H   UNL A   1      35.434  23.867  22.343  1.00  0.00     0.163 HD
BRANCH   5   8
ATOM      8  C   UNL A   1      32.707  22.638  23.971  1.00  0.00     0.176 C 
BRANCH   8   9
ATOM      9  C   UNL A   1      31.864  23.883  24.527  1.00  0.00     0.018 C 
ATOM     10  C   UNL A   1      30.562  24.214  23.764  1.00  0.00     0.010 C 
BRANCH   9  11
ATOM     11  C   UNL A   1      31.622  23.809  26.066  1.00  0.00     0.002 C 
ATOM     12  C   UNL A   1      30.294  23.227  26.529  1.00  0.00     0.004 C 
ENDBRANCH   9  11
ENDBRANCH   8   9
BRANCH   8  13
ATOM     13  N   UNL A   1      33.269  21.786  25.047  1.00  0.00    -0.326 N 
ATOM     14  C   UNL A   1      33.115  20.533  25.526  1.00  0.00     0.318 C 
ATOM     15  H   UNL A   1      33.952  22.275  25.561  1.00  0.00     0.166 HD
ATOM     16  O   UNL A   1      33.429  20.417  26.717  1.00  0.00    -0.249 OA
ATOM     17  N   UNL A   1      32.737  19.452  24.777  1.00  0.00    -0.325 N 
ATOM     18  C   UNL A   1      32.795  18.126  25.395  1.00  0.00     0.121 C 
ATOM     19  C   UNL A   1      32.505  19.440  23.348  1.00  0.00     0.121 C 
ATOM     20  C   UNL A   1      33.833  17.280  24.664  1.00  0.00     0.022 C 
ATOM     21  C   UNL A   1      32.474  18.083  22.646  1.00  0.00     0.022 C 
ATOM     22  C   UNL A   1      33.425  17.031  23.216  1.00  0.00     0.004 C 
ENDBRANCH   8  13
ENDBRANCH   5   8
ENDBRANCH   3   4
ENDBRANCH   2   3
ENDBRANCH   1   2
BRANCH   1  23
ATOM     23  C   UNL A   1      36.937  20.753  24.831  1.00  0.00     0.002 C 
BRANCH  23  24
ATOM     24  C   UNL A   1      37.994  19.664  25.007  1.00  0.00     0.021 C 
BRANCH  24  25
ATOM     25  C   UNL A   1      39.207  20.108  25.810  1.00  0.00     0.116 C 
BRANCH  25  26
ATOM     26  N   UNL A   1      40.225  19.069  25.891  1.00  0.00    -0.352 N 
ATOM     27  C   UNL A   1      41.570  19.217  26.102  1.00  0.00     0.251 C 
ATOM     28  H   UNL A   1      39.906  18.144  25.780  1.00  0.00     0.163 HD
ATOM     29  O   UNL A   1      42.345  18.275  25.986  1.00  0.00    -0.269 OA
BRANCH  27  30
ATOM     30  C   UNL A   1      42.062  20.555  26.460  1.00  0.00     0.039 A 
ATOM     31  C   UNL A   1      42.335  21.477  25.451  1.00  0.00     0.014 A 
ATOM     32  C   UNL A   1      42.160  20.905  27.811  1.00  0.00     0.014 A 
ATOM     33  C   UNL A   1      42.672  22.782  25.801  1.00  0.00     0.010 A 
ATOM     34  C   UNL A   1      42.411  22.224  28.153  1.00  0.00     0.010 A 
ATOM     35  C   UNL A   1      42.691  23.167  27.153  1.00  0.00    -0.014 A 
BRANCH  35  36
ATOM     36  C   UNL A   1      43.052  24.545  27.548  1.00  0.00     0.031 A 
ATOM     37  C   UNL A   1      44.493  24.969  27.498  1.00  0.00     0.074 A 
ATOM     38  C   UNL A   1      42.103  25.383  28.003  1.00  0.00     0.049 A 
ATOM     39  N   UNL A   1      45.032  26.112  27.835  1.00  0.00    -0.248 NA
ATOM     40  C   UNL A   1      45.465  23.959  27.045  1.00  0.00     0.031 C 
ATOM     41  C   UNL A   1      40.683  25.056  28.152  1.00  0.00     0.029 A 
ATOM     42  N   UNL A   1      42.190  26.685  28.423  1.00  0.00    -0.354 N 
ATOM     43  C   UNL A   1      46.399  25.946  27.660  1.00  0.00     0.074 A 
ATOM     44  C   UNL A   1      46.616  24.577  27.251  1.00  0.00     0.031 C 
ATOM     45  C   UNL A   1      40.026  26.142  28.592  1.00  0.00     0.029 A 
ATOM     46  C   UNL A   1      40.981  27.229  28.780  1.00  0.00     0.049 A 
ATOM     47  H   UNL A   1      43.038  27.182  28.465  1.00  0.00     0.167 HD
ATOM     48  C   UNL A   1      47.385  26.863  27.794  1.00  0.00     0.037 A 
ATOM     49  C   UNL A   1      40.684  28.474  29.199  1.00  0.00     0.037 A 
ATOM     50  C   UNL A   1      47.153  28.235  28.156  1.00  0.00     0.049 A 
ATOM     51  C   UNL A   1      41.791  29.485  29.310  1.00  0.00     0.074 A 
ATOM     52  C   UNL A   1      48.063  29.273  28.247  1.00  0.00     0.029 A 
ATOM     53  N   UNL A   1      45.910  28.760  28.483  1.00  0.00    -0.354 N 
ATOM     54  N   UNL A   1      43.070  29.342  29.061  1.00  0.00    -0.248 NA
ATOM     55  C   UNL A   1      41.410  30.833  29.750  1.00  0.00     0.031 C 
ATOM     56  C   UNL A   1      47.376  30.417  28.665  1.00  0.00     0.029 A 
ATOM     57  C   UNL A   1      46.031  30.103  28.792  1.00  0.00     0.049 A 
ATOM     58  H   UNL A   1      45.067  28.251  28.493  1.00  0.00     0.167 HD
ATOM     59  C   UNL A   1      43.642  30.588  29.280  1.00  0.00     0.074 A 
ATOM     60  C   UNL A   1      42.568  31.476  29.673  1.00  0.00     0.031 C 
ATOM     61  C   UNL A   1      44.941  30.966  29.167  1.00  0.00     0.037 A 
BRANCH  48  62
ATOM     62  C   UNL A   1      48.792  26.405  27.542  1.00  0.00     0.057 A 
ATOM     63  C   UNL A   1      49.350  26.401  26.256  1.00  0.00     0.134 A 
ATOM     64  C   UNL A   1      49.596  25.954  28.595  1.00  0.00     0.134 A 
ATOM     65  F   UNL A   1      48.628  26.804  25.199  1.00  0.00    -0.206 F 
ATOM     66  C   UNL A   1      50.644  25.931  26.021  1.00  0.00     0.040 A 
ATOM     67  C   UNL A   1      50.902  25.509  28.378  1.00  0.00     0.040 A 
ATOM     68  F   UNL A   1      49.126  25.932  29.851  1.00  0.00    -0.206 F 
ATOM     69  C   UNL A   1      51.425  25.487  27.086  1.00  0.00     0.006 A 
ENDBRANCH  48  62
BRANCH  49  70
ATOM     70  C   UNL A   1      39.276  28.849  29.481  1.00  0.00     0.057 A 
ATOM     71  C   UNL A   1      38.719  28.638  30.748  1.00  0.00     0.134 A 
ATOM     72  C   UNL A   1      38.454  29.420  28.502  1.00  0.00     0.134 A 
ATOM     73  F   UNL A   1      39.452  28.081  31.722  1.00  0.00    -0.206 F 
ATOM     74  C   UNL A   1      37.390  28.960  31.027  1.00  0.00     0.040 A 
ATOM     75  C   UNL A   1      37.129  29.768  28.774  1.00  0.00     0.040 A 
ATOM     76  F   UNL A   1      38.930  29.658  27.272  1.00  0.00    -0.206 F 
ATOM     77  C   UNL A   1      36.592  29.531  30.038  1.00  0.00     0.006 A 
ENDBRANCH  49  70
BRANCH  61  78
ATOM     78  C   UNL A   1      45.255  32.408  29.430  1.00  0.00     0.057 A 
ATOM     79  C   UNL A   1      45.183  33.376  28.421  1.00  0.00     0.134 A 
ATOM     80  C   UNL A   1      45.595  32.837  30.719  1.00  0.00     0.134 A 
ATOM     81  F   UNL A   1      44.875  33.026  27.164  1.00  0.00    -0.206 F 
ATOM     82  C   UNL A   1      45.464  34.718  28.680  1.00  0.00     0.040 A 
ATOM     83  C   UNL A   1      45.850  34.179  30.997  1.00  0.00     0.040 A 
ATOM     84  F   UNL A   1      45.671  31.959  31.731  1.00  0.00    -0.206 F 
ATOM     85  C   UNL A   1      45.792  35.123  29.974  1.00  0.00     0.006 A 
ENDBRANCH  61  78
ENDBRANCH  35  36
ENDBRANCH  27  30
ENDBRANCH  25  26
ENDBRANCH  24  25
ENDBRANCH  23  24
ENDBRANCH   1  23
TORSDOF 16
ENDMDL
