MODEL 1
REMARK VINA RESULT:     -11.0      0.000      0.000
REMARK SMILES O=C(CCc1cccnc1)Nc1ccsc1C(=O)NCCCCCCNC(=O)c1ccc(-c2c3nc(c(-c4c(F)cccc4F)c4ccc([nH]4)c(-c4c(F)cccc4F)c4nc(c(-c5c(F)cccc5F)c5ccc2[nH]5)C=C4)C=C3)cc1
REMARK SMILES IDX 21 1 20 2 19 3 17 4 18 5 16 7 12 8 13 9 14 10 15 11 11 12
REMARK SMILES IDX 1 13 2 14 3 16 4 17 5 18 6 19 10 20 7 21 9 22 8 23 22 24
REMARK SMILES IDX 23 25 24 26 25 27 26 28 27 29 28 31 29 32 30 33 82 34 31 35
REMARK SMILES IDX 81 36 32 37 33 38 34 39 75 40 35 41 80 42 74 43 76 44 36 45
REMARK SMILES IDX 79 46 73 47 72 48 37 50 63 51 46 52 62 53 47 54 50 55 61 56
REMARK SMILES IDX 77 57 48 58 49 59 60 61 78 62 51 63 38 64 39 65 44 66 40 67
REMARK SMILES IDX 41 68 43 69 45 70 42 71 64 72 65 73 70 74 66 75 67 76 69 77
REMARK SMILES IDX 71 78 68 79 52 80 53 81 58 82 54 83 55 84 57 85 59 86 56 87
REMARK H PARENT 19 6 11 15 26 30 76 49 50 60
REMARK Flexibility Score: inf
ROOT
ATOM      1  C   UNL A   1      35.819  23.168  25.438  1.00  0.00     0.021 C 
ENDROOT
BRANCH   1   2
ATOM      2  C   UNL A   1      34.601  24.119  25.430  1.00  0.00     0.116 C 
BRANCH   2   3
ATOM      3  N   UNL A   1      33.646  24.116  26.515  1.00  0.00    -0.351 N 
ATOM      4  C   UNL A   1      32.268  24.341  26.473  1.00  0.00     0.263 C 
ATOM      5  O   UNL A   1      31.696  24.284  27.566  1.00  0.00    -0.268 OA
ATOM      6  H   UNL A   1      34.019  23.930  27.408  1.00  0.00     0.163 HD
BRANCH   4   7
ATOM      7  C   UNL A   1      31.557  24.661  25.229  1.00  0.00     0.115 A 
ATOM      8  C   UNL A   1      31.252  23.930  24.087  1.00  0.00     0.065 A 
ATOM      9  C   UNL A   1      30.637  24.721  23.069  1.00  0.00     0.038 A 
ATOM     10  C   UNL A   1      30.332  25.987  23.508  1.00  0.00     0.068 A 
ATOM     11  S   UNL A   1      30.890  26.254  25.098  1.00  0.00    -0.137 S 
BRANCH   8  12
ATOM     12  N   UNL A   1      31.447  22.563  23.987  1.00  0.00    -0.325 N 
ATOM     13  O   UNL A   1      33.285  22.579  22.592  1.00  0.00    -0.275 OA
ATOM     14  C   UNL A   1      32.432  21.969  23.231  1.00  0.00     0.224 C 
ATOM     15  H   UNL A   1      30.838  21.975  24.491  1.00  0.00     0.169 HD
BRANCH  14  16
ATOM     16  C   UNL A   1      32.423  20.447  23.244  1.00  0.00     0.105 C 
BRANCH  16  17
ATOM     17  C   UNL A   1      32.558  19.776  24.610  1.00  0.00     0.047 C 
BRANCH  17  18
ATOM     18  C   UNL A   1      32.903  18.303  24.614  1.00  0.00    -0.029 A 
ATOM     19  C   UNL A   1      33.739  17.739  23.643  1.00  0.00     0.007 A 
ATOM     20  C   UNL A   1      32.400  17.427  25.560  1.00  0.00     0.114 A 
ATOM     21  C   UNL A   1      34.059  16.390  23.645  1.00  0.00     0.020 A 
ATOM     22  N   UNL A   1      32.687  16.105  25.595  1.00  0.00    -0.264 NA
ATOM     23  C   UNL A   1      33.508  15.614  24.639  1.00  0.00     0.111 A 
ENDBRANCH  17  18
ENDBRANCH  16  17
ENDBRANCH  14  16
ENDBRANCH   8  12
ENDBRANCH   4   7
ENDBRANCH   2   3
ENDBRANCH   1   2
BRANCH   1  24
ATOM     24  C   UNL A   1      36.126  21.928  24.563  1.00  0.00     0.002 C 
BRANCH  24  25
ATOM     25  C   UNL A   1      36.229  20.439  24.944  1.00  0.00     0.002 C 
BRANCH  25  26
ATOM     26  C   UNL A   1      37.546  19.656  24.945  1.00  0.00     0.021 C 
BRANCH  26  27
ATOM     27  C   UNL A   1      38.782  20.262  25.596  1.00  0.00     0.116 C 
BRANCH  27  28
ATOM     28  N   UNL A   1      39.871  19.310  25.736  1.00  0.00    -0.352 N 
ATOM     29  C   UNL A   1      41.188  19.547  26.069  1.00  0.00     0.251 C 
ATOM     30  H   UNL A   1      39.636  18.368  25.571  1.00  0.00     0.163 HD
ATOM     31  O   UNL A   1      42.026  18.661  25.941  1.00  0.00    -0.269 OA
BRANCH  29  32
ATOM     32  C   UNL A   1      41.603  20.876  26.586  1.00  0.00     0.039 A 
ATOM     33  C   UNL A   1      42.016  21.874  25.694  1.00  0.00     0.014 A 
ATOM     34  C   UNL A   1      41.634  21.121  27.961  1.00  0.00     0.014 A 
ATOM     35  C   UNL A   1      42.415  23.129  26.178  1.00  0.00     0.010 A 
ATOM     36  C   UNL A   1      41.966  22.387  28.436  1.00  0.00     0.010 A 
ATOM     37  C   UNL A   1      42.378  23.399  27.553  1.00  0.00    -0.014 A 
BRANCH  37  38
ATOM     38  C   UNL A   1      42.839  24.692  28.130  1.00  0.00     0.031 A 
ATOM     39  C   UNL A   1      41.817  25.758  28.430  1.00  0.00     0.074 A 
ATOM     40  C   UNL A   1      44.151  24.948  28.295  1.00  0.00     0.049 A 
ATOM     41  N   UNL A   1      41.992  27.023  28.716  1.00  0.00    -0.248 NA
ATOM     42  C   UNL A   1      40.403  25.350  28.358  1.00  0.00     0.031 C 
ATOM     43  C   UNL A   1      45.241  24.007  28.038  1.00  0.00     0.029 A 
ATOM     44  N   UNL A   1      44.791  26.096  28.696  1.00  0.00    -0.354 N 
ATOM     45  C   UNL A   1      40.715  27.562  28.831  1.00  0.00     0.074 A 
ATOM     46  C   UNL A   1      39.777  26.504  28.529  1.00  0.00     0.031 C 
ATOM     47  C   UNL A   1      46.415  24.614  28.288  1.00  0.00     0.029 A 
ATOM     48  C   UNL A   1      46.164  25.999  28.677  1.00  0.00     0.049 A 
ATOM     49  H   UNL A   1      44.314  26.912  28.971  1.00  0.00     0.167 HD
ATOM     50  C   UNL A   1      40.354  28.819  29.182  1.00  0.00     0.037 A 
ATOM     51  C   UNL A   1      47.107  26.930  28.921  1.00  0.00     0.037 A 
ATOM     52  C   UNL A   1      41.289  29.858  29.519  1.00  0.00     0.049 A 
ATOM     53  C   UNL A   1      46.680  28.329  29.286  1.00  0.00     0.074 A 
ATOM     54  C   UNL A   1      41.030  31.162  29.902  1.00  0.00     0.029 A 
ATOM     55  N   UNL A   1      42.666  29.702  29.531  1.00  0.00    -0.354 N 
ATOM     56  N   UNL A   1      45.469  28.821  29.404  1.00  0.00    -0.248 NA
ATOM     57  C   UNL A   1      47.748  29.303  29.554  1.00  0.00     0.031 C 
ATOM     58  C   UNL A   1      42.253  31.802  30.124  1.00  0.00     0.029 A 
ATOM     59  C   UNL A   1      43.269  30.884  29.920  1.00  0.00     0.049 A 
ATOM     60  H   UNL A   1      43.144  28.873  29.297  1.00  0.00     0.167 HD
ATOM     61  C   UNL A   1      45.632  30.141  29.808  1.00  0.00     0.074 A 
ATOM     62  C   UNL A   1      47.056  30.375  29.914  1.00  0.00     0.031 C 
ATOM     63  C   UNL A   1      44.689  31.076  30.070  1.00  0.00     0.037 A 
BRANCH  50  64
ATOM     64  C   UNL A   1      38.888  29.132  29.246  1.00  0.00     0.057 A 
ATOM     65  C   UNL A   1      38.165  29.019  30.440  1.00  0.00     0.134 A 
ATOM     66  C   UNL A   1      38.200  29.593  28.116  1.00  0.00     0.134 A 
ATOM     67  F   UNL A   1      38.762  28.571  31.555  1.00  0.00    -0.206 F 
ATOM     68  C   UNL A   1      36.806  29.330  30.505  1.00  0.00     0.040 A 
ATOM     69  C   UNL A   1      36.847  29.935  28.175  1.00  0.00     0.040 A 
ATOM     70  F   UNL A   1      38.832  29.732  26.942  1.00  0.00    -0.206 F 
ATOM     71  C   UNL A   1      36.146  29.798  29.371  1.00  0.00     0.006 A 
ENDBRANCH  50  64
BRANCH  51  72
ATOM     72  C   UNL A   1      48.552  26.587  28.841  1.00  0.00     0.057 A 
ATOM     73  C   UNL A   1      49.279  26.803  27.663  1.00  0.00     0.134 A 
ATOM     74  C   UNL A   1      49.228  25.989  29.910  1.00  0.00     0.134 A 
ATOM     75  F   UNL A   1      48.684  27.356  26.595  1.00  0.00    -0.206 F 
ATOM     76  C   UNL A   1      50.611  26.404  27.538  1.00  0.00     0.040 A 
ATOM     77  C   UNL A   1      50.568  25.610  29.810  1.00  0.00     0.040 A 
ATOM     78  F   UNL A   1      48.594  25.759  31.070  1.00  0.00    -0.206 F 
ATOM     79  C   UNL A   1      51.259  25.805  28.616  1.00  0.00     0.006 A 
ENDBRANCH  51  72
BRANCH  63  80
ATOM     80  C   UNL A   1      45.150  32.409  30.581  1.00  0.00     0.057 A 
ATOM     81  C   UNL A   1      45.462  33.468  29.722  1.00  0.00     0.134 A 
ATOM     82  C   UNL A   1      45.203  32.652  31.960  1.00  0.00     0.134 A 
ATOM     83  F   UNL A   1      45.439  33.293  28.392  1.00  0.00    -0.206 F 
ATOM     84  C   UNL A   1      45.823  34.722  30.217  1.00  0.00     0.040 A 
ATOM     85  C   UNL A   1      45.538  33.908  32.466  1.00  0.00     0.040 A 
ATOM     86  F   UNL A   1      44.905  31.680  32.835  1.00  0.00    -0.206 F 
ATOM     87  C   UNL A   1      45.850  34.947  31.592  1.00  0.00     0.006 A 
ENDBRANCH  63  80
ENDBRANCH  37  38
ENDBRANCH  29  32
ENDBRANCH  27  28
ENDBRANCH  26  27
ENDBRANCH  25  26
ENDBRANCH  24  25
ENDBRANCH   1  24
TORSDOF 17
ENDMDL
MODEL 2
REMARK VINA RESULT:     -11.0      4.856     10.004
REMARK SMILES O=C(CCc1cccnc1)Nc1ccsc1C(=O)NCCCCCCNC(=O)c1ccc(-c2c3nc(c(-c4c(F)cccc4F)c4ccc([nH]4)c(-c4c(F)cccc4F)c4nc(c(-c5c(F)cccc5F)c5ccc2[nH]5)C=C4)C=C3)cc1
REMARK SMILES IDX 21 1 20 2 19 3 17 4 18 5 16 7 12 8 13 9 14 10 15 11 11 12
REMARK SMILES IDX 1 13 2 14 3 16 4 17 5 18 6 19 10 20 7 21 9 22 8 23 22 24
REMARK SMILES IDX 23 25 24 26 25 27 26 28 27 29 28 31 29 32 30 33 82 34 31 35
REMARK SMILES IDX 81 36 32 37 33 38 34 39 75 40 35 41 80 42 74 43 76 44 36 45
REMARK SMILES IDX 79 46 73 47 72 48 37 50 63 51 46 52 62 53 47 54 50 55 61 56
REMARK SMILES IDX 77 57 48 58 49 59 60 61 78 62 51 63 38 64 39 65 44 66 40 67
REMARK SMILES IDX 41 68 43 69 45 70 42 71 64 72 65 73 70 74 66 75 67 76 69 77
REMARK SMILES IDX 71 78 68 79 52 80 53 81 58 82 54 83 55 84 57 85 59 86 56 87
REMARK H PARENT 19 6 11 15 26 30 76 49 50 60
REMARK Flexibility Score: inf
ROOT
ATOM      1  C   UNL A   1      31.373  27.764  27.051  1.00  0.00     0.021 C 
ENDROOT
BRANCH   1   2
ATOM      2  C   UNL A   1      31.983  26.418  26.597  1.00  0.00     0.116 C 
BRANCH   2   3
ATOM      3  N   UNL A   1      31.192  25.210  26.578  1.00  0.00    -0.351 N 
ATOM      4  C   UNL A   1      31.290  24.107  25.726  1.00  0.00     0.263 C 
ATOM      5  O   UNL A   1      30.470  23.209  25.936  1.00  0.00    -0.268 OA
ATOM      6  H   UNL A   1      30.484  25.155  27.262  1.00  0.00     0.163 HD
BRANCH   4   7
ATOM      7  C   UNL A   1      32.271  24.038  24.634  1.00  0.00     0.115 A 
ATOM      8  C   UNL A   1      32.310  24.565  23.350  1.00  0.00     0.065 A 
ATOM      9  C   UNL A   1      33.439  24.115  22.599  1.00  0.00     0.038 A 
ATOM     10  C   UNL A   1      34.322  23.398  23.368  1.00  0.00     0.068 A 
ATOM     11  S   UNL A   1      33.734  23.169  24.954  1.00  0.00    -0.137 S 
BRANCH   8  12
ATOM     12  N   UNL A   1      31.395  25.494  22.883  1.00  0.00    -0.325 N 
ATOM     13  O   UNL A   1      32.563  27.417  23.399  1.00  0.00    -0.275 OA
ATOM     14  C   UNL A   1      31.563  26.858  22.954  1.00  0.00     0.224 C 
ATOM     15  H   UNL A   1      30.568  25.154  22.471  1.00  0.00     0.169 HD
BRANCH  14  16
ATOM     16  C   UNL A   1      30.401  27.678  22.412  1.00  0.00     0.105 C 
BRANCH  16  17
ATOM     17  C   UNL A   1      29.668  28.568  23.414  1.00  0.00     0.047 C 
BRANCH  17  18
ATOM     18  C   UNL A   1      29.120  29.877  22.889  1.00  0.00    -0.029 A 
ATOM     19  C   UNL A   1      29.114  31.040  23.669  1.00  0.00     0.007 A 
ATOM     20  C   UNL A   1      28.577  29.997  21.621  1.00  0.00     0.114 A 
ATOM     21  C   UNL A   1      28.616  32.242  23.189  1.00  0.00     0.020 A 
ATOM     22  N   UNL A   1      28.079  31.151  21.118  1.00  0.00    -0.264 NA
ATOM     23  C   UNL A   1      28.108  32.246  21.910  1.00  0.00     0.111 A 
ENDBRANCH  17  18
ENDBRANCH  16  17
ENDBRANCH  14  16
ENDBRANCH   8  12
ENDBRANCH   4   7
ENDBRANCH   2   3
ENDBRANCH   1   2
BRANCH   1  24
ATOM     24  C   UNL A   1      31.959  29.197  26.997  1.00  0.00     0.002 C 
BRANCH  24  25
ATOM     25  C   UNL A   1      31.623  30.376  26.065  1.00  0.00     0.002 C 
BRANCH  25  26
ATOM     26  C   UNL A   1      31.514  31.828  26.544  1.00  0.00     0.021 C 
BRANCH  26  27
ATOM     27  C   UNL A   1      32.711  32.492  27.209  1.00  0.00     0.116 C 
BRANCH  27  28
ATOM     28  N   UNL A   1      32.443  33.861  27.617  1.00  0.00    -0.352 N 
ATOM     29  C   UNL A   1      33.075  34.614  28.585  1.00  0.00     0.251 C 
ATOM     30  H   UNL A   1      31.711  34.312  27.137  1.00  0.00     0.163 HD
ATOM     31  O   UNL A   1      32.592  35.680  28.950  1.00  0.00    -0.269 OA
BRANCH  29  32
ATOM     32  C   UNL A   1      34.345  34.141  29.192  1.00  0.00     0.039 A 
ATOM     33  C   UNL A   1      35.569  34.472  28.597  1.00  0.00     0.014 A 
ATOM     34  C   UNL A   1      34.326  33.325  30.325  1.00  0.00     0.014 A 
ATOM     35  C   UNL A   1      36.771  34.023  29.163  1.00  0.00     0.010 A 
ATOM     36  C   UNL A   1      35.520  32.935  30.924  1.00  0.00     0.010 A 
ATOM     37  C   UNL A   1      36.755  33.262  30.341  1.00  0.00    -0.014 A 
BRANCH  37  38
ATOM     38  C   UNL A   1      37.993  32.713  30.959  1.00  0.00     0.031 A 
ATOM     39  C   UNL A   1      38.629  31.492  30.348  1.00  0.00     0.074 A 
ATOM     40  C   UNL A   1      38.488  33.234  32.099  1.00  0.00     0.049 A 
ATOM     41  N   UNL A   1      39.561  30.709  30.828  1.00  0.00    -0.248 NA
ATOM     42  C   UNL A   1      38.115  31.074  29.032  1.00  0.00     0.031 C 
ATOM     43  C   UNL A   1      37.965  34.410  32.795  1.00  0.00     0.029 A 
ATOM     44  N   UNL A   1      39.534  32.819  32.888  1.00  0.00    -0.354 N 
ATOM     45  C   UNL A   1      39.724  29.697  29.888  1.00  0.00     0.074 A 
ATOM     46  C   UNL A   1      38.757  29.932  28.839  1.00  0.00     0.031 C 
ATOM     47  C   UNL A   1      38.691  34.622  33.906  1.00  0.00     0.029 A 
ATOM     48  C   UNL A   1      39.700  33.573  34.027  1.00  0.00     0.049 A 
ATOM     49  H   UNL A   1      40.110  32.054  32.661  1.00  0.00     0.167 HD
ATOM     50  C   UNL A   1      40.616  28.678  29.885  1.00  0.00     0.037 A 
ATOM     51  C   UNL A   1      40.552  33.418  35.058  1.00  0.00     0.037 A 
ATOM     52  C   UNL A   1      41.601  28.470  30.911  1.00  0.00     0.049 A 
ATOM     53  C   UNL A   1      41.518  32.260  35.044  1.00  0.00     0.074 A 
ATOM     54  C   UNL A   1      42.561  27.478  30.998  1.00  0.00     0.029 A 
ATOM     55  N   UNL A   1      41.762  29.284  32.021  1.00  0.00    -0.354 N 
ATOM     56  N   UNL A   1      41.670  31.319  34.142  1.00  0.00    -0.248 NA
ATOM     57  C   UNL A   1      42.434  32.143  36.188  1.00  0.00     0.031 C 
ATOM     58  C   UNL A   1      43.289  27.678  32.175  1.00  0.00     0.029 A 
ATOM     59  C   UNL A   1      42.810  28.820  32.795  1.00  0.00     0.049 A 
ATOM     60  H   UNL A   1      41.214  30.075  32.228  1.00  0.00     0.167 HD
ATOM     61  C   UNL A   1      42.727  30.534  34.585  1.00  0.00     0.074 A 
ATOM     62  C   UNL A   1      43.181  31.105  35.835  1.00  0.00     0.031 C 
ATOM     63  C   UNL A   1      43.277  29.438  34.009  1.00  0.00     0.037 A 
BRANCH  50  64
ATOM     64  C   UNL A   1      40.584  27.727  28.725  1.00  0.00     0.057 A 
ATOM     65  C   UNL A   1      39.766  26.589  28.731  1.00  0.00     0.134 A 
ATOM     66  C   UNL A   1      41.342  27.970  27.572  1.00  0.00     0.134 A 
ATOM     67  F   UNL A   1      39.025  26.292  29.810  1.00  0.00    -0.206 F 
ATOM     68  C   UNL A   1      39.720  25.716  27.644  1.00  0.00     0.040 A 
ATOM     69  C   UNL A   1      41.281  27.120  26.466  1.00  0.00     0.040 A 
ATOM     70  F   UNL A   1      42.140  29.045  27.495  1.00  0.00    -0.206 F 
ATOM     71  C   UNL A   1      40.473  25.985  26.503  1.00  0.00     0.006 A 
ENDBRANCH  50  64
BRANCH  51  72
ATOM     72  C   UNL A   1      40.551  34.375  36.197  1.00  0.00     0.057 A 
ATOM     73  C   UNL A   1      39.742  34.156  37.320  1.00  0.00     0.134 A 
ATOM     74  C   UNL A   1      41.308  35.551  36.171  1.00  0.00     0.134 A 
ATOM     75  F   UNL A   1      38.977  33.057  37.397  1.00  0.00    -0.206 F 
ATOM     76  C   UNL A   1      39.658  35.088  38.357  1.00  0.00     0.040 A 
ATOM     77  C   UNL A   1      41.255  36.479  37.214  1.00  0.00     0.040 A 
ATOM     78  F   UNL A   1      42.110  35.820  35.130  1.00  0.00    -0.206 F 
ATOM     79  C   UNL A   1      40.418  36.254  38.304  1.00  0.00     0.006 A 
ENDBRANCH  51  72
BRANCH  63  80
ATOM     80  C   UNL A   1      44.481  28.833  34.668  1.00  0.00     0.057 A 
ATOM     81  C   UNL A   1      45.782  29.246  34.363  1.00  0.00     0.134 A 
ATOM     82  C   UNL A   1      44.322  27.877  35.681  1.00  0.00     0.134 A 
ATOM     83  F   UNL A   1      46.000  30.150  33.395  1.00  0.00    -0.206 F 
ATOM     84  C   UNL A   1      46.887  28.720  35.035  1.00  0.00     0.040 A 
ATOM     85  C   UNL A   1      45.416  27.364  36.377  1.00  0.00     0.040 A 
ATOM     86  F   UNL A   1      43.099  27.449  36.027  1.00  0.00    -0.206 F 
ATOM     87  C   UNL A   1      46.704  27.785  36.052  1.00  0.00     0.006 A 
ENDBRANCH  63  80
ENDBRANCH  37  38
ENDBRANCH  29  32
ENDBRANCH  27  28
ENDBRANCH  26  27
ENDBRANCH  25  26
ENDBRANCH  24  25
ENDBRANCH   1  24
TORSDOF 17
ENDMDL
MODEL 3
REMARK VINA RESULT:     -10.8      2.069      7.204
REMARK SMILES O=C(CCc1cccnc1)Nc1ccsc1C(=O)NCCCCCCNC(=O)c1ccc(-c2c3nc(c(-c4c(F)cccc4F)c4ccc([nH]4)c(-c4c(F)cccc4F)c4nc(c(-c5c(F)cccc5F)c5ccc2[nH]5)C=C4)C=C3)cc1
REMARK SMILES IDX 21 1 20 2 19 3 17 4 18 5 16 7 12 8 13 9 14 10 15 11 11 12
REMARK SMILES IDX 1 13 2 14 3 16 4 17 5 18 6 19 10 20 7 21 9 22 8 23 22 24
REMARK SMILES IDX 23 25 24 26 25 27 26 28 27 29 28 31 29 32 30 33 82 34 31 35
REMARK SMILES IDX 81 36 32 37 33 38 34 39 75 40 35 41 80 42 74 43 76 44 36 45
REMARK SMILES IDX 79 46 73 47 72 48 37 50 63 51 46 52 62 53 47 54 50 55 61 56
REMARK SMILES IDX 77 57 48 58 49 59 60 61 78 62 51 63 38 64 39 65 44 66 40 67
REMARK SMILES IDX 41 68 43 69 45 70 42 71 64 72 65 73 70 74 66 75 67 76 69 77
REMARK SMILES IDX 71 78 68 79 52 80 53 81 58 82 54 83 55 84 57 85 59 86 56 87
REMARK H PARENT 19 6 11 15 26 30 76 49 50 60
REMARK Flexibility Score: inf
ROOT
ATOM      1  C   UNL A   1      37.310  23.411  25.621  1.00  0.00     0.021 C 
ENDROOT
BRANCH   1   2
ATOM      2  C   UNL A   1      36.357  22.200  25.499  1.00  0.00     0.116 C 
BRANCH   2   3
ATOM      3  N   UNL A   1      35.465  21.842  26.579  1.00  0.00    -0.351 N 
ATOM      4  C   UNL A   1      34.175  21.310  26.513  1.00  0.00     0.263 C 
ATOM      5  O   UNL A   1      33.637  21.106  27.606  1.00  0.00    -0.268 OA
ATOM      6  H   UNL A   1      35.816  21.994  27.487  1.00  0.00     0.163 HD
BRANCH   4   7
ATOM      7  C   UNL A   1      33.491  21.050  25.240  1.00  0.00     0.115 A 
ATOM      8  C   UNL A   1      32.877  21.868  24.299  1.00  0.00     0.065 A 
ATOM      9  C   UNL A   1      32.230  21.131  23.260  1.00  0.00     0.038 A 
ATOM     10  C   UNL A   1      32.503  19.786  23.330  1.00  0.00     0.068 A 
ATOM     11  S   UNL A   1      33.434  19.403  24.707  1.00  0.00    -0.137 S 
BRANCH   8  12
ATOM     12  N   UNL A   1      32.960  23.249  24.326  1.00  0.00    -0.325 N 
ATOM     13  O   UNL A   1      34.585  23.529  22.711  1.00  0.00    -0.275 OA
ATOM     14  C   UNL A   1      33.820  23.995  23.552  1.00  0.00     0.224 C 
ATOM     15  H   UNL A   1      32.362  23.732  24.942  1.00  0.00     0.169 HD
BRANCH  14  16
ATOM     16  C   UNL A   1      33.758  25.497  23.786  1.00  0.00     0.105 C 
BRANCH  16  17
ATOM     17  C   UNL A   1      34.280  25.999  25.132  1.00  0.00     0.047 C 
BRANCH  17  18
ATOM     18  C   UNL A   1      33.318  26.802  25.979  1.00  0.00    -0.029 A 
ATOM     19  C   UNL A   1      33.662  28.055  26.499  1.00  0.00     0.007 A 
ATOM     20  C   UNL A   1      32.055  26.339  26.305  1.00  0.00     0.114 A 
ATOM     21  C   UNL A   1      32.781  28.795  27.273  1.00  0.00     0.020 A 
ATOM     22  N   UNL A   1      31.168  27.029  27.059  1.00  0.00    -0.264 NA
ATOM     23  C   UNL A   1      31.548  28.239  27.527  1.00  0.00     0.111 A 
ENDBRANCH  17  18
ENDBRANCH  16  17
ENDBRANCH  14  16
ENDBRANCH   8  12
ENDBRANCH   4   7
ENDBRANCH   2   3
ENDBRANCH   1   2
BRANCH   1  24
ATOM     24  C   UNL A   1      38.755  23.494  26.174  1.00  0.00     0.002 C 
BRANCH  24  25
ATOM     25  C   UNL A   1      39.661  22.398  26.763  1.00  0.00     0.002 C 
BRANCH  25  26
ATOM     26  C   UNL A   1      39.966  21.078  26.046  1.00  0.00     0.021 C 
BRANCH  26  27
ATOM     27  C   UNL A   1      40.800  20.015  26.748  1.00  0.00     0.116 C 
BRANCH  27  28
ATOM     28  N   UNL A   1      42.001  19.662  26.010  1.00  0.00    -0.352 N 
ATOM     29  C   UNL A   1      43.026  20.481  25.584  1.00  0.00     0.251 C 
ATOM     30  H   UNL A   1      42.096  18.707  25.784  1.00  0.00     0.163 HD
ATOM     31  O   UNL A   1      43.864  20.060  24.793  1.00  0.00    -0.269 OA
BRANCH  29  32
ATOM     32  C   UNL A   1      43.125  21.877  26.079  1.00  0.00     0.039 A 
ATOM     33  C   UNL A   1      43.253  22.123  27.452  1.00  0.00     0.014 A 
ATOM     34  C   UNL A   1      43.040  22.950  25.189  1.00  0.00     0.014 A 
ATOM     35  C   UNL A   1      43.340  23.441  27.926  1.00  0.00     0.010 A 
ATOM     36  C   UNL A   1      43.193  24.254  25.652  1.00  0.00     0.010 A 
ATOM     37  C   UNL A   1      43.327  24.516  27.026  1.00  0.00    -0.014 A 
BRANCH  37  38
ATOM     38  C   UNL A   1      43.363  25.936  27.471  1.00  0.00     0.031 A 
ATOM     39  C   UNL A   1      44.700  26.580  27.735  1.00  0.00     0.074 A 
ATOM     40  C   UNL A   1      42.226  26.610  27.729  1.00  0.00     0.049 A 
ATOM     41  N   UNL A   1      44.977  27.709  28.336  1.00  0.00    -0.248 NA
ATOM     42  C   UNL A   1      45.888  25.829  27.293  1.00  0.00     0.031 C 
ATOM     43  C   UNL A   1      40.869  26.102  27.523  1.00  0.00     0.029 A 
ATOM     44  N   UNL A   1      42.033  27.868  28.249  1.00  0.00    -0.354 N 
ATOM     45  C   UNL A   1      46.365  27.787  28.367  1.00  0.00     0.074 A 
ATOM     46  C   UNL A   1      46.873  26.569  27.777  1.00  0.00     0.031 C 
ATOM     47  C   UNL A   1      39.985  27.038  27.912  1.00  0.00     0.029 A 
ATOM     48  C   UNL A   1      40.709  28.192  28.438  1.00  0.00     0.049 A 
ATOM     49  H   UNL A   1      42.773  28.480  28.468  1.00  0.00     0.167 HD
ATOM     50  C   UNL A   1      47.147  28.795  28.822  1.00  0.00     0.037 A 
ATOM     51  C   UNL A   1      40.150  29.284  28.993  1.00  0.00     0.037 A 
ATOM     52  C   UNL A   1      46.638  30.021  29.373  1.00  0.00     0.049 A 
ATOM     53  C   UNL A   1      41.043  30.381  29.516  1.00  0.00     0.074 A 
ATOM     54  C   UNL A   1      47.342  31.111  29.850  1.00  0.00     0.029 A 
ATOM     55  N   UNL A   1      45.291  30.324  29.501  1.00  0.00    -0.354 N 
ATOM     56  N   UNL A   1      42.353  30.448  29.526  1.00  0.00    -0.248 NA
ATOM     57  C   UNL A   1      40.381  31.556  30.101  1.00  0.00     0.031 C 
ATOM     58  C   UNL A   1      46.421  32.067  30.290  1.00  0.00     0.029 A 
ATOM     59  C   UNL A   1      45.145  31.588  30.045  1.00  0.00     0.049 A 
ATOM     60  H   UNL A   1      44.550  29.730  29.244  1.00  0.00     0.167 HD
ATOM     61  C   UNL A   1      42.667  31.688  30.069  1.00  0.00     0.074 A 
ATOM     62  C   UNL A   1      41.414  32.341  30.378  1.00  0.00     0.031 C 
ATOM     63  C   UNL A   1      43.884  32.238  30.293  1.00  0.00     0.037 A 
BRANCH  50  64
ATOM     64  C   UNL A   1      48.635  28.623  28.719  1.00  0.00     0.057 A 
ATOM     65  C   UNL A   1      49.379  28.044  29.755  1.00  0.00     0.134 A 
ATOM     66  C   UNL A   1      49.325  29.000  27.560  1.00  0.00     0.134 A 
ATOM     67  F   UNL A   1      48.781  27.673  30.897  1.00  0.00    -0.206 F 
ATOM     68  C   UNL A   1      50.760  27.865  29.651  1.00  0.00     0.040 A 
ATOM     69  C   UNL A   1      50.701  28.798  27.433  1.00  0.00     0.040 A 
ATOM     70  F   UNL A   1      48.673  29.553  26.527  1.00  0.00    -0.206 F 
ATOM     71  C   UNL A   1      51.423  28.235  28.483  1.00  0.00     0.006 A 
ENDBRANCH  50  64
BRANCH  51  72
ATOM     72  C   UNL A   1      38.671  29.417  29.087  1.00  0.00     0.057 A 
ATOM     73  C   UNL A   1      37.907  29.762  27.965  1.00  0.00     0.134 A 
ATOM     74  C   UNL A   1      37.994  29.260  30.301  1.00  0.00     0.134 A 
ATOM     75  F   UNL A   1      38.498  29.946  26.775  1.00  0.00    -0.206 F 
ATOM     76  C   UNL A   1      36.530  29.981  28.054  1.00  0.00     0.040 A 
ATOM     77  C   UNL A   1      36.613  29.448  30.399  1.00  0.00     0.040 A 
ATOM     78  F   UNL A   1      38.663  28.923  31.414  1.00  0.00    -0.206 F 
ATOM     79  C   UNL A   1      35.880  29.823  29.275  1.00  0.00     0.006 A 
ENDBRANCH  51  72
BRANCH  63  80
ATOM     80  C   UNL A   1      43.929  33.644  30.813  1.00  0.00     0.057 A 
ATOM     81  C   UNL A   1      44.016  33.929  32.180  1.00  0.00     0.134 A 
ATOM     82  C   UNL A   1      43.966  34.723  29.920  1.00  0.00     0.134 A 
ATOM     83  F   UNL A   1      43.975  32.939  33.085  1.00  0.00    -0.206 F 
ATOM     84  C   UNL A   1      44.127  35.241  32.643  1.00  0.00     0.040 A 
ATOM     85  C   UNL A   1      44.102  36.037  30.369  1.00  0.00     0.040 A 
ATOM     86  F   UNL A   1      43.897  34.515  28.597  1.00  0.00    -0.206 F 
ATOM     87  C   UNL A   1      44.181  36.298  31.735  1.00  0.00     0.006 A 
ENDBRANCH  63  80
ENDBRANCH  37  38
ENDBRANCH  29  32
ENDBRANCH  27  28
ENDBRANCH  26  27
ENDBRANCH  25  26
ENDBRANCH  24  25
ENDBRANCH   1  24
TORSDOF 17
ENDMDL
