MODEL 1
REMARK VINA RESULT:     -12.8      0.000      0.000
REMARK SMILES O=C(NCCCCCCNC(=O)c1cn(C2CN(C(=O)Nc3ccsc3)C2)nn1)c1ccc(-c2c3nc(c(-c4c(F)cccc4F)c4ccc([nH]4)c(-c4c(F)cccc4F)c4nc(c(-c5c(F)cccc5F)c5ccc2[nH]5)C=C4)C=C3)cc1
REMARK SMILES IDX 6 1 5 2 4 3 3 4 1 5 2 6 30 8 31 9 83 10 32 11 82 12 33 13
REMARK SMILES IDX 34 14 35 15 76 16 36 17 81 18 75 19 77 20 37 21 80 22 74 23
REMARK SMILES IDX 73 24 38 26 64 27 47 28 63 29 48 30 51 31 62 32 78 33 49 34
REMARK SMILES IDX 50 35 61 37 79 38 52 39 39 40 40 41 45 42 41 43 42 44 44 45
REMARK SMILES IDX 46 46 43 47 65 48 66 49 71 50 67 51 68 52 70 53 72 54 69 55
REMARK SMILES IDX 53 56 54 57 59 58 55 59 56 60 58 61 60 62 57 63 7 64 8 65
REMARK SMILES IDX 9 66 10 67 11 68 12 70 13 71 14 72 29 73 15 74 28 75 16 76
REMARK SMILES IDX 17 77 27 78 18 79 19 80 20 81 21 82 22 84 23 85 26 86 24 87
REMARK SMILES IDX 25 88
REMARK H PARENT 3 7 77 25 51 36 10 69 21 83
REMARK Flexibility Score: inf
ROOT
ATOM      1  C   UNL A   1      35.490  21.373  24.690  1.00  0.00     0.002 C 
ENDROOT
BRANCH   1   2
ATOM      2  C   UNL A   1      36.956  20.996  24.955  1.00  0.00     0.021 C 
BRANCH   2   3
ATOM      3  C   UNL A   1      37.851  22.164  25.369  1.00  0.00     0.116 C 
BRANCH   3   4
ATOM      4  N   UNL A   1      39.190  21.762  25.738  1.00  0.00    -0.352 N 
ATOM      5  O   UNL A   1      41.165  21.544  26.684  1.00  0.00    -0.269 OA
ATOM      6  C   UNL A   1      40.172  22.265  26.541  1.00  0.00     0.251 C 
ATOM      7  H   UNL A   1      39.457  20.920  25.304  1.00  0.00     0.163 HD
BRANCH   6   8
ATOM      8  C   UNL A   1      40.171  23.605  27.193  1.00  0.00     0.039 A 
ATOM      9  C   UNL A   1      39.122  24.524  27.202  1.00  0.00     0.014 A 
ATOM     10  C   UNL A   1      41.376  23.962  27.833  1.00  0.00     0.014 A 
ATOM     11  C   UNL A   1      39.298  25.789  27.768  1.00  0.00     0.010 A 
ATOM     12  C   UNL A   1      41.555  25.217  28.402  1.00  0.00     0.010 A 
ATOM     13  C   UNL A   1      40.526  26.147  28.337  1.00  0.00    -0.014 A 
BRANCH  13  14
ATOM     14  C   UNL A   1      40.651  27.452  28.988  1.00  0.00     0.031 A 
ATOM     15  C   UNL A   1      41.672  28.356  28.375  1.00  0.00     0.074 A 
ATOM     16  C   UNL A   1      39.820  27.896  29.957  1.00  0.00     0.049 A 
ATOM     17  N   UNL A   1      42.725  28.868  28.925  1.00  0.00    -0.248 NA
ATOM     18  C   UNL A   1      41.556  28.645  26.935  1.00  0.00     0.031 C 
ATOM     19  C   UNL A   1      38.595  27.268  30.459  1.00  0.00     0.029 A 
ATOM     20  N   UNL A   1      39.857  29.072  30.647  1.00  0.00    -0.354 N 
ATOM     21  C   UNL A   1      43.316  29.681  27.958  1.00  0.00     0.074 A 
ATOM     22  C   UNL A   1      42.629  29.408  26.722  1.00  0.00     0.031 C 
ATOM     23  C   UNL A   1      37.900  28.164  31.199  1.00  0.00     0.029 A 
ATOM     24  C   UNL A   1      38.691  29.373  31.344  1.00  0.00     0.049 A 
ATOM     25  H   UNL A   1      40.647  29.661  30.653  1.00  0.00     0.167 HD
ATOM     26  C   UNL A   1      44.207  30.659  28.287  1.00  0.00     0.037 A 
ATOM     27  C   UNL A   1      38.384  30.548  31.953  1.00  0.00     0.037 A 
ATOM     28  C   UNL A   1      44.747  30.453  29.603  1.00  0.00     0.049 A 
ATOM     29  C   UNL A   1      39.651  31.286  32.166  1.00  0.00     0.074 A 
ATOM     30  C   UNL A   1      45.510  29.470  30.202  1.00  0.00     0.029 A 
ATOM     31  N   UNL A   1      44.229  31.199  30.631  1.00  0.00    -0.354 N 
ATOM     32  N   UNL A   1      40.582  30.911  32.998  1.00  0.00    -0.248 NA
ATOM     33  C   UNL A   1      40.073  32.206  31.122  1.00  0.00     0.031 C 
ATOM     34  C   UNL A   1      45.001  29.373  31.530  1.00  0.00     0.029 A 
ATOM     35  C   UNL A   1      44.008  30.342  31.674  1.00  0.00     0.049 A 
ATOM     36  H   UNL A   1      44.051  32.167  30.619  1.00  0.00     0.167 HD
ATOM     37  C   UNL A   1      41.769  31.186  32.337  1.00  0.00     0.074 A 
ATOM     38  C   UNL A   1      41.395  32.054  31.221  1.00  0.00     0.031 C 
ATOM     39  C   UNL A   1      42.897  30.462  32.587  1.00  0.00     0.037 A 
BRANCH  26  40
ATOM     40  C   UNL A   1      44.327  31.989  27.583  1.00  0.00     0.057 A 
ATOM     41  C   UNL A   1      45.332  32.165  26.611  1.00  0.00     0.134 A 
ATOM     42  C   UNL A   1      43.722  33.176  28.038  1.00  0.00     0.134 A 
ATOM     43  F   UNL A   1      45.989  31.113  26.099  1.00  0.00    -0.206 F 
ATOM     44  C   UNL A   1      45.765  33.432  26.198  1.00  0.00     0.040 A 
ATOM     45  C   UNL A   1      44.115  34.443  27.595  1.00  0.00     0.040 A 
ATOM     46  F   UNL A   1      42.796  33.184  29.003  1.00  0.00    -0.206 F 
ATOM     47  C   UNL A   1      45.164  34.578  26.701  1.00  0.00     0.006 A 
ENDBRANCH  26  40
BRANCH  27  48
ATOM     48  C   UNL A   1      37.068  31.223  32.068  1.00  0.00     0.057 A 
ATOM     49  C   UNL A   1      36.641  31.799  33.275  1.00  0.00     0.134 A 
ATOM     50  C   UNL A   1      36.332  31.578  30.924  1.00  0.00     0.134 A 
ATOM     51  F   UNL A   1      37.306  31.561  34.415  1.00  0.00    -0.206 F 
ATOM     52  C   UNL A   1      35.561  32.692  33.336  1.00  0.00     0.040 A 
ATOM     53  C   UNL A   1      35.251  32.467  30.972  1.00  0.00     0.040 A 
ATOM     54  F   UNL A   1      36.700  31.151  29.708  1.00  0.00    -0.206 F 
ATOM     55  C   UNL A   1      34.870  33.038  32.179  1.00  0.00     0.006 A 
ENDBRANCH  27  48
BRANCH  39  56
ATOM     56  C   UNL A   1      42.896  29.527  33.762  1.00  0.00     0.057 A 
ATOM     57  C   UNL A   1      43.177  29.920  35.079  1.00  0.00     0.134 A 
ATOM     58  C   UNL A   1      42.409  28.228  33.578  1.00  0.00     0.134 A 
ATOM     59  F   UNL A   1      43.561  31.171  35.365  1.00  0.00    -0.206 F 
ATOM     60  C   UNL A   1      43.003  29.050  36.160  1.00  0.00     0.040 A 
ATOM     61  C   UNL A   1      42.199  27.361  34.651  1.00  0.00     0.040 A 
ATOM     62  F   UNL A   1      42.068  27.802  32.351  1.00  0.00    -0.206 F 
ATOM     63  C   UNL A   1      42.502  27.768  35.947  1.00  0.00     0.006 A 
ENDBRANCH  39  56
ENDBRANCH  13  14
ENDBRANCH   6   8
ENDBRANCH   3   4
ENDBRANCH   2   3
ENDBRANCH   1   2
BRANCH   1  64
ATOM     64  C   UNL A   1      34.460  20.259  24.908  1.00  0.00     0.002 C 
BRANCH  64  65
ATOM     65  C   UNL A   1      33.100  20.486  24.248  1.00  0.00     0.021 C 
BRANCH  65  66
ATOM     66  C   UNL A   1      32.174  21.424  25.016  1.00  0.00     0.116 C 
BRANCH  66  67
ATOM     67  N   UNL A   1      32.469  21.441  26.440  1.00  0.00    -0.351 N 
ATOM     68  C   UNL A   1      32.490  22.517  27.298  1.00  0.00     0.273 C 
ATOM     69  H   UNL A   1      32.682  20.569  26.844  1.00  0.00     0.163 HD
ATOM     70  O   UNL A   1      32.954  22.372  28.431  1.00  0.00    -0.267 OA
BRANCH  68  71
ATOM     71  C   UNL A   1      31.955  23.776  26.824  1.00  0.00     0.170 A 
ATOM     72  C   UNL A   1      32.640  24.800  26.196  1.00  0.00     0.145 A 
ATOM     73  N   UNL A   1      30.642  24.143  26.963  1.00  0.00    -0.125 NA
ATOM     74  N   UNL A   1      31.717  25.798  26.096  1.00  0.00    -0.245 N 
ATOM     75  N   UNL A   1      30.512  25.388  26.527  1.00  0.00    -0.066 NA
BRANCH  74  76
ATOM     76  C   UNL A   1      31.908  27.110  25.576  1.00  0.00     0.148 C 
ATOM     77  C   UNL A   1      32.938  27.255  24.440  1.00  0.00     0.150 C 
ATOM     78  C   UNL A   1      30.861  27.461  24.496  1.00  0.00     0.150 C 
ATOM     79  N   UNL A   1      31.949  28.154  23.843  1.00  0.00    -0.320 N 
ATOM     80  C   UNL A   1      32.119  28.991  22.790  1.00  0.00     0.322 C 
ATOM     81  O   UNL A   1      33.238  29.160  22.297  1.00  0.00    -0.248 OA
ATOM     82  N   UNL A   1      31.051  29.554  22.166  1.00  0.00    -0.307 N 
ATOM     83  H   UNL A   1      31.235  29.880  21.255  1.00  0.00     0.171 HD
BRANCH  82  84
ATOM     84  C   UNL A   1      29.751  29.748  22.593  1.00  0.00     0.053 A 
ATOM     85  C   UNL A   1      28.646  28.857  22.471  1.00  0.00     0.038 A 
ATOM     86  C   UNL A   1      29.393  30.877  23.301  1.00  0.00     0.091 A 
ATOM     87  C   UNL A   1      27.458  29.431  22.869  1.00  0.00     0.067 A 
ATOM     88  S   UNL A   1      27.702  30.975  23.557  1.00  0.00    -0.150 S 
ENDBRANCH  82  84
ENDBRANCH  74  76
ENDBRANCH  68  71
ENDBRANCH  66  67
ENDBRANCH  65  66
ENDBRANCH  64  65
ENDBRANCH   1  64
TORSDOF 15
ENDMDL
MODEL 2
REMARK VINA RESULT:     -12.7      2.680      3.963
REMARK SMILES O=C(NCCCCCCNC(=O)c1cn(C2CN(C(=O)Nc3ccsc3)C2)nn1)c1ccc(-c2c3nc(c(-c4c(F)cccc4F)c4ccc([nH]4)c(-c4c(F)cccc4F)c4nc(c(-c5c(F)cccc5F)c5ccc2[nH]5)C=C4)C=C3)cc1
REMARK SMILES IDX 6 1 5 2 4 3 3 4 1 5 2 6 30 8 31 9 83 10 32 11 82 12 33 13
REMARK SMILES IDX 34 14 35 15 76 16 36 17 81 18 75 19 77 20 37 21 80 22 74 23
REMARK SMILES IDX 73 24 38 26 64 27 47 28 63 29 48 30 51 31 62 32 78 33 49 34
REMARK SMILES IDX 50 35 61 37 79 38 52 39 39 40 40 41 45 42 41 43 42 44 44 45
REMARK SMILES IDX 46 46 43 47 65 48 66 49 71 50 67 51 68 52 70 53 72 54 69 55
REMARK SMILES IDX 53 56 54 57 59 58 55 59 56 60 58 61 60 62 57 63 7 64 8 65
REMARK SMILES IDX 9 66 10 67 11 68 12 70 13 71 14 72 29 73 15 74 28 75 16 76
REMARK SMILES IDX 17 77 27 78 18 79 19 80 20 81 21 82 22 84 23 85 26 86 24 87
REMARK SMILES IDX 25 88
REMARK H PARENT 3 7 77 25 51 36 10 69 21 83
REMARK Flexibility Score: inf
ROOT
ATOM      1  C   UNL A   1      41.163  20.705  26.509  1.00  0.00     0.002 C 
ENDROOT
BRANCH   1   2
ATOM      2  C   UNL A   1      41.578  19.321  25.989  1.00  0.00     0.021 C 
BRANCH   2   3
ATOM      3  C   UNL A   1      43.079  19.038  26.054  1.00  0.00     0.116 C 
BRANCH   3   4
ATOM      4  N   UNL A   1      43.813  19.549  24.917  1.00  0.00    -0.352 N 
ATOM      5  O   UNL A   1      45.038  20.744  23.534  1.00  0.00    -0.269 OA
ATOM      6  C   UNL A   1      44.385  20.741  24.582  1.00  0.00     0.251 C 
ATOM      7  H   UNL A   1      43.927  18.870  24.214  1.00  0.00     0.163 HD
BRANCH   6   8
ATOM      8  C   UNL A   1      44.239  22.023  25.329  1.00  0.00     0.039 A 
ATOM      9  C   UNL A   1      44.918  22.391  26.490  1.00  0.00     0.014 A 
ATOM     10  C   UNL A   1      43.290  22.921  24.798  1.00  0.00     0.014 A 
ATOM     11  C   UNL A   1      44.605  23.587  27.141  1.00  0.00     0.010 A 
ATOM     12  C   UNL A   1      42.978  24.115  25.439  1.00  0.00     0.010 A 
ATOM     13  C   UNL A   1      43.610  24.432  26.634  1.00  0.00    -0.014 A 
BRANCH  13  14
ATOM     14  C   UNL A   1      43.360  25.711  27.299  1.00  0.00     0.031 A 
ATOM     15  C   UNL A   1      44.353  26.782  26.978  1.00  0.00     0.074 A 
ATOM     16  C   UNL A   1      42.249  25.984  28.019  1.00  0.00     0.049 A 
ATOM     17  N   UNL A   1      45.136  27.420  27.787  1.00  0.00    -0.248 NA
ATOM     18  C   UNL A   1      44.569  27.114  25.560  1.00  0.00     0.031 C 
ATOM     19  C   UNL A   1      41.049  25.160  28.180  1.00  0.00     0.029 A 
ATOM     20  N   UNL A   1      41.925  27.121  28.699  1.00  0.00    -0.354 N 
ATOM     21  C   UNL A   1      45.824  28.353  27.011  1.00  0.00     0.074 A 
ATOM     22  C   UNL A   1      45.530  28.035  25.638  1.00  0.00     0.031 C 
ATOM     23  C   UNL A   1      40.056  25.909  28.715  1.00  0.00     0.029 A 
ATOM     24  C   UNL A   1      40.586  27.215  29.066  1.00  0.00     0.049 A 
ATOM     25  H   UNL A   1      42.585  27.820  28.913  1.00  0.00     0.167 HD
ATOM     26  C   UNL A   1      46.437  29.436  27.565  1.00  0.00     0.037 A 
ATOM     27  C   UNL A   1      39.955  28.304  29.579  1.00  0.00     0.037 A 
ATOM     28  C   UNL A   1      46.644  29.256  28.976  1.00  0.00     0.049 A 
ATOM     29  C   UNL A   1      40.994  29.211  30.119  1.00  0.00     0.074 A 
ATOM     30  C   UNL A   1      47.369  28.371  29.751  1.00  0.00     0.029 A 
ATOM     31  N   UNL A   1      45.770  29.871  29.835  1.00  0.00    -0.354 N 
ATOM     32  N   UNL A   1      41.725  28.942  31.163  1.00  0.00    -0.248 NA
ATOM     33  C   UNL A   1      41.524  30.229  29.224  1.00  0.00     0.031 C 
ATOM     34  C   UNL A   1      46.556  28.142  30.898  1.00  0.00     0.029 A 
ATOM     35  C   UNL A   1      45.422  28.945  30.781  1.00  0.00     0.049 A 
ATOM     36  H   UNL A   1      45.453  30.801  29.781  1.00  0.00     0.167 HD
ATOM     37  C   UNL A   1      42.985  29.419  30.837  1.00  0.00     0.074 A 
ATOM     38  C   UNL A   1      42.782  30.270  29.666  1.00  0.00     0.031 C 
ATOM     39  C   UNL A   1      44.108  28.859  31.371  1.00  0.00     0.037 A 
BRANCH  26  40
ATOM     40  C   UNL A   1      46.528  30.800  26.922  1.00  0.00     0.057 A 
ATOM     41  C   UNL A   1      47.766  31.472  26.906  1.00  0.00     0.134 A 
ATOM     42  C   UNL A   1      45.411  31.600  26.614  1.00  0.00     0.134 A 
ATOM     43  F   UNL A   1      48.908  30.824  27.185  1.00  0.00    -0.206 F 
ATOM     44  C   UNL A   1      47.870  32.852  26.693  1.00  0.00     0.040 A 
ATOM     45  C   UNL A   1      45.510  32.970  26.354  1.00  0.00     0.040 A 
ATOM     46  F   UNL A   1      44.160  31.127  26.649  1.00  0.00    -0.206 F 
ATOM     47  C   UNL A   1      46.736  33.609  26.429  1.00  0.00     0.006 A 
ENDBRANCH  26  40
BRANCH  27  48
ATOM     48  C   UNL A   1      38.566  28.770  29.347  1.00  0.00     0.057 A 
ATOM     49  C   UNL A   1      37.640  28.871  30.398  1.00  0.00     0.134 A 
ATOM     50  C   UNL A   1      38.205  29.409  28.148  1.00  0.00     0.134 A 
ATOM     51  F   UNL A   1      37.912  28.337  31.598  1.00  0.00    -0.206 F 
ATOM     52  C   UNL A   1      36.439  29.584  30.270  1.00  0.00     0.040 A 
ATOM     53  C   UNL A   1      37.008  30.121  28.007  1.00  0.00     0.040 A 
ATOM     54  F   UNL A   1      39.048  29.445  27.106  1.00  0.00    -0.206 F 
ATOM     55  C   UNL A   1      36.125  30.223  29.075  1.00  0.00     0.006 A 
ENDBRANCH  27  48
BRANCH  39  56
ATOM     56  C   UNL A   1      43.948  27.884  32.502  1.00  0.00     0.057 A 
ATOM     57  C   UNL A   1      43.874  26.493  32.335  1.00  0.00     0.134 A 
ATOM     58  C   UNL A   1      44.065  28.360  33.812  1.00  0.00     0.134 A 
ATOM     59  F   UNL A   1      43.852  25.939  31.117  1.00  0.00    -0.206 F 
ATOM     60  C   UNL A   1      43.892  25.619  33.427  1.00  0.00     0.040 A 
ATOM     61  C   UNL A   1      44.117  27.498  34.908  1.00  0.00     0.040 A 
ATOM     62  F   UNL A   1      44.195  29.677  34.043  1.00  0.00    -0.206 F 
ATOM     63  C   UNL A   1      44.025  26.122  34.718  1.00  0.00     0.006 A 
ENDBRANCH  39  56
ENDBRANCH  13  14
ENDBRANCH   6   8
ENDBRANCH   3   4
ENDBRANCH   2   3
ENDBRANCH   1   2
BRANCH   1  64
ATOM     64  C   UNL A   1      39.704  21.105  26.262  1.00  0.00     0.002 C 
BRANCH  64  65
ATOM     65  C   UNL A   1      39.390  22.589  26.458  1.00  0.00     0.021 C 
BRANCH  65  66
ATOM     66  C   UNL A   1      38.005  23.011  25.979  1.00  0.00     0.116 C 
BRANCH  66  67
ATOM     67  N   UNL A   1      37.027  21.944  26.122  1.00  0.00    -0.351 N 
ATOM     68  C   UNL A   1      35.759  21.867  25.592  1.00  0.00     0.273 C 
ATOM     69  H   UNL A   1      37.308  21.176  26.670  1.00  0.00     0.163 HD
ATOM     70  O   UNL A   1      34.999  20.977  25.980  1.00  0.00    -0.267 OA
BRANCH  68  71
ATOM     71  C   UNL A   1      35.380  22.841  24.589  1.00  0.00     0.170 A 
ATOM     72  C   UNL A   1      34.922  24.129  24.796  1.00  0.00     0.145 A 
ATOM     73  N   UNL A   1      35.407  22.592  23.242  1.00  0.00    -0.125 NA
ATOM     74  N   UNL A   1      34.574  24.557  23.550  1.00  0.00    -0.245 N 
ATOM     75  N   UNL A   1      34.897  23.645  22.617  1.00  0.00    -0.066 NA
BRANCH  74  76
ATOM     76  C   UNL A   1      33.987  25.804  23.191  1.00  0.00     0.148 C 
ATOM     77  C   UNL A   1      32.686  25.739  22.369  1.00  0.00     0.150 C 
ATOM     78  C   UNL A   1      33.095  26.368  24.318  1.00  0.00     0.150 C 
ATOM     79  N   UNL A   1      32.241  26.825  23.244  1.00  0.00    -0.320 N 
ATOM     80  C   UNL A   1      31.149  27.614  23.096  1.00  0.00     0.322 C 
ATOM     81  O   UNL A   1      30.465  27.552  22.071  1.00  0.00    -0.248 OA
ATOM     82  N   UNL A   1      30.702  28.389  24.119  1.00  0.00    -0.307 N 
ATOM     83  H   UNL A   1      29.764  28.674  24.036  1.00  0.00     0.171 HD
BRANCH  82  84
ATOM     84  C   UNL A   1      31.342  28.845  25.256  1.00  0.00     0.053 A 
ATOM     85  C   UNL A   1      31.334  28.267  26.559  1.00  0.00     0.038 A 
ATOM     86  C   UNL A   1      32.176  29.944  25.214  1.00  0.00     0.091 A 
ATOM     87  C   UNL A   1      31.954  29.065  27.494  1.00  0.00     0.067 A 
ATOM     88  S   UNL A   1      32.703  30.420  26.773  1.00  0.00    -0.150 S 
ENDBRANCH  82  84
ENDBRANCH  74  76
ENDBRANCH  68  71
ENDBRANCH  66  67
ENDBRANCH  65  66
ENDBRANCH  64  65
ENDBRANCH   1  64
TORSDOF 15
ENDMDL
MODEL 3
REMARK VINA RESULT:     -12.1      5.209     10.040
REMARK SMILES O=C(NCCCCCCNC(=O)c1cn(C2CN(C(=O)Nc3ccsc3)C2)nn1)c1ccc(-c2c3nc(c(-c4c(F)cccc4F)c4ccc([nH]4)c(-c4c(F)cccc4F)c4nc(c(-c5c(F)cccc5F)c5ccc2[nH]5)C=C4)C=C3)cc1
REMARK SMILES IDX 6 1 5 2 4 3 3 4 1 5 2 6 30 8 31 9 83 10 32 11 82 12 33 13
REMARK SMILES IDX 34 14 35 15 76 16 36 17 81 18 75 19 77 20 37 21 80 22 74 23
REMARK SMILES IDX 73 24 38 26 64 27 47 28 63 29 48 30 51 31 62 32 78 33 49 34
REMARK SMILES IDX 50 35 61 37 79 38 52 39 39 40 40 41 45 42 41 43 42 44 44 45
REMARK SMILES IDX 46 46 43 47 65 48 66 49 71 50 67 51 68 52 70 53 72 54 69 55
REMARK SMILES IDX 53 56 54 57 59 58 55 59 56 60 58 61 60 62 57 63 7 64 8 65
REMARK SMILES IDX 9 66 10 67 11 68 12 70 13 71 14 72 29 73 15 74 28 75 16 76
REMARK SMILES IDX 17 77 27 78 18 79 19 80 20 81 21 82 22 84 23 85 26 86 24 87
REMARK SMILES IDX 25 88
REMARK H PARENT 3 7 77 25 51 36 10 69 21 83
REMARK Flexibility Score: inf
ROOT
ATOM      1  C   UNL A   1      34.837  33.745  28.387  1.00  0.00     0.002 C 
ENDROOT
BRANCH   1   2
ATOM      2  C   UNL A   1      35.052  32.955  29.687  1.00  0.00     0.021 C 
BRANCH   2   3
ATOM      3  C   UNL A   1      35.982  31.749  29.556  1.00  0.00     0.116 C 
BRANCH   3   4
ATOM      4  N   UNL A   1      35.504  30.750  28.625  1.00  0.00    -0.352 N 
ATOM      5  O   UNL A   1      35.221  28.953  27.388  1.00  0.00    -0.269 OA
ATOM      6  C   UNL A   1      36.010  29.608  28.076  1.00  0.00     0.251 C 
ATOM      7  H   UNL A   1      34.591  30.942  28.312  1.00  0.00     0.163 HD
BRANCH   6   8
ATOM      8  C   UNL A   1      37.417  29.131  28.189  1.00  0.00     0.039 A 
ATOM      9  C   UNL A   1      37.960  28.378  29.230  1.00  0.00     0.014 A 
ATOM     10  C   UNL A   1      38.268  29.521  27.134  1.00  0.00     0.014 A 
ATOM     11  C   UNL A   1      39.326  28.088  29.252  1.00  0.00     0.010 A 
ATOM     12  C   UNL A   1      39.628  29.231  27.149  1.00  0.00     0.010 A 
ATOM     13  C   UNL A   1      40.166  28.544  28.229  1.00  0.00    -0.014 A 
BRANCH  13  14
ATOM     14  C   UNL A   1      41.578  28.159  28.246  1.00  0.00     0.031 A 
ATOM     15  C   UNL A   1      41.876  26.864  27.561  1.00  0.00     0.074 A 
ATOM     16  C   UNL A   1      42.573  28.957  28.691  1.00  0.00     0.049 A 
ATOM     17  N   UNL A   1      42.397  25.791  28.062  1.00  0.00    -0.248 NA
ATOM     18  C   UNL A   1      41.445  26.715  26.160  1.00  0.00     0.031 C 
ATOM     19  C   UNL A   1      42.493  30.359  29.110  1.00  0.00     0.029 A 
ATOM     20  N   UNL A   1      43.909  28.695  28.777  1.00  0.00    -0.354 N 
ATOM     21  C   UNL A   1      42.521  24.887  27.007  1.00  0.00     0.074 A 
ATOM     22  C   UNL A   1      41.807  25.459  25.895  1.00  0.00     0.031 C 
ATOM     23  C   UNL A   1      43.741  30.878  29.189  1.00  0.00     0.029 A 
ATOM     24  C   UNL A   1      44.709  29.817  28.969  1.00  0.00     0.049 A 
ATOM     25  H   UNL A   1      44.279  27.784  28.711  1.00  0.00     0.167 HD
ATOM     26  C   UNL A   1      43.362  23.817  27.073  1.00  0.00     0.037 A 
ATOM     27  C   UNL A   1      46.066  29.874  28.904  1.00  0.00     0.037 A 
ATOM     28  C   UNL A   1      43.730  23.523  28.431  1.00  0.00     0.049 A 
ATOM     29  C   UNL A   1      46.580  28.494  29.065  1.00  0.00     0.074 A 
ATOM     30  C   UNL A   1      43.045  23.132  29.565  1.00  0.00     0.029 A 
ATOM     31  N   UNL A   1      44.959  23.949  28.867  1.00  0.00    -0.354 N 
ATOM     32  N   UNL A   1      46.499  27.811  30.172  1.00  0.00    -0.248 NA
ATOM     33  C   UNL A   1      46.787  27.712  27.856  1.00  0.00     0.031 C 
ATOM     34  C   UNL A   1      43.695  23.813  30.635  1.00  0.00     0.029 A 
ATOM     35  C   UNL A   1      44.769  24.521  30.096  1.00  0.00     0.049 A 
ATOM     36  H   UNL A   1      45.813  23.859  28.388  1.00  0.00     0.167 HD
ATOM     37  C   UNL A   1      46.206  26.519  29.762  1.00  0.00     0.074 A 
ATOM     38  C   UNL A   1      46.474  26.503  28.325  1.00  0.00     0.031 C 
ATOM     39  C   UNL A   1      45.509  25.667  30.567  1.00  0.00     0.037 A 
BRANCH  26  40
ATOM     40  C   UNL A   1      44.139  23.257  25.905  1.00  0.00     0.057 A 
ATOM     41  C   UNL A   1      44.095  21.872  25.650  1.00  0.00     0.134 A 
ATOM     42  C   UNL A   1      45.161  23.955  25.235  1.00  0.00     0.134 A 
ATOM     43  F   UNL A   1      43.170  21.092  26.230  1.00  0.00    -0.206 F 
ATOM     44  C   UNL A   1      45.053  21.221  24.863  1.00  0.00     0.040 A 
ATOM     45  C   UNL A   1      46.095  23.321  24.409  1.00  0.00     0.040 A 
ATOM     46  F   UNL A   1      45.377  25.262  25.420  1.00  0.00    -0.206 F 
ATOM     47  C   UNL A   1      46.067  21.945  24.249  1.00  0.00     0.006 A 
ENDBRANCH  26  40
BRANCH  27  48
ATOM     48  C   UNL A   1      46.929  30.965  28.392  1.00  0.00     0.057 A 
ATOM     49  C   UNL A   1      46.837  31.413  27.064  1.00  0.00     0.134 A 
ATOM     50  C   UNL A   1      47.652  31.793  29.270  1.00  0.00     0.134 A 
ATOM     51  F   UNL A   1      46.130  30.720  26.160  1.00  0.00    -0.206 F 
ATOM     52  C   UNL A   1      47.410  32.621  26.641  1.00  0.00     0.040 A 
ATOM     53  C   UNL A   1      48.230  33.000  28.859  1.00  0.00     0.040 A 
ATOM     54  F   UNL A   1      47.735  31.504  30.576  1.00  0.00    -0.206 F 
ATOM     55  C   UNL A   1      48.099  33.426  27.544  1.00  0.00     0.006 A 
ENDBRANCH  27  48
BRANCH  39  56
ATOM     56  C   UNL A   1      45.279  26.067  31.996  1.00  0.00     0.057 A 
ATOM     57  C   UNL A   1      44.139  26.750  32.447  1.00  0.00     0.134 A 
ATOM     58  C   UNL A   1      46.151  25.575  32.973  1.00  0.00     0.134 A 
ATOM     59  F   UNL A   1      43.201  27.178  31.592  1.00  0.00    -0.206 F 
ATOM     60  C   UNL A   1      43.894  26.953  33.809  1.00  0.00     0.040 A 
ATOM     61  C   UNL A   1      45.901  25.743  34.336  1.00  0.00     0.040 A 
ATOM     62  F   UNL A   1      47.234  24.865  32.616  1.00  0.00    -0.206 F 
ATOM     63  C   UNL A   1      44.773  26.439  34.758  1.00  0.00     0.006 A 
ENDBRANCH  39  56
ENDBRANCH  13  14
ENDBRANCH   6   8
ENDBRANCH   3   4
ENDBRANCH   2   3
ENDBRANCH   1   2
BRANCH   1  64
ATOM     64  C   UNL A   1      33.387  34.115  28.057  1.00  0.00     0.002 C 
BRANCH  64  65
ATOM     65  C   UNL A   1      32.839  35.337  28.795  1.00  0.00     0.021 C 
BRANCH  65  66
ATOM     66  C   UNL A   1      33.907  36.219  29.435  1.00  0.00     0.116 C 
BRANCH  66  67
ATOM     67  N   UNL A   1      33.359  37.080  30.471  1.00  0.00    -0.351 N 
ATOM     68  C   UNL A   1      33.191  36.809  31.810  1.00  0.00     0.273 C 
ATOM     69  H   UNL A   1      33.068  37.973  30.176  1.00  0.00     0.163 HD
ATOM     70  O   UNL A   1      32.528  37.586  32.501  1.00  0.00    -0.267 OA
BRANCH  68  71
ATOM     71  C   UNL A   1      33.814  35.617  32.347  1.00  0.00     0.170 A 
ATOM     72  C   UNL A   1      35.125  35.463  32.756  1.00  0.00     0.145 A 
ATOM     73  N   UNL A   1      33.157  34.424  32.506  1.00  0.00    -0.125 NA
ATOM     74  N   UNL A   1      35.228  34.132  33.031  1.00  0.00    -0.245 N 
ATOM     75  N   UNL A   1      34.038  33.520  32.911  1.00  0.00    -0.066 NA
BRANCH  74  76
ATOM     76  C   UNL A   1      36.388  33.416  33.441  1.00  0.00     0.148 C 
ATOM     77  C   UNL A   1      36.355  31.888  33.251  1.00  0.00     0.150 C 
ATOM     78  C   UNL A   1      37.474  33.399  32.344  1.00  0.00     0.150 C 
ATOM     79  N   UNL A   1      37.738  32.051  32.798  1.00  0.00    -0.320 N 
ATOM     80  C   UNL A   1      38.660  31.082  32.584  1.00  0.00     0.322 C 
ATOM     81  O   UNL A   1      38.424  29.911  32.896  1.00  0.00    -0.248 OA
ATOM     82  N   UNL A   1      39.805  31.345  31.901  1.00  0.00    -0.307 N 
ATOM     83  H   UNL A   1      40.252  30.549  31.531  1.00  0.00     0.171 HD
BRANCH  82  84
ATOM     84  C   UNL A   1      40.450  32.539  31.639  1.00  0.00     0.053 A 
ATOM     85  C   UNL A   1      40.470  33.275  30.419  1.00  0.00     0.038 A 
ATOM     86  C   UNL A   1      41.121  33.222  32.633  1.00  0.00     0.091 A 
ATOM     87  C   UNL A   1      41.336  34.346  30.463  1.00  0.00     0.067 A 
ATOM     88  S   UNL A   1      41.985  34.570  32.027  1.00  0.00    -0.150 S 
ENDBRANCH  82  84
ENDBRANCH  74  76
ENDBRANCH  68  71
ENDBRANCH  66  67
ENDBRANCH  65  66
ENDBRANCH  64  65
ENDBRANCH   1  64
TORSDOF 15
ENDMDL
