MODEL 1
REMARK VINA RESULT:     -13.1      0.000      0.000
REMARK SMILES CC1=C(C)C[C@@H](C(=O)NCCCCCCNC(=O)c2ccc(-c3c4nc(c(-c5c(F)cccc5F)c5ccc([nH]5)c(-c5c(F)cccc5F)c5nc(c(-c6c(F)cccc6F)c6ccc3[nH]6)C=C5)C=C4)cc2)[C@@H](C(=O)N2CCN(c3cccc(C(F)(F)F)c3)CC2)C1
REMARK SMILES IDX 12 1 11 2 10 3 9 4 7 5 8 6 6 8 1 9 2 10 3 11 92 12 4 13 5 14
REMARK SMILES IDX 73 15 74 16 75 17 76 18 77 19 91 20 78 21 90 22 79 23 80 24
REMARK SMILES IDX 81 25 89 26 82 27 84 28 83 29 85 30 86 31 87 32 88 33 13 34
REMARK SMILES IDX 14 35 15 36 16 37 17 38 18 40 19 41 20 42 72 43 21 44 71 45
REMARK SMILES IDX 22 46 23 47 24 48 65 49 25 50 70 51 64 52 66 53 26 54 69 55
REMARK SMILES IDX 63 56 62 57 27 59 53 60 36 61 52 62 37 63 40 64 51 65 67 66
REMARK SMILES IDX 38 67 39 68 50 70 68 71 41 72 28 73 29 74 34 75 30 76 31 77
REMARK SMILES IDX 33 78 35 79 32 80 54 81 55 82 60 83 56 84 57 85 59 86 61 87
REMARK SMILES IDX 58 88 42 89 43 90 48 91 44 92 45 93 47 94 49 95 46 96
REMARK H PARENT 9 7 16 39 66 58 40 69
REMARK Flexibility Score: inf
ROOT
ATOM      1  C   UNL A   1      37.611  32.469  30.856  1.00  0.00     0.002 C 
ENDROOT
BRANCH   1   2
ATOM      2  C   UNL A   1      38.451  32.408  32.598  1.00  0.00     0.021 C 
BRANCH   2   3
ATOM      3  C   UNL A   1      38.183  34.012  33.977  1.00  0.00     0.116 C 
BRANCH   3   4
ATOM      4  N   UNL A   1      39.388  34.940  34.641  1.00  0.00    -0.356 N 
ATOM      5  C   UNL A   1      39.675  35.391  35.891  1.00  0.00     0.224 C 
ATOM      6  O   UNL A   1      40.206  36.499  35.990  1.00  0.00    -0.275 OA
ATOM      7  H   UNL A   1      40.050  35.232  33.975  1.00  0.00     0.163 HD
BRANCH   5   8
ATOM      8  C   UNL A   1      39.606  34.462  37.047  1.00  0.00     0.095 C 
ATOM      9  C   UNL A   1      41.721  36.189  40.519  1.00  0.00     0.039 C 
ATOM     10  C   UNL A   1      40.923  35.561  39.408  1.00  0.00    -0.074 C 
ATOM     11  C   UNL A   1      39.757  36.102  39.002  1.00  0.00    -0.074 C 
ATOM     12  C   UNL A   1      41.430  34.239  38.832  1.00  0.00     0.045 C 
ATOM     13  C   UNL A   1      39.215  37.451  39.413  1.00  0.00     0.039 C 
ATOM     14  C   UNL A   1      38.865  35.317  38.085  1.00  0.00     0.045 C 
ATOM     15  C   UNL A   1      40.943  33.809  37.412  1.00  0.00     0.095 C 
BRANCH  15  16
ATOM     16  C   UNL A   1      41.853  33.647  36.089  1.00  0.00     0.226 C 
ATOM     17  O   UNL A   1      42.516  34.618  35.709  1.00  0.00    -0.275 OA
ATOM     18  N   UNL A   1      42.100  32.393  35.504  1.00  0.00    -0.339 N 
ATOM     19  C   UNL A   1      43.655  31.477  35.947  1.00  0.00     0.141 C 
ATOM     20  C   UNL A   1      40.680  31.576  34.881  1.00  0.00     0.141 C 
ATOM     21  C   UNL A   1      43.359  29.577  36.544  1.00  0.00     0.138 C 
ATOM     22  C   UNL A   1      40.285  29.862  35.506  1.00  0.00     0.138 C 
ATOM     23  N   UNL A   1      41.722  28.715  35.823  1.00  0.00    -0.368 N 
BRANCH  23  24
ATOM     24  C   UNL A   1      41.760  27.496  34.434  1.00  0.00     0.037 A 
ATOM     25  C   UNL A   1      42.634  27.979  32.821  1.00  0.00     0.026 A 
ATOM     26  C   UNL A   1      42.426  26.254  35.406  1.00  0.00     0.039 A 
ATOM     27  C   UNL A   1      44.372  27.486  32.574  1.00  0.00     0.003 A 
ATOM     28  C   UNL A   1      43.975  25.571  35.120  1.00  0.00     0.058 A 
ATOM     29  C   UNL A   1      45.041  26.341  33.844  1.00  0.00     0.013 A 
BRANCH  28  30
ATOM     30  C   UNL A   1      43.017  24.035  34.923  1.00  0.00     0.416 C 
ATOM     31  F   UNL A   1      43.475  22.987  35.708  1.00  0.00    -0.166 F 
ATOM     32  F   UNL A   1      41.679  23.943  35.160  1.00  0.00    -0.166 F 
ATOM     33  F   UNL A   1      43.189  23.596  33.640  1.00  0.00    -0.166 F 
ENDBRANCH  28  30
ENDBRANCH  23  24
ENDBRANCH  15  16
ENDBRANCH   5   8
ENDBRANCH   3   4
ENDBRANCH   2   3
ENDBRANCH   1   2
BRANCH   1  34
ATOM     34  C   UNL A   1      36.237  33.778  30.592  1.00  0.00     0.002 C 
BRANCH  34  35
ATOM     35  C   UNL A   1      35.551  34.253  28.896  1.00  0.00     0.021 C 
BRANCH  35  36
ATOM     36  C   UNL A   1      33.935  33.358  28.250  1.00  0.00     0.116 C 
BRANCH  36  37
ATOM     37  N   UNL A   1      33.857  31.273  28.153  1.00  0.00    -0.352 N 
ATOM     38  C   UNL A   1      34.761  29.985  27.950  1.00  0.00     0.251 C 
ATOM     39  H   UNL A   1      32.923  30.986  28.277  1.00  0.00     0.163 HD
ATOM     40  O   UNL A   1      34.259  29.054  27.315  1.00  0.00    -0.269 OA
BRANCH  38  41
ATOM     41  C   UNL A   1      36.201  29.750  28.561  1.00  0.00     0.039 A 
ATOM     42  C   UNL A   1      36.470  29.345  29.875  1.00  0.00     0.014 A 
ATOM     43  C   UNL A   1      37.316  29.748  27.712  1.00  0.00     0.014 A 
ATOM     44  C   UNL A   1      37.790  28.921  30.240  1.00  0.00     0.010 A 
ATOM     45  C   UNL A   1      38.505  29.149  27.984  1.00  0.00     0.010 A 
ATOM     46  C   UNL A   1      38.808  28.831  29.276  1.00  0.00    -0.014 A 
BRANCH  46  47
ATOM     47  C   UNL A   1      40.234  28.478  29.368  1.00  0.00     0.031 A 
ATOM     48  C   UNL A   1      41.226  29.602  29.666  1.00  0.00     0.074 A 
ATOM     49  C   UNL A   1      40.643  27.349  28.762  1.00  0.00     0.049 A 
ATOM     50  N   UNL A   1      42.531  29.598  29.603  1.00  0.00    -0.248 NA
ATOM     51  C   UNL A   1      40.664  30.948  29.951  1.00  0.00     0.031 C 
ATOM     52  C   UNL A   1      39.769  26.352  28.134  1.00  0.00     0.029 A 
ATOM     53  N   UNL A   1      41.903  26.876  28.532  1.00  0.00    -0.354 N 
ATOM     54  C   UNL A   1      42.921  30.910  29.860  1.00  0.00     0.074 A 
ATOM     55  C   UNL A   1      41.734  31.722  29.883  1.00  0.00     0.031 C 
ATOM     56  C   UNL A   1      40.522  25.343  27.664  1.00  0.00     0.029 A 
ATOM     57  C   UNL A   1      41.922  25.631  27.953  1.00  0.00     0.049 A 
ATOM     58  H   UNL A   1      42.719  27.379  28.758  1.00  0.00     0.167 HD
ATOM     59  C   UNL A   1      44.157  31.379  30.151  1.00  0.00     0.037 A 
ATOM     60  C   UNL A   1      42.966  24.809  27.750  1.00  0.00     0.037 A 
ATOM     61  C   UNL A   1      45.309  30.526  30.148  1.00  0.00     0.049 A 
ATOM     62  C   UNL A   1      44.321  25.282  28.208  1.00  0.00     0.074 A 
ATOM     63  C   UNL A   1      46.603  30.799  30.541  1.00  0.00     0.029 A 
ATOM     64  N   UNL A   1      45.281  29.204  29.721  1.00  0.00    -0.354 N 
ATOM     65  N   UNL A   1      44.675  26.457  28.678  1.00  0.00    -0.248 NA
ATOM     66  C   UNL A   1      45.413  24.305  28.151  1.00  0.00     0.031 C 
ATOM     67  C   UNL A   1      47.367  29.648  30.319  1.00  0.00     0.029 A 
ATOM     68  C   UNL A   1      46.535  28.645  29.840  1.00  0.00     0.049 A 
ATOM     69  H   UNL A   1      44.484  28.737  29.383  1.00  0.00     0.167 HD
ATOM     70  C   UNL A   1      46.016  26.347  29.018  1.00  0.00     0.074 A 
ATOM     71  C   UNL A   1      46.403  24.982  28.713  1.00  0.00     0.031 C 
ATOM     72  C   UNL A   1      46.860  27.275  29.535  1.00  0.00     0.037 A 
BRANCH  59  73
ATOM     73  C   UNL A   1      44.285  32.814  30.589  1.00  0.00     0.057 A 
ATOM     74  C   UNL A   1      44.151  33.182  31.939  1.00  0.00     0.134 A 
ATOM     75  C   UNL A   1      44.571  33.839  29.679  1.00  0.00     0.134 A 
ATOM     76  F   UNL A   1      43.871  32.257  32.872  1.00  0.00    -0.206 F 
ATOM     77  C   UNL A   1      44.257  34.509  32.359  1.00  0.00     0.040 A 
ATOM     78  C   UNL A   1      44.716  35.167  30.093  1.00  0.00     0.040 A 
ATOM     79  F   UNL A   1      44.719  33.570  28.373  1.00  0.00    -0.206 F 
ATOM     80  C   UNL A   1      44.550  35.506  31.434  1.00  0.00     0.006 A 
ENDBRANCH  59  73
BRANCH  60  81
ATOM     81  C   UNL A   1      42.750  23.425  27.258  1.00  0.00     0.057 A 
ATOM     82  C   UNL A   1      42.905  23.119  25.898  1.00  0.00     0.134 A 
ATOM     83  C   UNL A   1      42.394  22.376  28.111  1.00  0.00     0.134 A 
ATOM     84  F   UNL A   1      43.255  24.078  25.028  1.00  0.00    -0.206 F 
ATOM     85  C   UNL A   1      42.665  21.839  25.397  1.00  0.00     0.040 A 
ATOM     86  C   UNL A   1      42.177  21.081  27.629  1.00  0.00     0.040 A 
ATOM     87  F   UNL A   1      42.265  22.588  29.429  1.00  0.00    -0.206 F 
ATOM     88  C   UNL A   1      42.298  20.814  26.265  1.00  0.00     0.006 A 
ENDBRANCH  60  81
BRANCH  72  89
ATOM     89  C   UNL A   1      48.253  26.824  29.846  1.00  0.00     0.057 A 
ATOM     90  C   UNL A   1      49.310  27.014  28.949  1.00  0.00     0.134 A 
ATOM     91  C   UNL A   1      48.542  26.226  31.079  1.00  0.00     0.134 A 
ATOM     92  F   UNL A   1      49.093  27.577  27.749  1.00  0.00    -0.206 F 
ATOM     93  C   UNL A   1      50.601  26.587  29.251  1.00  0.00     0.040 A 
ATOM     94  C   UNL A   1      49.836  25.830  31.408  1.00  0.00     0.040 A 
ATOM     95  F   UNL A   1      47.574  26.034  31.989  1.00  0.00    -0.206 F 
ATOM     96  C   UNL A   1      50.867  25.999  30.486  1.00  0.00     0.006 A 
ENDBRANCH  72  89
ENDBRANCH  46  47
ENDBRANCH  38  41
ENDBRANCH  36  37
ENDBRANCH  35  36
ENDBRANCH  34  35
ENDBRANCH   1  34
TORSDOF 16
ENDMDL
MODEL 2
REMARK VINA RESULT:     -13.0      4.658     10.021
REMARK SMILES CC1=C(C)C[C@@H](C(=O)NCCCCCCNC(=O)c2ccc(-c3c4nc(c(-c5c(F)cccc5F)c5ccc([nH]5)c(-c5c(F)cccc5F)c5nc(c(-c6c(F)cccc6F)c6ccc3[nH]6)C=C5)C=C4)cc2)[C@@H](C(=O)N2CCN(c3cccc(C(F)(F)F)c3)CC2)C1
REMARK SMILES IDX 12 1 11 2 10 3 9 4 7 5 8 6 6 8 1 9 2 10 3 11 92 12 4 13 5 14
REMARK SMILES IDX 73 15 74 16 75 17 76 18 77 19 91 20 78 21 90 22 79 23 80 24
REMARK SMILES IDX 81 25 89 26 82 27 84 28 83 29 85 30 86 31 87 32 88 33 13 34
REMARK SMILES IDX 14 35 15 36 16 37 17 38 18 40 19 41 20 42 72 43 21 44 71 45
REMARK SMILES IDX 22 46 23 47 24 48 65 49 25 50 70 51 64 52 66 53 26 54 69 55
REMARK SMILES IDX 63 56 62 57 27 59 53 60 36 61 52 62 37 63 40 64 51 65 67 66
REMARK SMILES IDX 38 67 39 68 50 70 68 71 41 72 28 73 29 74 34 75 30 76 31 77
REMARK SMILES IDX 33 78 35 79 32 80 54 81 55 82 60 83 56 84 57 85 59 86 61 87
REMARK SMILES IDX 58 88 42 89 43 90 48 91 44 92 45 93 47 94 49 95 46 96
REMARK H PARENT 9 7 16 39 66 58 40 69
REMARK Flexibility Score: inf
ROOT
ATOM      1  C   UNL A   1      40.484  27.241  29.159  1.00  0.00     0.002 C 
ENDROOT
BRANCH   1   2
ATOM      2  C   UNL A   1      38.903  27.233  30.274  1.00  0.00     0.021 C 
BRANCH   2   3
ATOM      3  C   UNL A   1      39.012  27.901  32.296  1.00  0.00     0.116 C 
BRANCH   3   4
ATOM      4  N   UNL A   1      38.869  29.471  32.814  1.00  0.00    -0.356 N 
ATOM      5  C   UNL A   1      39.546  30.626  32.580  1.00  0.00     0.224 C 
ATOM      6  O   UNL A   1      39.638  31.432  33.509  1.00  0.00    -0.275 OA
ATOM      7  H   UNL A   1      38.117  29.596  33.437  1.00  0.00     0.163 HD
BRANCH   5   8
ATOM      8  C   UNL A   1      39.904  31.005  31.190  1.00  0.00     0.095 C 
ATOM      9  C   UNL A   1      42.105  34.835  31.173  1.00  0.00     0.039 C 
ATOM     10  C   UNL A   1      41.424  33.495  31.097  1.00  0.00    -0.074 C 
ATOM     11  C   UNL A   1      42.016  32.389  31.590  1.00  0.00    -0.074 C 
ATOM     12  C   UNL A   1      40.091  33.419  30.353  1.00  0.00     0.045 C 
ATOM     13  C   UNL A   1      43.267  32.356  32.436  1.00  0.00     0.039 C 
ATOM     14  C   UNL A   1      41.438  31.042  31.268  1.00  0.00     0.045 C 
ATOM     15  C   UNL A   1      39.139  32.217  30.650  1.00  0.00     0.095 C 
BRANCH  15  16
ATOM     16  C   UNL A   1      37.677  32.290  31.330  1.00  0.00     0.226 C 
ATOM     17  O   UNL A   1      37.531  32.994  32.334  1.00  0.00    -0.275 OA
ATOM     18  N   UNL A   1      36.533  31.782  30.691  1.00  0.00    -0.339 N 
ATOM     19  C   UNL A   1      35.460  32.932  29.702  1.00  0.00     0.141 C 
ATOM     20  C   UNL A   1      36.549  30.051  30.416  1.00  0.00     0.141 C 
ATOM     21  C   UNL A   1      35.072  32.302  27.829  1.00  0.00     0.138 C 
ATOM     22  C   UNL A   1      36.328  29.417  28.674  1.00  0.00     0.138 C 
ATOM     23  N   UNL A   1      35.128  30.333  27.576  1.00  0.00    -0.368 N 
BRANCH  23  24
ATOM     24  C   UNL A   1      33.604  29.295  27.454  1.00  0.00     0.037 A 
ATOM     25  C   UNL A   1      31.964  30.133  26.997  1.00  0.00     0.026 A 
ATOM     26  C   UNL A   1      34.317  28.196  26.352  1.00  0.00     0.039 A 
ATOM     27  C   UNL A   1      31.433  30.146  25.252  1.00  0.00     0.003 A 
ATOM     28  C   UNL A   1      33.748  27.980  24.746  1.00  0.00     0.058 A 
ATOM     29  C   UNL A   1      32.451  29.115  24.124  1.00  0.00     0.013 A 
BRANCH  28  30
ATOM     30  C   UNL A   1      33.486  26.267  25.306  1.00  0.00     0.416 C 
ATOM     31  F   UNL A   1      34.661  25.553  25.485  1.00  0.00    -0.166 F 
ATOM     32  F   UNL A   1      32.830  25.939  26.453  1.00  0.00    -0.166 F 
ATOM     33  F   UNL A   1      32.832  25.597  24.310  1.00  0.00    -0.166 F 
ENDBRANCH  28  30
ENDBRANCH  23  24
ENDBRANCH  15  16
ENDBRANCH   5   8
ENDBRANCH   3   4
ENDBRANCH   2   3
ENDBRANCH   1   2
BRANCH   1  34
ATOM     34  C   UNL A   1      40.338  26.432  27.428  1.00  0.00     0.002 C 
BRANCH  34  35
ATOM     35  C   UNL A   1      39.169  25.000  27.034  1.00  0.00     0.021 C 
BRANCH  35  36
ATOM     36  C   UNL A   1      39.832  23.167  27.212  1.00  0.00     0.116 C 
BRANCH  36  37
ATOM     37  N   UNL A   1      41.649  22.618  26.339  1.00  0.00    -0.352 N 
ATOM     38  C   UNL A   1      42.931  23.211  25.615  1.00  0.00     0.251 C 
ATOM     39  H   UNL A   1      41.744  21.640  26.398  1.00  0.00     0.163 HD
ATOM     40  O   UNL A   1      43.412  22.531  24.705  1.00  0.00    -0.269 OA
BRANCH  38  41
ATOM     41  C   UNL A   1      43.697  24.536  26.011  1.00  0.00     0.039 A 
ATOM     42  C   UNL A   1      44.178  24.845  27.290  1.00  0.00     0.014 A 
ATOM     43  C   UNL A   1      44.119  25.413  25.003  1.00  0.00     0.014 A 
ATOM     44  C   UNL A   1      45.073  25.950  27.472  1.00  0.00     0.010 A 
ATOM     45  C   UNL A   1      45.125  26.319  25.124  1.00  0.00     0.010 A 
ATOM     46  C   UNL A   1      45.539  26.688  26.371  1.00  0.00    -0.014 A 
BRANCH  46  47
ATOM     47  C   UNL A   1      46.407  27.872  26.264  1.00  0.00     0.031 A 
ATOM     48  C   UNL A   1      47.915  27.661  26.408  1.00  0.00     0.074 A 
ATOM     49  C   UNL A   1      45.860  29.077  26.502  1.00  0.00     0.049 A 
ATOM     50  N   UNL A   1      48.867  28.544  26.552  1.00  0.00    -0.248 NA
ATOM     51  C   UNL A   1      48.398  26.262  26.533  1.00  0.00     0.031 C 
ATOM     52  C   UNL A   1      44.433  29.339  26.718  1.00  0.00     0.029 A 
ATOM     53  N   UNL A   1      46.448  30.301  26.650  1.00  0.00    -0.354 N 
ATOM     54  C   UNL A   1      50.031  27.806  26.755  1.00  0.00     0.074 A 
ATOM     55  C   UNL A   1      49.653  26.428  26.915  1.00  0.00     0.031 C 
ATOM     56  C   UNL A   1      44.251  30.660  26.889  1.00  0.00     0.029 A 
ATOM     57  C   UNL A   1      45.546  31.325  26.799  1.00  0.00     0.049 A 
ATOM     58  H   UNL A   1      47.423  30.436  26.651  1.00  0.00     0.167 HD
ATOM     59  C   UNL A   1      51.315  28.232  26.710  1.00  0.00     0.037 A 
ATOM     60  C   UNL A   1      45.766  32.652  26.795  1.00  0.00     0.037 A 
ATOM     61  C   UNL A   1      51.648  29.612  26.515  1.00  0.00     0.049 A 
ATOM     62  C   UNL A   1      47.184  33.120  26.603  1.00  0.00     0.074 A 
ATOM     63  C   UNL A   1      52.882  30.197  26.315  1.00  0.00     0.029 A 
ATOM     64  N   UNL A   1      50.703  30.631  26.493  1.00  0.00    -0.354 N 
ATOM     65  N   UNL A   1      48.292  32.415  26.559  1.00  0.00    -0.248 NA
ATOM     66  C   UNL A   1      47.382  34.561  26.415  1.00  0.00     0.031 C 
ATOM     67  C   UNL A   1      52.685  31.578  26.206  1.00  0.00     0.029 A 
ATOM     68  C   UNL A   1      51.324  31.843  26.283  1.00  0.00     0.049 A 
ATOM     69  H   UNL A   1      49.735  30.505  26.610  1.00  0.00     0.167 HD
ATOM     70  C   UNL A   1      49.311  33.318  26.289  1.00  0.00     0.074 A 
ATOM     71  C   UNL A   1      48.681  34.619  26.165  1.00  0.00     0.031 C 
ATOM     72  C   UNL A   1      50.645  33.107  26.153  1.00  0.00     0.037 A 
BRANCH  59  73
ATOM     73  C   UNL A   1      52.407  27.196  26.765  1.00  0.00     0.057 A 
ATOM     74  C   UNL A   1      52.787  26.472  25.621  1.00  0.00     0.134 A 
ATOM     75  C   UNL A   1      53.110  26.928  27.946  1.00  0.00     0.134 A 
ATOM     76  F   UNL A   1      52.158  26.668  24.451  1.00  0.00    -0.206 F 
ATOM     77  C   UNL A   1      53.789  25.502  25.658  1.00  0.00     0.040 A 
ATOM     78  C   UNL A   1      54.141  25.984  27.987  1.00  0.00     0.040 A 
ATOM     79  F   UNL A   1      52.811  27.578  29.080  1.00  0.00    -0.206 F 
ATOM     80  C   UNL A   1      54.477  25.262  26.843  1.00  0.00     0.006 A 
ENDBRANCH  59  73
BRANCH  60  81
ATOM     81  C   UNL A   1      44.625  33.603  26.803  1.00  0.00     0.057 A 
ATOM     82  C   UNL A   1      43.998  33.975  25.606  1.00  0.00     0.134 A 
ATOM     83  C   UNL A   1      44.126  34.161  27.984  1.00  0.00     0.134 A 
ATOM     84  F   UNL A   1      44.422  33.468  24.438  1.00  0.00    -0.206 F 
ATOM     85  C   UNL A   1      42.955  34.900  25.575  1.00  0.00     0.040 A 
ATOM     86  C   UNL A   1      43.063  35.068  27.973  1.00  0.00     0.040 A 
ATOM     87  F   UNL A   1      44.654  33.822  29.170  1.00  0.00    -0.206 F 
ATOM     88  C   UNL A   1      42.484  35.452  26.764  1.00  0.00     0.006 A 
ENDBRANCH  60  81
BRANCH  72  89
ATOM     89  C   UNL A   1      51.486  34.295  25.806  1.00  0.00     0.057 A 
ATOM     90  C   UNL A   1      51.871  35.236  26.768  1.00  0.00     0.134 A 
ATOM     91  C   UNL A   1      51.945  34.475  24.495  1.00  0.00     0.134 A 
ATOM     92  F   UNL A   1      51.457  35.119  28.039  1.00  0.00    -0.206 F 
ATOM     93  C   UNL A   1      52.652  36.339  26.429  1.00  0.00     0.040 A 
ATOM     94  C   UNL A   1      52.758  35.553  24.152  1.00  0.00     0.040 A 
ATOM     95  F   UNL A   1      51.625  33.597  23.532  1.00  0.00    -0.206 F 
ATOM     96  C   UNL A   1      53.103  36.495  25.119  1.00  0.00     0.006 A 
ENDBRANCH  72  89
ENDBRANCH  46  47
ENDBRANCH  38  41
ENDBRANCH  36  37
ENDBRANCH  35  36
ENDBRANCH  34  35
ENDBRANCH   1  34
TORSDOF 16
ENDMDL
MODEL 3
REMARK VINA RESULT:     -12.9      2.559      6.214
REMARK SMILES CC1=C(C)C[C@@H](C(=O)NCCCCCCNC(=O)c2ccc(-c3c4nc(c(-c5c(F)cccc5F)c5ccc([nH]5)c(-c5c(F)cccc5F)c5nc(c(-c6c(F)cccc6F)c6ccc3[nH]6)C=C5)C=C4)cc2)[C@@H](C(=O)N2CCN(c3cccc(C(F)(F)F)c3)CC2)C1
REMARK SMILES IDX 12 1 11 2 10 3 9 4 7 5 8 6 6 8 1 9 2 10 3 11 92 12 4 13 5 14
REMARK SMILES IDX 73 15 74 16 75 17 76 18 77 19 91 20 78 21 90 22 79 23 80 24
REMARK SMILES IDX 81 25 89 26 82 27 84 28 83 29 85 30 86 31 87 32 88 33 13 34
REMARK SMILES IDX 14 35 15 36 16 37 17 38 18 40 19 41 20 42 72 43 21 44 71 45
REMARK SMILES IDX 22 46 23 47 24 48 65 49 25 50 70 51 64 52 66 53 26 54 69 55
REMARK SMILES IDX 63 56 62 57 27 59 53 60 36 61 52 62 37 63 40 64 51 65 67 66
REMARK SMILES IDX 38 67 39 68 50 70 68 71 41 72 28 73 29 74 34 75 30 76 31 77
REMARK SMILES IDX 33 78 35 79 32 80 54 81 55 82 60 83 56 84 57 85 59 86 61 87
REMARK SMILES IDX 58 88 42 89 43 90 48 91 44 92 45 93 47 94 49 95 46 96
REMARK H PARENT 9 7 16 39 66 58 40 69
REMARK Flexibility Score: inf
ROOT
ATOM      1  C   UNL A   1      38.334  34.054  30.060  1.00  0.00     0.002 C 
ENDROOT
BRANCH   1   2
ATOM      2  C   UNL A   1      40.178  34.283  30.599  1.00  0.00     0.021 C 
BRANCH   2   3
ATOM      3  C   UNL A   1      41.667  34.771  29.152  1.00  0.00     0.116 C 
BRANCH   3   4
ATOM      4  N   UNL A   1      42.989  33.846  28.762  1.00  0.00    -0.356 N 
ATOM      5  C   UNL A   1      44.076  33.390  29.438  1.00  0.00     0.224 C 
ATOM      6  O   UNL A   1      45.136  33.294  28.816  1.00  0.00    -0.275 OA
ATOM      7  H   UNL A   1      42.985  33.561  27.820  1.00  0.00     0.163 HD
BRANCH   5   8
ATOM      8  C   UNL A   1      43.909  32.776  30.779  1.00  0.00     0.095 C 
ATOM      9  C   UNL A   1      47.841  31.620  32.427  1.00  0.00     0.039 C 
ATOM     10  C   UNL A   1      46.472  32.046  31.970  1.00  0.00    -0.074 C 
ATOM     11  C   UNL A   1      46.153  33.351  31.862  1.00  0.00    -0.074 C 
ATOM     12  C   UNL A   1      45.432  30.950  31.732  1.00  0.00     0.045 C 
ATOM     13  C   UNL A   1      47.116  34.510  31.961  1.00  0.00     0.039 C 
ATOM     14  C   UNL A   1      44.717  33.741  31.661  1.00  0.00     0.045 C 
ATOM     15  C   UNL A   1      44.202  31.274  30.826  1.00  0.00     0.095 C 
BRANCH  15  16
ATOM     16  C   UNL A   1      43.852  30.602  29.401  1.00  0.00     0.226 C 
ATOM     17  O   UNL A   1      42.733  30.799  28.917  1.00  0.00    -0.275 OA
ATOM     18  N   UNL A   1      44.841  30.012  28.593  1.00  0.00    -0.339 N 
ATOM     19  C   UNL A   1      45.625  31.016  27.241  1.00  0.00     0.141 C 
ATOM     20  C   UNL A   1      45.628  28.613  29.295  1.00  0.00     0.141 C 
ATOM     21  C   UNL A   1      47.638  31.022  27.272  1.00  0.00     0.138 C 
ATOM     22  C   UNL A   1      47.487  28.625  29.472  1.00  0.00     0.138 C 
ATOM     23  N   UNL A   1      48.471  29.422  28.101  1.00  0.00    -0.368 N 
BRANCH  23  24
ATOM     24  C   UNL A   1      49.223  28.055  27.108  1.00  0.00     0.037 A 
ATOM     25  C   UNL A   1      50.317  26.782  27.993  1.00  0.00     0.026 A 
ATOM     26  C   UNL A   1      47.718  27.558  26.461  1.00  0.00     0.039 A 
ATOM     27  C   UNL A   1      49.571  25.218  28.563  1.00  0.00     0.003 A 
ATOM     28  C   UNL A   1      47.032  26.015  26.768  1.00  0.00     0.058 A 
ATOM     29  C   UNL A   1      47.848  24.930  27.999  1.00  0.00     0.013 A 
BRANCH  28  30
ATOM     30  C   UNL A   1      47.148  25.849  24.958  1.00  0.00     0.416 C 
ATOM     31  F   UNL A   1      46.415  26.799  24.263  1.00  0.00    -0.166 F 
ATOM     32  F   UNL A   1      48.321  25.902  24.268  1.00  0.00    -0.166 F 
ATOM     33  F   UNL A   1      46.575  24.658  24.610  1.00  0.00    -0.166 F 
ENDBRANCH  28  30
ENDBRANCH  23  24
ENDBRANCH  15  16
ENDBRANCH   5   8
ENDBRANCH   3   4
ENDBRANCH   2   3
ENDBRANCH   1   2
BRANCH   1  34
ATOM     34  C   UNL A   1      37.080  33.555  31.420  1.00  0.00     0.002 C 
BRANCH  34  35
ATOM     35  C   UNL A   1      35.381  34.356  31.627  1.00  0.00     0.021 C 
BRANCH  35  36
ATOM     36  C   UNL A   1      34.143  34.343  30.110  1.00  0.00     0.116 C 
BRANCH  36  37
ATOM     37  N   UNL A   1      33.731  32.558  29.107  1.00  0.00    -0.352 N 
ATOM     38  C   UNL A   1      34.397  31.433  28.208  1.00  0.00     0.251 C 
ATOM     39  H   UNL A   1      32.781  32.333  29.240  1.00  0.00     0.163 HD
ATOM     40  O   UNL A   1      33.694  30.953  27.316  1.00  0.00    -0.269 OA
BRANCH  38  41
ATOM     41  C   UNL A   1      35.837  30.809  28.408  1.00  0.00     0.039 A 
ATOM     42  C   UNL A   1      37.039  31.386  27.980  1.00  0.00     0.014 A 
ATOM     43  C   UNL A   1      35.992  29.692  29.239  1.00  0.00     0.014 A 
ATOM     44  C   UNL A   1      38.292  30.860  28.438  1.00  0.00     0.010 A 
ATOM     45  C   UNL A   1      37.150  29.323  29.847  1.00  0.00     0.010 A 
ATOM     46  C   UNL A   1      38.333  29.816  29.377  1.00  0.00    -0.014 A 
BRANCH  46  47
ATOM     47  C   UNL A   1      39.446  29.065  29.979  1.00  0.00     0.031 A 
ATOM     48  C   UNL A   1      40.086  29.636  31.244  1.00  0.00     0.074 A 
ATOM     49  C   UNL A   1      40.129  28.214  29.191  1.00  0.00     0.049 A 
ATOM     50  N   UNL A   1      41.190  29.286  31.848  1.00  0.00    -0.248 NA
ATOM     51  C   UNL A   1      39.463  30.849  31.834  1.00  0.00     0.031 C 
ATOM     52  C   UNL A   1      39.775  27.853  27.815  1.00  0.00     0.029 A 
ATOM     53  N   UNL A   1      41.292  27.537  29.423  1.00  0.00    -0.354 N 
ATOM     54  C   UNL A   1      41.361  30.209  32.877  1.00  0.00     0.074 A 
ATOM     55  C   UNL A   1      40.377  31.243  32.704  1.00  0.00     0.031 C 
ATOM     56  C   UNL A   1      40.662  26.953  27.356  1.00  0.00     0.029 A 
ATOM     57  C   UNL A   1      41.641  26.685  28.403  1.00  0.00     0.049 A 
ATOM     58  H   UNL A   1      41.830  27.648  30.241  1.00  0.00     0.167 HD
ATOM     59  C   UNL A   1      42.204  30.145  33.934  1.00  0.00     0.037 A 
ATOM     60  C   UNL A   1      42.612  25.756  28.373  1.00  0.00     0.037 A 
ATOM     61  C   UNL A   1      43.148  29.076  34.083  1.00  0.00     0.049 A 
ATOM     62  C   UNL A   1      43.456  25.594  29.610  1.00  0.00     0.074 A 
ATOM     63  C   UNL A   1      43.980  28.784  35.145  1.00  0.00     0.029 A 
ATOM     64  N   UNL A   1      43.371  28.110  33.111  1.00  0.00    -0.354 N 
ATOM     65  N   UNL A   1      43.475  26.322  30.703  1.00  0.00    -0.248 NA
ATOM     66  C   UNL A   1      44.382  24.457  29.630  1.00  0.00     0.031 C 
ATOM     67  C   UNL A   1      44.733  27.657  34.797  1.00  0.00     0.029 A 
ATOM     68  C   UNL A   1      44.327  27.218  33.544  1.00  0.00     0.049 A 
ATOM     69  H   UNL A   1      42.913  28.069  32.240  1.00  0.00     0.167 HD
ATOM     70  C   UNL A   1      44.376  25.705  31.560  1.00  0.00     0.074 A 
ATOM     71  C   UNL A   1      44.868  24.534  30.860  1.00  0.00     0.031 C 
ATOM     72  C   UNL A   1      44.769  26.060  32.810  1.00  0.00     0.037 A 
BRANCH  59  73
ATOM     73  C   UNL A   1      42.057  31.176  35.021  1.00  0.00     0.057 A 
ATOM     74  C   UNL A   1      40.993  31.125  35.939  1.00  0.00     0.134 A 
ATOM     75  C   UNL A   1      42.985  32.212  35.184  1.00  0.00     0.134 A 
ATOM     76  F   UNL A   1      40.060  30.164  35.847  1.00  0.00    -0.206 F 
ATOM     77  C   UNL A   1      40.838  32.079  36.946  1.00  0.00     0.040 A 
ATOM     78  C   UNL A   1      42.860  33.153  36.211  1.00  0.00     0.040 A 
ATOM     79  F   UNL A   1      44.030  32.328  34.352  1.00  0.00    -0.206 F 
ATOM     80  C   UNL A   1      41.779  33.093  37.089  1.00  0.00     0.006 A 
ENDBRANCH  59  73
BRANCH  60  81
ATOM     81  C   UNL A   1      42.718  24.816  27.229  1.00  0.00     0.057 A 
ATOM     82  C   UNL A   1      42.101  23.558  27.278  1.00  0.00     0.134 A 
ATOM     83  C   UNL A   1      43.420  25.136  26.063  1.00  0.00     0.134 A 
ATOM     84  F   UNL A   1      41.403  23.193  28.364  1.00  0.00    -0.206 F 
ATOM     85  C   UNL A   1      42.220  22.636  26.238  1.00  0.00     0.040 A 
ATOM     86  C   UNL A   1      43.526  24.233  25.000  1.00  0.00     0.040 A 
ATOM     87  F   UNL A   1      44.005  26.337  25.931  1.00  0.00    -0.206 F 
ATOM     88  C   UNL A   1      42.937  22.973  25.093  1.00  0.00     0.006 A 
ENDBRANCH  60  81
BRANCH  72  89
ATOM     89  C   UNL A   1      45.729  25.144  33.502  1.00  0.00     0.057 A 
ATOM     90  C   UNL A   1      45.295  24.065  34.279  1.00  0.00     0.134 A 
ATOM     91  C   UNL A   1      47.110  25.329  33.354  1.00  0.00     0.134 A 
ATOM     92  F   UNL A   1      43.983  23.842  34.462  1.00  0.00    -0.206 F 
ATOM     93  C   UNL A   1      46.201  23.223  34.921  1.00  0.00     0.040 A 
ATOM     94  C   UNL A   1      48.026  24.470  33.959  1.00  0.00     0.040 A 
ATOM     95  F   UNL A   1      47.589  26.335  32.606  1.00  0.00    -0.206 F 
ATOM     96  C   UNL A   1      47.571  23.421  34.754  1.00  0.00     0.006 A 
ENDBRANCH  72  89
ENDBRANCH  46  47
ENDBRANCH  38  41
ENDBRANCH  36  37
ENDBRANCH  35  36
ENDBRANCH  34  35
ENDBRANCH   1  34
TORSDOF 16
ENDMDL
