MODEL 1
REMARK VINA RESULT:     -12.8      0.000      0.000
REMARK SMILES CS(=O)(=O)c1ccc(-c2cc(Cl)cc3c2O[C@H](C(F)(F)F)C(C(=O)NCCCCCCNC(=O)c2ccc(-c4c5nc(c(-c6c(F)cccc6F)c6ccc([nH]6)c(-c6c(F)cccc6F)c6nc(c(-c7c(F)cccc7F)c7ccc4[nH]7)C=C6)C=C5)cc2)=C3)cc1
REMARK SMILES IDX 28 1 27 2 26 3 25 4 23 5 24 6 22 8 9 9 10 10 15 11 11 12
REMARK SMILES IDX 14 13 16 14 12 15 13 16 89 17 17 18 8 19 5 20 6 21 91 22
REMARK SMILES IDX 7 23 90 24 2 25 1 26 3 27 4 28 18 29 19 30 20 31 21 32 29 33
REMARK SMILES IDX 30 34 31 35 32 36 33 37 34 39 35 40 36 41 88 42 37 43 87 44
REMARK SMILES IDX 38 45 39 46 40 47 81 48 41 49 86 50 80 51 82 52 42 53 85 54
REMARK SMILES IDX 79 55 78 56 43 58 69 59 52 60 68 61 53 62 56 63 67 64 83 65
REMARK SMILES IDX 54 66 55 67 66 69 84 70 57 71 44 72 45 73 50 74 46 75 47 76
REMARK SMILES IDX 49 77 51 78 48 79 70 80 71 81 76 82 72 83 73 84 75 85 77 86
REMARK SMILES IDX 74 87 58 88 59 89 64 90 60 91 61 92 63 93 65 94 62 95
REMARK H PARENT 25 7 32 38 82 57 56 68
REMARK Flexibility Score: inf
ROOT
ATOM      1  C   UNL A   1      30.158  29.569  23.690  1.00  0.00     0.002 C 
ENDROOT
BRANCH   1   2
ATOM      2  C   UNL A   1      30.287  28.166  23.071  1.00  0.00     0.021 C 
BRANCH   2   3
ATOM      3  C   UNL A   1      29.687  27.032  23.917  1.00  0.00     0.116 C 
BRANCH   3   4
ATOM      4  N   UNL A   1      30.353  25.783  23.607  1.00  0.00    -0.352 N 
ATOM      5  C   UNL A   1      31.688  25.559  23.700  1.00  0.00     0.251 C 
ATOM      6  O   UNL A   1      32.290  25.052  22.762  1.00  0.00    -0.270 OA
ATOM      7  H   UNL A   1      29.790  25.035  23.303  1.00  0.00     0.163 HD
BRANCH   5   8
ATOM      8  C   UNL A   1      32.309  25.799  25.035  1.00  0.00     0.067 C 
ATOM      9  C   UNL A   1      35.196  22.937  24.879  1.00  0.00     0.026 A 
ATOM     10  C   UNL A   1      34.561  21.753  24.417  1.00  0.00     0.033 A 
ATOM     11  C   UNL A   1      34.340  23.978  25.294  1.00  0.00     0.135 A 
ATOM     12  C   UNL A   1      33.186  21.546  24.508  1.00  0.00     0.042 A 
ATOM     13  C   UNL A   1      32.961  23.697  25.493  1.00  0.00     0.019 A 
ATOM     14  O   UNL A   1      34.750  25.297  25.462  1.00  0.00    -0.475 OA
ATOM     15  Cl  UNL A   1      32.496  20.104  23.876  1.00  0.00    -0.084 Cl
ATOM     16  C   UNL A   1      32.385  22.488  25.117  1.00  0.00     0.032 A 
ATOM     17  C   UNL A   1      32.075  24.804  25.912  1.00  0.00     0.025 C 
ATOM     18  C   UNL A   1      33.741  26.309  25.005  1.00  0.00     0.314 C 
BRANCH   9  19
ATOM     19  C   UNL A   1      36.677  22.813  25.034  1.00  0.00    -0.015 A 
ATOM     20  C   UNL A   1      39.164  22.134  26.240  1.00  0.00     0.067 A 
ATOM     21  C   UNL A   1      38.550  21.237  25.370  1.00  0.00     0.021 A 
ATOM     22  C   UNL A   1      38.598  23.398  26.441  1.00  0.00     0.021 A 
ATOM     23  C   UNL A   1      37.329  21.585  24.763  1.00  0.00     0.010 A 
ATOM     24  C   UNL A   1      37.373  23.736  25.834  1.00  0.00     0.010 A 
BRANCH  20  25
ATOM     25  S   UNL A   1      40.665  21.696  27.103  1.00  0.00     0.175 S 
ATOM     26  C   UNL A   1      42.009  21.851  25.954  1.00  0.00     0.163 C 
ATOM     27  O   UNL A   1      40.574  20.291  27.442  1.00  0.00    -0.224 OA
ATOM     28  O   UNL A   1      40.848  22.703  28.135  1.00  0.00    -0.224 OA
ENDBRANCH  20  25
ENDBRANCH   9  19
BRANCH  18  29
ATOM     29  C   UNL A   1      33.779  27.612  25.838  1.00  0.00     0.429 C 
ATOM     30  F   UNL A   1      32.719  27.738  26.665  1.00  0.00    -0.167 F 
ATOM     31  F   UNL A   1      34.903  27.683  26.590  1.00  0.00    -0.167 F 
ATOM     32  F   UNL A   1      33.788  28.726  25.054  1.00  0.00    -0.167 F 
ENDBRANCH  18  29
ENDBRANCH   5   8
ENDBRANCH   3   4
ENDBRANCH   2   3
ENDBRANCH   1   2
BRANCH   1  33
ATOM     33  C   UNL A   1      31.033  29.811  24.922  1.00  0.00     0.002 C 
BRANCH  33  34
ATOM     34  C   UNL A   1      30.886  31.202  25.540  1.00  0.00     0.021 C 
BRANCH  34  35
ATOM     35  C   UNL A   1      31.967  31.561  26.553  1.00  0.00     0.116 C 
BRANCH  35  36
ATOM     36  N   UNL A   1      31.948  32.971  26.908  1.00  0.00    -0.352 N 
ATOM     37  C   UNL A   1      32.786  33.664  27.742  1.00  0.00     0.251 C 
ATOM     38  H   UNL A   1      31.233  33.502  26.490  1.00  0.00     0.163 HD
ATOM     39  O   UNL A   1      32.522  34.818  28.065  1.00  0.00    -0.269 OA
BRANCH  37  40
ATOM     40  C   UNL A   1      33.997  33.008  28.275  1.00  0.00     0.039 A 
ATOM     41  C   UNL A   1      35.133  33.784  28.513  1.00  0.00     0.014 A 
ATOM     42  C   UNL A   1      34.015  31.635  28.540  1.00  0.00     0.014 A 
ATOM     43  C   UNL A   1      36.269  33.194  29.068  1.00  0.00     0.010 A 
ATOM     44  C   UNL A   1      35.119  31.064  29.167  1.00  0.00     0.010 A 
ATOM     45  C   UNL A   1      36.260  31.836  29.431  1.00  0.00    -0.014 A 
BRANCH  45  46
ATOM     46  C   UNL A   1      37.439  31.217  30.088  1.00  0.00     0.031 A 
ATOM     47  C   UNL A   1      37.751  31.513  31.529  1.00  0.00     0.074 A 
ATOM     48  C   UNL A   1      38.255  30.421  29.369  1.00  0.00     0.049 A 
ATOM     49  N   UNL A   1      38.746  31.083  32.264  1.00  0.00    -0.248 NA
ATOM     50  C   UNL A   1      36.841  32.432  32.232  1.00  0.00     0.031 C 
ATOM     51  C   UNL A   1      38.093  30.104  27.949  1.00  0.00     0.029 A 
ATOM     52  N   UNL A   1      39.389  29.739  29.733  1.00  0.00    -0.354 N 
ATOM     53  C   UNL A   1      38.587  31.685  33.505  1.00  0.00     0.074 A 
ATOM     54  C   UNL A   1      37.435  32.554  33.409  1.00  0.00     0.031 C 
ATOM     55  C   UNL A   1      39.071  29.267  27.571  1.00  0.00     0.029 A 
ATOM     56  C   UNL A   1      39.953  29.021  28.706  1.00  0.00     0.049 A 
ATOM     57  H   UNL A   1      39.763  29.762  30.644  1.00  0.00     0.167 HD
ATOM     58  C   UNL A   1      39.321  31.511  34.630  1.00  0.00     0.037 A 
ATOM     59  C   UNL A   1      41.061  28.255  28.682  1.00  0.00     0.037 A 
ATOM     60  C   UNL A   1      40.456  30.629  34.726  1.00  0.00     0.049 A 
ATOM     61  C   UNL A   1      41.859  28.081  29.944  1.00  0.00     0.074 A 
ATOM     62  C   UNL A   1      41.224  30.333  35.838  1.00  0.00     0.029 A 
ATOM     63  N   UNL A   1      40.989  29.908  33.668  1.00  0.00    -0.354 N 
ATOM     64  N   UNL A   1      41.648  28.591  31.134  1.00  0.00    -0.248 NA
ATOM     65  C   UNL A   1      43.044  27.216  29.863  1.00  0.00     0.031 C 
ATOM     66  C   UNL A   1      42.258  29.479  35.441  1.00  0.00     0.029 A 
ATOM     67  C   UNL A   1      42.095  29.192  34.096  1.00  0.00     0.049 A 
ATOM     68  H   UNL A   1      40.634  29.906  32.750  1.00  0.00     0.167 HD
ATOM     69  C   UNL A   1      42.656  28.088  31.948  1.00  0.00     0.074 A 
ATOM     70  C   UNL A   1      43.464  27.217  31.120  1.00  0.00     0.031 C 
ATOM     71  C   UNL A   1      42.890  28.327  33.261  1.00  0.00     0.037 A 
BRANCH  58  72
ATOM     72  C   UNL A   1      38.923  32.292  35.850  1.00  0.00     0.057 A 
ATOM     73  C   UNL A   1      38.179  31.716  36.889  1.00  0.00     0.134 A 
ATOM     74  C   UNL A   1      39.326  33.624  36.009  1.00  0.00     0.134 A 
ATOM     75  F   UNL A   1      37.751  30.448  36.799  1.00  0.00    -0.206 F 
ATOM     76  C   UNL A   1      37.830  32.444  38.030  1.00  0.00     0.040 A 
ATOM     77  C   UNL A   1      39.009  34.352  37.157  1.00  0.00     0.040 A 
ATOM     78  F   UNL A   1      40.046  34.236  35.056  1.00  0.00    -0.206 F 
ATOM     79  C   UNL A   1      38.253  33.763  38.169  1.00  0.00     0.006 A 
ENDBRANCH  58  72
BRANCH  59  80
ATOM     80  C   UNL A   1      41.474  27.583  27.423  1.00  0.00     0.057 A 
ATOM     81  C   UNL A   1      41.068  26.275  27.130  1.00  0.00     0.134 A 
ATOM     82  C   UNL A   1      42.298  28.225  26.490  1.00  0.00     0.134 A 
ATOM     83  F   UNL A   1      40.293  25.601  27.993  1.00  0.00    -0.206 F 
ATOM     84  C   UNL A   1      41.487  25.621  25.971  1.00  0.00     0.040 A 
ATOM     85  C   UNL A   1      42.699  27.593  25.312  1.00  0.00     0.040 A 
ATOM     86  F   UNL A   1      42.713  29.481  26.704  1.00  0.00    -0.206 F 
ATOM     87  C   UNL A   1      42.302  26.283  25.054  1.00  0.00     0.006 A 
ENDBRANCH  59  80
BRANCH  71  88
ATOM     88  C   UNL A   1      44.048  27.607  33.893  1.00  0.00     0.057 A 
ATOM     89  C   UNL A   1      45.332  28.166  33.945  1.00  0.00     0.134 A 
ATOM     90  C   UNL A   1      43.868  26.348  34.481  1.00  0.00     0.134 A 
ATOM     91  F   UNL A   1      45.576  29.362  33.390  1.00  0.00    -0.206 F 
ATOM     92  C   UNL A   1      46.401  27.485  34.531  1.00  0.00     0.040 A 
ATOM     93  C   UNL A   1      44.921  25.672  35.097  1.00  0.00     0.040 A 
ATOM     94  F   UNL A   1      42.662  25.759  34.477  1.00  0.00    -0.206 F 
ATOM     95  C   UNL A   1      46.194  26.236  35.115  1.00  0.00     0.006 A 
ENDBRANCH  71  88
ENDBRANCH  45  46
ENDBRANCH  37  40
ENDBRANCH  35  36
ENDBRANCH  34  35
ENDBRANCH  33  34
ENDBRANCH   1  33
TORSDOF 16
ENDMDL
MODEL 2
REMARK VINA RESULT:     -12.6      3.855      5.249
REMARK SMILES CS(=O)(=O)c1ccc(-c2cc(Cl)cc3c2O[C@H](C(F)(F)F)C(C(=O)NCCCCCCNC(=O)c2ccc(-c4c5nc(c(-c6c(F)cccc6F)c6ccc([nH]6)c(-c6c(F)cccc6F)c6nc(c(-c7c(F)cccc7F)c7ccc4[nH]7)C=C6)C=C5)cc2)=C3)cc1
REMARK SMILES IDX 28 1 27 2 26 3 25 4 23 5 24 6 22 8 9 9 10 10 15 11 11 12
REMARK SMILES IDX 14 13 16 14 12 15 13 16 89 17 17 18 8 19 5 20 6 21 91 22
REMARK SMILES IDX 7 23 90 24 2 25 1 26 3 27 4 28 18 29 19 30 20 31 21 32 29 33
REMARK SMILES IDX 30 34 31 35 32 36 33 37 34 39 35 40 36 41 88 42 37 43 87 44
REMARK SMILES IDX 38 45 39 46 40 47 81 48 41 49 86 50 80 51 82 52 42 53 85 54
REMARK SMILES IDX 79 55 78 56 43 58 69 59 52 60 68 61 53 62 56 63 67 64 83 65
REMARK SMILES IDX 54 66 55 67 66 69 84 70 57 71 44 72 45 73 50 74 46 75 47 76
REMARK SMILES IDX 49 77 51 78 48 79 70 80 71 81 76 82 72 83 73 84 75 85 77 86
REMARK SMILES IDX 74 87 58 88 59 89 64 90 60 91 61 92 63 93 65 94 62 95
REMARK H PARENT 25 7 32 38 82 57 56 68
REMARK Flexibility Score: inf
ROOT
ATOM      1  C   UNL A   1      31.390  29.310  25.251  1.00  0.00     0.002 C 
ENDROOT
BRANCH   1   2
ATOM      2  C   UNL A   1      30.392  29.792  24.185  1.00  0.00     0.021 C 
BRANCH   2   3
ATOM      3  C   UNL A   1      29.955  28.718  23.178  1.00  0.00     0.116 C 
BRANCH   3   4
ATOM      4  N   UNL A   1      29.630  27.492  23.877  1.00  0.00    -0.352 N 
ATOM      5  C   UNL A   1      30.195  26.281  23.644  1.00  0.00     0.251 C 
ATOM      6  O   UNL A   1      29.487  25.295  23.482  1.00  0.00    -0.270 OA
ATOM      7  H   UNL A   1      28.942  27.541  24.578  1.00  0.00     0.163 HD
BRANCH   5   8
ATOM      8  C   UNL A   1      31.680  26.205  23.774  1.00  0.00     0.067 C 
ATOM      9  C   UNL A   1      32.009  22.248  24.657  1.00  0.00     0.026 A 
ATOM     10  C   UNL A   1      31.035  21.979  25.656  1.00  0.00     0.033 A 
ATOM     11  C   UNL A   1      32.282  23.609  24.409  1.00  0.00     0.135 A 
ATOM     12  C   UNL A   1      30.488  22.971  26.466  1.00  0.00     0.042 A 
ATOM     13  C   UNL A   1      31.808  24.585  25.327  1.00  0.00     0.019 A 
ATOM     14  O   UNL A   1      32.941  24.072  23.273  1.00  0.00    -0.475 OA
ATOM     15  Cl  UNL A   1      29.277  22.563  27.616  1.00  0.00    -0.084 Cl
ATOM     16  C   UNL A   1      30.927  24.273  26.357  1.00  0.00     0.032 A 
ATOM     17  C   UNL A   1      32.090  26.008  25.042  1.00  0.00     0.025 C 
ATOM     18  C   UNL A   1      32.383  25.354  22.729  1.00  0.00     0.314 C 
BRANCH   9  19
ATOM     19  C   UNL A   1      32.730  21.035  24.167  1.00  0.00    -0.015 A 
ATOM     20  C   UNL A   1      33.605  18.327  24.088  1.00  0.00     0.067 A 
ATOM     21  C   UNL A   1      32.468  18.707  23.379  1.00  0.00     0.021 A 
ATOM     22  C   UNL A   1      34.358  19.299  24.756  1.00  0.00     0.021 A 
ATOM     23  C   UNL A   1      32.050  20.051  23.407  1.00  0.00     0.010 A 
ATOM     24  C   UNL A   1      33.930  20.640  24.784  1.00  0.00     0.010 A 
BRANCH  20  25
ATOM     25  S   UNL A   1      34.118  16.618  24.155  1.00  0.00     0.175 S 
ATOM     26  C   UNL A   1      32.881  15.722  25.061  1.00  0.00     0.163 C 
ATOM     27  O   UNL A   1      35.328  16.561  24.946  1.00  0.00    -0.224 OA
ATOM     28  O   UNL A   1      34.097  16.135  22.784  1.00  0.00    -0.224 OA
ENDBRANCH  20  25
ENDBRANCH   9  19
BRANCH  18  29
ATOM     29  C   UNL A   1      33.462  26.243  22.066  1.00  0.00     0.429 C 
ATOM     30  F   UNL A   1      34.712  25.955  22.488  1.00  0.00    -0.167 F 
ATOM     31  F   UNL A   1      33.440  26.120  20.717  1.00  0.00    -0.167 F 
ATOM     32  F   UNL A   1      33.267  27.567  22.319  1.00  0.00    -0.167 F 
ENDBRANCH  18  29
ENDBRANCH   5   8
ENDBRANCH   3   4
ENDBRANCH   2   3
ENDBRANCH   1   2
BRANCH   1  33
ATOM     33  C   UNL A   1      32.854  29.648  24.962  1.00  0.00     0.002 C 
BRANCH  33  34
ATOM     34  C   UNL A   1      33.864  28.711  25.626  1.00  0.00     0.021 C 
BRANCH  34  35
ATOM     35  C   UNL A   1      33.833  28.726  27.150  1.00  0.00     0.116 C 
BRANCH  35  36
ATOM     36  N   UNL A   1      33.753  30.073  27.691  1.00  0.00    -0.352 N 
ATOM     37  C   UNL A   1      34.688  30.775  28.408  1.00  0.00     0.251 C 
ATOM     38  H   UNL A   1      32.909  30.548  27.517  1.00  0.00     0.163 HD
ATOM     39  O   UNL A   1      34.390  31.840  28.936  1.00  0.00    -0.269 OA
BRANCH  37  40
ATOM     40  C   UNL A   1      36.052  30.228  28.565  1.00  0.00     0.039 A 
ATOM     41  C   UNL A   1      36.941  30.321  27.493  1.00  0.00     0.014 A 
ATOM     42  C   UNL A   1      36.454  29.629  29.763  1.00  0.00     0.014 A 
ATOM     43  C   UNL A   1      38.250  29.862  27.640  1.00  0.00     0.010 A 
ATOM     44  C   UNL A   1      37.780  29.245  29.936  1.00  0.00     0.010 A 
ATOM     45  C   UNL A   1      38.691  29.351  28.873  1.00  0.00    -0.014 A 
BRANCH  45  46
ATOM     46  C   UNL A   1      40.101  28.926  29.060  1.00  0.00     0.031 A 
ATOM     47  C   UNL A   1      41.111  29.876  29.644  1.00  0.00     0.074 A 
ATOM     48  C   UNL A   1      40.481  27.697  28.660  1.00  0.00     0.049 A 
ATOM     49  N   UNL A   1      42.389  29.690  29.862  1.00  0.00    -0.248 NA
ATOM     50  C   UNL A   1      40.630  31.218  30.009  1.00  0.00     0.031 C 
ATOM     51  C   UNL A   1      39.609  26.706  28.027  1.00  0.00     0.029 A 
ATOM     52  N   UNL A   1      41.702  27.073  28.721  1.00  0.00    -0.354 N 
ATOM     53  C   UNL A   1      42.862  30.890  30.377  1.00  0.00     0.074 A 
ATOM     54  C   UNL A   1      41.750  31.815  30.386  1.00  0.00     0.031 C 
ATOM     55  C   UNL A   1      40.315  25.590  27.785  1.00  0.00     0.029 A 
ATOM     56  C   UNL A   1      41.696  25.799  28.206  1.00  0.00     0.049 A 
ATOM     57  H   UNL A   1      42.506  27.498  29.097  1.00  0.00     0.167 HD
ATOM     58  C   UNL A   1      44.106  31.187  30.823  1.00  0.00     0.037 A 
ATOM     59  C   UNL A   1      42.692  24.902  28.083  1.00  0.00     0.037 A 
ATOM     60  C   UNL A   1      45.206  30.256  30.830  1.00  0.00     0.049 A 
ATOM     61  C   UNL A   1      44.064  25.258  28.584  1.00  0.00     0.074 A 
ATOM     62  C   UNL A   1      46.486  30.440  31.324  1.00  0.00     0.029 A 
ATOM     63  N   UNL A   1      45.157  28.970  30.314  1.00  0.00    -0.354 N 
ATOM     64  N   UNL A   1      44.478  26.369  29.146  1.00  0.00    -0.248 NA
ATOM     65  C   UNL A   1      45.107  24.232  28.444  1.00  0.00     0.031 C 
ATOM     66  C   UNL A   1      47.228  29.287  31.052  1.00  0.00     0.029 A 
ATOM     67  C   UNL A   1      46.394  28.360  30.449  1.00  0.00     0.049 A 
ATOM     68  H   UNL A   1      44.362  28.553  29.911  1.00  0.00     0.167 HD
ATOM     69  C   UNL A   1      45.818  26.165  29.451  1.00  0.00     0.074 A 
ATOM     70  C   UNL A   1      46.141  24.818  29.030  1.00  0.00     0.031 C 
ATOM     71  C   UNL A   1      46.701  27.017  30.026  1.00  0.00     0.037 A 
BRANCH  58  72
ATOM     72  C   UNL A   1      44.348  32.577  31.340  1.00  0.00     0.057 A 
ATOM     73  C   UNL A   1      44.160  32.910  32.688  1.00  0.00     0.134 A 
ATOM     74  C   UNL A   1      44.819  33.584  30.487  1.00  0.00     0.134 A 
ATOM     75  F   UNL A   1      43.701  31.998  33.558  1.00  0.00    -0.206 F 
ATOM     76  C   UNL A   1      44.407  34.200  33.164  1.00  0.00     0.040 A 
ATOM     77  C   UNL A   1      45.098  34.868  30.958  1.00  0.00     0.040 A 
ATOM     78  F   UNL A   1      45.028  33.333  29.186  1.00  0.00    -0.206 F 
ATOM     79  C   UNL A   1      44.885  35.181  32.299  1.00  0.00     0.006 A 
ENDBRANCH  58  72
BRANCH  59  80
ATOM     80  C   UNL A   1      42.429  23.574  27.470  1.00  0.00     0.057 A 
ATOM     81  C   UNL A   1      42.133  22.456  28.259  1.00  0.00     0.134 A 
ATOM     82  C   UNL A   1      42.481  23.388  26.083  1.00  0.00     0.134 A 
ATOM     83  F   UNL A   1      42.086  22.566  29.595  1.00  0.00    -0.206 F 
ATOM     84  C   UNL A   1      41.926  21.197  27.695  1.00  0.00     0.040 A 
ATOM     85  C   UNL A   1      42.246  22.140  25.503  1.00  0.00     0.040 A 
ATOM     86  F   UNL A   1      42.748  24.420  25.270  1.00  0.00    -0.206 F 
ATOM     87  C   UNL A   1      41.978  21.037  26.311  1.00  0.00     0.006 A 
ENDBRANCH  59  80
BRANCH  71  88
ATOM     88  C   UNL A   1      48.092  26.503  30.267  1.00  0.00     0.057 A 
ATOM     89  C   UNL A   1      48.448  25.847  31.453  1.00  0.00     0.134 A 
ATOM     90  C   UNL A   1      49.083  26.644  29.286  1.00  0.00     0.134 A 
ATOM     91  F   UNL A   1      47.551  25.690  32.438  1.00  0.00    -0.206 F 
ATOM     92  C   UNL A   1      49.745  25.378  31.667  1.00  0.00     0.040 A 
ATOM     93  C   UNL A   1      50.374  26.151  29.475  1.00  0.00     0.040 A 
ATOM     94  F   UNL A   1      48.808  27.252  28.121  1.00  0.00    -0.206 F 
ATOM     95  C   UNL A   1      50.711  25.524  30.672  1.00  0.00     0.006 A 
ENDBRANCH  71  88
ENDBRANCH  45  46
ENDBRANCH  37  40
ENDBRANCH  35  36
ENDBRANCH  34  35
ENDBRANCH  33  34
ENDBRANCH   1  33
TORSDOF 16
ENDMDL
MODEL 3
REMARK VINA RESULT:     -12.5      0.561      5.856
REMARK SMILES CS(=O)(=O)c1ccc(-c2cc(Cl)cc3c2O[C@H](C(F)(F)F)C(C(=O)NCCCCCCNC(=O)c2ccc(-c4c5nc(c(-c6c(F)cccc6F)c6ccc([nH]6)c(-c6c(F)cccc6F)c6nc(c(-c7c(F)cccc7F)c7ccc4[nH]7)C=C6)C=C5)cc2)=C3)cc1
REMARK SMILES IDX 28 1 27 2 26 3 25 4 23 5 24 6 22 8 9 9 10 10 15 11 11 12
REMARK SMILES IDX 14 13 16 14 12 15 13 16 89 17 17 18 8 19 5 20 6 21 91 22
REMARK SMILES IDX 7 23 90 24 2 25 1 26 3 27 4 28 18 29 19 30 20 31 21 32 29 33
REMARK SMILES IDX 30 34 31 35 32 36 33 37 34 39 35 40 36 41 88 42 37 43 87 44
REMARK SMILES IDX 38 45 39 46 40 47 81 48 41 49 86 50 80 51 82 52 42 53 85 54
REMARK SMILES IDX 79 55 78 56 43 58 69 59 52 60 68 61 53 62 56 63 67 64 83 65
REMARK SMILES IDX 54 66 55 67 66 69 84 70 57 71 44 72 45 73 50 74 46 75 47 76
REMARK SMILES IDX 49 77 51 78 48 79 70 80 71 81 76 82 72 83 73 84 75 85 77 86
REMARK SMILES IDX 74 87 58 88 59 89 64 90 60 91 61 92 63 93 65 94 62 95
REMARK H PARENT 25 7 32 38 82 57 56 68
REMARK Flexibility Score: inf
ROOT
ATOM      1  C   UNL A   1      30.211  29.951  24.108  1.00  0.00     0.002 C 
ENDROOT
BRANCH   1   2
ATOM      2  C   UNL A   1      30.470  28.618  23.384  1.00  0.00     0.021 C 
BRANCH   2   3
ATOM      3  C   UNL A   1      29.734  27.408  23.980  1.00  0.00     0.116 C 
BRANCH   3   4
ATOM      4  N   UNL A   1      30.416  26.186  23.606  1.00  0.00    -0.352 N 
ATOM      5  C   UNL A   1      31.749  25.963  23.714  1.00  0.00     0.251 C 
ATOM      6  O   UNL A   1      32.376  25.521  22.760  1.00  0.00    -0.270 OA
ATOM      7  H   UNL A   1      29.865  25.455  23.243  1.00  0.00     0.163 HD
BRANCH   5   8
ATOM      8  C   UNL A   1      32.341  26.121  25.075  1.00  0.00     0.067 C 
ATOM      9  C   UNL A   1      35.182  23.219  24.840  1.00  0.00     0.026 A 
ATOM     10  C   UNL A   1      34.538  22.073  24.299  1.00  0.00     0.033 A 
ATOM     11  C   UNL A   1      34.333  24.252  25.288  1.00  0.00     0.135 A 
ATOM     12  C   UNL A   1      33.159  21.887  24.345  1.00  0.00     0.042 A 
ATOM     13  C   UNL A   1      32.944  23.986  25.437  1.00  0.00     0.019 A 
ATOM     14  O   UNL A   1      34.760  25.553  25.536  1.00  0.00    -0.475 OA
ATOM     15  Cl  UNL A   1      32.461  20.493  23.621  1.00  0.00    -0.084 Cl
ATOM     16  C   UNL A   1      32.358  22.809  24.983  1.00  0.00     0.032 A 
ATOM     17  C   UNL A   1      32.067  25.086  25.892  1.00  0.00     0.025 C 
ATOM     18  C   UNL A   1      33.781  26.606  25.108  1.00  0.00     0.314 C 
BRANCH   9  19
ATOM     19  C   UNL A   1      36.655  23.060  25.025  1.00  0.00    -0.015 A 
ATOM     20  C   UNL A   1      39.100  22.309  26.274  1.00  0.00     0.067 A 
ATOM     21  C   UNL A   1      38.485  21.438  25.377  1.00  0.00     0.021 A 
ATOM     22  C   UNL A   1      38.558  23.582  26.480  1.00  0.00     0.021 A 
ATOM     23  C   UNL A   1      37.286  21.822  24.749  1.00  0.00     0.010 A 
ATOM     24  C   UNL A   1      37.354  23.956  25.852  1.00  0.00     0.010 A 
BRANCH  20  25
ATOM     25  S   UNL A   1      40.572  21.825  27.162  1.00  0.00     0.175 S 
ATOM     26  C   UNL A   1      41.945  21.976  26.048  1.00  0.00     0.163 C 
ATOM     27  O   UNL A   1      40.447  20.417  27.471  1.00  0.00    -0.224 OA
ATOM     28  O   UNL A   1      40.750  22.809  28.218  1.00  0.00    -0.224 OA
ENDBRANCH  20  25
ENDBRANCH   9  19
BRANCH  18  29
ATOM     29  C   UNL A   1      33.820  27.862  26.010  1.00  0.00     0.429 C 
ATOM     30  F   UNL A   1      34.859  27.858  26.873  1.00  0.00    -0.167 F 
ATOM     31  F   UNL A   1      33.897  28.996  25.273  1.00  0.00    -0.167 F 
ATOM     32  F   UNL A   1      32.695  27.990  26.767  1.00  0.00    -0.167 F 
ENDBRANCH  18  29
ENDBRANCH   5   8
ENDBRANCH   3   4
ENDBRANCH   2   3
ENDBRANCH   1   2
BRANCH   1  33
ATOM     33  C   UNL A   1      31.139  30.229  25.292  1.00  0.00     0.002 C 
BRANCH  33  34
ATOM     34  C   UNL A   1      31.028  31.643  25.865  1.00  0.00     0.021 C 
BRANCH  34  35
ATOM     35  C   UNL A   1      32.124  32.011  26.859  1.00  0.00     0.116 C 
BRANCH  35  36
ATOM     36  N   UNL A   1      32.109  33.423  27.204  1.00  0.00    -0.352 N 
ATOM     37  C   UNL A   1      32.935  34.115  28.052  1.00  0.00     0.251 C 
ATOM     38  H   UNL A   1      31.408  33.957  26.766  1.00  0.00     0.163 HD
ATOM     39  O   UNL A   1      32.674  35.273  28.361  1.00  0.00    -0.269 OA
BRANCH  37  40
ATOM     40  C   UNL A   1      34.129  33.452  28.615  1.00  0.00     0.039 A 
ATOM     41  C   UNL A   1      35.340  34.148  28.631  1.00  0.00     0.014 A 
ATOM     42  C   UNL A   1      34.057  32.153  29.127  1.00  0.00     0.014 A 
ATOM     43  C   UNL A   1      36.465  33.560  29.209  1.00  0.00     0.010 A 
ATOM     44  C   UNL A   1      35.158  31.600  29.774  1.00  0.00     0.010 A 
ATOM     45  C   UNL A   1      36.377  32.296  29.815  1.00  0.00    -0.014 A 
BRANCH  45  46
ATOM     46  C   UNL A   1      37.551  31.695  30.496  1.00  0.00     0.031 A 
ATOM     47  C   UNL A   1      38.453  30.742  29.759  1.00  0.00     0.074 A 
ATOM     48  C   UNL A   1      37.779  31.974  31.794  1.00  0.00     0.049 A 
ATOM     49  N   UNL A   1      39.511  30.104  30.194  1.00  0.00    -0.248 NA
ATOM     50  C   UNL A   1      38.109  30.448  28.359  1.00  0.00     0.031 C 
ATOM     51  C   UNL A   1      36.945  32.837  32.633  1.00  0.00     0.029 A 
ATOM     52  N   UNL A   1      38.778  31.557  32.638  1.00  0.00    -0.354 N 
ATOM     53  C   UNL A   1      39.948  29.329  29.128  1.00  0.00     0.074 A 
ATOM     54  C   UNL A   1      39.011  29.531  28.045  1.00  0.00     0.031 C 
ATOM     55  C   UNL A   1      37.481  32.907  33.861  1.00  0.00     0.029 A 
ATOM     56  C   UNL A   1      38.671  32.065  33.910  1.00  0.00     0.049 A 
ATOM     57  H   UNL A   1      39.500  30.950  32.359  1.00  0.00     0.167 HD
ATOM     58  C   UNL A   1      41.045  28.538  29.051  1.00  0.00     0.037 A 
ATOM     59  C   UNL A   1      39.444  31.870  34.996  1.00  0.00     0.037 A 
ATOM     60  C   UNL A   1      41.987  28.355  30.126  1.00  0.00     0.049 A 
ATOM     61  C   UNL A   1      40.655  30.985  34.884  1.00  0.00     0.074 A 
ATOM     62  C   UNL A   1      43.164  27.628  30.125  1.00  0.00     0.029 A 
ATOM     63  N   UNL A   1      41.853  28.898  31.395  1.00  0.00    -0.354 N 
ATOM     64  N   UNL A   1      41.103  30.324  33.844  1.00  0.00    -0.248 NA
ATOM     65  C   UNL A   1      41.472  30.827  36.094  1.00  0.00     0.031 C 
ATOM     66  C   UNL A   1      43.713  27.682  31.410  1.00  0.00     0.029 A 
ATOM     67  C   UNL A   1      42.912  28.496  32.194  1.00  0.00     0.049 A 
ATOM     68  H   UNL A   1      41.116  29.482  31.685  1.00  0.00     0.167 HD
ATOM     69  C   UNL A   1      42.268  29.695  34.266  1.00  0.00     0.074 A 
ATOM     70  C   UNL A   1      42.466  30.071  35.650  1.00  0.00     0.031 C 
ATOM     71  C   UNL A   1      43.097  28.880  33.571  1.00  0.00     0.037 A 
BRANCH  58  72
ATOM     72  C   UNL A   1      41.288  27.806  27.761  1.00  0.00     0.057 A 
ATOM     73  C   UNL A   1      42.030  28.373  26.716  1.00  0.00     0.134 A 
ATOM     74  C   UNL A   1      40.813  26.501  27.580  1.00  0.00     0.134 A 
ATOM     75  F   UNL A   1      42.506  29.623  26.817  1.00  0.00    -0.206 F 
ATOM     76  C   UNL A   1      42.268  27.678  25.528  1.00  0.00     0.040 A 
ATOM     77  C   UNL A   1      41.071  25.785  26.409  1.00  0.00     0.040 A 
ATOM     78  F   UNL A   1      40.102  25.895  28.543  1.00  0.00    -0.206 F 
ATOM     79  C   UNL A   1      41.795  26.377  25.377  1.00  0.00     0.006 A 
ENDBRANCH  58  72
BRANCH  59  80
ATOM     80  C   UNL A   1      39.105  32.535  36.281  1.00  0.00     0.057 A 
ATOM     81  C   UNL A   1      38.245  31.931  37.206  1.00  0.00     0.134 A 
ATOM     82  C   UNL A   1      39.621  33.795  36.609  1.00  0.00     0.134 A 
ATOM     83  F   UNL A   1      37.705  30.733  36.942  1.00  0.00    -0.206 F 
ATOM     84  C   UNL A   1      37.888  32.567  38.396  1.00  0.00     0.040 A 
ATOM     85  C   UNL A   1      39.296  34.429  37.809  1.00  0.00     0.040 A 
ATOM     86  F   UNL A   1      40.459  34.422  35.771  1.00  0.00    -0.206 F 
ATOM     87  C   UNL A   1      38.418  33.819  38.702  1.00  0.00     0.006 A 
ENDBRANCH  59  80
BRANCH  71  88
ATOM     88  C   UNL A   1      44.316  28.368  34.286  1.00  0.00     0.057 A 
ATOM     89  C   UNL A   1      45.527  29.072  34.287  1.00  0.00     0.134 A 
ATOM     90  C   UNL A   1      44.266  27.169  35.008  1.00  0.00     0.134 A 
ATOM     91  F   UNL A   1      45.647  30.221  33.605  1.00  0.00    -0.206 F 
ATOM     92  C   UNL A   1      46.654  28.584  34.951  1.00  0.00     0.040 A 
ATOM     93  C   UNL A   1      45.376  26.687  35.703  1.00  0.00     0.040 A 
ATOM     94  F   UNL A   1      43.134  26.450  35.060  1.00  0.00    -0.206 F 
ATOM     95  C   UNL A   1      46.577  27.391  35.669  1.00  0.00     0.006 A 
ENDBRANCH  71  88
ENDBRANCH  45  46
ENDBRANCH  37  40
ENDBRANCH  35  36
ENDBRANCH  34  35
ENDBRANCH  33  34
ENDBRANCH   1  33
TORSDOF 16
ENDMDL
