MODEL 1
REMARK VINA RESULT:     -11.8      0.000      0.000
REMARK SMILES C[C@H]1CCCCN1c1nc2nc(CC(=O)NCCCCCCNC(=O)c3ccc(-c4c5nc(c(-c6c(F)cccc6F)c6ccc([nH]6)c(-c6c(F)cccc6F)c6nc(c(-c7c(F)cccc7F)c7ccc4[nH]7)C=C6)C=C5)cc3)cc(O)n2n1
REMARK SMILES IDX 19 1 18 2 17 3 16 4 14 5 15 6 13 8 12 9 8 10 9 11 84 12
REMARK SMILES IDX 10 13 83 14 11 15 81 16 80 17 7 18 1 19 2 20 3 21 4 22 6 23
REMARK SMILES IDX 5 24 82 25 20 27 21 28 22 29 23 30 24 31 25 33 26 34 27 35
REMARK SMILES IDX 79 36 28 37 78 38 29 39 30 40 31 41 72 42 32 43 77 44 71 45
REMARK SMILES IDX 73 46 33 47 76 48 70 49 69 50 34 52 60 53 43 54 59 55 44 56
REMARK SMILES IDX 47 57 58 58 74 59 45 60 46 61 57 63 75 64 48 65 35 66 36 67
REMARK SMILES IDX 41 68 37 69 38 70 40 71 42 72 39 73 61 74 62 75 67 76 63 77
REMARK SMILES IDX 64 78 66 79 68 80 65 81 49 82 50 83 55 84 51 85 52 86 54 87
REMARK SMILES IDX 56 88 53 89
REMARK H PARENT 16 7 82 26 23 32 73 51 47 62
REMARK Flexibility Score: inf
ROOT
ATOM      1  C   UNL A   1      33.411  28.491  25.953  1.00  0.00     0.002 C 
ENDROOT
BRANCH   1   2
ATOM      2  C   UNL A   1      32.834  29.318  24.797  1.00  0.00     0.021 C 
BRANCH   2   3
ATOM      3  C   UNL A   1      31.322  29.519  24.889  1.00  0.00     0.116 C 
BRANCH   3   4
ATOM      4  N   UNL A   1      30.737  29.739  23.583  1.00  0.00    -0.356 N 
ATOM      5  C   UNL A   1      30.144  28.855  22.732  1.00  0.00     0.226 C 
ATOM      6  O   UNL A   1      29.724  29.275  21.654  1.00  0.00    -0.275 OA
ATOM      7  H   UNL A   1      30.774  30.668  23.261  1.00  0.00     0.163 HD
BRANCH   5   8
ATOM      8  C   UNL A   1      29.899  27.433  23.173  1.00  0.00     0.156 C 
BRANCH   8   9
ATOM      9  C   UNL A   1      31.095  26.512  23.081  1.00  0.00     0.059 A 
ATOM     10  C   UNL A   1      34.285  23.847  24.263  1.00  0.00     0.247 A 
ATOM     11  N   UNL A   1      33.264  24.441  24.948  1.00  0.00    -0.173 NA
ATOM     12  N   UNL A   1      34.255  24.034  22.947  1.00  0.00    -0.123 NA
ATOM     13  C   UNL A   1      32.619  25.120  24.029  1.00  0.00     0.257 A 
ATOM     14  N   UNL A   1      33.204  24.863  22.789  1.00  0.00    -0.161 N 
ATOM     15  N   UNL A   1      31.544  25.952  24.165  1.00  0.00    -0.215 NA
ATOM     16  C   UNL A   1      32.701  25.450  21.617  1.00  0.00     0.217 A 
ATOM     17  C   UNL A   1      31.679  26.312  21.710  1.00  0.00     0.092 A 
BRANCH  10  18
ATOM     18  N   UNL A   1      35.208  23.156  24.960  1.00  0.00    -0.337 N 
ATOM     19  C   UNL A   1      33.964  20.970  24.615  1.00  0.00     0.031 C 
ATOM     20  C   UNL A   1      35.086  21.739  25.320  1.00  0.00     0.082 C 
ATOM     21  C   UNL A   1      36.426  21.053  24.979  1.00  0.00     0.025 C 
ATOM     22  C   UNL A   1      37.603  21.747  25.659  1.00  0.00     0.004 C 
ATOM     23  C   UNL A   1      36.287  23.896  25.603  1.00  0.00     0.120 C 
ATOM     24  C   UNL A   1      37.631  23.234  25.321  1.00  0.00     0.022 C 
ENDBRANCH  10  18
BRANCH  16  25
ATOM     25  O   UNL A   1      33.275  25.121  20.398  1.00  0.00    -0.493 OA
ATOM     26  H   UNL A   1      33.909  25.692  20.010  1.00  0.00     0.295 HD
ENDBRANCH  16  25
ENDBRANCH   8   9
ENDBRANCH   5   8
ENDBRANCH   3   4
ENDBRANCH   2   3
ENDBRANCH   1   2
BRANCH   1  27
ATOM     27  C   UNL A   1      34.245  29.284  26.970  1.00  0.00     0.002 C 
BRANCH  27  28
ATOM     28  C   UNL A   1      33.680  30.658  27.363  1.00  0.00     0.021 C 
BRANCH  28  29
ATOM     29  C   UNL A   1      34.767  31.670  27.682  1.00  0.00     0.116 C 
BRANCH  29  30
ATOM     30  N   UNL A   1      34.563  32.281  28.992  1.00  0.00    -0.352 N 
ATOM     31  C   UNL A   1      35.144  31.949  30.195  1.00  0.00     0.251 C 
ATOM     32  H   UNL A   1      33.923  33.029  29.018  1.00  0.00     0.163 HD
ATOM     33  O   UNL A   1      34.639  32.291  31.252  1.00  0.00    -0.269 OA
BRANCH  31  34
ATOM     34  C   UNL A   1      36.409  31.198  30.185  1.00  0.00     0.039 A 
ATOM     35  C   UNL A   1      36.414  29.799  30.245  1.00  0.00     0.014 A 
ATOM     36  C   UNL A   1      37.602  31.920  30.177  1.00  0.00     0.014 A 
ATOM     37  C   UNL A   1      37.633  29.131  30.267  1.00  0.00     0.010 A 
ATOM     38  C   UNL A   1      38.795  31.266  30.064  1.00  0.00     0.010 A 
ATOM     39  C   UNL A   1      38.811  29.880  30.185  1.00  0.00    -0.014 A 
BRANCH  39  40
ATOM     40  C   UNL A   1      40.116  29.247  30.143  1.00  0.00     0.031 A 
ATOM     41  C   UNL A   1      40.737  29.055  31.479  1.00  0.00     0.074 A 
ATOM     42  C   UNL A   1      40.539  28.639  29.013  1.00  0.00     0.049 A 
ATOM     43  N   UNL A   1      41.830  29.581  31.923  1.00  0.00    -0.248 NA
ATOM     44  C   UNL A   1      39.975  28.320  32.505  1.00  0.00     0.031 C 
ATOM     45  C   UNL A   1      39.827  28.515  27.735  1.00  0.00     0.029 A 
ATOM     46  N   UNL A   1      41.644  27.872  28.815  1.00  0.00    -0.354 N 
ATOM     47  C   UNL A   1      42.011  29.053  33.199  1.00  0.00     0.074 A 
ATOM     48  C   UNL A   1      40.748  28.485  33.581  1.00  0.00     0.031 C 
ATOM     49  C   UNL A   1      40.397  27.542  26.991  1.00  0.00     0.029 A 
ATOM     50  C   UNL A   1      41.586  27.071  27.674  1.00  0.00     0.049 A 
ATOM     51  H   UNL A   1      42.419  27.883  29.423  1.00  0.00     0.167 HD
ATOM     52  C   UNL A   1      43.261  28.874  33.709  1.00  0.00     0.037 A 
ATOM     53  C   UNL A   1      42.429  26.046  27.385  1.00  0.00     0.037 A 
ATOM     54  C   UNL A   1      44.237  29.615  32.945  1.00  0.00     0.049 A 
ATOM     55  C   UNL A   1      43.652  26.247  28.213  1.00  0.00     0.074 A 
ATOM     56  C   UNL A   1      44.410  30.948  32.622  1.00  0.00     0.029 A 
ATOM     57  N   UNL A   1      45.005  28.912  32.047  1.00  0.00    -0.354 N 
ATOM     58  N   UNL A   1      44.478  27.243  28.040  1.00  0.00    -0.248 NA
ATOM     59  C   UNL A   1      43.664  25.649  29.541  1.00  0.00     0.031 C 
ATOM     60  C   UNL A   1      44.850  30.942  31.265  1.00  0.00     0.029 A 
ATOM     61  C   UNL A   1      45.007  29.613  30.870  1.00  0.00     0.049 A 
ATOM     62  H   UNL A   1      45.469  28.061  32.220  1.00  0.00     0.167 HD
ATOM     63  C   UNL A   1      44.778  27.679  29.324  1.00  0.00     0.074 A 
ATOM     64  C   UNL A   1      44.297  26.618  30.209  1.00  0.00     0.031 C 
ATOM     65  C   UNL A   1      45.096  28.985  29.572  1.00  0.00     0.037 A 
BRANCH  52  66
ATOM     66  C   UNL A   1      43.668  27.722  34.601  1.00  0.00     0.057 A 
ATOM     67  C   UNL A   1      43.739  26.374  34.195  1.00  0.00     0.134 A 
ATOM     68  C   UNL A   1      44.324  28.011  35.814  1.00  0.00     0.134 A 
ATOM     69  F   UNL A   1      43.208  25.930  33.051  1.00  0.00    -0.206 F 
ATOM     70  C   UNL A   1      44.457  25.405  34.902  1.00  0.00     0.040 A 
ATOM     71  C   UNL A   1      45.087  27.061  36.500  1.00  0.00     0.040 A 
ATOM     72  F   UNL A   1      44.320  29.255  36.319  1.00  0.00    -0.206 F 
ATOM     73  C   UNL A   1      45.170  25.756  36.036  1.00  0.00     0.006 A 
ENDBRANCH  52  66
BRANCH  53  74
ATOM     74  C   UNL A   1      42.118  24.762  26.710  1.00  0.00     0.057 A 
ATOM     75  C   UNL A   1      41.182  23.852  27.237  1.00  0.00     0.134 A 
ATOM     76  C   UNL A   1      42.919  24.271  25.668  1.00  0.00     0.134 A 
ATOM     77  F   UNL A   1      40.414  24.171  28.287  1.00  0.00    -0.206 F 
ATOM     78  C   UNL A   1      41.055  22.542  26.765  1.00  0.00     0.040 A 
ATOM     79  C   UNL A   1      42.812  22.953  25.195  1.00  0.00     0.040 A 
ATOM     80  F   UNL A   1      43.870  25.041  25.121  1.00  0.00    -0.206 F 
ATOM     81  C   UNL A   1      41.884  22.080  25.752  1.00  0.00     0.006 A 
ENDBRANCH  53  74
BRANCH  65  82
ATOM     82  C   UNL A   1      45.327  29.895  28.395  1.00  0.00     0.057 A 
ATOM     83  C   UNL A   1      46.640  30.119  27.967  1.00  0.00     0.134 A 
ATOM     84  C   UNL A   1      44.326  30.665  27.781  1.00  0.00     0.134 A 
ATOM     85  F   UNL A   1      47.659  29.469  28.550  1.00  0.00    -0.206 F 
ATOM     86  C   UNL A   1      46.943  31.048  26.970  1.00  0.00     0.040 A 
ATOM     87  C   UNL A   1      44.612  31.574  26.757  1.00  0.00     0.040 A 
ATOM     88  F   UNL A   1      43.056  30.608  28.195  1.00  0.00    -0.206 F 
ATOM     89  C   UNL A   1      45.926  31.772  26.352  1.00  0.00     0.006 A 
ENDBRANCH  65  82
ENDBRANCH  39  40
ENDBRANCH  31  34
ENDBRANCH  29  30
ENDBRANCH  28  29
ENDBRANCH  27  28
ENDBRANCH   1  27
TORSDOF 16
ENDMDL
MODEL 2
REMARK VINA RESULT:     -11.3      1.669      4.325
REMARK SMILES C[C@H]1CCCCN1c1nc2nc(CC(=O)NCCCCCCNC(=O)c3ccc(-c4c5nc(c(-c6c(F)cccc6F)c6ccc([nH]6)c(-c6c(F)cccc6F)c6nc(c(-c7c(F)cccc7F)c7ccc4[nH]7)C=C6)C=C5)cc3)cc(O)n2n1
REMARK SMILES IDX 19 1 18 2 17 3 16 4 14 5 15 6 13 8 12 9 8 10 9 11 84 12
REMARK SMILES IDX 10 13 83 14 11 15 81 16 80 17 7 18 1 19 2 20 3 21 4 22 6 23
REMARK SMILES IDX 5 24 82 25 20 27 21 28 22 29 23 30 24 31 25 33 26 34 27 35
REMARK SMILES IDX 79 36 28 37 78 38 29 39 30 40 31 41 72 42 32 43 77 44 71 45
REMARK SMILES IDX 73 46 33 47 76 48 70 49 69 50 34 52 60 53 43 54 59 55 44 56
REMARK SMILES IDX 47 57 58 58 74 59 45 60 46 61 57 63 75 64 48 65 35 66 36 67
REMARK SMILES IDX 41 68 37 69 38 70 40 71 42 72 39 73 61 74 62 75 67 76 63 77
REMARK SMILES IDX 64 78 66 79 68 80 65 81 49 82 50 83 55 84 51 85 52 86 54 87
REMARK SMILES IDX 56 88 53 89
REMARK H PARENT 16 7 82 26 23 32 73 51 47 62
REMARK Flexibility Score: inf
ROOT
ATOM      1  C   UNL A   1      32.730  26.760  26.362  1.00  0.00     0.002 C 
ENDROOT
BRANCH   1   2
ATOM      2  C   UNL A   1      33.887  25.846  25.941  1.00  0.00     0.021 C 
BRANCH   2   3
ATOM      3  C   UNL A   1      33.495  24.372  25.851  1.00  0.00     0.116 C 
BRANCH   3   4
ATOM      4  N   UNL A   1      32.293  24.098  26.611  1.00  0.00    -0.356 N 
ATOM      5  C   UNL A   1      31.019  23.877  26.180  1.00  0.00     0.226 C 
ATOM      6  O   UNL A   1      30.145  23.674  27.023  1.00  0.00    -0.275 OA
ATOM      7  H   UNL A   1      32.415  24.067  27.587  1.00  0.00     0.163 HD
BRANCH   5   8
ATOM      8  C   UNL A   1      30.733  23.758  24.703  1.00  0.00     0.156 C 
BRANCH   8   9
ATOM      9  C   UNL A   1      30.706  25.065  23.942  1.00  0.00     0.059 A 
ATOM     10  C   UNL A   1      29.495  29.014  22.673  1.00  0.00     0.247 A 
ATOM     11  N   UNL A   1      29.074  28.187  23.673  1.00  0.00    -0.173 NA
ATOM     12  N   UNL A   1      30.556  28.580  22.001  1.00  0.00    -0.123 NA
ATOM     13  C   UNL A   1      29.845  27.131  23.558  1.00  0.00     0.257 A 
ATOM     14  N   UNL A   1      30.776  27.367  22.546  1.00  0.00    -0.161 N 
ATOM     15  N   UNL A   1      29.823  25.963  24.266  1.00  0.00    -0.215 NA
ATOM     16  C   UNL A   1      31.745  26.405  22.217  1.00  0.00     0.217 A 
ATOM     17  C   UNL A   1      31.728  25.224  22.852  1.00  0.00     0.092 A 
BRANCH  10  18
ATOM     18  N   UNL A   1      28.813  30.155  22.455  1.00  0.00    -0.337 N 
ATOM     19  C   UNL A   1      29.830  31.260  24.502  1.00  0.00     0.031 C 
ATOM     20  C   UNL A   1      28.792  31.298  23.376  1.00  0.00     0.082 C 
ATOM     21  C   UNL A   1      29.034  32.575  22.542  1.00  0.00     0.025 C 
ATOM     22  C   UNL A   1      28.027  32.703  21.402  1.00  0.00     0.004 C 
ATOM     23  C   UNL A   1      27.849  30.188  21.361  1.00  0.00     0.120 C 
ATOM     24  C   UNL A   1      28.028  31.452  20.529  1.00  0.00     0.022 C 
ENDBRANCH  10  18
BRANCH  16  25
ATOM     25  O   UNL A   1      32.689  26.702  21.247  1.00  0.00    -0.493 OA
ATOM     26  H   UNL A   1      33.573  26.408  21.348  1.00  0.00     0.295 HD
ENDBRANCH  16  25
ENDBRANCH   8   9
ENDBRANCH   5   8
ENDBRANCH   3   4
ENDBRANCH   2   3
ENDBRANCH   1   2
BRANCH   1  27
ATOM     27  C   UNL A   1      32.910  28.245  26.011  1.00  0.00     0.002 C 
BRANCH  27  28
ATOM     28  C   UNL A   1      33.130  29.186  27.205  1.00  0.00     0.021 C 
BRANCH  28  29
ATOM     29  C   UNL A   1      34.244  30.190  26.964  1.00  0.00     0.116 C 
BRANCH  29  30
ATOM     30  N   UNL A   1      34.140  31.332  27.867  1.00  0.00    -0.352 N 
ATOM     31  C   UNL A   1      34.874  31.601  29.000  1.00  0.00     0.251 C 
ATOM     32  H   UNL A   1      33.454  31.999  27.634  1.00  0.00     0.163 HD
ATOM     33  O   UNL A   1      34.465  32.383  29.843  1.00  0.00    -0.269 OA
BRANCH  31  34
ATOM     34  C   UNL A   1      36.183  30.948  29.166  1.00  0.00     0.039 A 
ATOM     35  C   UNL A   1      36.273  29.574  29.417  1.00  0.00     0.014 A 
ATOM     36  C   UNL A   1      37.324  31.748  29.126  1.00  0.00     0.014 A 
ATOM     37  C   UNL A   1      37.528  29.005  29.601  1.00  0.00     0.010 A 
ATOM     38  C   UNL A   1      38.562  31.172  29.173  1.00  0.00     0.010 A 
ATOM     39  C   UNL A   1      38.659  29.820  29.483  1.00  0.00    -0.014 A 
BRANCH  39  40
ATOM     40  C   UNL A   1      40.001  29.283  29.604  1.00  0.00     0.031 A 
ATOM     41  C   UNL A   1      40.472  29.140  31.005  1.00  0.00     0.074 A 
ATOM     42  C   UNL A   1      40.598  28.705  28.539  1.00  0.00     0.049 A 
ATOM     43  N   UNL A   1      41.463  29.745  31.570  1.00  0.00    -0.248 NA
ATOM     44  C   UNL A   1      39.648  28.355  31.942  1.00  0.00     0.031 C 
ATOM     45  C   UNL A   1      40.054  28.526  27.187  1.00  0.00     0.029 A 
ATOM     46  N   UNL A   1      41.771  28.020  28.481  1.00  0.00    -0.354 N 
ATOM     47  C   UNL A   1      41.528  29.235  32.864  1.00  0.00     0.074 A 
ATOM     48  C   UNL A   1      40.273  28.578  33.100  1.00  0.00     0.031 C 
ATOM     49  C   UNL A   1      40.778  27.596  26.527  1.00  0.00     0.029 A 
ATOM     50  C   UNL A   1      41.908  27.214  27.351  1.00  0.00     0.049 A 
ATOM     51  H   UNL A   1      42.466  28.089  29.176  1.00  0.00     0.167 HD
ATOM     52  C   UNL A   1      42.718  29.148  33.521  1.00  0.00     0.037 A 
ATOM     53  C   UNL A   1      42.851  26.253  27.175  1.00  0.00     0.037 A 
ATOM     54  C   UNL A   1      43.722  29.957  32.870  1.00  0.00     0.049 A 
ATOM     55  C   UNL A   1      43.948  26.543  28.139  1.00  0.00     0.074 A 
ATOM     56  C   UNL A   1      43.836  31.298  32.555  1.00  0.00     0.029 A 
ATOM     57  N   UNL A   1      44.641  29.310  32.077  1.00  0.00    -0.354 N 
ATOM     58  N   UNL A   1      44.716  27.597  28.055  1.00  0.00    -0.248 NA
ATOM     59  C   UNL A   1      43.846  25.952  29.466  1.00  0.00     0.031 C 
ATOM     60  C   UNL A   1      44.434  31.321  31.260  1.00  0.00     0.029 A 
ATOM     61  C   UNL A   1      44.733  30.005  30.901  1.00  0.00     0.049 A 
ATOM     62  H   UNL A   1      45.141  28.495  32.313  1.00  0.00     0.167 HD
ATOM     63  C   UNL A   1      44.828  28.057  29.360  1.00  0.00     0.074 A 
ATOM     64  C   UNL A   1      44.323  26.966  30.194  1.00  0.00     0.031 C 
ATOM     65  C   UNL A   1      45.020  29.383  29.630  1.00  0.00     0.037 A 
BRANCH  52  66
ATOM     66  C   UNL A   1      43.098  28.031  34.468  1.00  0.00     0.057 A 
ATOM     67  C   UNL A   1      43.154  28.149  35.872  1.00  0.00     0.134 A 
ATOM     68  C   UNL A   1      43.089  26.708  33.984  1.00  0.00     0.134 A 
ATOM     69  F   UNL A   1      43.128  29.326  36.504  1.00  0.00    -0.206 F 
ATOM     70  C   UNL A   1      43.138  27.043  36.727  1.00  0.00     0.040 A 
ATOM     71  C   UNL A   1      43.021  25.598  34.832  1.00  0.00     0.040 A 
ATOM     72  F   UNL A   1      43.051  26.459  32.666  1.00  0.00    -0.206 F 
ATOM     73  C   UNL A   1      43.028  25.763  36.210  1.00  0.00     0.006 A 
ENDBRANCH  52  66
BRANCH  53  74
ATOM     74  C   UNL A   1      42.715  24.947  26.482  1.00  0.00     0.057 A 
ATOM     75  C   UNL A   1      41.985  23.881  27.039  1.00  0.00     0.134 A 
ATOM     76  C   UNL A   1      43.514  24.622  25.375  1.00  0.00     0.134 A 
ATOM     77  F   UNL A   1      41.248  24.044  28.147  1.00  0.00    -0.206 F 
ATOM     78  C   UNL A   1      42.049  22.578  26.536  1.00  0.00     0.040 A 
ATOM     79  C   UNL A   1      43.598  23.314  24.870  1.00  0.00     0.040 A 
ATOM     80  F   UNL A   1      44.281  25.553  24.792  1.00  0.00    -0.206 F 
ATOM     81  C   UNL A   1      42.872  22.285  25.458  1.00  0.00     0.006 A 
ENDBRANCH  53  74
BRANCH  65  82
ATOM     82  C   UNL A   1      45.324  30.304  28.478  1.00  0.00     0.057 A 
ATOM     83  C   UNL A   1      46.658  30.631  28.213  1.00  0.00     0.134 A 
ATOM     84  C   UNL A   1      44.349  30.990  27.736  1.00  0.00     0.134 A 
ATOM     85  F   UNL A   1      47.645  30.067  28.927  1.00  0.00    -0.206 F 
ATOM     86  C   UNL A   1      47.009  31.578  27.250  1.00  0.00     0.040 A 
ATOM     87  C   UNL A   1      44.688  31.915  26.743  1.00  0.00     0.040 A 
ATOM     88  F   UNL A   1      43.046  30.833  27.989  1.00  0.00    -0.206 F 
ATOM     89  C   UNL A   1      46.023  32.216  26.501  1.00  0.00     0.006 A 
ENDBRANCH  65  82
ENDBRANCH  39  40
ENDBRANCH  31  34
ENDBRANCH  29  30
ENDBRANCH  28  29
ENDBRANCH  27  28
ENDBRANCH   1  27
TORSDOF 16
ENDMDL
MODEL 3
REMARK VINA RESULT:     -11.0      2.955      8.192
REMARK SMILES C[C@H]1CCCCN1c1nc2nc(CC(=O)NCCCCCCNC(=O)c3ccc(-c4c5nc(c(-c6c(F)cccc6F)c6ccc([nH]6)c(-c6c(F)cccc6F)c6nc(c(-c7c(F)cccc7F)c7ccc4[nH]7)C=C6)C=C5)cc3)cc(O)n2n1
REMARK SMILES IDX 19 1 18 2 17 3 16 4 14 5 15 6 13 8 12 9 8 10 9 11 84 12
REMARK SMILES IDX 10 13 83 14 11 15 81 16 80 17 7 18 1 19 2 20 3 21 4 22 6 23
REMARK SMILES IDX 5 24 82 25 20 27 21 28 22 29 23 30 24 31 25 33 26 34 27 35
REMARK SMILES IDX 79 36 28 37 78 38 29 39 30 40 31 41 72 42 32 43 77 44 71 45
REMARK SMILES IDX 73 46 33 47 76 48 70 49 69 50 34 52 60 53 43 54 59 55 44 56
REMARK SMILES IDX 47 57 58 58 74 59 45 60 46 61 57 63 75 64 48 65 35 66 36 67
REMARK SMILES IDX 41 68 37 69 38 70 40 71 42 72 39 73 61 74 62 75 67 76 63 77
REMARK SMILES IDX 64 78 66 79 68 80 65 81 49 82 50 83 55 84 51 85 52 86 54 87
REMARK SMILES IDX 56 88 53 89
REMARK H PARENT 16 7 82 26 23 32 73 51 47 62
REMARK Flexibility Score: inf
ROOT
ATOM      1  C   UNL A   1      37.760  20.530  24.947  1.00  0.00     0.002 C 
ENDROOT
BRANCH   1   2
ATOM      2  C   UNL A   1      36.564  19.582  24.794  1.00  0.00     0.021 C 
BRANCH   2   3
ATOM      3  C   UNL A   1      35.212  20.280  24.944  1.00  0.00     0.116 C 
BRANCH   3   4
ATOM      4  N   UNL A   1      34.138  19.323  25.097  1.00  0.00    -0.356 N 
ATOM      5  C   UNL A   1      32.876  19.337  24.581  1.00  0.00     0.226 C 
ATOM      6  O   UNL A   1      32.120  18.406  24.861  1.00  0.00    -0.275 OA
ATOM      7  H   UNL A   1      34.351  18.543  25.658  1.00  0.00     0.163 HD
BRANCH   5   8
ATOM      8  C   UNL A   1      32.479  20.404  23.592  1.00  0.00     0.156 C 
BRANCH   8   9
ATOM      9  C   UNL A   1      31.905  21.666  24.198  1.00  0.00     0.059 A 
ATOM     10  C   UNL A   1      30.523  25.744  24.566  1.00  0.00     0.247 A 
ATOM     11  N   UNL A   1      30.979  25.007  23.512  1.00  0.00    -0.173 NA
ATOM     12  N   UNL A   1      30.372  25.065  25.698  1.00  0.00    -0.123 NA
ATOM     13  C   UNL A   1      31.226  23.828  24.034  1.00  0.00     0.257 A 
ATOM     14  N   UNL A   1      30.838  23.841  25.374  1.00  0.00    -0.161 N 
ATOM     15  N   UNL A   1      31.759  22.716  23.445  1.00  0.00    -0.215 NA
ATOM     16  C   UNL A   1      30.973  22.698  26.177  1.00  0.00     0.217 A 
ATOM     17  C   UNL A   1      31.538  21.600  25.654  1.00  0.00     0.092 A 
BRANCH  10  18
ATOM     18  N   UNL A   1      30.284  27.056  24.374  1.00  0.00    -0.337 N 
ATOM     19  C   UNL A   1      32.420  27.714  25.578  1.00  0.00     0.031 C 
ATOM     20  C   UNL A   1      31.088  28.139  24.953  1.00  0.00     0.082 C 
ATOM     21  C   UNL A   1      31.387  29.152  23.827  1.00  0.00     0.025 C 
ATOM     22  C   UNL A   1      30.107  29.645  23.157  1.00  0.00     0.004 C 
ATOM     23  C   UNL A   1      29.025  27.447  23.752  1.00  0.00     0.120 C 
ATOM     24  C   UNL A   1      29.268  28.475  22.653  1.00  0.00     0.022 C 
ENDBRANCH  10  18
BRANCH  16  25
ATOM     25  O   UNL A   1      30.520  22.736  27.487  1.00  0.00    -0.493 OA
ATOM     26  H   UNL A   1      29.770  22.233  27.737  1.00  0.00     0.295 HD
ENDBRANCH  16  25
ENDBRANCH   8   9
ENDBRANCH   5   8
ENDBRANCH   3   4
ENDBRANCH   2   3
ENDBRANCH   1   2
BRANCH   1  27
ATOM     27  C   UNL A   1      37.463  21.842  25.690  1.00  0.00     0.002 C 
BRANCH  27  28
ATOM     28  C   UNL A   1      38.637  22.827  25.791  1.00  0.00     0.021 C 
BRANCH  28  29
ATOM     29  C   UNL A   1      39.712  22.361  26.758  1.00  0.00     0.116 C 
BRANCH  29  30
ATOM     30  N   UNL A   1      41.012  22.255  26.102  1.00  0.00    -0.352 N 
ATOM     31  C   UNL A   1      41.905  23.257  25.796  1.00  0.00     0.251 C 
ATOM     32  H   UNL A   1      41.286  21.345  25.844  1.00  0.00     0.163 HD
ATOM     33  O   UNL A   1      42.772  23.091  24.953  1.00  0.00    -0.269 OA
BRANCH  31  34
ATOM     34  C   UNL A   1      41.817  24.530  26.529  1.00  0.00     0.039 A 
ATOM     35  C   UNL A   1      41.094  25.610  26.008  1.00  0.00     0.014 A 
ATOM     36  C   UNL A   1      42.523  24.648  27.726  1.00  0.00     0.014 A 
ATOM     37  C   UNL A   1      41.066  26.804  26.718  1.00  0.00     0.010 A 
ATOM     38  C   UNL A   1      42.388  25.773  28.489  1.00  0.00     0.010 A 
ATOM     39  C   UNL A   1      41.724  26.870  27.951  1.00  0.00    -0.014 A 
BRANCH  39  40
ATOM     40  C   UNL A   1      41.686  28.065  28.773  1.00  0.00     0.031 A 
ATOM     41  C   UNL A   1      42.754  29.049  28.458  1.00  0.00     0.074 A 
ATOM     42  C   UNL A   1      40.595  28.340  29.519  1.00  0.00     0.049 A 
ATOM     43  N   UNL A   1      43.710  29.447  29.228  1.00  0.00    -0.248 NA
ATOM     44  C   UNL A   1      42.874  29.529  27.070  1.00  0.00     0.031 C 
ATOM     45  C   UNL A   1      39.357  27.558  29.630  1.00  0.00     0.029 A 
ATOM     46  N   UNL A   1      40.303  29.461  30.230  1.00  0.00    -0.354 N 
ATOM     47  C   UNL A   1      44.409  30.405  28.498  1.00  0.00     0.074 A 
ATOM     48  C   UNL A   1      44.000  30.243  27.130  1.00  0.00     0.031 C 
ATOM     49  C   UNL A   1      38.381  28.326  30.160  1.00  0.00     0.029 A 
ATOM     50  C   UNL A   1      38.952  29.601  30.549  1.00  0.00     0.049 A 
ATOM     51  H   UNL A   1      40.986  30.118  30.498  1.00  0.00     0.167 HD
ATOM     52  C   UNL A   1      45.040  31.437  29.124  1.00  0.00     0.037 A 
ATOM     53  C   UNL A   1      38.365  30.730  31.023  1.00  0.00     0.037 A 
ATOM     54  C   UNL A   1      45.182  31.169  30.535  1.00  0.00     0.049 A 
ATOM     55  C   UNL A   1      39.453  31.582  31.578  1.00  0.00     0.074 A 
ATOM     56  C   UNL A   1      45.780  30.169  31.280  1.00  0.00     0.029 A 
ATOM     57  N   UNL A   1      44.307  31.796  31.391  1.00  0.00    -0.354 N 
ATOM     58  N   UNL A   1      40.149  31.258  32.634  1.00  0.00    -0.248 NA
ATOM     59  C   UNL A   1      40.101  32.514  30.666  1.00  0.00     0.031 C 
ATOM     60  C   UNL A   1      44.880  29.929  32.360  1.00  0.00     0.029 A 
ATOM     61  C   UNL A   1      43.837  30.852  32.265  1.00  0.00     0.049 A 
ATOM     62  H   UNL A   1      44.063  32.750  31.376  1.00  0.00     0.167 HD
ATOM     63  C   UNL A   1      41.460  31.577  32.305  1.00  0.00     0.074 A 
ATOM     64  C   UNL A   1      41.359  32.407  31.104  1.00  0.00     0.031 C 
ATOM     65  C   UNL A   1      42.512  30.889  32.839  1.00  0.00     0.037 A 
BRANCH  52  66
ATOM     66  C   UNL A   1      45.143  32.843  28.573  1.00  0.00     0.057 A 
ATOM     67  C   UNL A   1      46.306  33.404  28.009  1.00  0.00     0.134 A 
ATOM     68  C   UNL A   1      43.953  33.546  28.301  1.00  0.00     0.134 A 
ATOM     69  F   UNL A   1      47.515  32.848  28.131  1.00  0.00    -0.206 F 
ATOM     70  C   UNL A   1      46.281  34.535  27.188  1.00  0.00     0.040 A 
ATOM     71  C   UNL A   1      43.911  34.647  27.439  1.00  0.00     0.040 A 
ATOM     72  F   UNL A   1      42.777  33.123  28.791  1.00  0.00    -0.206 F 
ATOM     73  C   UNL A   1      45.076  35.136  26.865  1.00  0.00     0.006 A 
ENDBRANCH  52  66
BRANCH  53  74
ATOM     74  C   UNL A   1      37.005  31.250  30.734  1.00  0.00     0.057 A 
ATOM     75  C   UNL A   1      36.634  31.691  29.450  1.00  0.00     0.134 A 
ATOM     76  C   UNL A   1      36.111  31.573  31.767  1.00  0.00     0.134 A 
ATOM     77  F   UNL A   1      37.439  31.517  28.393  1.00  0.00    -0.206 F 
ATOM     78  C   UNL A   1      35.459  32.410  29.209  1.00  0.00     0.040 A 
ATOM     79  C   UNL A   1      34.936  32.307  31.541  1.00  0.00     0.040 A 
ATOM     80  F   UNL A   1      36.387  31.236  33.035  1.00  0.00    -0.206 F 
ATOM     81  C   UNL A   1      34.612  32.737  30.259  1.00  0.00     0.006 A 
ENDBRANCH  53  74
BRANCH  65  82
ATOM     82  C   UNL A   1      42.232  29.922  33.958  1.00  0.00     0.057 A 
ATOM     83  C   UNL A   1      42.442  30.340  35.276  1.00  0.00     0.134 A 
ATOM     84  C   UNL A   1      41.919  28.566  33.772  1.00  0.00     0.134 A 
ATOM     85  F   UNL A   1      42.809  31.606  35.531  1.00  0.00    -0.206 F 
ATOM     86  C   UNL A   1      42.331  29.463  36.357  1.00  0.00     0.040 A 
ATOM     87  C   UNL A   1      41.770  27.684  34.847  1.00  0.00     0.040 A 
ATOM     88  F   UNL A   1      41.810  28.041  32.547  1.00  0.00    -0.206 F 
ATOM     89  C   UNL A   1      41.982  28.131  36.146  1.00  0.00     0.006 A 
ENDBRANCH  65  82
ENDBRANCH  39  40
ENDBRANCH  31  34
ENDBRANCH  29  30
ENDBRANCH  28  29
ENDBRANCH  27  28
ENDBRANCH   1  27
TORSDOF 16
ENDMDL
