MODEL 1
REMARK VINA RESULT:     -11.0      0.000      0.000
REMARK SMILES C[C@H]1[C@@H](C(=O)NCCCCCCNC(=O)c2ccc(-c3c4nc(c(-c5c(F)cccc5F)c5ccc([nH]5)c(-c5c(F)cccc5F)c5nc(c(-c6c(F)cccc6F)c6ccc3[nH]6)C=C5)C=C4)cc2)CCN1C(=O)N1CCNC(=O)C1(C)C
REMARK SMILES IDX 9 1 8 2 7 3 6 4 4 5 5 6 3 8 1 9 2 10 72 11 70 12 71 13 73 14
REMARK SMILES IDX 74 15 75 16 76 17 81 18 77 19 79 20 82 21 83 22 78 23 80 24
REMARK SMILES IDX 10 26 11 27 12 28 13 29 14 30 15 32 16 33 17 34 69 35 18 36
REMARK SMILES IDX 68 37 19 38 20 39 21 40 62 41 22 42 67 43 61 44 63 45 23 46
REMARK SMILES IDX 66 47 60 48 59 49 24 51 50 52 33 53 49 54 34 55 37 56 48 57
REMARK SMILES IDX 64 58 35 59 36 60 47 62 65 63 38 64 25 65 26 66 31 67 27 68
REMARK SMILES IDX 28 69 30 70 32 71 29 72 51 73 52 74 57 75 53 76 54 77 56 78
REMARK SMILES IDX 58 79 55 80 39 81 40 82 45 83 41 84 42 85 44 86 46 87 43 88
REMARK H PARENT 6 7 78 25 13 31 63 50 37 61
REMARK Flexibility Score: inf
ROOT
ATOM      1  C   UNL A   1      37.330  22.795  25.999  1.00  0.00     0.002 C 
ENDROOT
BRANCH   1   2
ATOM      2  C   UNL A   1      37.039  23.719  24.820  1.00  0.00     0.021 C 
BRANCH   2   3
ATOM      3  C   UNL A   1      36.471  23.058  23.557  1.00  0.00     0.116 C 
BRANCH   3   4
ATOM      4  N   UNL A   1      35.472  22.066  23.914  1.00  0.00    -0.356 N 
ATOM      5  C   UNL A   1      34.135  22.165  24.163  1.00  0.00     0.225 C 
ATOM      6  O   UNL A   1      33.592  21.146  24.596  1.00  0.00    -0.275 OA
ATOM      7  H   UNL A   1      35.827  21.151  23.992  1.00  0.00     0.163 HD
BRANCH   5   8
ATOM      8  C   UNL A   1      33.327  23.426  23.830  1.00  0.00     0.102 C 
ATOM      9  C   UNL A   1      33.641  24.227  26.291  1.00  0.00     0.032 C 
ATOM     10  C   UNL A   1      33.242  24.574  24.860  1.00  0.00     0.096 C 
ATOM     11  N   UNL A   1      31.837  24.979  24.876  1.00  0.00    -0.321 N 
ATOM     12  C   UNL A   1      31.842  23.103  23.500  1.00  0.00     0.037 C 
ATOM     13  C   UNL A   1      31.013  23.847  24.533  1.00  0.00     0.122 C 
BRANCH  11  14
ATOM     14  C   UNL A   1      31.328  26.077  25.547  1.00  0.00     0.321 C 
ATOM     15  O   UNL A   1      30.821  25.998  26.662  1.00  0.00    -0.248 OA
BRANCH  14  16
ATOM     16  N   UNL A   1      31.568  27.290  24.940  1.00  0.00    -0.309 N 
ATOM     17  C   UNL A   1      30.948  27.566  23.652  1.00  0.00     0.143 C 
ATOM     18  C   UNL A   1      32.673  28.200  25.339  1.00  0.00     0.118 C 
ATOM     19  C   UNL A   1      30.405  29.000  23.625  1.00  0.00     0.137 C 
ATOM     20  C   UNL A   1      32.072  29.629  25.403  1.00  0.00     0.245 C 
ATOM     21  C   UNL A   1      33.355  27.834  26.667  1.00  0.00     0.045 C 
ATOM     22  C   UNL A   1      33.778  28.230  24.256  1.00  0.00     0.045 C 
ATOM     23  N   UNL A   1      31.120  29.954  24.462  1.00  0.00    -0.352 N 
ATOM     24  O   UNL A   1      32.509  30.520  26.132  1.00  0.00    -0.272 OA
ATOM     25  H   UNL A   1      30.905  30.908  24.346  1.00  0.00     0.163 HD
ENDBRANCH  14  16
ENDBRANCH  11  14
ENDBRANCH   5   8
ENDBRANCH   3   4
ENDBRANCH   2   3
ENDBRANCH   1   2
BRANCH   1  26
ATOM     26  C   UNL A   1      38.759  22.255  26.064  1.00  0.00     0.002 C 
BRANCH  26  27
ATOM     27  C   UNL A   1      38.999  20.906  25.375  1.00  0.00     0.021 C 
BRANCH  27  28
ATOM     28  C   UNL A   1      39.407  19.754  26.292  1.00  0.00     0.116 C 
BRANCH  28  29
ATOM     29  N   UNL A   1      40.657  19.138  25.883  1.00  0.00    -0.352 N 
ATOM     30  C   UNL A   1      41.914  19.676  25.796  1.00  0.00     0.251 C 
ATOM     31  H   UNL A   1      40.591  18.189  25.629  1.00  0.00     0.163 HD
ATOM     32  O   UNL A   1      42.809  19.058  25.218  1.00  0.00    -0.269 OA
BRANCH  30  33
ATOM     33  C   UNL A   1      42.206  20.999  26.383  1.00  0.00     0.039 A 
ATOM     34  C   UNL A   1      42.585  22.045  25.537  1.00  0.00     0.014 A 
ATOM     35  C   UNL A   1      42.149  21.201  27.765  1.00  0.00     0.014 A 
ATOM     36  C   UNL A   1      42.856  23.307  26.071  1.00  0.00     0.010 A 
ATOM     37  C   UNL A   1      42.358  22.476  28.291  1.00  0.00     0.010 A 
ATOM     38  C   UNL A   1      42.718  23.540  27.449  1.00  0.00    -0.014 A 
BRANCH  38  39
ATOM     39  C   UNL A   1      42.950  24.889  28.025  1.00  0.00     0.031 A 
ATOM     40  C   UNL A   1      44.323  25.292  28.488  1.00  0.00     0.074 A 
ATOM     41  C   UNL A   1      41.911  25.732  28.183  1.00  0.00     0.049 A 
ATOM     42  N   UNL A   1      44.707  26.398  29.072  1.00  0.00    -0.248 NA
ATOM     43  C   UNL A   1      45.400  24.310  28.292  1.00  0.00     0.031 C 
ATOM     44  C   UNL A   1      40.524  25.445  27.812  1.00  0.00     0.029 A 
ATOM     45  N   UNL A   1      41.859  26.999  28.706  1.00  0.00    -0.354 N 
ATOM     46  C   UNL A   1      46.064  26.242  29.323  1.00  0.00     0.074 A 
ATOM     47  C   UNL A   1      46.426  24.913  28.876  1.00  0.00     0.031 C 
ATOM     48  C   UNL A   1      39.763  26.511  28.100  1.00  0.00     0.029 A 
ATOM     49  C   UNL A   1      40.599  27.543  28.707  1.00  0.00     0.049 A 
ATOM     50  H   UNL A   1      42.652  27.474  29.048  1.00  0.00     0.167 HD
ATOM     51  C   UNL A   1      46.935  27.132  29.856  1.00  0.00     0.037 A 
ATOM     52  C   UNL A   1      40.163  28.737  29.152  1.00  0.00     0.037 A 
ATOM     53  C   UNL A   1      46.579  28.462  30.277  1.00  0.00     0.049 A 
ATOM     54  C   UNL A   1      41.147  29.703  29.749  1.00  0.00     0.074 A 
ATOM     55  C   UNL A   1      47.401  29.459  30.775  1.00  0.00     0.029 A 
ATOM     56  N   UNL A   1      45.292  28.979  30.253  1.00  0.00    -0.354 N 
ATOM     57  N   UNL A   1      42.440  29.566  29.922  1.00  0.00    -0.248 NA
ATOM     58  C   UNL A   1      40.613  30.993  30.209  1.00  0.00     0.031 C 
ATOM     59  C   UNL A   1      46.605  30.565  31.091  1.00  0.00     0.029 A 
ATOM     60  C   UNL A   1      45.294  30.273  30.748  1.00  0.00     0.049 A 
ATOM     61  H   UNL A   1      44.497  28.499  29.931  1.00  0.00     0.167 HD
ATOM     62  C   UNL A   1      42.876  30.758  30.485  1.00  0.00     0.074 A 
ATOM     63  C   UNL A   1      41.714  31.612  30.612  1.00  0.00     0.031 C 
ATOM     64  C   UNL A   1      44.128  31.112  30.865  1.00  0.00     0.037 A 
BRANCH  51  65
ATOM     65  C   UNL A   1      48.363  26.693  30.012  1.00  0.00     0.057 A 
ATOM     66  C   UNL A   1      49.332  26.974  29.039  1.00  0.00     0.134 A 
ATOM     67  C   UNL A   1      48.782  26.010  31.160  1.00  0.00     0.134 A 
ATOM     68  F   UNL A   1      48.995  27.615  27.910  1.00  0.00    -0.206 F 
ATOM     69  C   UNL A   1      50.659  26.567  29.189  1.00  0.00     0.040 A 
ATOM     70  C   UNL A   1      50.112  25.621  31.335  1.00  0.00     0.040 A 
ATOM     71  F   UNL A   1      47.908  25.715  32.135  1.00  0.00    -0.206 F 
ATOM     72  C   UNL A   1      51.053  25.893  30.343  1.00  0.00     0.006 A 
ENDBRANCH  51  65
BRANCH  52  73
ATOM     73  C   UNL A   1      38.727  29.096  29.029  1.00  0.00     0.057 A 
ATOM     74  C   UNL A   1      38.200  29.550  27.815  1.00  0.00     0.134 A 
ATOM     75  C   UNL A   1      37.852  28.998  30.117  1.00  0.00     0.134 A 
ATOM     76  F   UNL A   1      38.994  29.682  26.742  1.00  0.00    -0.206 F 
ATOM     77  C   UNL A   1      36.857  29.910  27.690  1.00  0.00     0.040 A 
ATOM     78  C   UNL A   1      36.502  29.331  30.000  1.00  0.00     0.040 A 
ATOM     79  F   UNL A   1      38.296  28.563  31.306  1.00  0.00    -0.206 F 
ATOM     80  C   UNL A   1      36.003  29.796  28.785  1.00  0.00     0.006 A 
ENDBRANCH  52  73
BRANCH  64  81
ATOM     81  C   UNL A   1      44.309  32.492  31.427  1.00  0.00     0.057 A 
ATOM     82  C   UNL A   1      44.239  32.743  32.803  1.00  0.00     0.134 A 
ATOM     83  C   UNL A   1      44.594  33.573  30.584  1.00  0.00     0.134 A 
ATOM     84  F   UNL A   1      43.958  31.752  33.661  1.00  0.00    -0.206 F 
ATOM     85  C   UNL A   1      44.424  34.027  33.318  1.00  0.00     0.040 A 
ATOM     86  C   UNL A   1      44.805  34.856  31.090  1.00  0.00     0.040 A 
ATOM     87  F   UNL A   1      44.682  33.399  29.256  1.00  0.00    -0.206 F 
ATOM     88  C   UNL A   1      44.715  35.087  32.461  1.00  0.00     0.006 A 
ENDBRANCH  64  81
ENDBRANCH  38  39
ENDBRANCH  30  33
ENDBRANCH  28  29
ENDBRANCH  27  28
ENDBRANCH  26  27
ENDBRANCH   1  26
TORSDOF 15
ENDMDL
MODEL 2
REMARK VINA RESULT:     -11.0      0.067      1.284
REMARK SMILES C[C@H]1[C@@H](C(=O)NCCCCCCNC(=O)c2ccc(-c3c4nc(c(-c5c(F)cccc5F)c5ccc([nH]5)c(-c5c(F)cccc5F)c5nc(c(-c6c(F)cccc6F)c6ccc3[nH]6)C=C5)C=C4)cc2)CCN1C(=O)N1CCNC(=O)C1(C)C
REMARK SMILES IDX 9 1 8 2 7 3 6 4 4 5 5 6 3 8 1 9 2 10 72 11 70 12 71 13 73 14
REMARK SMILES IDX 74 15 75 16 76 17 81 18 77 19 79 20 82 21 83 22 78 23 80 24
REMARK SMILES IDX 10 26 11 27 12 28 13 29 14 30 15 32 16 33 17 34 69 35 18 36
REMARK SMILES IDX 68 37 19 38 20 39 21 40 62 41 22 42 67 43 61 44 63 45 23 46
REMARK SMILES IDX 66 47 60 48 59 49 24 51 50 52 33 53 49 54 34 55 37 56 48 57
REMARK SMILES IDX 64 58 35 59 36 60 47 62 65 63 38 64 25 65 26 66 31 67 27 68
REMARK SMILES IDX 28 69 30 70 32 71 29 72 51 73 52 74 57 75 53 76 54 77 56 78
REMARK SMILES IDX 58 79 55 80 39 81 40 82 45 83 41 84 42 85 44 86 46 87 43 88
REMARK H PARENT 6 7 78 25 13 31 63 50 37 61
REMARK Flexibility Score: inf
ROOT
ATOM      1  C   UNL A   1      37.318  22.829  26.054  1.00  0.00     0.002 C 
ENDROOT
BRANCH   1   2
ATOM      2  C   UNL A   1      36.989  23.773  24.900  1.00  0.00     0.021 C 
BRANCH   2   3
ATOM      3  C   UNL A   1      36.498  23.119  23.601  1.00  0.00     0.116 C 
BRANCH   3   4
ATOM      4  N   UNL A   1      35.476  22.130  23.890  1.00  0.00    -0.356 N 
ATOM      5  C   UNL A   1      34.133  22.239  24.099  1.00  0.00     0.225 C 
ATOM      6  O   UNL A   1      33.563  21.212  24.478  1.00  0.00    -0.275 OA
ATOM      7  H   UNL A   1      35.815  21.208  23.946  1.00  0.00     0.163 HD
BRANCH   5   8
ATOM      8  C   UNL A   1      33.353  23.523  23.787  1.00  0.00     0.102 C 
ATOM      9  C   UNL A   1      33.598  24.230  26.284  1.00  0.00     0.032 C 
ATOM     10  C   UNL A   1      33.249  24.634  24.856  1.00  0.00     0.096 C 
ATOM     11  N   UNL A   1      31.850  25.058  24.841  1.00  0.00    -0.321 N 
ATOM     12  C   UNL A   1      31.875  23.233  23.399  1.00  0.00     0.037 C 
ATOM     13  C   UNL A   1      31.023  23.951  24.432  1.00  0.00     0.122 C 
BRANCH  11  14
ATOM     14  C   UNL A   1      31.334  26.138  25.535  1.00  0.00     0.321 C 
ATOM     15  O   UNL A   1      30.813  26.031  26.641  1.00  0.00    -0.248 OA
BRANCH  14  16
ATOM     16  N   UNL A   1      31.583  27.367  24.964  1.00  0.00    -0.309 N 
ATOM     17  C   UNL A   1      30.968  27.684  23.684  1.00  0.00     0.143 C 
ATOM     18  C   UNL A   1      32.692  28.259  25.392  1.00  0.00     0.118 C 
ATOM     19  C   UNL A   1      30.434  29.121  23.696  1.00  0.00     0.137 C 
ATOM     20  C   UNL A   1      32.100  29.689  25.496  1.00  0.00     0.245 C 
ATOM     21  C   UNL A   1      33.368  27.850  26.711  1.00  0.00     0.045 C 
ATOM     22  C   UNL A   1      33.801  28.313  24.314  1.00  0.00     0.045 C 
ATOM     23  N   UNL A   1      31.153  30.046  24.562  1.00  0.00    -0.352 N 
ATOM     24  O   UNL A   1      32.540  30.555  26.251  1.00  0.00    -0.272 OA
ATOM     25  H   UNL A   1      30.944  31.004  24.473  1.00  0.00     0.163 HD
ENDBRANCH  14  16
ENDBRANCH  11  14
ENDBRANCH   5   8
ENDBRANCH   3   4
ENDBRANCH   2   3
ENDBRANCH   1   2
BRANCH   1  26
ATOM     26  C   UNL A   1      38.754  22.306  26.075  1.00  0.00     0.002 C 
BRANCH  26  27
ATOM     27  C   UNL A   1      38.991  20.966  25.369  1.00  0.00     0.021 C 
BRANCH  27  28
ATOM     28  C   UNL A   1      39.366  19.793  26.275  1.00  0.00     0.116 C 
BRANCH  28  29
ATOM     29  N   UNL A   1      40.615  19.166  25.880  1.00  0.00    -0.352 N 
ATOM     30  C   UNL A   1      41.876  19.694  25.805  1.00  0.00     0.251 C 
ATOM     31  H   UNL A   1      40.544  18.217  25.627  1.00  0.00     0.163 HD
ATOM     32  O   UNL A   1      42.772  19.068  25.237  1.00  0.00    -0.269 OA
BRANCH  30  33
ATOM     33  C   UNL A   1      42.173  21.016  26.392  1.00  0.00     0.039 A 
ATOM     34  C   UNL A   1      42.544  22.064  25.546  1.00  0.00     0.014 A 
ATOM     35  C   UNL A   1      42.130  21.213  27.776  1.00  0.00     0.014 A 
ATOM     36  C   UNL A   1      42.819  23.325  26.081  1.00  0.00     0.010 A 
ATOM     37  C   UNL A   1      42.343  22.486  28.303  1.00  0.00     0.010 A 
ATOM     38  C   UNL A   1      42.694  23.553  27.461  1.00  0.00    -0.014 A 
BRANCH  38  39
ATOM     39  C   UNL A   1      42.931  24.901  28.039  1.00  0.00     0.031 A 
ATOM     40  C   UNL A   1      44.305  25.297  28.506  1.00  0.00     0.074 A 
ATOM     41  C   UNL A   1      41.896  25.749  28.194  1.00  0.00     0.049 A 
ATOM     42  N   UNL A   1      44.692  26.401  29.092  1.00  0.00    -0.248 NA
ATOM     43  C   UNL A   1      45.378  24.310  28.313  1.00  0.00     0.031 C 
ATOM     44  C   UNL A   1      40.509  25.469  27.819  1.00  0.00     0.029 A 
ATOM     45  N   UNL A   1      41.849  27.016  28.717  1.00  0.00    -0.354 N 
ATOM     46  C   UNL A   1      46.048  26.238  29.347  1.00  0.00     0.074 A 
ATOM     47  C   UNL A   1      46.404  24.908  28.900  1.00  0.00     0.031 C 
ATOM     48  C   UNL A   1      39.751  26.539  28.104  1.00  0.00     0.029 A 
ATOM     49  C   UNL A   1      40.591  27.567  28.715  1.00  0.00     0.049 A 
ATOM     50  H   UNL A   1      42.642  27.487  29.062  1.00  0.00     0.167 HD
ATOM     51  C   UNL A   1      46.922  27.123  29.884  1.00  0.00     0.037 A 
ATOM     52  C   UNL A   1      40.160  28.762  29.159  1.00  0.00     0.037 A 
ATOM     53  C   UNL A   1      46.570  28.455  30.304  1.00  0.00     0.049 A 
ATOM     54  C   UNL A   1      41.147  29.723  29.759  1.00  0.00     0.074 A 
ATOM     55  C   UNL A   1      47.396  29.447  30.805  1.00  0.00     0.029 A 
ATOM     56  N   UNL A   1      45.287  28.978  30.276  1.00  0.00    -0.354 N 
ATOM     57  N   UNL A   1      42.438  29.580  29.936  1.00  0.00    -0.248 NA
ATOM     58  C   UNL A   1      40.617  31.016  30.219  1.00  0.00     0.031 C 
ATOM     59  C   UNL A   1      46.604  30.557  31.119  1.00  0.00     0.029 A 
ATOM     60  C   UNL A   1      45.293  30.272  30.772  1.00  0.00     0.049 A 
ATOM     61  H   UNL A   1      44.490  28.502  29.951  1.00  0.00     0.167 HD
ATOM     62  C   UNL A   1      42.878  30.769  30.502  1.00  0.00     0.074 A 
ATOM     63  C   UNL A   1      41.720  31.629  30.626  1.00  0.00     0.031 C 
ATOM     64  C   UNL A   1      44.131  31.117  30.886  1.00  0.00     0.037 A 
BRANCH  51  65
ATOM     65  C   UNL A   1      48.347  26.678  30.044  1.00  0.00     0.057 A 
ATOM     66  C   UNL A   1      49.317  26.941  29.067  1.00  0.00     0.134 A 
ATOM     67  C   UNL A   1      48.763  26.005  31.199  1.00  0.00     0.134 A 
ATOM     68  F   UNL A   1      48.983  27.572  27.930  1.00  0.00    -0.206 F 
ATOM     69  C   UNL A   1      50.641  26.527  29.221  1.00  0.00     0.040 A 
ATOM     70  C   UNL A   1      50.090  25.610  31.377  1.00  0.00     0.040 A 
ATOM     71  F   UNL A   1      47.887  25.727  32.178  1.00  0.00    -0.206 F 
ATOM     72  C   UNL A   1      51.031  25.865  30.382  1.00  0.00     0.006 A 
ENDBRANCH  51  65
BRANCH  52  73
ATOM     73  C   UNL A   1      38.726  29.128  29.032  1.00  0.00     0.057 A 
ATOM     74  C   UNL A   1      37.862  29.046  30.129  1.00  0.00     0.134 A 
ATOM     75  C   UNL A   1      38.187  29.565  27.816  1.00  0.00     0.134 A 
ATOM     76  F   UNL A   1      38.317  28.617  31.316  1.00  0.00    -0.206 F 
ATOM     77  C   UNL A   1      36.508  29.368  30.019  1.00  0.00     0.040 A 
ATOM     78  C   UNL A   1      36.841  29.913  27.698  1.00  0.00     0.040 A 
ATOM     79  F   UNL A   1      38.966  29.672  26.729  1.00  0.00    -0.206 F 
ATOM     80  C   UNL A   1      35.995  29.808  28.801  1.00  0.00     0.006 A 
ENDBRANCH  52  73
BRANCH  64  81
ATOM     81  C   UNL A   1      44.317  32.495  31.449  1.00  0.00     0.057 A 
ATOM     82  C   UNL A   1      44.586  33.597  30.629  1.00  0.00     0.134 A 
ATOM     83  C   UNL A   1      44.188  32.727  32.825  1.00  0.00     0.134 A 
ATOM     84  F   UNL A   1      44.734  33.440  29.306  1.00  0.00    -0.206 F 
ATOM     85  C   UNL A   1      44.742  34.879  31.161  1.00  0.00     0.040 A 
ATOM     86  C   UNL A   1      44.317  34.007  33.364  1.00  0.00     0.040 A 
ATOM     87  F   UNL A   1      43.923  31.714  33.665  1.00  0.00    -0.206 F 
ATOM     88  C   UNL A   1      44.600  35.087  32.531  1.00  0.00     0.006 A 
ENDBRANCH  64  81
ENDBRANCH  38  39
ENDBRANCH  30  33
ENDBRANCH  28  29
ENDBRANCH  27  28
ENDBRANCH  26  27
ENDBRANCH   1  26
TORSDOF 15
ENDMDL
MODEL 3
REMARK VINA RESULT:     -10.8      4.669     10.156
REMARK SMILES C[C@H]1[C@@H](C(=O)NCCCCCCNC(=O)c2ccc(-c3c4nc(c(-c5c(F)cccc5F)c5ccc([nH]5)c(-c5c(F)cccc5F)c5nc(c(-c6c(F)cccc6F)c6ccc3[nH]6)C=C5)C=C4)cc2)CCN1C(=O)N1CCNC(=O)C1(C)C
REMARK SMILES IDX 9 1 8 2 7 3 6 4 4 5 5 6 3 8 1 9 2 10 72 11 70 12 71 13 73 14
REMARK SMILES IDX 74 15 75 16 76 17 81 18 77 19 79 20 82 21 83 22 78 23 80 24
REMARK SMILES IDX 10 26 11 27 12 28 13 29 14 30 15 32 16 33 17 34 69 35 18 36
REMARK SMILES IDX 68 37 19 38 20 39 21 40 62 41 22 42 67 43 61 44 63 45 23 46
REMARK SMILES IDX 66 47 60 48 59 49 24 51 50 52 33 53 49 54 34 55 37 56 48 57
REMARK SMILES IDX 64 58 35 59 36 60 47 62 65 63 38 64 25 65 26 66 31 67 27 68
REMARK SMILES IDX 28 69 30 70 32 71 29 72 51 73 52 74 57 75 53 76 54 77 56 78
REMARK SMILES IDX 58 79 55 80 39 81 40 82 45 83 41 84 42 85 44 86 46 87 43 88
REMARK H PARENT 6 7 78 25 13 31 63 50 37 61
REMARK Flexibility Score: inf
ROOT
ATOM      1  C   UNL A   1      34.577  32.701  29.067  1.00  0.00     0.002 C 
ENDROOT
BRANCH   1   2
ATOM      2  C   UNL A   1      35.424  31.922  28.065  1.00  0.00     0.021 C 
BRANCH   2   3
ATOM      3  C   UNL A   1      34.864  30.571  27.600  1.00  0.00     0.116 C 
BRANCH   3   4
ATOM      4  N   UNL A   1      33.500  30.727  27.128  1.00  0.00    -0.356 N 
ATOM      5  C   UNL A   1      32.591  29.832  26.648  1.00  0.00     0.225 C 
ATOM      6  O   UNL A   1      31.556  30.314  26.181  1.00  0.00    -0.275 OA
ATOM      7  H   UNL A   1      33.169  31.654  27.161  1.00  0.00     0.163 HD
BRANCH   5   8
ATOM      8  C   UNL A   1      32.787  28.315  26.770  1.00  0.00     0.102 C 
ATOM      9  C   UNL A   1      33.769  28.289  24.355  1.00  0.00     0.032 C 
ATOM     10  C   UNL A   1      33.571  27.554  25.677  1.00  0.00     0.096 C 
ATOM     11  N   UNL A   1      32.788  26.349  25.404  1.00  0.00    -0.321 N 
ATOM     12  C   UNL A   1      31.436  27.553  26.865  1.00  0.00     0.037 C 
ATOM     13  C   UNL A   1      31.397  26.618  25.668  1.00  0.00     0.122 C 
BRANCH  11  14
ATOM     14  C   UNL A   1      33.190  25.300  24.597  1.00  0.00     0.321 C 
ATOM     15  O   UNL A   1      33.743  25.468  23.514  1.00  0.00    -0.248 OA
BRANCH  14  16
ATOM     16  N   UNL A   1      33.062  24.050  25.163  1.00  0.00    -0.309 N 
ATOM     17  C   UNL A   1      34.125  23.558  26.026  1.00  0.00     0.143 C 
ATOM     18  C   UNL A   1      32.082  23.036  24.693  1.00  0.00     0.118 C 
ATOM     19  C   UNL A   1      33.527  22.878  27.264  1.00  0.00     0.137 C 
ATOM     20  C   UNL A   1      31.418  22.437  25.961  1.00  0.00     0.245 C 
ATOM     21  C   UNL A   1      31.019  23.576  23.723  1.00  0.00     0.045 C 
ATOM     22  C   UNL A   1      32.801  21.870  23.973  1.00  0.00     0.045 C 
ATOM     23  N   UNL A   1      32.219  22.267  27.069  1.00  0.00    -0.352 N 
ATOM     24  O   UNL A   1      30.282  21.966  25.977  1.00  0.00    -0.272 OA
ATOM     25  H   UNL A   1      31.879  21.686  27.788  1.00  0.00     0.163 HD
ENDBRANCH  14  16
ENDBRANCH  11  14
ENDBRANCH   5   8
ENDBRANCH   3   4
ENDBRANCH   2   3
ENDBRANCH   1   2
BRANCH   1  26
ATOM     26  C   UNL A   1      34.566  34.217  28.868  1.00  0.00     0.002 C 
BRANCH  26  27
ATOM     27  C   UNL A   1      33.213  34.910  29.062  1.00  0.00     0.021 C 
BRANCH  27  28
ATOM     28  C   UNL A   1      33.262  36.303  29.692  1.00  0.00     0.116 C 
BRANCH  28  29
ATOM     29  N   UNL A   1      32.464  36.391  30.902  1.00  0.00    -0.352 N 
ATOM     30  C   UNL A   1      32.603  35.732  32.095  1.00  0.00     0.251 C 
ATOM     31  H   UNL A   1      31.707  37.020  30.858  1.00  0.00     0.163 HD
ATOM     32  O   UNL A   1      31.698  35.774  32.930  1.00  0.00    -0.269 OA
BRANCH  30  33
ATOM     33  C   UNL A   1      33.827  34.960  32.388  1.00  0.00     0.039 A 
ATOM     34  C   UNL A   1      35.066  35.600  32.306  1.00  0.00     0.014 A 
ATOM     35  C   UNL A   1      33.760  33.599  32.700  1.00  0.00     0.014 A 
ATOM     36  C   UNL A   1      36.235  34.889  32.590  1.00  0.00     0.010 A 
ATOM     37  C   UNL A   1      34.921  32.907  33.044  1.00  0.00     0.010 A 
ATOM     38  C   UNL A   1      36.170  33.544  32.988  1.00  0.00    -0.014 A 
BRANCH  38  39
ATOM     39  C   UNL A   1      37.399  32.791  33.344  1.00  0.00     0.031 A 
ATOM     40  C   UNL A   1      38.131  33.093  34.623  1.00  0.00     0.074 A 
ATOM     41  C   UNL A   1      37.888  31.873  32.489  1.00  0.00     0.049 A 
ATOM     42  N   UNL A   1      39.251  32.586  35.074  1.00  0.00    -0.248 NA
ATOM     43  C   UNL A   1      37.540  34.118  35.497  1.00  0.00     0.031 C 
ATOM     44  C   UNL A   1      37.293  31.518  31.198  1.00  0.00     0.029 A 
ATOM     45  N   UNL A   1      39.001  31.076  32.572  1.00  0.00    -0.354 N 
ATOM     46  C   UNL A   1      39.503  33.237  36.275  1.00  0.00     0.074 A 
ATOM     47  C   UNL A   1      38.449  34.212  36.457  1.00  0.00     0.031 C 
ATOM     48  C   UNL A   1      38.036  30.561  30.621  1.00  0.00     0.029 A 
ATOM     49  C   UNL A   1      39.177  30.260  31.481  1.00  0.00     0.049 A 
ATOM     50  H   UNL A   1      39.617  31.089  33.340  1.00  0.00     0.167 HD
ATOM     51  C   UNL A   1      40.510  33.027  37.157  1.00  0.00     0.037 A 
ATOM     52  C   UNL A   1      40.151  29.373  31.202  1.00  0.00     0.037 A 
ATOM     53  C   UNL A   1      41.544  32.040  36.986  1.00  0.00     0.049 A 
ATOM     54  C   UNL A   1      41.262  29.165  32.193  1.00  0.00     0.074 A 
ATOM     55  C   UNL A   1      42.573  31.709  37.852  1.00  0.00     0.029 A 
ATOM     56  N   UNL A   1      41.681  31.225  35.872  1.00  0.00    -0.354 N 
ATOM     57  N   UNL A   1      41.454  29.742  33.354  1.00  0.00    -0.248 NA
ATOM     58  C   UNL A   1      42.291  28.177  31.835  1.00  0.00     0.031 C 
ATOM     59  C   UNL A   1      43.358  30.724  37.243  1.00  0.00     0.029 A 
ATOM     60  C   UNL A   1      42.792  30.409  36.018  1.00  0.00     0.049 A 
ATOM     61  H   UNL A   1      41.079  31.226  35.094  1.00  0.00     0.167 HD
ATOM     62  C   UNL A   1      42.607  29.172  33.876  1.00  0.00     0.074 A 
ATOM     63  C   UNL A   1      43.064  28.192  32.913  1.00  0.00     0.031 C 
ATOM     64  C   UNL A   1      43.232  29.437  35.050  1.00  0.00     0.037 A 
BRANCH  51  65
ATOM     65  C   UNL A   1      40.538  33.883  38.391  1.00  0.00     0.057 A 
ATOM     66  C   UNL A   1      39.802  33.550  39.536  1.00  0.00     0.134 A 
ATOM     67  C   UNL A   1      41.332  35.034  38.446  1.00  0.00     0.134 A 
ATOM     68  F   UNL A   1      39.012  32.466  39.546  1.00  0.00    -0.206 F 
ATOM     69  C   UNL A   1      39.833  34.348  40.682  1.00  0.00     0.040 A 
ATOM     70  C   UNL A   1      41.393  35.825  39.595  1.00  0.00     0.040 A 
ATOM     71  F   UNL A   1      42.067  35.407  37.388  1.00  0.00    -0.206 F 
ATOM     72  C   UNL A   1      40.635  35.486  40.715  1.00  0.00     0.006 A 
ENDBRANCH  51  65
BRANCH  52  73
ATOM     73  C   UNL A   1      40.107  28.596  29.937  1.00  0.00     0.057 A 
ATOM     74  C   UNL A   1      39.366  27.413  29.845  1.00  0.00     0.134 A 
ATOM     75  C   UNL A   1      40.803  29.014  28.797  1.00  0.00     0.134 A 
ATOM     76  F   UNL A   1      38.694  26.952  30.910  1.00  0.00    -0.206 F 
ATOM     77  C   UNL A   1      39.333  26.661  28.668  1.00  0.00     0.040 A 
ATOM     78  C   UNL A   1      40.758  28.286  27.607  1.00  0.00     0.040 A 
ATOM     79  F   UNL A   1      41.525  30.144  28.821  1.00  0.00    -0.206 F 
ATOM     80  C   UNL A   1      40.027  27.102  27.543  1.00  0.00     0.006 A 
ENDBRANCH  52  73
BRANCH  64  81
ATOM     81  C   UNL A   1      44.461  28.636  35.367  1.00  0.00     0.057 A 
ATOM     82  C   UNL A   1      45.736  29.053  34.967  1.00  0.00     0.134 A 
ATOM     83  C   UNL A   1      44.369  27.455  36.114  1.00  0.00     0.134 A 
ATOM     84  F   UNL A   1      45.890  30.168  34.239  1.00  0.00    -0.206 F 
ATOM     85  C   UNL A   1      46.876  28.309  35.280  1.00  0.00     0.040 A 
ATOM     86  C   UNL A   1      45.504  26.717  36.454  1.00  0.00     0.040 A 
ATOM     87  F   UNL A   1      43.177  27.005  36.534  1.00  0.00    -0.206 F 
ATOM     88  C   UNL A   1      46.762  27.142  36.032  1.00  0.00     0.006 A 
ENDBRANCH  64  81
ENDBRANCH  38  39
ENDBRANCH  30  33
ENDBRANCH  28  29
ENDBRANCH  27  28
ENDBRANCH  26  27
ENDBRANCH   1  26
TORSDOF 15
ENDMDL
