MODEL 1
REMARK VINA RESULT:     -11.1      0.000      0.000
REMARK SMILES CC/C(=C/C(=O)[C@H](Cc1ccc(Cl)cc1Cl)C(=O)NCCCCCCNC(=O)c1ccc(-c2c3nc(c(-c4c(F)cccc4F)c4ccc([nH]4)c(-c4c(F)cccc4F)c4nc(c(-c5c(F)cccc5F)c5ccc2[nH]5)C=C4)C=C3)cc1)N(C)C
REMARK SMILES IDX 22 1 21 2 20 3 19 4 17 5 18 6 7 8 5 9 6 10 4 11 3 12 2 13
REMARK SMILES IDX 1 14 83 15 84 16 85 17 8 18 9 19 10 20 15 21 11 22 14 23
REMARK SMILES IDX 16 24 12 25 13 26 23 27 24 28 25 29 26 30 27 31 28 33 29 34
REMARK SMILES IDX 30 35 82 36 31 37 81 38 32 39 33 40 34 41 75 42 35 43 80 44
REMARK SMILES IDX 74 45 76 46 36 47 79 48 73 49 72 50 37 52 63 53 46 54 62 55
REMARK SMILES IDX 47 56 50 57 61 58 77 59 48 60 49 61 60 63 78 64 51 65 38 66
REMARK SMILES IDX 39 67 44 68 40 69 41 70 43 71 45 72 42 73 64 74 65 75 70 76
REMARK SMILES IDX 66 77 67 78 69 79 71 80 68 81 52 82 53 83 58 84 54 85 55 86
REMARK SMILES IDX 57 87 59 88 56 89
REMARK H PARENT 19 7 26 32 76 51 50 62
REMARK Flexibility Score: inf
ROOT
ATOM      1  C   UNL A   1      36.243  21.417  25.068  1.00  0.00     0.002 C 
ENDROOT
BRANCH   1   2
ATOM      2  C   UNL A   1      36.857  22.340  24.006  1.00  0.00     0.021 C 
BRANCH   2   3
ATOM      3  C   UNL A   1      35.833  23.105  23.164  1.00  0.00     0.116 C 
BRANCH   3   4
ATOM      4  N   UNL A   1      35.219  24.168  23.928  1.00  0.00    -0.355 N 
ATOM      5  C   UNL A   1      34.089  24.877  23.723  1.00  0.00     0.231 C 
ATOM      6  O   UNL A   1      33.913  25.851  24.463  1.00  0.00    -0.274 OA
ATOM      7  H   UNL A   1      35.713  24.419  24.741  1.00  0.00     0.163 HD
BRANCH   5   8
ATOM      8  C   UNL A   1      33.055  24.513  22.674  1.00  0.00     0.154 C 
BRANCH   8   9
ATOM      9  C   UNL A   1      32.686  25.746  21.862  1.00  0.00     0.170 C 
ATOM     10  O   UNL A   1      33.341  26.094  20.875  1.00  0.00    -0.294 OA
BRANCH   9  11
ATOM     11  C   UNL A   1      31.418  26.485  22.137  1.00  0.00     0.069 C 
ATOM     12  C   UNL A   1      31.113  27.554  22.908  1.00  0.00     0.016 C 
BRANCH  12  13
ATOM     13  C   UNL A   1      29.611  27.895  22.955  1.00  0.00     0.050 C 
ATOM     14  C   UNL A   1      28.759  26.880  23.711  1.00  0.00     0.010 C 
ENDBRANCH  12  13
BRANCH  12  15
ATOM     15  N   UNL A   1      31.969  28.432  23.599  1.00  0.00    -0.381 N 
ATOM     16  C   UNL A   1      33.173  29.012  22.983  1.00  0.00     0.143 C 
ATOM     17  C   UNL A   1      31.774  28.905  24.966  1.00  0.00     0.143 C 
ENDBRANCH  12  15
ENDBRANCH   9  11
ENDBRANCH   8   9
BRANCH   8  18
ATOM     18  C   UNL A   1      31.803  23.714  23.101  1.00  0.00     0.059 C 
BRANCH  18  19
ATOM     19  C   UNL A   1      31.943  22.281  23.602  1.00  0.00    -0.028 A 
ATOM     20  C   UNL A   1      32.035  21.184  22.729  1.00  0.00     0.007 A 
ATOM     21  C   UNL A   1      32.104  22.025  24.982  1.00  0.00     0.045 A 
ATOM     22  C   UNL A   1      32.413  19.921  23.191  1.00  0.00     0.021 A 
ATOM     23  C   UNL A   1      32.449  20.752  25.450  1.00  0.00     0.041 A 
ATOM     24  Cl  UNL A   1      31.927  23.274  26.167  1.00  0.00    -0.084 Cl
ATOM     25  C   UNL A   1      32.639  19.715  24.545  1.00  0.00     0.042 A 
ATOM     26  Cl  UNL A   1      33.167  18.175  25.097  1.00  0.00    -0.084 Cl
ENDBRANCH  18  19
ENDBRANCH   8  18
ENDBRANCH   5   8
ENDBRANCH   3   4
ENDBRANCH   2   3
ENDBRANCH   1   2
BRANCH   1  27
ATOM     27  C   UNL A   1      36.847  20.012  25.105  1.00  0.00     0.002 C 
BRANCH  27  28
ATOM     28  C   UNL A   1      38.310  19.948  24.668  1.00  0.00     0.021 C 
BRANCH  28  29
ATOM     29  C   UNL A   1      39.302  20.199  25.795  1.00  0.00     0.116 C 
BRANCH  29  30
ATOM     30  N   UNL A   1      40.208  19.077  25.966  1.00  0.00    -0.352 N 
ATOM     31  C   UNL A   1      41.566  19.103  26.163  1.00  0.00     0.251 C 
ATOM     32  H   UNL A   1      39.796  18.183  25.937  1.00  0.00     0.163 HD
ATOM     33  O   UNL A   1      42.237  18.087  26.049  1.00  0.00    -0.269 OA
BRANCH  31  34
ATOM     34  C   UNL A   1      42.211  20.391  26.493  1.00  0.00     0.039 A 
ATOM     35  C   UNL A   1      42.759  21.155  25.463  1.00  0.00     0.014 A 
ATOM     36  C   UNL A   1      42.233  20.853  27.814  1.00  0.00     0.014 A 
ATOM     37  C   UNL A   1      43.277  22.418  25.750  1.00  0.00     0.010 A 
ATOM     38  C   UNL A   1      42.677  22.143  28.083  1.00  0.00     0.010 A 
ATOM     39  C   UNL A   1      43.202  22.938  27.054  1.00  0.00    -0.014 A 
BRANCH  39  40
ATOM     40  C   UNL A   1      43.646  24.322  27.350  1.00  0.00     0.031 A 
ATOM     41  C   UNL A   1      42.651  25.367  27.768  1.00  0.00     0.074 A 
ATOM     42  C   UNL A   1      44.943  24.648  27.184  1.00  0.00     0.049 A 
ATOM     43  N   UNL A   1      42.847  26.634  28.029  1.00  0.00    -0.248 NA
ATOM     44  C   UNL A   1      41.249  24.938  27.888  1.00  0.00     0.031 C 
ATOM     45  C   UNL A   1      45.994  23.733  26.732  1.00  0.00     0.029 A 
ATOM     46  N   UNL A   1      45.597  25.840  27.367  1.00  0.00    -0.354 N 
ATOM     47  C   UNL A   1      41.595  27.154  28.335  1.00  0.00     0.074 A 
ATOM     48  C   UNL A   1      40.640  26.079  28.174  1.00  0.00     0.031 C 
ATOM     49  C   UNL A   1      47.164  24.390  26.700  1.00  0.00     0.029 A 
ATOM     50  C   UNL A   1      46.941  25.779  27.084  1.00  0.00     0.049 A 
ATOM     51  H   UNL A   1      45.147  26.660  27.672  1.00  0.00     0.167 HD
ATOM     52  C   UNL A   1      41.276  28.406  28.737  1.00  0.00     0.037 A 
ATOM     53  C   UNL A   1      47.884  26.739  27.119  1.00  0.00     0.037 A 
ATOM     54  C   UNL A   1      42.234  29.469  28.905  1.00  0.00     0.049 A 
ATOM     55  C   UNL A   1      47.497  28.130  27.539  1.00  0.00     0.074 A 
ATOM     56  C   UNL A   1      42.021  30.755  29.372  1.00  0.00     0.029 A 
ATOM     57  N   UNL A   1      43.584  29.372  28.602  1.00  0.00    -0.354 N 
ATOM     58  N   UNL A   1      46.325  28.586  27.909  1.00  0.00    -0.248 NA
ATOM     59  C   UNL A   1      48.566  29.139  27.546  1.00  0.00     0.031 C 
ATOM     60  C   UNL A   1      43.230  31.454  29.293  1.00  0.00     0.029 A 
ATOM     61  C   UNL A   1      44.209  30.587  28.833  1.00  0.00     0.049 A 
ATOM     62  H   UNL A   1      44.032  28.560  28.272  1.00  0.00     0.167 HD
ATOM     63  C   UNL A   1      46.517  29.928  28.209  1.00  0.00     0.074 A 
ATOM     64  C   UNL A   1      47.923  30.206  28.002  1.00  0.00     0.031 C 
ATOM     65  C   UNL A   1      45.609  30.850  28.614  1.00  0.00     0.037 A 
BRANCH  52  66
ATOM     66  C   UNL A   1      39.830  28.699  29.018  1.00  0.00     0.057 A 
ATOM     67  C   UNL A   1      38.959  29.155  28.019  1.00  0.00     0.134 A 
ATOM     68  C   UNL A   1      39.292  28.488  30.294  1.00  0.00     0.134 A 
ATOM     69  F   UNL A   1      39.410  29.387  26.777  1.00  0.00    -0.206 F 
ATOM     70  C   UNL A   1      37.613  29.414  28.286  1.00  0.00     0.040 A 
ATOM     71  C   UNL A   1      37.943  28.716  30.566  1.00  0.00     0.040 A 
ATOM     72  F   UNL A   1      40.068  28.047  31.296  1.00  0.00    -0.206 F 
ATOM     73  C   UNL A   1      37.100  29.188  29.560  1.00  0.00     0.006 A 
ENDBRANCH  52  66
BRANCH  53  74
ATOM     74  C   UNL A   1      49.286  26.416  26.751  1.00  0.00     0.057 A 
ATOM     75  C   UNL A   1      49.765  26.643  25.456  1.00  0.00     0.134 A 
ATOM     76  C   UNL A   1      50.178  25.869  27.681  1.00  0.00     0.134 A 
ATOM     77  F   UNL A   1      48.953  27.149  24.515  1.00  0.00    -0.206 F 
ATOM     78  C   UNL A   1      51.074  26.322  25.093  1.00  0.00     0.040 A 
ATOM     79  C   UNL A   1      51.498  25.569  27.340  1.00  0.00     0.040 A 
ATOM     80  F   UNL A   1      49.785  25.635  28.941  1.00  0.00    -0.206 F 
ATOM     81  C   UNL A   1      51.946  25.788  26.038  1.00  0.00     0.006 A 
ENDBRANCH  53  74
BRANCH  65  82
ATOM     82  C   UNL A   1      46.112  32.241  28.869  1.00  0.00     0.057 A 
ATOM     83  C   UNL A   1      46.108  33.222  27.870  1.00  0.00     0.134 A 
ATOM     84  C   UNL A   1      46.572  32.614  30.139  1.00  0.00     0.134 A 
ATOM     85  F   UNL A   1      45.693  32.927  26.628  1.00  0.00    -0.206 F 
ATOM     86  C   UNL A   1      46.564  34.518  28.117  1.00  0.00     0.040 A 
ATOM     87  C   UNL A   1      47.002  33.914  30.407  1.00  0.00     0.040 A 
ATOM     88  F   UNL A   1      46.596  31.726  31.144  1.00  0.00    -0.206 F 
ATOM     89  C   UNL A   1      47.006  34.869  29.391  1.00  0.00     0.006 A 
ENDBRANCH  65  82
ENDBRANCH  39  40
ENDBRANCH  31  34
ENDBRANCH  29  30
ENDBRANCH  28  29
ENDBRANCH  27  28
ENDBRANCH   1  27
TORSDOF 19
ENDMDL
MODEL 2
REMARK VINA RESULT:     -11.0      5.098     10.394
REMARK SMILES CC/C(=C/C(=O)[C@H](Cc1ccc(Cl)cc1Cl)C(=O)NCCCCCCNC(=O)c1ccc(-c2c3nc(c(-c4c(F)cccc4F)c4ccc([nH]4)c(-c4c(F)cccc4F)c4nc(c(-c5c(F)cccc5F)c5ccc2[nH]5)C=C4)C=C3)cc1)N(C)C
REMARK SMILES IDX 22 1 21 2 20 3 19 4 17 5 18 6 7 8 5 9 6 10 4 11 3 12 2 13
REMARK SMILES IDX 1 14 83 15 84 16 85 17 8 18 9 19 10 20 15 21 11 22 14 23
REMARK SMILES IDX 16 24 12 25 13 26 23 27 24 28 25 29 26 30 27 31 28 33 29 34
REMARK SMILES IDX 30 35 82 36 31 37 81 38 32 39 33 40 34 41 75 42 35 43 80 44
REMARK SMILES IDX 74 45 76 46 36 47 79 48 73 49 72 50 37 52 63 53 46 54 62 55
REMARK SMILES IDX 47 56 50 57 61 58 77 59 48 60 49 61 60 63 78 64 51 65 38 66
REMARK SMILES IDX 39 67 44 68 40 69 41 70 43 71 45 72 42 73 64 74 65 75 70 76
REMARK SMILES IDX 66 77 67 78 69 79 71 80 68 81 52 82 53 83 58 84 54 85 55 86
REMARK SMILES IDX 57 87 59 88 56 89
REMARK H PARENT 19 7 26 32 76 51 50 62
REMARK Flexibility Score: inf
ROOT
ATOM      1  C   UNL A   1      31.655  29.366  25.858  1.00  0.00     0.002 C 
ENDROOT
BRANCH   1   2
ATOM      2  C   UNL A   1      31.741  28.981  27.342  1.00  0.00     0.021 C 
BRANCH   2   3
ATOM      3  C   UNL A   1      31.760  27.474  27.604  1.00  0.00     0.116 C 
BRANCH   3   4
ATOM      4  N   UNL A   1      32.673  26.799  26.710  1.00  0.00    -0.355 N 
ATOM      5  C   UNL A   1      32.499  25.749  25.880  1.00  0.00     0.231 C 
ATOM      6  O   UNL A   1      33.521  25.282  25.367  1.00  0.00    -0.274 OA
ATOM      7  H   UNL A   1      33.584  27.172  26.705  1.00  0.00     0.163 HD
BRANCH   5   8
ATOM      8  C   UNL A   1      31.138  25.167  25.547  1.00  0.00     0.154 C 
BRANCH   8   9
ATOM      9  C   UNL A   1      31.004  23.782  26.162  1.00  0.00     0.170 C 
ATOM     10  O   UNL A   1      30.451  23.605  27.252  1.00  0.00    -0.294 OA
BRANCH   9  11
ATOM     11  C   UNL A   1      31.393  22.566  25.388  1.00  0.00     0.069 C 
ATOM     12  C   UNL A   1      32.527  21.832  25.316  1.00  0.00     0.016 C 
BRANCH  12  13
ATOM     13  C   UNL A   1      32.487  20.701  24.271  1.00  0.00     0.050 C 
ATOM     14  C   UNL A   1      32.675  19.302  24.851  1.00  0.00     0.010 C 
ENDBRANCH  12  13
BRANCH  12  15
ATOM     15  N   UNL A   1      33.691  21.905  26.105  1.00  0.00    -0.381 N 
ATOM     16  C   UNL A   1      33.649  21.957  27.575  1.00  0.00     0.143 C 
ATOM     17  C   UNL A   1      35.060  21.904  25.598  1.00  0.00     0.143 C 
ENDBRANCH  12  15
ENDBRANCH   9  11
ENDBRANCH   8   9
BRANCH   8  18
ATOM     18  C   UNL A   1      30.651  25.191  24.081  1.00  0.00     0.059 C 
BRANCH  18  19
ATOM     19  C   UNL A   1      30.220  26.504  23.438  1.00  0.00    -0.028 A 
ATOM     20  C   UNL A   1      28.918  27.014  23.566  1.00  0.00     0.007 A 
ATOM     21  C   UNL A   1      31.171  27.317  22.781  1.00  0.00     0.045 A 
ATOM     22  C   UNL A   1      28.612  28.325  23.190  1.00  0.00     0.021 A 
ATOM     23  C   UNL A   1      30.858  28.618  22.372  1.00  0.00     0.041 A 
ATOM     24  Cl  UNL A   1      32.785  26.770  22.481  1.00  0.00    -0.084 Cl
ATOM     25  C   UNL A   1      29.589  29.128  22.615  1.00  0.00     0.042 A 
ATOM     26  Cl  UNL A   1      29.223  30.760  22.216  1.00  0.00    -0.084 Cl
ENDBRANCH  18  19
ENDBRANCH   8  18
ENDBRANCH   5   8
ENDBRANCH   3   4
ENDBRANCH   2   3
ENDBRANCH   1   2
BRANCH   1  27
ATOM     27  C   UNL A   1      31.577  30.873  25.602  1.00  0.00     0.002 C 
BRANCH  27  28
ATOM     28  C   UNL A   1      31.467  31.718  26.869  1.00  0.00     0.021 C 
BRANCH  28  29
ATOM     29  C   UNL A   1      32.749  32.452  27.235  1.00  0.00     0.116 C 
BRANCH  29  30
ATOM     30  N   UNL A   1      32.501  33.858  27.500  1.00  0.00    -0.352 N 
ATOM     31  C   UNL A   1      33.054  34.650  28.475  1.00  0.00     0.251 C 
ATOM     32  H   UNL A   1      31.855  34.300  26.903  1.00  0.00     0.163 HD
ATOM     33  O   UNL A   1      32.578  35.746  28.738  1.00  0.00    -0.269 OA
BRANCH  31  34
ATOM     34  C   UNL A   1      34.222  34.144  29.223  1.00  0.00     0.039 A 
ATOM     35  C   UNL A   1      34.010  33.365  30.360  1.00  0.00     0.014 A 
ATOM     36  C   UNL A   1      35.520  34.409  28.771  1.00  0.00     0.014 A 
ATOM     37  C   UNL A   1      35.105  32.797  31.013  1.00  0.00     0.010 A 
ATOM     38  C   UNL A   1      36.601  33.778  29.377  1.00  0.00     0.010 A 
ATOM     39  C   UNL A   1      36.404  32.965  30.502  1.00  0.00    -0.014 A 
BRANCH  39  40
ATOM     40  C   UNL A   1      37.562  32.275  31.121  1.00  0.00     0.031 A 
ATOM     41  C   UNL A   1      38.248  31.149  30.403  1.00  0.00     0.074 A 
ATOM     42  C   UNL A   1      37.957  32.631  32.359  1.00  0.00     0.049 A 
ATOM     43  N   UNL A   1      39.248  30.403  30.802  1.00  0.00    -0.248 NA
ATOM     44  C   UNL A   1      37.730  30.797  29.072  1.00  0.00     0.031 C 
ATOM     45  C   UNL A   1      37.336  33.675  33.177  1.00  0.00     0.029 A 
ATOM     46  N   UNL A   1      38.967  32.147  33.150  1.00  0.00    -0.354 N 
ATOM     47  C   UNL A   1      39.472  29.493  29.777  1.00  0.00     0.074 A 
ATOM     48  C   UNL A   1      38.471  29.742  28.763  1.00  0.00     0.031 C 
ATOM     49  C   UNL A   1      37.997  33.772  34.342  1.00  0.00     0.029 A 
ATOM     50  C   UNL A   1      39.056  32.770  34.372  1.00  0.00     0.049 A 
ATOM     51  H   UNL A   1      39.573  31.423  32.869  1.00  0.00     0.167 HD
ATOM     52  C   UNL A   1      40.440  28.552  29.681  1.00  0.00     0.037 A 
ATOM     53  C   UNL A   1      39.890  32.548  35.406  1.00  0.00     0.037 A 
ATOM     54  C   UNL A   1      41.440  28.315  30.690  1.00  0.00     0.049 A 
ATOM     55  C   UNL A   1      40.936  31.476  35.285  1.00  0.00     0.074 A 
ATOM     56  C   UNL A   1      42.504  27.431  30.657  1.00  0.00     0.029 A 
ATOM     57  N   UNL A   1      41.493  28.960  31.916  1.00  0.00    -0.354 N 
ATOM     58  N   UNL A   1      41.193  30.681  34.275  1.00  0.00    -0.248 NA
ATOM     59  C   UNL A   1      41.810  31.271  36.449  1.00  0.00     0.031 C 
ATOM     60  C   UNL A   1      43.164  27.497  31.889  1.00  0.00     0.029 A 
ATOM     61  C   UNL A   1      42.547  28.464  32.666  1.00  0.00     0.049 A 
ATOM     62  H   UNL A   1      40.873  29.666  32.211  1.00  0.00     0.167 HD
ATOM     63  C   UNL A   1      42.265  29.894  34.673  1.00  0.00     0.074 A 
ATOM     64  C   UNL A   1      42.627  30.325  36.007  1.00  0.00     0.031 C 
ATOM     65  C   UNL A   1      42.891  28.898  33.997  1.00  0.00     0.037 A 
BRANCH  52  66
ATOM     66  C   UNL A   1      40.462  27.702  28.443  1.00  0.00     0.057 A 
ATOM     67  C   UNL A   1      41.130  28.107  27.278  1.00  0.00     0.134 A 
ATOM     68  C   UNL A   1      39.840  26.447  28.424  1.00  0.00     0.134 A 
ATOM     69  F   UNL A   1      41.737  29.301  27.223  1.00  0.00    -0.206 F 
ATOM     70  C   UNL A   1      41.155  27.306  26.135  1.00  0.00     0.040 A 
ATOM     71  C   UNL A   1      39.884  25.625  27.298  1.00  0.00     0.040 A 
ATOM     72  F   UNL A   1      39.188  25.993  29.507  1.00  0.00    -0.206 F 
ATOM     73  C   UNL A   1      40.537  26.058  26.145  1.00  0.00     0.006 A 
ENDBRANCH  52  66
BRANCH  53  74
ATOM     74  C   UNL A   1      39.772  33.363  36.642  1.00  0.00     0.057 A 
ATOM     75  C   UNL A   1      38.873  33.015  37.656  1.00  0.00     0.134 A 
ATOM     76  C   UNL A   1      40.551  34.510  36.838  1.00  0.00     0.134 A 
ATOM     77  F   UNL A   1      38.087  31.937  37.520  1.00  0.00    -0.206 F 
ATOM     78  C   UNL A   1      38.738  33.787  38.812  1.00  0.00     0.040 A 
ATOM     79  C   UNL A   1      40.447  35.277  38.001  1.00  0.00     0.040 A 
ATOM     80  F   UNL A   1      41.438  34.895  35.908  1.00  0.00    -0.206 F 
ATOM     81  C   UNL A   1      39.531  34.918  38.988  1.00  0.00     0.006 A 
ENDBRANCH  53  74
BRANCH  65  82
ATOM     82  C   UNL A   1      44.036  28.217  34.687  1.00  0.00     0.057 A 
ATOM     83  C   UNL A   1      45.349  28.694  34.584  1.00  0.00     0.134 A 
ATOM     84  C   UNL A   1      43.819  27.092  35.494  1.00  0.00     0.134 A 
ATOM     85  F   UNL A   1      45.627  29.759  33.815  1.00  0.00    -0.206 F 
ATOM     86  C   UNL A   1      46.408  28.065  35.239  1.00  0.00     0.040 A 
ATOM     87  C   UNL A   1      44.865  26.472  36.179  1.00  0.00     0.040 A 
ATOM     88  F   UNL A   1      42.585  26.587  35.643  1.00  0.00    -0.206 F 
ATOM     89  C   UNL A   1      46.166  26.954  36.046  1.00  0.00     0.006 A 
ENDBRANCH  65  82
ENDBRANCH  39  40
ENDBRANCH  31  34
ENDBRANCH  29  30
ENDBRANCH  28  29
ENDBRANCH  27  28
ENDBRANCH   1  27
TORSDOF 19
ENDMDL
MODEL 3
REMARK VINA RESULT:     -11.0      4.727      9.267
REMARK SMILES CC/C(=C/C(=O)[C@H](Cc1ccc(Cl)cc1Cl)C(=O)NCCCCCCNC(=O)c1ccc(-c2c3nc(c(-c4c(F)cccc4F)c4ccc([nH]4)c(-c4c(F)cccc4F)c4nc(c(-c5c(F)cccc5F)c5ccc2[nH]5)C=C4)C=C3)cc1)N(C)C
REMARK SMILES IDX 22 1 21 2 20 3 19 4 17 5 18 6 7 8 5 9 6 10 4 11 3 12 2 13
REMARK SMILES IDX 1 14 83 15 84 16 85 17 8 18 9 19 10 20 15 21 11 22 14 23
REMARK SMILES IDX 16 24 12 25 13 26 23 27 24 28 25 29 26 30 27 31 28 33 29 34
REMARK SMILES IDX 30 35 82 36 31 37 81 38 32 39 33 40 34 41 75 42 35 43 80 44
REMARK SMILES IDX 74 45 76 46 36 47 79 48 73 49 72 50 37 52 63 53 46 54 62 55
REMARK SMILES IDX 47 56 50 57 61 58 77 59 48 60 49 61 60 63 78 64 51 65 38 66
REMARK SMILES IDX 39 67 44 68 40 69 41 70 43 71 45 72 42 73 64 74 65 75 70 76
REMARK SMILES IDX 66 77 67 78 69 79 71 80 68 81 52 82 53 83 58 84 54 85 55 86
REMARK SMILES IDX 57 87 59 88 56 89
REMARK H PARENT 19 7 26 32 76 51 50 62
REMARK Flexibility Score: inf
ROOT
ATOM      1  C   UNL A   1      32.033  29.855  25.733  1.00  0.00     0.002 C 
ENDROOT
BRANCH   1   2
ATOM      2  C   UNL A   1      31.598  28.889  26.845  1.00  0.00     0.021 C 
BRANCH   2   3
ATOM      3  C   UNL A   1      32.742  28.083  27.466  1.00  0.00     0.116 C 
BRANCH   3   4
ATOM      4  N   UNL A   1      33.511  27.401  26.450  1.00  0.00    -0.355 N 
ATOM      5  C   UNL A   1      33.251  26.291  25.728  1.00  0.00     0.231 C 
ATOM      6  O   UNL A   1      34.186  25.845  25.054  1.00  0.00    -0.274 OA
ATOM      7  H   UNL A   1      34.380  27.820  26.251  1.00  0.00     0.163 HD
BRANCH   5   8
ATOM      8  C   UNL A   1      31.892  25.618  25.695  1.00  0.00     0.154 C 
BRANCH   8   9
ATOM      9  C   UNL A   1      31.911  24.371  26.567  1.00  0.00     0.170 C 
ATOM     10  O   UNL A   1      30.893  23.955  27.128  1.00  0.00    -0.294 OA
BRANCH   9  11
ATOM     11  C   UNL A   1      33.132  23.514  26.641  1.00  0.00     0.069 C 
ATOM     12  C   UNL A   1      33.523  22.394  25.993  1.00  0.00     0.016 C 
BRANCH  12  13
ATOM     13  C   UNL A   1      34.851  21.799  26.499  1.00  0.00     0.050 C 
ATOM     14  C   UNL A   1      35.886  21.553  25.405  1.00  0.00     0.010 C 
ENDBRANCH  12  13
BRANCH  12  15
ATOM     15  N   UNL A   1      32.937  21.750  24.887  1.00  0.00    -0.381 N 
ATOM     16  C   UNL A   1      32.284  20.435  24.991  1.00  0.00     0.143 C 
ATOM     17  C   UNL A   1      32.865  22.289  23.533  1.00  0.00     0.143 C 
ENDBRANCH  12  15
ENDBRANCH   9  11
ENDBRANCH   8   9
BRANCH   8  18
ATOM     18  C   UNL A   1      31.221  25.350  24.329  1.00  0.00     0.059 C 
BRANCH  18  19
ATOM     19  C   UNL A   1      30.300  26.394  23.710  1.00  0.00    -0.028 A 
ATOM     20  C   UNL A   1      28.915  26.409  23.944  1.00  0.00     0.007 A 
ATOM     21  C   UNL A   1      30.841  27.465  22.964  1.00  0.00     0.045 A 
ATOM     22  C   UNL A   1      28.130  27.506  23.580  1.00  0.00     0.021 A 
ATOM     23  C   UNL A   1      30.050  28.550  22.569  1.00  0.00     0.041 A 
ATOM     24  Cl  UNL A   1      32.516  27.519  22.533  1.00  0.00    -0.084 Cl
ATOM     25  C   UNL A   1      28.705  28.581  22.914  1.00  0.00     0.042 A 
ATOM     26  Cl  UNL A   1      27.747  29.956  22.528  1.00  0.00    -0.084 Cl
ENDBRANCH  18  19
ENDBRANCH   8  18
ENDBRANCH   5   8
ENDBRANCH   3   4
ENDBRANCH   2   3
ENDBRANCH   1   2
BRANCH   1  27
ATOM     27  C   UNL A   1      30.971  30.885  25.343  1.00  0.00     0.002 C 
BRANCH  27  28
ATOM     28  C   UNL A   1      30.960  32.135  26.220  1.00  0.00     0.021 C 
BRANCH  28  29
ATOM     29  C   UNL A   1      32.297  32.434  26.885  1.00  0.00     0.116 C 
BRANCH  29  30
ATOM     30  N   UNL A   1      32.358  33.802  27.370  1.00  0.00    -0.352 N 
ATOM     31  C   UNL A   1      33.202  34.334  28.311  1.00  0.00     0.251 C 
ATOM     32  H   UNL A   1      31.710  34.427  26.971  1.00  0.00     0.163 HD
ATOM     33  O   UNL A   1      32.986  35.434  28.799  1.00  0.00    -0.269 OA
BRANCH  31  34
ATOM     34  C   UNL A   1      34.369  33.540  28.747  1.00  0.00     0.039 A 
ATOM     35  C   UNL A   1      35.645  34.093  28.627  1.00  0.00     0.014 A 
ATOM     36  C   UNL A   1      34.192  32.272  29.311  1.00  0.00     0.014 A 
ATOM     37  C   UNL A   1      36.742  33.394  29.131  1.00  0.00     0.010 A 
ATOM     38  C   UNL A   1      35.276  31.615  29.882  1.00  0.00     0.010 A 
ATOM     39  C   UNL A   1      36.561  32.171  29.799  1.00  0.00    -0.014 A 
BRANCH  39  40
ATOM     40  C   UNL A   1      37.705  31.474  30.437  1.00  0.00     0.031 A 
ATOM     41  C   UNL A   1      38.094  31.791  31.852  1.00  0.00     0.074 A 
ATOM     42  C   UNL A   1      38.426  30.594  29.716  1.00  0.00     0.049 A 
ATOM     43  N   UNL A   1      39.086  31.315  32.562  1.00  0.00    -0.248 NA
ATOM     44  C   UNL A   1      37.279  32.793  32.557  1.00  0.00     0.031 C 
ATOM     45  C   UNL A   1      38.176  30.241  28.317  1.00  0.00     0.029 A 
ATOM     46  N   UNL A   1      39.522  29.843  30.056  1.00  0.00    -0.354 N 
ATOM     47  C   UNL A   1      39.017  31.962  33.789  1.00  0.00     0.074 A 
ATOM     48  C   UNL A   1      37.922  32.904  33.710  1.00  0.00     0.031 C 
ATOM     49  C   UNL A   1      39.074  29.322  27.928  1.00  0.00     0.029 A 
ATOM     50  C   UNL A   1      39.990  29.055  29.032  1.00  0.00     0.049 A 
ATOM     51  H   UNL A   1      39.935  29.865  30.950  1.00  0.00     0.167 HD
ATOM     52  C   UNL A   1      39.782  31.770  34.889  1.00  0.00     0.037 A 
ATOM     53  C   UNL A   1      41.045  28.220  28.984  1.00  0.00     0.037 A 
ATOM     54  C   UNL A   1      40.864  30.823  34.964  1.00  0.00     0.049 A 
ATOM     55  C   UNL A   1      41.897  28.048  30.210  1.00  0.00     0.074 A 
ATOM     56  C   UNL A   1      41.657  30.505  36.054  1.00  0.00     0.029 A 
ATOM     57  N   UNL A   1      41.313  30.048  33.905  1.00  0.00    -0.354 N 
ATOM     58  N   UNL A   1      41.768  28.602  31.392  1.00  0.00    -0.248 NA
ATOM     59  C   UNL A   1      43.042  27.134  30.097  1.00  0.00     0.031 C 
ATOM     60  C   UNL A   1      42.623  29.584  35.637  1.00  0.00     0.029 A 
ATOM     61  C   UNL A   1      42.397  29.284  34.303  1.00  0.00     0.049 A 
ATOM     62  H   UNL A   1      40.919  30.043  33.003  1.00  0.00     0.167 HD
ATOM     63  C   UNL A   1      42.802  28.092  32.166  1.00  0.00     0.074 A 
ATOM     64  C   UNL A   1      43.534  27.165  31.328  1.00  0.00     0.031 C 
ATOM     65  C   UNL A   1      43.121  28.371  33.454  1.00  0.00     0.037 A 
BRANCH  52  66
ATOM     66  C   UNL A   1      39.480  32.604  36.100  1.00  0.00     0.057 A 
ATOM     67  C   UNL A   1      40.118  33.831  36.333  1.00  0.00     0.134 A 
ATOM     68  C   UNL A   1      38.513  32.196  37.028  1.00  0.00     0.134 A 
ATOM     69  F   UNL A   1      41.061  34.277  35.490  1.00  0.00    -0.206 F 
ATOM     70  C   UNL A   1      39.823  34.606  37.456  1.00  0.00     0.040 A 
ATOM     71  C   UNL A   1      38.189  32.976  38.138  1.00  0.00     0.040 A 
ATOM     72  F   UNL A   1      37.859  31.036  36.864  1.00  0.00    -0.206 F 
ATOM     73  C   UNL A   1      38.851  34.183  38.359  1.00  0.00     0.006 A 
ENDBRANCH  52  66
BRANCH  53  74
ATOM     74  C   UNL A   1      41.350  27.480  27.734  1.00  0.00     0.057 A 
ATOM     75  C   UNL A   1      40.867  26.184  27.524  1.00  0.00     0.134 A 
ATOM     76  C   UNL A   1      42.136  28.046  26.722  1.00  0.00     0.134 A 
ATOM     77  F   UNL A   1      40.123  25.580  28.463  1.00  0.00    -0.206 F 
ATOM     78  C   UNL A   1      41.167  25.470  26.362  1.00  0.00     0.040 A 
ATOM     79  C   UNL A   1      42.421  27.354  25.543  1.00  0.00     0.040 A 
ATOM     80  F   UNL A   1      42.624  29.288  26.858  1.00  0.00    -0.206 F 
ATOM     81  C   UNL A   1      41.942  26.058  25.366  1.00  0.00     0.006 A 
ENDBRANCH  53  74
BRANCH  65  82
ATOM     82  C   UNL A   1      44.306  27.657  34.036  1.00  0.00     0.057 A 
ATOM     83  C   UNL A   1      44.189  26.393  34.627  1.00  0.00     0.134 A 
ATOM     84  C   UNL A   1      45.586  28.224  33.971  1.00  0.00     0.134 A 
ATOM     85  F   UNL A   1      42.990  25.800  34.733  1.00  0.00    -0.206 F 
ATOM     86  C   UNL A   1      45.298  25.728  35.153  1.00  0.00     0.040 A 
ATOM     87  C   UNL A   1      46.706  27.556  34.467  1.00  0.00     0.040 A 
ATOM     88  F   UNL A   1      45.770  29.429  33.412  1.00  0.00    -0.206 F 
ATOM     89  C   UNL A   1      46.563  26.307  35.067  1.00  0.00     0.006 A 
ENDBRANCH  65  82
ENDBRANCH  39  40
ENDBRANCH  31  34
ENDBRANCH  29  30
ENDBRANCH  28  29
ENDBRANCH  27  28
ENDBRANCH   1  27
TORSDOF 19
ENDMDL
