MODEL 1
REMARK VINA RESULT:     -11.3      0.000      0.000
REMARK SMILES O=C(Cc1ccc(NC(=O)C2CCCC2)cc1)NCCCCCCNC(=O)c1ccc(-c2c3nc(c(-c4c(F)cccc4F)c4ccc([nH]4)c(-c4c(F)cccc4F)c4nc(c(-c5c(F)cccc5F)c5ccc2[nH]5)C=C4)C=C3)cc1
REMARK SMILES IDX 21 1 20 2 19 3 18 4 1 5 2 6 3 8 4 9 5 10 17 11 6 12 16 13
REMARK SMILES IDX 7 14 8 15 9 16 10 18 11 19 12 20 15 21 13 22 14 23 22 24
REMARK SMILES IDX 23 25 24 26 25 27 26 28 27 30 28 31 29 32 81 33 30 34 80 35
REMARK SMILES IDX 31 36 32 37 33 38 74 39 34 40 79 41 73 42 75 43 35 44 78 45
REMARK SMILES IDX 72 46 71 47 36 49 62 50 45 51 61 52 46 53 49 54 60 55 76 56
REMARK SMILES IDX 47 57 48 58 59 60 77 61 50 62 37 63 38 64 43 65 39 66 40 67
REMARK SMILES IDX 42 68 44 69 41 70 63 71 64 72 69 73 65 74 66 75 68 76 70 77
REMARK SMILES IDX 67 78 51 79 52 80 57 81 53 82 54 83 56 84 58 85 55 86
REMARK H PARENT 18 7 8 17 25 29 75 48 49 59
REMARK Flexibility Score: inf
ROOT
ATOM      1  C   UNL A   1      35.370  33.238  28.275  1.00  0.00     0.002 C 
ENDROOT
BRANCH   1   2
ATOM      2  C   UNL A   1      35.076  31.749  28.056  1.00  0.00     0.021 C 
BRANCH   2   3
ATOM      3  C   UNL A   1      33.697  31.454  27.464  1.00  0.00     0.116 C 
BRANCH   3   4
ATOM      4  N   UNL A   1      33.289  30.084  27.705  1.00  0.00    -0.356 N 
ATOM      5  O   UNL A   1      31.414  30.140  26.379  1.00  0.00    -0.275 OA
ATOM      6  C   UNL A   1      32.163  29.527  27.136  1.00  0.00     0.224 C 
ATOM      7  H   UNL A   1      33.840  29.527  28.302  1.00  0.00     0.163 HD
BRANCH   6   8
ATOM      8  C   UNL A   1      31.892  28.083  27.544  1.00  0.00     0.135 C 
BRANCH   8   9
ATOM      9  C   UNL A   1      32.190  27.071  26.461  1.00  0.00    -0.039 A 
ATOM     10  C   UNL A   1      31.167  26.324  25.871  1.00  0.00     0.006 A 
ATOM     11  C   UNL A   1      33.507  26.845  26.042  1.00  0.00     0.006 A 
ATOM     12  C   UNL A   1      31.436  25.493  24.782  1.00  0.00     0.026 A 
ATOM     13  C   UNL A   1      33.771  26.014  24.948  1.00  0.00     0.026 A 
ATOM     14  C   UNL A   1      32.720  25.418  24.246  1.00  0.00     0.041 A 
BRANCH  14  15
ATOM     15  N   UNL A   1      33.027  24.817  23.014  1.00  0.00    -0.326 N 
ATOM     16  C   UNL A   1      33.198  23.504  22.659  1.00  0.00     0.227 C 
ATOM     17  H   UNL A   1      33.142  25.454  22.271  1.00  0.00     0.169 HD
ATOM     18  O   UNL A   1      33.491  23.263  21.485  1.00  0.00    -0.274 OA
BRANCH  16  19
ATOM     19  C   UNL A   1      32.994  22.382  23.669  1.00  0.00     0.079 C 
ATOM     20  C   UNL A   1      32.361  21.113  23.096  1.00  0.00     0.013 C 
ATOM     21  C   UNL A   1      34.289  21.806  24.253  1.00  0.00     0.013 C 
ATOM     22  C   UNL A   1      32.514  20.127  24.244  1.00  0.00     0.001 C 
ATOM     23  C   UNL A   1      33.866  20.467  24.868  1.00  0.00     0.001 C 
ENDBRANCH  16  19
ENDBRANCH  14  15
ENDBRANCH   8   9
ENDBRANCH   6   8
ENDBRANCH   3   4
ENDBRANCH   2   3
ENDBRANCH   1   2
BRANCH   1  24
ATOM     24  C   UNL A   1      34.686  33.872  29.491  1.00  0.00     0.002 C 
BRANCH  24  25
ATOM     25  C   UNL A   1      33.419  34.673  29.187  1.00  0.00     0.021 C 
BRANCH  25  26
ATOM     26  C   UNL A   1      33.443  36.123  29.660  1.00  0.00     0.116 C 
BRANCH  26  27
ATOM     27  N   UNL A   1      32.508  36.374  30.747  1.00  0.00    -0.352 N 
ATOM     28  C   UNL A   1      32.529  35.910  32.041  1.00  0.00     0.251 C 
ATOM     29  H   UNL A   1      31.750  36.959  30.522  1.00  0.00     0.163 HD
ATOM     30  O   UNL A   1      31.569  36.090  32.779  1.00  0.00    -0.269 OA
BRANCH  28  31
ATOM     31  C   UNL A   1      33.709  35.166  32.535  1.00  0.00     0.039 A 
ATOM     32  C   UNL A   1      33.547  33.848  32.970  1.00  0.00     0.014 A 
ATOM     33  C   UNL A   1      34.972  35.764  32.565  1.00  0.00     0.014 A 
ATOM     34  C   UNL A   1      34.662  33.106  33.366  1.00  0.00     0.010 A 
ATOM     35  C   UNL A   1      36.091  35.001  32.888  1.00  0.00     0.010 A 
ATOM     36  C   UNL A   1      35.949  33.663  33.290  1.00  0.00    -0.014 A 
BRANCH  36  37
ATOM     37  C   UNL A   1      37.160  32.864  33.614  1.00  0.00     0.031 A 
ATOM     38  C   UNL A   1      37.944  33.155  34.866  1.00  0.00     0.074 A 
ATOM     39  C   UNL A   1      37.600  31.932  32.745  1.00  0.00     0.049 A 
ATOM     40  N   UNL A   1      39.075  32.637  35.272  1.00  0.00    -0.248 NA
ATOM     41  C   UNL A   1      37.398  34.182  35.768  1.00  0.00     0.031 C 
ATOM     42  C   UNL A   1      36.955  31.582  31.478  1.00  0.00     0.029 A 
ATOM     43  N   UNL A   1      38.706  31.118  32.787  1.00  0.00    -0.354 N 
ATOM     44  C   UNL A   1      39.386  33.289  36.459  1.00  0.00     0.074 A 
ATOM     45  C   UNL A   1      38.347  34.268  36.689  1.00  0.00     0.031 C 
ATOM     46  C   UNL A   1      37.664  30.614  30.873  1.00  0.00     0.029 A 
ATOM     47  C   UNL A   1      38.838  30.308  31.683  1.00  0.00     0.049 A 
ATOM     48  H   UNL A   1      39.344  31.115  33.537  1.00  0.00     0.167 HD
ATOM     49  C   UNL A   1      40.435  33.079  37.289  1.00  0.00     0.037 A 
ATOM     50  C   UNL A   1      39.806  29.430  31.354  1.00  0.00     0.037 A 
ATOM     51  C   UNL A   1      41.447  32.078  37.077  1.00  0.00     0.049 A 
ATOM     52  C   UNL A   1      40.968  29.232  32.291  1.00  0.00     0.074 A 
ATOM     53  C   UNL A   1      42.501  31.733  37.905  1.00  0.00     0.029 A 
ATOM     54  N   UNL A   1      41.536  31.267  35.956  1.00  0.00    -0.354 N 
ATOM     55  N   UNL A   1      41.202  29.795  33.452  1.00  0.00    -0.248 NA
ATOM     56  C   UNL A   1      42.001  28.273  31.873  1.00  0.00     0.031 C 
ATOM     57  C   UNL A   1      43.263  30.757  37.260  1.00  0.00     0.029 A 
ATOM     58  C   UNL A   1      42.648  30.447  36.057  1.00  0.00     0.049 A 
ATOM     59  H   UNL A   1      40.904  31.272  35.202  1.00  0.00     0.167 HD
ATOM     60  C   UNL A   1      42.382  29.229  33.919  1.00  0.00     0.074 A 
ATOM     61  C   UNL A   1      42.811  28.271  32.922  1.00  0.00     0.031 C 
ATOM     62  C   UNL A   1      43.050  29.480  35.069  1.00  0.00     0.037 A 
BRANCH  49  63
ATOM     63  C   UNL A   1      40.556  33.946  38.508  1.00  0.00     0.057 A 
ATOM     64  C   UNL A   1      39.934  33.617  39.719  1.00  0.00     0.134 A 
ATOM     65  C   UNL A   1      41.371  35.086  38.489  1.00  0.00     0.134 A 
ATOM     66  F   UNL A   1      39.133  32.545  39.802  1.00  0.00    -0.206 F 
ATOM     67  C   UNL A   1      40.109  34.397  40.863  1.00  0.00     0.040 A 
ATOM     68  C   UNL A   1      41.575  35.858  39.633  1.00  0.00     0.040 A 
ATOM     69  F   UNL A   1      42.002  35.455  37.363  1.00  0.00    -0.206 F 
ATOM     70  C   UNL A   1      40.940  35.515  40.826  1.00  0.00     0.006 A 
ENDBRANCH  49  63
BRANCH  50  71
ATOM     71  C   UNL A   1      39.733  28.663  30.082  1.00  0.00     0.057 A 
ATOM     72  C   UNL A   1      39.131  27.400  30.034  1.00  0.00     0.134 A 
ATOM     73  C   UNL A   1      40.310  29.145  28.900  1.00  0.00     0.134 A 
ATOM     74  F   UNL A   1      38.578  26.873  31.137  1.00  0.00    -0.206 F 
ATOM     75  C   UNL A   1      39.138  26.628  28.870  1.00  0.00     0.040 A 
ATOM     76  C   UNL A   1      40.297  28.397  27.722  1.00  0.00     0.040 A 
ATOM     77  F   UNL A   1      40.897  30.350  28.874  1.00  0.00    -0.206 F 
ATOM     78  C   UNL A   1      39.722  27.128  27.708  1.00  0.00     0.006 A 
ENDBRANCH  50  71
BRANCH  62  79
ATOM     79  C   UNL A   1      44.284  28.669  35.346  1.00  0.00     0.057 A 
ATOM     80  C   UNL A   1      44.233  27.444  36.020  1.00  0.00     0.134 A 
ATOM     81  C   UNL A   1      45.534  29.101  34.883  1.00  0.00     0.134 A 
ATOM     82  F   UNL A   1      43.070  26.979  36.500  1.00  0.00    -0.206 F 
ATOM     83  C   UNL A   1      45.385  26.688  36.246  1.00  0.00     0.040 A 
ATOM     84  C   UNL A   1      46.687  28.341  35.075  1.00  0.00     0.040 A 
ATOM     85  F   UNL A   1      45.652  30.262  34.220  1.00  0.00    -0.206 F 
ATOM     86  C   UNL A   1      46.616  27.132  35.765  1.00  0.00     0.006 A 
ENDBRANCH  62  79
ENDBRANCH  36  37
ENDBRANCH  28  31
ENDBRANCH  26  27
ENDBRANCH  25  26
ENDBRANCH  24  25
ENDBRANCH   1  24
TORSDOF 16
ENDMDL
MODEL 2
REMARK VINA RESULT:     -11.0      1.135      1.721
REMARK SMILES O=C(Cc1ccc(NC(=O)C2CCCC2)cc1)NCCCCCCNC(=O)c1ccc(-c2c3nc(c(-c4c(F)cccc4F)c4ccc([nH]4)c(-c4c(F)cccc4F)c4nc(c(-c5c(F)cccc5F)c5ccc2[nH]5)C=C4)C=C3)cc1
REMARK SMILES IDX 21 1 20 2 19 3 18 4 1 5 2 6 3 8 4 9 5 10 17 11 6 12 16 13
REMARK SMILES IDX 7 14 8 15 9 16 10 18 11 19 12 20 15 21 13 22 14 23 22 24
REMARK SMILES IDX 23 25 24 26 25 27 26 28 27 30 28 31 29 32 81 33 30 34 80 35
REMARK SMILES IDX 31 36 32 37 33 38 74 39 34 40 79 41 73 42 75 43 35 44 78 45
REMARK SMILES IDX 72 46 71 47 36 49 62 50 45 51 61 52 46 53 49 54 60 55 76 56
REMARK SMILES IDX 47 57 48 58 59 60 77 61 50 62 37 63 38 64 43 65 39 66 40 67
REMARK SMILES IDX 42 68 44 69 41 70 63 71 64 72 69 73 65 74 66 75 68 76 70 77
REMARK SMILES IDX 67 78 51 79 52 80 57 81 53 82 54 83 56 84 58 85 55 86
REMARK H PARENT 18 7 8 17 25 29 75 48 49 59
REMARK Flexibility Score: inf
ROOT
ATOM      1  C   UNL A   1      35.308  33.815  28.827  1.00  0.00     0.002 C 
ENDROOT
BRANCH   1   2
ATOM      2  C   UNL A   1      35.576  32.608  27.919  1.00  0.00     0.021 C 
BRANCH   2   3
ATOM      3  C   UNL A   1      34.822  31.337  28.315  1.00  0.00     0.116 C 
BRANCH   3   4
ATOM      4  N   UNL A   1      33.634  31.142  27.506  1.00  0.00    -0.356 N 
ATOM      5  O   UNL A   1      33.625  28.847  27.620  1.00  0.00    -0.275 OA
ATOM      6  C   UNL A   1      33.123  29.894  27.218  1.00  0.00     0.224 C 
ATOM      7  H   UNL A   1      33.173  31.935  27.148  1.00  0.00     0.163 HD
BRANCH   6   8
ATOM      8  C   UNL A   1      31.887  29.904  26.325  1.00  0.00     0.135 C 
BRANCH   8   9
ATOM      9  C   UNL A   1      32.116  29.321  24.949  1.00  0.00    -0.039 A 
ATOM     10  C   UNL A   1      33.389  29.309  24.374  1.00  0.00     0.006 A 
ATOM     11  C   UNL A   1      31.047  28.800  24.210  1.00  0.00     0.006 A 
ATOM     12  C   UNL A   1      33.613  28.649  23.164  1.00  0.00     0.026 A 
ATOM     13  C   UNL A   1      31.277  28.136  23.001  1.00  0.00     0.026 A 
ATOM     14  C   UNL A   1      32.580  27.966  22.527  1.00  0.00     0.041 A 
BRANCH  14  15
ATOM     15  N   UNL A   1      32.766  27.074  21.458  1.00  0.00    -0.326 N 
ATOM     16  C   UNL A   1      32.898  25.710  21.423  1.00  0.00     0.227 C 
ATOM     17  H   UNL A   1      32.808  27.506  20.574  1.00  0.00     0.169 HD
ATOM     18  O   UNL A   1      33.075  25.180  20.323  1.00  0.00    -0.274 OA
BRANCH  16  19
ATOM     19  C   UNL A   1      32.792  24.875  22.693  1.00  0.00     0.079 C 
ATOM     20  C   UNL A   1      31.374  24.426  23.047  1.00  0.00     0.013 C 
ATOM     21  C   UNL A   1      33.503  23.519  22.626  1.00  0.00     0.013 C 
ATOM     22  C   UNL A   1      31.618  23.439  24.179  1.00  0.00     0.001 C 
ATOM     23  C   UNL A   1      32.909  22.720  23.791  1.00  0.00     0.001 C 
ENDBRANCH  16  19
ENDBRANCH  14  15
ENDBRANCH   8   9
ENDBRANCH   6   8
ENDBRANCH   3   4
ENDBRANCH   2   3
ENDBRANCH   1   2
BRANCH   1  24
ATOM     24  C   UNL A   1      34.848  35.089  28.110  1.00  0.00     0.002 C 
BRANCH  24  25
ATOM     25  C   UNL A   1      33.658  35.808  28.749  1.00  0.00     0.021 C 
BRANCH  25  26
ATOM     26  C   UNL A   1      32.924  35.012  29.823  1.00  0.00     0.116 C 
BRANCH  26  27
ATOM     27  N   UNL A   1      32.392  35.857  30.881  1.00  0.00    -0.352 N 
ATOM     28  C   UNL A   1      32.757  35.933  32.205  1.00  0.00     0.251 C 
ATOM     29  H   UNL A   1      31.663  36.461  30.611  1.00  0.00     0.163 HD
ATOM     30  O   UNL A   1      32.089  36.586  32.995  1.00  0.00    -0.269 OA
BRANCH  28  31
ATOM     31  C   UNL A   1      33.951  35.199  32.680  1.00  0.00     0.039 A 
ATOM     32  C   UNL A   1      33.785  33.942  33.269  1.00  0.00     0.014 A 
ATOM     33  C   UNL A   1      35.231  35.743  32.540  1.00  0.00     0.014 A 
ATOM     34  C   UNL A   1      34.906  33.201  33.651  1.00  0.00     0.010 A 
ATOM     35  C   UNL A   1      36.348  34.974  32.853  1.00  0.00     0.010 A 
ATOM     36  C   UNL A   1      36.198  33.694  33.409  1.00  0.00    -0.014 A 
BRANCH  36  37
ATOM     37  C   UNL A   1      37.406  32.885  33.720  1.00  0.00     0.031 A 
ATOM     38  C   UNL A   1      38.189  33.148  34.979  1.00  0.00     0.074 A 
ATOM     39  C   UNL A   1      37.846  31.970  32.832  1.00  0.00     0.049 A 
ATOM     40  N   UNL A   1      39.317  32.618  35.377  1.00  0.00    -0.248 NA
ATOM     41  C   UNL A   1      37.643  34.157  35.901  1.00  0.00     0.031 C 
ATOM     42  C   UNL A   1      37.202  31.647  31.557  1.00  0.00     0.029 A 
ATOM     43  N   UNL A   1      38.949  31.152  32.860  1.00  0.00    -0.354 N 
ATOM     44  C   UNL A   1      39.628  33.246  36.577  1.00  0.00     0.074 A 
ATOM     45  C   UNL A   1      38.591  34.222  36.826  1.00  0.00     0.031 C 
ATOM     46  C   UNL A   1      37.909  30.690  30.934  1.00  0.00     0.029 A 
ATOM     47  C   UNL A   1      39.081  30.364  31.740  1.00  0.00     0.049 A 
ATOM     48  H   UNL A   1      39.585  31.132  33.610  1.00  0.00     0.167 HD
ATOM     49  C   UNL A   1      40.674  33.016  37.404  1.00  0.00     0.037 A 
ATOM     50  C   UNL A   1      40.048  29.491  31.394  1.00  0.00     0.037 A 
ATOM     51  C   UNL A   1      41.684  32.016  37.174  1.00  0.00     0.049 A 
ATOM     52  C   UNL A   1      41.207  29.270  32.329  1.00  0.00     0.074 A 
ATOM     53  C   UNL A   1      42.735  31.651  37.997  1.00  0.00     0.029 A 
ATOM     54  N   UNL A   1      41.773  31.228  36.037  1.00  0.00    -0.354 N 
ATOM     55  N   UNL A   1      41.440  29.808  33.502  1.00  0.00    -0.248 NA
ATOM     56  C   UNL A   1      42.238  28.317  31.894  1.00  0.00     0.031 C 
ATOM     57  C   UNL A   1      43.497  30.686  37.333  1.00  0.00     0.029 A 
ATOM     58  C   UNL A   1      42.883  30.403  36.123  1.00  0.00     0.049 A 
ATOM     59  H   UNL A   1      41.143  31.250  35.282  1.00  0.00     0.167 HD
ATOM     60  C   UNL A   1      42.617  29.230  33.960  1.00  0.00     0.074 A 
ATOM     61  C   UNL A   1      43.046  28.292  32.944  1.00  0.00     0.031 C 
ATOM     62  C   UNL A   1      43.284  29.455  35.116  1.00  0.00     0.037 A 
BRANCH  49  63
ATOM     63  C   UNL A   1      40.795  33.857  38.641  1.00  0.00     0.057 A 
ATOM     64  C   UNL A   1      40.166  33.508  39.842  1.00  0.00     0.134 A 
ATOM     65  C   UNL A   1      41.618  34.991  38.649  1.00  0.00     0.134 A 
ATOM     66  F   UNL A   1      39.357  32.440  39.900  1.00  0.00    -0.206 F 
ATOM     67  C   UNL A   1      40.340  34.263  41.003  1.00  0.00     0.040 A 
ATOM     68  C   UNL A   1      41.823  35.739  39.810  1.00  0.00     0.040 A 
ATOM     69  F   UNL A   1      42.257  35.378  37.534  1.00  0.00    -0.206 F 
ATOM     70  C   UNL A   1      41.179  35.376  40.992  1.00  0.00     0.006 A 
ENDBRANCH  49  63
BRANCH  50  71
ATOM     71  C   UNL A   1      39.975  28.750  30.107  1.00  0.00     0.057 A 
ATOM     72  C   UNL A   1      40.580  29.254  28.949  1.00  0.00     0.134 A 
ATOM     73  C   UNL A   1      39.256  27.555  29.988  1.00  0.00     0.134 A 
ATOM     74  F   UNL A   1      41.267  30.406  28.992  1.00  0.00    -0.206 F 
ATOM     75  C   UNL A   1      40.441  28.619  27.713  1.00  0.00     0.040 A 
ATOM     76  C   UNL A   1      39.135  26.893  28.765  1.00  0.00     0.040 A 
ATOM     77  F   UNL A   1      38.658  27.013  31.058  1.00  0.00    -0.206 F 
ATOM     78  C   UNL A   1      39.717  27.432  27.619  1.00  0.00     0.006 A 
ENDBRANCH  50  71
BRANCH  62  79
ATOM     79  C   UNL A   1      44.515  28.636  35.379  1.00  0.00     0.057 A 
ATOM     80  C   UNL A   1      44.459  27.392  36.020  1.00  0.00     0.134 A 
ATOM     81  C   UNL A   1      45.769  29.078  34.935  1.00  0.00     0.134 A 
ATOM     82  F   UNL A   1      43.292  26.916  36.479  1.00  0.00    -0.206 F 
ATOM     83  C   UNL A   1      45.608  26.629  36.232  1.00  0.00     0.040 A 
ATOM     84  C   UNL A   1      46.920  28.311  35.114  1.00  0.00     0.040 A 
ATOM     85  F   UNL A   1      45.892  30.256  34.304  1.00  0.00    -0.206 F 
ATOM     86  C   UNL A   1      46.842  27.084  35.770  1.00  0.00     0.006 A 
ENDBRANCH  62  79
ENDBRANCH  36  37
ENDBRANCH  28  31
ENDBRANCH  26  27
ENDBRANCH  25  26
ENDBRANCH  24  25
ENDBRANCH   1  24
TORSDOF 16
ENDMDL
MODEL 3
REMARK VINA RESULT:     -11.0      1.809      2.837
REMARK SMILES O=C(Cc1ccc(NC(=O)C2CCCC2)cc1)NCCCCCCNC(=O)c1ccc(-c2c3nc(c(-c4c(F)cccc4F)c4ccc([nH]4)c(-c4c(F)cccc4F)c4nc(c(-c5c(F)cccc5F)c5ccc2[nH]5)C=C4)C=C3)cc1
REMARK SMILES IDX 21 1 20 2 19 3 18 4 1 5 2 6 3 8 4 9 5 10 17 11 6 12 16 13
REMARK SMILES IDX 7 14 8 15 9 16 10 18 11 19 12 20 15 21 13 22 14 23 22 24
REMARK SMILES IDX 23 25 24 26 25 27 26 28 27 30 28 31 29 32 81 33 30 34 80 35
REMARK SMILES IDX 31 36 32 37 33 38 74 39 34 40 79 41 73 42 75 43 35 44 78 45
REMARK SMILES IDX 72 46 71 47 36 49 62 50 45 51 61 52 46 53 49 54 60 55 76 56
REMARK SMILES IDX 47 57 48 58 59 60 77 61 50 62 37 63 38 64 43 65 39 66 40 67
REMARK SMILES IDX 42 68 44 69 41 70 63 71 64 72 69 73 65 74 66 75 68 76 70 77
REMARK SMILES IDX 67 78 51 79 52 80 57 81 53 82 54 83 56 84 58 85 55 86
REMARK H PARENT 18 7 8 17 25 29 75 48 49 59
REMARK Flexibility Score: inf
ROOT
ATOM      1  C   UNL A   1      34.759  34.469  27.912  1.00  0.00     0.002 C 
ENDROOT
BRANCH   1   2
ATOM      2  C   UNL A   1      35.391  33.497  28.916  1.00  0.00     0.021 C 
BRANCH   2   3
ATOM      3  C   UNL A   1      34.455  32.389  29.402  1.00  0.00     0.116 C 
BRANCH   3   4
ATOM      4  N   UNL A   1      34.804  31.102  28.833  1.00  0.00    -0.356 N 
ATOM      5  O   UNL A   1      33.514  31.301  26.943  1.00  0.00    -0.275 OA
ATOM      6  C   UNL A   1      34.297  30.652  27.631  1.00  0.00     0.224 C 
ATOM      7  H   UNL A   1      35.430  30.523  29.326  1.00  0.00     0.163 HD
BRANCH   6   8
ATOM      8  C   UNL A   1      34.764  29.258  27.226  1.00  0.00     0.135 C 
BRANCH   8   9
ATOM      9  C   UNL A   1      33.644  28.331  26.810  1.00  0.00    -0.039 A 
ATOM     10  C   UNL A   1      32.395  28.384  27.434  1.00  0.00     0.006 A 
ATOM     11  C   UNL A   1      33.846  27.380  25.803  1.00  0.00     0.006 A 
ATOM     12  C   UNL A   1      31.331  27.619  26.953  1.00  0.00     0.026 A 
ATOM     13  C   UNL A   1      32.775  26.618  25.322  1.00  0.00     0.026 A 
ATOM     14  C   UNL A   1      31.487  26.814  25.827  1.00  0.00     0.041 A 
BRANCH  14  15
ATOM     15  N   UNL A   1      30.425  26.217  25.130  1.00  0.00    -0.326 N 
ATOM     16  C   UNL A   1      29.570  26.710  24.178  1.00  0.00     0.227 C 
ATOM     17  H   UNL A   1      30.264  25.275  25.367  1.00  0.00     0.169 HD
ATOM     18  O   UNL A   1      28.698  25.951  23.745  1.00  0.00    -0.274 OA
BRANCH  16  19
ATOM     19  C   UNL A   1      29.717  28.129  23.645  1.00  0.00     0.079 C 
ATOM     20  C   UNL A   1      30.651  28.268  22.442  1.00  0.00     0.013 C 
ATOM     21  C   UNL A   1      28.430  28.730  23.067  1.00  0.00     0.013 C 
ATOM     22  C   UNL A   1      30.402  29.703  22.001  1.00  0.00     0.001 C 
ATOM     23  C   UNL A   1      28.909  29.925  22.235  1.00  0.00     0.001 C 
ENDBRANCH  16  19
ENDBRANCH  14  15
ENDBRANCH   8   9
ENDBRANCH   6   8
ENDBRANCH   3   4
ENDBRANCH   2   3
ENDBRANCH   1   2
BRANCH   1  24
ATOM     24  C   UNL A   1      34.649  35.922  28.383  1.00  0.00     0.002 C 
BRANCH  24  25
ATOM     25  C   UNL A   1      33.242  36.381  28.772  1.00  0.00     0.021 C 
BRANCH  25  26
ATOM     26  C   UNL A   1      32.550  35.517  29.822  1.00  0.00     0.116 C 
BRANCH  26  27
ATOM     27  N   UNL A   1      32.255  36.250  31.044  1.00  0.00    -0.352 N 
ATOM     28  C   UNL A   1      32.801  36.111  32.298  1.00  0.00     0.251 C 
ATOM     29  H   UNL A   1      31.563  36.944  30.961  1.00  0.00     0.163 HD
ATOM     30  O   UNL A   1      32.315  36.703  33.254  1.00  0.00    -0.269 OA
BRANCH  28  31
ATOM     31  C   UNL A   1      33.965  35.220  32.497  1.00  0.00     0.039 A 
ATOM     32  C   UNL A   1      35.240  35.684  32.160  1.00  0.00     0.014 A 
ATOM     33  C   UNL A   1      33.803  33.934  33.018  1.00  0.00     0.014 A 
ATOM     34  C   UNL A   1      36.358  34.886  32.415  1.00  0.00     0.010 A 
ATOM     35  C   UNL A   1      34.923  33.170  33.339  1.00  0.00     0.010 A 
ATOM     36  C   UNL A   1      36.212  33.639  33.043  1.00  0.00    -0.014 A 
BRANCH  36  37
ATOM     37  C   UNL A   1      37.393  32.813  33.410  1.00  0.00     0.031 A 
ATOM     38  C   UNL A   1      38.145  33.094  34.683  1.00  0.00     0.074 A 
ATOM     39  C   UNL A   1      37.835  31.863  32.561  1.00  0.00     0.049 A 
ATOM     40  N   UNL A   1      39.250  32.551  35.127  1.00  0.00    -0.248 NA
ATOM     41  C   UNL A   1      37.598  34.141  35.561  1.00  0.00     0.031 C 
ATOM     42  C   UNL A   1      37.220  31.519  31.278  1.00  0.00     0.029 A 
ATOM     43  N   UNL A   1      38.918  31.022  32.643  1.00  0.00    -0.354 N 
ATOM     44  C   UNL A   1      39.541  33.205  36.318  1.00  0.00     0.074 A 
ATOM     45  C   UNL A   1      38.521  34.211  36.510  1.00  0.00     0.031 C 
ATOM     46  C   UNL A   1      37.922  30.529  30.702  1.00  0.00     0.029 A 
ATOM     47  C   UNL A   1      39.062  30.199  31.550  1.00  0.00     0.049 A 
ATOM     48  H   UNL A   1      39.532  31.009  33.412  1.00  0.00     0.167 HD
ATOM     49  C   UNL A   1      40.559  32.975  37.181  1.00  0.00     0.037 A 
ATOM     50  C   UNL A   1      40.018  29.295  31.256  1.00  0.00     0.037 A 
ATOM     51  C   UNL A   1      41.551  31.947  37.007  1.00  0.00     0.049 A 
ATOM     52  C   UNL A   1      41.145  29.075  32.230  1.00  0.00     0.074 A 
ATOM     53  C   UNL A   1      42.570  31.582  37.870  1.00  0.00     0.029 A 
ATOM     54  N   UNL A   1      41.654  31.124  35.896  1.00  0.00    -0.354 N 
ATOM     55  N   UNL A   1      41.358  29.641  33.393  1.00  0.00    -0.248 NA
ATOM     56  C   UNL A   1      42.166  28.087  31.850  1.00  0.00     0.031 C 
ATOM     57  C   UNL A   1      43.327  30.582  37.255  1.00  0.00     0.029 A 
ATOM     58  C   UNL A   1      42.740  30.278  36.037  1.00  0.00     0.049 A 
ATOM     59  H   UNL A   1      41.045  31.140  35.123  1.00  0.00     0.167 HD
ATOM     60  C   UNL A   1      42.508  29.050  33.900  1.00  0.00     0.074 A 
ATOM     61  C   UNL A   1      42.943  28.074  32.924  1.00  0.00     0.031 C 
ATOM     62  C   UNL A   1      43.148  29.293  35.068  1.00  0.00     0.037 A 
BRANCH  49  63
ATOM     63  C   UNL A   1      40.665  33.849  38.397  1.00  0.00     0.057 A 
ATOM     64  C   UNL A   1      41.458  35.003  38.416  1.00  0.00     0.134 A 
ATOM     65  C   UNL A   1      39.900  33.571  39.538  1.00  0.00     0.134 A 
ATOM     66  F   UNL A   1      42.222  35.320  37.360  1.00  0.00    -0.206 F 
ATOM     67  C   UNL A   1      41.496  35.843  39.529  1.00  0.00     0.040 A 
ATOM     68  C   UNL A   1      39.909  34.418  40.647  1.00  0.00     0.040 A 
ATOM     69  F   UNL A   1      39.113  32.486  39.584  1.00  0.00    -0.206 F 
ATOM     70  C   UNL A   1      40.712  35.558  40.646  1.00  0.00     0.006 A 
ENDBRANCH  49  63
BRANCH  50  71
ATOM     71  C   UNL A   1      39.964  28.520  29.988  1.00  0.00     0.057 A 
ATOM     72  C   UNL A   1      39.261  27.312  29.910  1.00  0.00     0.134 A 
ATOM     73  C   UNL A   1      40.656  28.936  28.844  1.00  0.00     0.134 A 
ATOM     74  F   UNL A   1      38.593  26.848  30.978  1.00  0.00    -0.206 F 
ATOM     75  C   UNL A   1      39.278  26.526  28.756  1.00  0.00     0.040 A 
ATOM     76  C   UNL A   1      40.657  28.176  27.674  1.00  0.00     0.040 A 
ATOM     77  F   UNL A   1      41.343  30.087  28.848  1.00  0.00    -0.206 F 
ATOM     78  C   UNL A   1      39.978  26.959  27.631  1.00  0.00     0.006 A 
ENDBRANCH  50  71
BRANCH  62  79
ATOM     79  C   UNL A   1      44.351  28.454  35.389  1.00  0.00     0.057 A 
ATOM     80  C   UNL A   1      44.249  27.235  36.070  1.00  0.00     0.134 A 
ATOM     81  C   UNL A   1      45.626  28.851  34.961  1.00  0.00     0.134 A 
ATOM     82  F   UNL A   1      43.060  26.803  36.517  1.00  0.00    -0.206 F 
ATOM     83  C   UNL A   1      45.374  26.452  36.336  1.00  0.00     0.040 A 
ATOM     84  C   UNL A   1      46.753  28.063  35.194  1.00  0.00     0.040 A 
ATOM     85  F   UNL A   1      45.793  30.003  34.294  1.00  0.00    -0.206 F 
ATOM     86  C   UNL A   1      46.630  26.862  35.889  1.00  0.00     0.006 A 
ENDBRANCH  62  79
ENDBRANCH  36  37
ENDBRANCH  28  31
ENDBRANCH  26  27
ENDBRANCH  25  26
ENDBRANCH  24  25
ENDBRANCH   1  24
TORSDOF 16
ENDMDL
