MODEL 1
REMARK VINA RESULT:     -11.9      0.000      0.000
REMARK SMILES CC[C@]1(C(=O)NCCCCCCNC(=O)c2ccc(-c3c4nc(c(-c5c(F)cccc5F)c5ccc([nH]5)c(-c5c(F)cccc5F)c5nc(c(-c6c(F)cccc6F)c6ccc3[nH]6)C=C5)C=C4)cc2)CCC[N@@H+](Cc2cc(OC)ccc2F)C1
REMARK SMILES IDX 9 1 8 2 7 3 6 4 4 5 5 6 3 8 70 9 84 10 71 11 73 12 72 13
REMARK SMILES IDX 2 15 1 16 74 17 75 18 76 19 82 20 77 21 81 22 83 23 80 24
REMARK SMILES IDX 78 25 79 26 10 27 11 28 12 29 13 30 14 31 15 33 16 34 17 35
REMARK SMILES IDX 69 36 18 37 68 38 19 39 20 40 21 41 62 42 22 43 67 44 61 45
REMARK SMILES IDX 63 46 23 47 66 48 60 49 59 50 24 52 50 53 33 54 49 55 34 56
REMARK SMILES IDX 37 57 48 58 64 59 35 60 36 61 47 63 65 64 38 65 25 66 26 67
REMARK SMILES IDX 31 68 27 69 28 70 30 71 32 72 29 73 51 74 52 75 57 76 53 77
REMARK SMILES IDX 54 78 56 79 58 80 55 81 39 82 40 83 45 84 41 85 42 86 44 87
REMARK SMILES IDX 46 88 43 89
REMARK H PARENT 6 7 73 14 13 32 63 51 37 62
REMARK Flexibility Score: inf
ROOT
ATOM      1  C   UNL A   1      32.401  29.714  26.318  1.00  0.00     0.002 C 
ENDROOT
BRANCH   1   2
ATOM      2  C   UNL A   1      31.913  28.468  27.063  1.00  0.00     0.021 C 
BRANCH   2   3
ATOM      3  C   UNL A   1      32.171  27.170  26.308  1.00  0.00     0.116 C 
BRANCH   3   4
ATOM      4  N   UNL A   1      31.342  26.100  26.841  1.00  0.00    -0.355 N 
ATOM      5  C   UNL A   1      31.261  24.769  26.563  1.00  0.00     0.231 C 
ATOM      6  O   UNL A   1      30.291  24.191  27.061  1.00  0.00    -0.274 OA
ATOM      7  H   UNL A   1      30.718  26.396  27.542  1.00  0.00     0.163 HD
BRANCH   5   8
ATOM      8  C   UNL A   1      32.303  24.039  25.680  1.00  0.00     0.098 C 
ATOM      9  C   UNL A   1      33.718  24.562  26.044  1.00  0.00     0.028 C 
ATOM     10  C   UNL A   1      32.167  22.512  25.936  1.00  0.00     0.279 C 
ATOM     11  C   UNL A   1      34.832  23.604  25.627  1.00  0.00     0.063 C 
ATOM     12  N   UNL A   1      33.316  21.666  25.583  1.00  0.00    -0.330 N 
ATOM     13  C   UNL A   1      34.578  22.177  26.113  1.00  0.00     0.262 C 
ATOM     14  H   UNL A   1      33.409  21.715  24.568  1.00  0.00     0.348 HD
BRANCH   8  15
ATOM     15  C   UNL A   1      32.076  24.347  24.162  1.00  0.00     0.019 C 
ATOM     16  C   UNL A   1      30.747  23.907  23.545  1.00  0.00     0.005 C 
ENDBRANCH   8  15
BRANCH  12  17
ATOM     17  C   UNL A   1      33.083  20.234  25.897  1.00  0.00     0.302 C 
BRANCH  17  18
ATOM     18  C   UNL A   1      33.057  19.233  24.754  1.00  0.00     0.046 A 
ATOM     19  C   UNL A   1      33.689  17.981  24.875  1.00  0.00     0.059 A 
ATOM     20  C   UNL A   1      32.474  19.537  23.518  1.00  0.00     0.132 A 
ATOM     21  C   UNL A   1      33.704  17.072  23.805  1.00  0.00     0.119 A 
ATOM     22  C   UNL A   1      32.391  18.600  22.492  1.00  0.00     0.043 A 
ATOM     23  F   UNL A   1      31.982  20.760  23.280  1.00  0.00    -0.206 F 
ATOM     24  C   UNL A   1      32.996  17.357  22.639  1.00  0.00     0.049 A 
BRANCH  21  25
ATOM     25  O   UNL A   1      34.444  15.935  23.998  1.00  0.00    -0.497 OA
ATOM     26  C   UNL A   1      35.152  15.875  25.237  1.00  0.00     0.278 C 
ENDBRANCH  21  25
ENDBRANCH  17  18
ENDBRANCH  12  17
ENDBRANCH   5   8
ENDBRANCH   3   4
ENDBRANCH   2   3
ENDBRANCH   1   2
BRANCH   1  27
ATOM     27  C   UNL A   1      31.285  30.625  25.792  1.00  0.00     0.002 C 
BRANCH  27  28
ATOM     28  C   UNL A   1      31.215  32.002  26.455  1.00  0.00     0.021 C 
BRANCH  28  29
ATOM     29  C   UNL A   1      32.526  32.462  27.081  1.00  0.00     0.116 C 
BRANCH  29  30
ATOM     30  N   UNL A   1      32.475  33.855  27.494  1.00  0.00    -0.352 N 
ATOM     31  C   UNL A   1      33.219  34.496  28.449  1.00  0.00     0.251 C 
ATOM     32  H   UNL A   1      31.817  34.414  27.022  1.00  0.00     0.163 HD
ATOM     33  O   UNL A   1      32.920  35.633  28.809  1.00  0.00    -0.269 OA
BRANCH  31  34
ATOM     34  C   UNL A   1      34.372  33.808  29.061  1.00  0.00     0.039 A 
ATOM     35  C   UNL A   1      34.140  32.723  29.909  1.00  0.00     0.014 A 
ATOM     36  C   UNL A   1      35.678  34.235  28.802  1.00  0.00     0.014 A 
ATOM     37  C   UNL A   1      35.222  32.040  30.467  1.00  0.00     0.010 A 
ATOM     38  C   UNL A   1      36.754  33.504  29.292  1.00  0.00     0.010 A 
ATOM     39  C   UNL A   1      36.538  32.411  30.144  1.00  0.00    -0.014 A 
BRANCH  39  40
ATOM     40  C   UNL A   1      37.702  31.693  30.721  1.00  0.00     0.031 A 
ATOM     41  C   UNL A   1      38.153  32.008  32.123  1.00  0.00     0.074 A 
ATOM     42  C   UNL A   1      38.378  30.798  29.976  1.00  0.00     0.049 A 
ATOM     43  N   UNL A   1      39.182  31.544  32.784  1.00  0.00    -0.248 NA
ATOM     44  C   UNL A   1      37.355  32.994  32.870  1.00  0.00     0.031 C 
ATOM     45  C   UNL A   1      38.058  30.429  28.596  1.00  0.00     0.029 A 
ATOM     46  N   UNL A   1      39.479  30.035  30.277  1.00  0.00    -0.354 N 
ATOM     47  C   UNL A   1      39.158  32.186  34.017  1.00  0.00     0.074 A 
ATOM     48  C   UNL A   1      38.054  33.120  33.987  1.00  0.00     0.031 C 
ATOM     49  C   UNL A   1      38.925  29.492  28.180  1.00  0.00     0.029 A 
ATOM     50  C   UNL A   1      39.886  29.224  29.245  1.00  0.00     0.049 A 
ATOM     51  H   UNL A   1      39.933  30.067  31.150  1.00  0.00     0.167 HD
ATOM     52  C   UNL A   1      39.962  31.994  35.089  1.00  0.00     0.037 A 
ATOM     53  C   UNL A   1      40.921  28.366  29.170  1.00  0.00     0.037 A 
ATOM     54  C   UNL A   1      41.049  31.051  35.123  1.00  0.00     0.049 A 
ATOM     55  C   UNL A   1      41.819  28.195  30.366  1.00  0.00     0.074 A 
ATOM     56  C   UNL A   1      41.906  30.761  36.169  1.00  0.00     0.029 A 
ATOM     57  N   UNL A   1      41.424  30.242  34.060  1.00  0.00    -0.354 N 
ATOM     58  N   UNL A   1      41.754  28.773  31.541  1.00  0.00    -0.248 NA
ATOM     59  C   UNL A   1      42.931  27.245  30.226  1.00  0.00     0.031 C 
ATOM     60  C   UNL A   1      42.828  29.807  35.726  1.00  0.00     0.029 A 
ATOM     61  C   UNL A   1      42.509  29.461  34.423  1.00  0.00     0.049 A 
ATOM     62  H   UNL A   1      40.984  30.225  33.180  1.00  0.00     0.167 HD
ATOM     63  C   UNL A   1      42.785  28.223  32.293  1.00  0.00     0.074 A 
ATOM     64  C   UNL A   1      43.454  27.260  31.443  1.00  0.00     0.031 C 
ATOM     65  C   UNL A   1      43.145  28.488  33.573  1.00  0.00     0.037 A 
BRANCH  52  66
ATOM     66  C   UNL A   1      39.688  32.812  36.318  1.00  0.00     0.057 A 
ATOM     67  C   UNL A   1      40.373  34.006  36.577  1.00  0.00     0.134 A 
ATOM     68  C   UNL A   1      38.703  32.423  37.235  1.00  0.00     0.134 A 
ATOM     69  F   UNL A   1      41.339  34.430  35.746  1.00  0.00    -0.206 F 
ATOM     70  C   UNL A   1      40.108  34.771  37.714  1.00  0.00     0.040 A 
ATOM     71  C   UNL A   1      38.407  33.195  38.360  1.00  0.00     0.040 A 
ATOM     72  F   UNL A   1      38.004  31.293  37.047  1.00  0.00    -0.206 F 
ATOM     73  C   UNL A   1      39.115  34.369  38.605  1.00  0.00     0.006 A 
ENDBRANCH  52  66
BRANCH  53  74
ATOM     74  C   UNL A   1      41.160  27.581  27.931  1.00  0.00     0.057 A 
ATOM     75  C   UNL A   1      41.910  28.111  26.874  1.00  0.00     0.134 A 
ATOM     76  C   UNL A   1      40.612  26.304  27.753  1.00  0.00     0.134 A 
ATOM     77  F   UNL A   1      42.447  29.335  26.976  1.00  0.00    -0.206 F 
ATOM     78  C   UNL A   1      42.078  27.419  25.674  1.00  0.00     0.040 A 
ATOM     79  C   UNL A   1      40.797  25.588  26.570  1.00  0.00     0.040 A 
ATOM     80  F   UNL A   1      39.893  25.733  28.730  1.00  0.00    -0.206 F 
ATOM     81  C   UNL A   1      41.521  26.151  25.521  1.00  0.00     0.006 A 
ENDBRANCH  53  74
BRANCH  65  82
ATOM     82  C   UNL A   1      44.268  27.679  34.155  1.00  0.00     0.057 A 
ATOM     83  C   UNL A   1      44.059  26.427  34.746  1.00  0.00     0.134 A 
ATOM     84  C   UNL A   1      45.586  28.152  34.090  1.00  0.00     0.134 A 
ATOM     85  F   UNL A   1      42.821  25.922  34.850  1.00  0.00    -0.206 F 
ATOM     86  C   UNL A   1      45.116  25.687  35.279  1.00  0.00     0.040 A 
ATOM     87  C   UNL A   1      46.655  27.406  34.590  1.00  0.00     0.040 A 
ATOM     88  F   UNL A   1      45.858  29.339  33.528  1.00  0.00    -0.206 F 
ATOM     89  C   UNL A   1      46.419  26.174  35.194  1.00  0.00     0.006 A 
ENDBRANCH  65  82
ENDBRANCH  39  40
ENDBRANCH  31  34
ENDBRANCH  29  30
ENDBRANCH  28  29
ENDBRANCH  27  28
ENDBRANCH   1  27
TORSDOF 17
ENDMDL
MODEL 2
REMARK VINA RESULT:     -11.8      1.378      2.310
REMARK SMILES CC[C@]1(C(=O)NCCCCCCNC(=O)c2ccc(-c3c4nc(c(-c5c(F)cccc5F)c5ccc([nH]5)c(-c5c(F)cccc5F)c5nc(c(-c6c(F)cccc6F)c6ccc3[nH]6)C=C5)C=C4)cc2)CCC[N@@H+](Cc2cc(OC)ccc2F)C1
REMARK SMILES IDX 9 1 8 2 7 3 6 4 4 5 5 6 3 8 70 9 84 10 71 11 73 12 72 13
REMARK SMILES IDX 2 15 1 16 74 17 75 18 76 19 82 20 77 21 81 22 83 23 80 24
REMARK SMILES IDX 78 25 79 26 10 27 11 28 12 29 13 30 14 31 15 33 16 34 17 35
REMARK SMILES IDX 69 36 18 37 68 38 19 39 20 40 21 41 62 42 22 43 67 44 61 45
REMARK SMILES IDX 63 46 23 47 66 48 60 49 59 50 24 52 50 53 33 54 49 55 34 56
REMARK SMILES IDX 37 57 48 58 64 59 35 60 36 61 47 63 65 64 38 65 25 66 26 67
REMARK SMILES IDX 31 68 27 69 28 70 30 71 32 72 29 73 51 74 52 75 57 76 53 77
REMARK SMILES IDX 54 78 56 79 58 80 55 81 39 82 40 83 45 84 41 85 42 86 44 87
REMARK SMILES IDX 46 88 43 89
REMARK H PARENT 6 7 73 14 13 32 63 51 37 62
REMARK Flexibility Score: inf
ROOT
ATOM      1  C   UNL A   1      32.819  30.101  27.204  1.00  0.00     0.002 C 
ENDROOT
BRANCH   1   2
ATOM      2  C   UNL A   1      32.833  28.569  27.227  1.00  0.00     0.021 C 
BRANCH   2   3
ATOM      3  C   UNL A   1      32.090  27.938  26.057  1.00  0.00     0.116 C 
BRANCH   3   4
ATOM      4  N   UNL A   1      31.055  27.037  26.539  1.00  0.00    -0.355 N 
ATOM      5  C   UNL A   1      30.609  25.825  26.105  1.00  0.00     0.231 C 
ATOM      6  O   UNL A   1      29.563  25.436  26.631  1.00  0.00    -0.274 OA
ATOM      7  H   UNL A   1      30.584  27.369  27.337  1.00  0.00     0.163 HD
BRANCH   5   8
ATOM      8  C   UNL A   1      31.356  25.002  25.027  1.00  0.00     0.098 C 
ATOM      9  C   UNL A   1      31.226  25.731  23.664  1.00  0.00     0.028 C 
ATOM     10  C   UNL A   1      32.840  24.862  25.469  1.00  0.00     0.279 C 
ATOM     11  C   UNL A   1      32.297  25.312  22.660  1.00  0.00     0.063 C 
ATOM     12  N   UNL A   1      33.824  24.536  24.427  1.00  0.00    -0.330 N 
ATOM     13  C   UNL A   1      33.706  25.394  23.250  1.00  0.00     0.262 C 
ATOM     14  H   UNL A   1      33.598  23.595  24.101  1.00  0.00     0.348 HD
BRANCH   8  15
ATOM     15  C   UNL A   1      30.717  23.584  24.852  1.00  0.00     0.019 C 
ATOM     16  C   UNL A   1      31.169  22.483  25.813  1.00  0.00     0.005 C 
ENDBRANCH   8  15
BRANCH  12  17
ATOM     17  C   UNL A   1      35.207  24.456  24.959  1.00  0.00     0.302 C 
BRANCH  17  18
ATOM     18  C   UNL A   1      35.903  23.104  24.978  1.00  0.00     0.046 A 
ATOM     19  C   UNL A   1      35.175  21.914  24.797  1.00  0.00     0.059 A 
ATOM     20  C   UNL A   1      37.272  22.982  25.246  1.00  0.00     0.132 A 
ATOM     21  C   UNL A   1      35.808  20.662  24.856  1.00  0.00     0.119 A 
ATOM     22  C   UNL A   1      37.924  21.752  25.199  1.00  0.00     0.043 A 
ATOM     23  F   UNL A   1      38.001  24.057  25.572  1.00  0.00    -0.206 F 
ATOM     24  C   UNL A   1      37.194  20.588  24.991  1.00  0.00     0.049 A 
BRANCH  21  25
ATOM     25  O   UNL A   1      34.983  19.571  24.779  1.00  0.00    -0.497 OA
ATOM     26  C   UNL A   1      33.613  19.824  25.089  1.00  0.00     0.278 C 
ENDBRANCH  21  25
ENDBRANCH  17  18
ENDBRANCH  12  17
ENDBRANCH   5   8
ENDBRANCH   3   4
ENDBRANCH   2   3
ENDBRANCH   1   2
BRANCH   1  27
ATOM     27  C   UNL A   1      31.573  30.720  26.560  1.00  0.00     0.002 C 
BRANCH  27  28
ATOM     28  C   UNL A   1      31.437  32.232  26.750  1.00  0.00     0.021 C 
BRANCH  28  29
ATOM     29  C   UNL A   1      32.751  32.948  27.034  1.00  0.00     0.116 C 
BRANCH  29  30
ATOM     30  N   UNL A   1      32.545  34.235  27.678  1.00  0.00    -0.352 N 
ATOM     31  C   UNL A   1      33.150  34.744  28.796  1.00  0.00     0.251 C 
ATOM     32  H   UNL A   1      31.880  34.821  27.250  1.00  0.00     0.163 HD
ATOM     33  O   UNL A   1      32.724  35.771  29.320  1.00  0.00    -0.269 OA
BRANCH  31  34
ATOM     34  C   UNL A   1      34.307  34.040  29.385  1.00  0.00     0.039 A 
ATOM     35  C   UNL A   1      34.080  33.035  30.326  1.00  0.00     0.014 A 
ATOM     36  C   UNL A   1      35.611  34.377  29.012  1.00  0.00     0.014 A 
ATOM     37  C   UNL A   1      35.162  32.338  30.866  1.00  0.00     0.010 A 
ATOM     38  C   UNL A   1      36.681  33.627  29.487  1.00  0.00     0.010 A 
ATOM     39  C   UNL A   1      36.469  32.612  30.432  1.00  0.00    -0.014 A 
BRANCH  39  40
ATOM     40  C   UNL A   1      37.634  31.877  30.988  1.00  0.00     0.031 A 
ATOM     41  C   UNL A   1      38.121  32.191  32.377  1.00  0.00     0.074 A 
ATOM     42  C   UNL A   1      38.276  30.966  30.233  1.00  0.00     0.049 A 
ATOM     43  N   UNL A   1      39.156  31.713  33.018  1.00  0.00    -0.248 NA
ATOM     44  C   UNL A   1      37.357  33.196  33.136  1.00  0.00     0.031 C 
ATOM     45  C   UNL A   1      37.920  30.595  28.863  1.00  0.00     0.029 A 
ATOM     46  N   UNL A   1      39.370  30.186  30.514  1.00  0.00    -0.354 N 
ATOM     47  C   UNL A   1      39.170  32.362  34.247  1.00  0.00     0.074 A 
ATOM     48  C   UNL A   1      38.083  33.315  34.237  1.00  0.00     0.031 C 
ATOM     49  C   UNL A   1      38.760  29.640  28.433  1.00  0.00     0.029 A 
ATOM     50  C   UNL A   1      39.740  29.362  29.478  1.00  0.00     0.049 A 
ATOM     51  H   UNL A   1      39.844  30.214  31.376  1.00  0.00     0.167 HD
ATOM     52  C   UNL A   1      39.995  32.161  35.303  1.00  0.00     0.037 A 
ATOM     53  C   UNL A   1      40.757  28.485  29.385  1.00  0.00     0.037 A 
ATOM     54  C   UNL A   1      41.065  31.199  35.318  1.00  0.00     0.049 A 
ATOM     55  C   UNL A   1      41.679  28.305  30.561  1.00  0.00     0.074 A 
ATOM     56  C   UNL A   1      41.941  30.900  36.347  1.00  0.00     0.029 A 
ATOM     57  N   UNL A   1      41.402  30.378  34.252  1.00  0.00    -0.354 N 
ATOM     58  N   UNL A   1      41.650  28.889  31.734  1.00  0.00    -0.248 NA
ATOM     59  C   UNL A   1      42.771  27.334  30.403  1.00  0.00     0.031 C 
ATOM     60  C   UNL A   1      42.836  29.927  35.889  1.00  0.00     0.029 A 
ATOM     61  C   UNL A   1      42.481  29.579  34.596  1.00  0.00     0.049 A 
ATOM     62  H   UNL A   1      40.943  30.364  33.382  1.00  0.00     0.167 HD
ATOM     63  C   UNL A   1      42.688  28.325  32.467  1.00  0.00     0.074 A 
ATOM     64  C   UNL A   1      43.320  27.346  31.608  1.00  0.00     0.031 C 
ATOM     65  C   UNL A   1      43.081  28.591  33.737  1.00  0.00     0.037 A 
BRANCH  52  66
ATOM     66  C   UNL A   1      39.762  32.990  36.532  1.00  0.00     0.057 A 
ATOM     67  C   UNL A   1      40.458  34.186  36.758  1.00  0.00     0.134 A 
ATOM     68  C   UNL A   1      38.808  32.612  37.485  1.00  0.00     0.134 A 
ATOM     69  F   UNL A   1      41.396  34.601  35.893  1.00  0.00    -0.206 F 
ATOM     70  C   UNL A   1      40.231  34.961  37.896  1.00  0.00     0.040 A 
ATOM     71  C   UNL A   1      38.550  33.394  38.612  1.00  0.00     0.040 A 
ATOM     72  F   UNL A   1      38.101  31.481  37.330  1.00  0.00    -0.206 F 
ATOM     73  C   UNL A   1      39.268  34.569  38.823  1.00  0.00     0.006 A 
ENDBRANCH  52  66
BRANCH  53  74
ATOM     74  C   UNL A   1      40.955  27.688  28.146  1.00  0.00     0.057 A 
ATOM     75  C   UNL A   1      41.715  28.188  27.081  1.00  0.00     0.134 A 
ATOM     76  C   UNL A   1      40.358  26.433  27.976  1.00  0.00     0.134 A 
ATOM     77  F   UNL A   1      42.299  29.391  27.175  1.00  0.00    -0.206 F 
ATOM     78  C   UNL A   1      41.846  27.487  25.881  1.00  0.00     0.040 A 
ATOM     79  C   UNL A   1      40.504  25.709  26.792  1.00  0.00     0.040 A 
ATOM     80  F   UNL A   1      39.626  25.892  28.960  1.00  0.00    -0.206 F 
ATOM     81  C   UNL A   1      41.239  26.241  25.735  1.00  0.00     0.006 A 
ENDBRANCH  53  74
BRANCH  65  82
ATOM     82  C   UNL A   1      44.202  27.766  34.298  1.00  0.00     0.057 A 
ATOM     83  C   UNL A   1      45.538  28.182  34.240  1.00  0.00     0.134 A 
ATOM     84  C   UNL A   1      43.931  26.547  34.937  1.00  0.00     0.134 A 
ATOM     85  F   UNL A   1      45.867  29.332  33.634  1.00  0.00    -0.206 F 
ATOM     86  C   UNL A   1      46.568  27.402  34.771  1.00  0.00     0.040 A 
ATOM     87  C   UNL A   1      44.949  25.775  35.499  1.00  0.00     0.040 A 
ATOM     88  F   UNL A   1      42.673  26.094  35.036  1.00  0.00    -0.206 F 
ATOM     89  C   UNL A   1      46.273  26.199  35.408  1.00  0.00     0.006 A 
ENDBRANCH  65  82
ENDBRANCH  39  40
ENDBRANCH  31  34
ENDBRANCH  29  30
ENDBRANCH  28  29
ENDBRANCH  27  28
ENDBRANCH   1  27
TORSDOF 17
ENDMDL
MODEL 3
REMARK VINA RESULT:     -11.8      1.646      2.706
REMARK SMILES CC[C@]1(C(=O)NCCCCCCNC(=O)c2ccc(-c3c4nc(c(-c5c(F)cccc5F)c5ccc([nH]5)c(-c5c(F)cccc5F)c5nc(c(-c6c(F)cccc6F)c6ccc3[nH]6)C=C5)C=C4)cc2)CCC[N@@H+](Cc2cc(OC)ccc2F)C1
REMARK SMILES IDX 9 1 8 2 7 3 6 4 4 5 5 6 3 8 70 9 84 10 71 11 73 12 72 13
REMARK SMILES IDX 2 15 1 16 74 17 75 18 76 19 82 20 77 21 81 22 83 23 80 24
REMARK SMILES IDX 78 25 79 26 10 27 11 28 12 29 13 30 14 31 15 33 16 34 17 35
REMARK SMILES IDX 69 36 18 37 68 38 19 39 20 40 21 41 62 42 22 43 67 44 61 45
REMARK SMILES IDX 63 46 23 47 66 48 60 49 59 50 24 52 50 53 33 54 49 55 34 56
REMARK SMILES IDX 37 57 48 58 64 59 35 60 36 61 47 63 65 64 38 65 25 66 26 67
REMARK SMILES IDX 31 68 27 69 28 70 30 71 32 72 29 73 51 74 52 75 57 76 53 77
REMARK SMILES IDX 54 78 56 79 58 80 55 81 39 82 40 83 45 84 41 85 42 86 44 87
REMARK SMILES IDX 46 88 43 89
REMARK H PARENT 6 7 73 14 13 32 63 51 37 62
REMARK Flexibility Score: inf
ROOT
ATOM      1  C   UNL A   1      32.935  30.212  27.225  1.00  0.00     0.002 C 
ENDROOT
BRANCH   1   2
ATOM      2  C   UNL A   1      33.023  28.686  27.320  1.00  0.00     0.021 C 
BRANCH   2   3
ATOM      3  C   UNL A   1      34.059  28.079  26.382  1.00  0.00     0.116 C 
BRANCH   3   4
ATOM      4  N   UNL A   1      34.067  28.784  25.111  1.00  0.00    -0.355 N 
ATOM      5  C   UNL A   1      33.667  28.434  23.857  1.00  0.00     0.231 C 
ATOM      6  O   UNL A   1      34.016  29.208  22.962  1.00  0.00    -0.274 OA
ATOM      7  H   UNL A   1      34.434  29.696  25.168  1.00  0.00     0.163 HD
BRANCH   5   8
ATOM      8  C   UNL A   1      32.841  27.154  23.576  1.00  0.00     0.098 C 
ATOM      9  C   UNL A   1      32.304  27.217  22.120  1.00  0.00     0.028 C 
ATOM     10  C   UNL A   1      33.765  25.924  23.799  1.00  0.00     0.279 C 
ATOM     11  C   UNL A   1      31.918  25.847  21.570  1.00  0.00     0.063 C 
ATOM     12  N   UNL A   1      33.366  24.659  23.167  1.00  0.00    -0.330 N 
ATOM     13  C   UNL A   1      33.032  24.815  21.753  1.00  0.00     0.262 C 
ATOM     14  H   UNL A   1      32.497  24.372  23.621  1.00  0.00     0.348 HD
BRANCH   8  15
ATOM     15  C   UNL A   1      31.596  27.063  24.520  1.00  0.00     0.019 C 
ATOM     16  C   UNL A   1      30.408  27.977  24.212  1.00  0.00     0.005 C 
ENDBRANCH   8  15
BRANCH  12  17
ATOM     17  C   UNL A   1      34.335  23.566  23.425  1.00  0.00     0.302 C 
BRANCH  17  18
ATOM     18  C   UNL A   1      34.072  22.617  24.583  1.00  0.00     0.046 A 
ATOM     19  C   UNL A   1      33.321  21.441  24.397  1.00  0.00     0.059 A 
ATOM     20  C   UNL A   1      34.496  22.906  25.886  1.00  0.00     0.132 A 
ATOM     21  C   UNL A   1      33.040  20.585  25.474  1.00  0.00     0.119 A 
ATOM     22  C   UNL A   1      34.313  22.009  26.936  1.00  0.00     0.043 A 
ATOM     23  F   UNL A   1      35.088  24.074  26.167  1.00  0.00    -0.206 F 
ATOM     24  C   UNL A   1      33.594  20.838  26.728  1.00  0.00     0.049 A 
BRANCH  21  25
ATOM     25  O   UNL A   1      32.207  19.532  25.199  1.00  0.00    -0.497 OA
ATOM     26  C   UNL A   1      32.505  18.824  23.995  1.00  0.00     0.278 C 
ENDBRANCH  21  25
ENDBRANCH  17  18
ENDBRANCH  12  17
ENDBRANCH   5   8
ENDBRANCH   3   4
ENDBRANCH   2   3
ENDBRANCH   1   2
BRANCH   1  27
ATOM     27  C   UNL A   1      31.604  30.744  26.681  1.00  0.00     0.002 C 
BRANCH  27  28
ATOM     28  C   UNL A   1      31.426  32.260  26.790  1.00  0.00     0.021 C 
BRANCH  28  29
ATOM     29  C   UNL A   1      32.728  33.032  26.969  1.00  0.00     0.116 C 
BRANCH  29  30
ATOM     30  N   UNL A   1      32.523  34.301  27.647  1.00  0.00    -0.352 N 
ATOM     31  C   UNL A   1      33.132  34.781  28.776  1.00  0.00     0.251 C 
ATOM     32  H   UNL A   1      31.855  34.897  27.238  1.00  0.00     0.163 HD
ATOM     33  O   UNL A   1      32.707  35.793  29.328  1.00  0.00    -0.269 OA
BRANCH  31  34
ATOM     34  C   UNL A   1      34.291  34.063  29.341  1.00  0.00     0.039 A 
ATOM     35  C   UNL A   1      34.069  33.030  30.253  1.00  0.00     0.014 A 
ATOM     36  C   UNL A   1      35.594  34.415  28.976  1.00  0.00     0.014 A 
ATOM     37  C   UNL A   1      35.154  32.319  30.769  1.00  0.00     0.010 A 
ATOM     38  C   UNL A   1      36.667  33.653  29.426  1.00  0.00     0.010 A 
ATOM     39  C   UNL A   1      36.460  32.610  30.341  1.00  0.00    -0.014 A 
BRANCH  39  40
ATOM     40  C   UNL A   1      37.627  31.862  30.873  1.00  0.00     0.031 A 
ATOM     41  C   UNL A   1      38.143  32.166  32.254  1.00  0.00     0.074 A 
ATOM     42  C   UNL A   1      38.247  30.948  30.103  1.00  0.00     0.049 A 
ATOM     43  N   UNL A   1      39.186  31.676  32.874  1.00  0.00    -0.248 NA
ATOM     44  C   UNL A   1      37.403  33.175  33.030  1.00  0.00     0.031 C 
ATOM     45  C   UNL A   1      37.862  30.585  28.738  1.00  0.00     0.029 A 
ATOM     46  N   UNL A   1      39.338  30.156  30.360  1.00  0.00    -0.354 N 
ATOM     47  C   UNL A   1      39.228  32.320  34.105  1.00  0.00     0.074 A 
ATOM     48  C   UNL A   1      38.151  33.283  34.118  1.00  0.00     0.031 C 
ATOM     49  C   UNL A   1      38.686  29.625  28.288  1.00  0.00     0.029 A 
ATOM     50  C   UNL A   1      39.681  29.333  29.315  1.00  0.00     0.049 A 
ATOM     51  H   UNL A   1      39.829  30.176  31.214  1.00  0.00     0.167 HD
ATOM     52  C   UNL A   1      40.071  32.107  35.144  1.00  0.00     0.037 A 
ATOM     53  C   UNL A   1      40.689  28.447  29.200  1.00  0.00     0.037 A 
ATOM     54  C   UNL A   1      41.132  31.135  35.136  1.00  0.00     0.049 A 
ATOM     55  C   UNL A   1      41.630  28.253  30.358  1.00  0.00     0.074 A 
ATOM     56  C   UNL A   1      42.023  30.823  36.147  1.00  0.00     0.029 A 
ATOM     57  N   UNL A   1      41.441  30.315  34.061  1.00  0.00    -0.354 N 
ATOM     58  N   UNL A   1      41.629  28.834  31.533  1.00  0.00    -0.248 NA
ATOM     59  C   UNL A   1      42.710  27.273  30.176  1.00  0.00     0.031 C 
ATOM     60  C   UNL A   1      42.900  29.844  35.669  1.00  0.00     0.029 A 
ATOM     61  C   UNL A   1      42.518  29.505  34.381  1.00  0.00     0.049 A 
ATOM     62  H   UNL A   1      40.966  30.309  33.199  1.00  0.00     0.167 HD
ATOM     63  C   UNL A   1      42.674  28.257  32.244  1.00  0.00     0.074 A 
ATOM     64  C   UNL A   1      43.281  27.275  31.371  1.00  0.00     0.031 C 
ATOM     65  C   UNL A   1      43.093  28.514  33.508  1.00  0.00     0.037 A 
BRANCH  52  66
ATOM     66  C   UNL A   1      39.869  32.934  36.381  1.00  0.00     0.057 A 
ATOM     67  C   UNL A   1      38.958  32.558  37.378  1.00  0.00     0.134 A 
ATOM     68  C   UNL A   1      40.615  34.099  36.597  1.00  0.00     0.134 A 
ATOM     69  F   UNL A   1      38.201  31.460  37.229  1.00  0.00    -0.206 F 
ATOM     70  C   UNL A   1      38.780  33.322  38.532  1.00  0.00     0.040 A 
ATOM     71  C   UNL A   1      40.468  34.855  37.761  1.00  0.00     0.040 A 
ATOM     72  F   UNL A   1      41.508  34.515  35.686  1.00  0.00    -0.206 F 
ATOM     73  C   UNL A   1      39.544  34.471  38.730  1.00  0.00     0.006 A 
ENDBRANCH  52  66
BRANCH  53  74
ATOM     74  C   UNL A   1      40.856  27.653  27.954  1.00  0.00     0.057 A 
ATOM     75  C   UNL A   1      40.286  26.381  27.827  1.00  0.00     0.134 A 
ATOM     76  C   UNL A   1      41.620  28.125  26.879  1.00  0.00     0.134 A 
ATOM     77  F   UNL A   1      39.557  25.866  28.828  1.00  0.00    -0.206 F 
ATOM     78  C   UNL A   1      40.498  25.591  26.697  1.00  0.00     0.040 A 
ATOM     79  C   UNL A   1      41.816  27.358  25.730  1.00  0.00     0.040 A 
ATOM     80  F   UNL A   1      42.184  29.340  26.930  1.00  0.00    -0.206 F 
ATOM     81  C   UNL A   1      41.265  26.081  25.642  1.00  0.00     0.006 A 
ENDBRANCH  53  74
BRANCH  65  82
ATOM     82  C   UNL A   1      44.217  27.676  34.045  1.00  0.00     0.057 A 
ATOM     83  C   UNL A   1      44.002  26.415  34.617  1.00  0.00     0.134 A 
ATOM     84  C   UNL A   1      45.540  28.129  33.958  1.00  0.00     0.134 A 
ATOM     85  F   UNL A   1      42.758  25.928  34.741  1.00  0.00    -0.206 F 
ATOM     86  C   UNL A   1      45.060  25.648  35.108  1.00  0.00     0.040 A 
ATOM     87  C   UNL A   1      46.609  27.357  34.416  1.00  0.00     0.040 A 
ATOM     88  F   UNL A   1      45.818  29.323  33.413  1.00  0.00    -0.206 F 
ATOM     89  C   UNL A   1      46.368  26.116  35.001  1.00  0.00     0.006 A 
ENDBRANCH  65  82
ENDBRANCH  39  40
ENDBRANCH  31  34
ENDBRANCH  29  30
ENDBRANCH  28  29
ENDBRANCH  27  28
ENDBRANCH   1  27
TORSDOF 17
ENDMDL
