MODEL 1
REMARK VINA RESULT:     -11.2      0.000      0.000
REMARK SMILES C[C@@H]1CN(C(=O)NC[C@@H]2CC[C@H](C(=O)NCCCCCCNC(=O)c3ccc(-c4c5nc(c(-c6c(F)cccc6F)c6ccc([nH]6)c(-c6c(F)cccc6F)c6nc(c(-c7c(F)cccc7F)c7ccc4[nH]7)C=C6)C=C5)cc3)O2)CC(C)(C)O1
REMARK SMILES IDX 18 1 17 2 16 3 15 4 13 5 14 6 12 8 9 9 10 10 79 11 11 12
REMARK SMILES IDX 8 13 7 14 5 15 6 16 4 18 1 19 2 20 3 21 84 22 81 23 80 24
REMARK SMILES IDX 82 25 83 26 19 27 20 28 21 29 22 30 23 31 24 33 25 34 26 35
REMARK SMILES IDX 78 36 27 37 77 38 28 39 29 40 30 41 71 42 31 43 76 44 70 45
REMARK SMILES IDX 72 46 32 47 75 48 69 49 68 50 33 52 59 53 42 54 58 55 43 56
REMARK SMILES IDX 46 57 57 58 73 59 44 60 45 61 56 63 74 64 47 65 34 66 35 67
REMARK SMILES IDX 40 68 36 69 37 70 39 71 41 72 38 73 60 74 61 75 66 76 62 77
REMARK SMILES IDX 63 78 65 79 67 80 64 81 48 82 49 83 54 84 50 85 51 86 53 87
REMARK SMILES IDX 55 88 52 89
REMARK H PARENT 15 7 7 17 22 32 72 51 46 62
REMARK Flexibility Score: inf
ROOT
ATOM      1  C   UNL A   1      34.933  32.586  28.036  1.00  0.00     0.002 C 
ENDROOT
BRANCH   1   2
ATOM      2  C   UNL A   1      34.558  31.106  28.149  1.00  0.00     0.021 C 
BRANCH   2   3
ATOM      3  C   UNL A   1      33.518  30.656  27.125  1.00  0.00     0.116 C 
BRANCH   3   4
ATOM      4  N   UNL A   1      34.063  29.758  26.133  1.00  0.00    -0.354 N 
ATOM      5  C   UNL A   1      33.421  28.785  25.423  1.00  0.00     0.249 C 
ATOM      6  O   UNL A   1      34.058  28.206  24.536  1.00  0.00    -0.272 OA
ATOM      7  H   UNL A   1      35.024  29.862  25.944  1.00  0.00     0.163 HD
BRANCH   5   8
ATOM      8  C   UNL A   1      31.977  28.349  25.769  1.00  0.00     0.207 C 
ATOM      9  C   UNL A   1      30.568  26.511  25.781  1.00  0.00     0.138 C 
ATOM     10  C   UNL A   1      30.435  27.115  24.393  1.00  0.00     0.037 C 
ATOM     11  O   UNL A   1      31.793  27.034  26.311  1.00  0.00    -0.363 OA
ATOM     12  C   UNL A   1      31.037  28.491  24.571  1.00  0.00     0.045 C 
BRANCH   9  13
ATOM     13  C   UNL A   1      30.492  24.974  25.818  1.00  0.00     0.149 C 
BRANCH  13  14
ATOM     14  N   UNL A   1      31.344  24.324  26.804  1.00  0.00    -0.335 N 
ATOM     15  C   UNL A   1      32.104  23.221  26.875  1.00  0.00     0.317 C 
ATOM     16  O   UNL A   1      32.468  22.933  28.021  1.00  0.00    -0.249 OA
ATOM     17  H   UNL A   1      31.368  24.832  27.647  1.00  0.00     0.165 HD
BRANCH  15  18
ATOM     18  N   UNL A   1      32.470  22.453  25.820  1.00  0.00    -0.319 N 
ATOM     19  C   UNL A   1      33.596  24.678  23.870  1.00  0.00     0.040 C 
ATOM     20  C   UNL A   1      33.397  23.179  23.660  1.00  0.00     0.135 C 
ATOM     21  C   UNL A   1      32.167  22.619  24.404  1.00  0.00     0.153 C 
ATOM     22  O   UNL A   1      34.602  22.437  23.922  1.00  0.00    -0.369 OA
ATOM     23  C   UNL A   1      34.871  22.082  25.297  1.00  0.00     0.081 C 
ATOM     24  C   UNL A   1      33.603  21.537  26.000  1.00  0.00     0.156 C 
ATOM     25  C   UNL A   1      35.499  23.255  26.060  1.00  0.00     0.044 C 
ATOM     26  C   UNL A   1      35.925  20.965  25.219  1.00  0.00     0.044 C 
ENDBRANCH  15  18
ENDBRANCH  13  14
ENDBRANCH   9  13
ENDBRANCH   5   8
ENDBRANCH   3   4
ENDBRANCH   2   3
ENDBRANCH   1   2
BRANCH   1  27
ATOM     27  C   UNL A   1      34.442  33.474  29.189  1.00  0.00     0.002 C 
BRANCH  27  28
ATOM     28  C   UNL A   1      33.275  34.405  28.853  1.00  0.00     0.021 C 
BRANCH  28  29
ATOM     29  C   UNL A   1      33.438  35.848  29.311  1.00  0.00     0.116 C 
BRANCH  29  30
ATOM     30  N   UNL A   1      32.590  36.163  30.449  1.00  0.00    -0.352 N 
ATOM     31  C   UNL A   1      32.675  35.751  31.754  1.00  0.00     0.251 C 
ATOM     32  H   UNL A   1      31.838  36.767  30.252  1.00  0.00     0.163 HD
ATOM     33  O   UNL A   1      31.745  35.962  32.526  1.00  0.00    -0.269 OA
BRANCH  31  34
ATOM     34  C   UNL A   1      33.879  35.040  32.238  1.00  0.00     0.039 A 
ATOM     35  C   UNL A   1      33.727  33.777  32.817  1.00  0.00     0.014 A 
ATOM     36  C   UNL A   1      35.147  35.623  32.152  1.00  0.00     0.014 A 
ATOM     37  C   UNL A   1      34.852  33.072  33.250  1.00  0.00     0.010 A 
ATOM     38  C   UNL A   1      36.274  34.891  32.522  1.00  0.00     0.010 A 
ATOM     39  C   UNL A   1      36.136  33.608  33.072  1.00  0.00    -0.014 A 
BRANCH  39  40
ATOM     40  C   UNL A   1      37.349  32.831  33.429  1.00  0.00     0.031 A 
ATOM     41  C   UNL A   1      38.105  33.136  34.691  1.00  0.00     0.074 A 
ATOM     42  C   UNL A   1      37.811  31.900  32.572  1.00  0.00     0.049 A 
ATOM     43  N   UNL A   1      39.226  32.620  35.127  1.00  0.00    -0.248 NA
ATOM     44  C   UNL A   1      37.540  34.175  35.567  1.00  0.00     0.031 C 
ATOM     45  C   UNL A   1      37.192  31.548  31.293  1.00  0.00     0.029 A 
ATOM     46  N   UNL A   1      38.917  31.090  32.641  1.00  0.00    -0.354 N 
ATOM     47  C   UNL A   1      39.507  33.278  36.318  1.00  0.00     0.074 A 
ATOM     48  C   UNL A   1      38.464  34.262  36.513  1.00  0.00     0.031 C 
ATOM     49  C   UNL A   1      37.917  30.583  30.705  1.00  0.00     0.029 A 
ATOM     50  C   UNL A   1      39.071  30.277  31.544  1.00  0.00     0.049 A 
ATOM     51  H   UNL A   1      39.540  31.092  33.403  1.00  0.00     0.167 HD
ATOM     52  C   UNL A   1      40.530  33.067  37.179  1.00  0.00     0.037 A 
ATOM     53  C   UNL A   1      40.042  29.395  31.241  1.00  0.00     0.037 A 
ATOM     54  C   UNL A   1      41.553  32.070  36.992  1.00  0.00     0.049 A 
ATOM     55  C   UNL A   1      41.176  29.191  32.206  1.00  0.00     0.074 A 
ATOM     56  C   UNL A   1      42.585  31.723  37.846  1.00  0.00     0.029 A 
ATOM     57  N   UNL A   1      41.674  31.264  35.870  1.00  0.00    -0.354 N 
ATOM     58  N   UNL A   1      41.388  29.766  33.363  1.00  0.00    -0.248 NA
ATOM     59  C   UNL A   1      42.206  28.217  31.819  1.00  0.00     0.031 C 
ATOM     60  C   UNL A   1      43.361  30.742  37.219  1.00  0.00     0.029 A 
ATOM     61  C   UNL A   1      42.786  30.446  35.993  1.00  0.00     0.049 A 
ATOM     62  H   UNL A   1      41.061  31.272  35.100  1.00  0.00     0.167 HD
ATOM     63  C   UNL A   1      42.566  29.218  33.851  1.00  0.00     0.074 A 
ATOM     64  C   UNL A   1      43.012  28.247  32.872  1.00  0.00     0.031 C 
ATOM     65  C   UNL A   1      43.222  29.494  35.005  1.00  0.00     0.037 A 
BRANCH  52  66
ATOM     66  C   UNL A   1      40.597  33.930  38.404  1.00  0.00     0.057 A 
ATOM     67  C   UNL A   1      39.904  33.604  39.577  1.00  0.00     0.134 A 
ATOM     68  C   UNL A   1      41.396  35.081  38.426  1.00  0.00     0.134 A 
ATOM     69  F   UNL A   1      39.113  32.519  39.620  1.00  0.00    -0.206 F 
ATOM     70  C   UNL A   1      39.982  34.402  40.720  1.00  0.00     0.040 A 
ATOM     71  C   UNL A   1      41.503  35.874  39.570  1.00  0.00     0.040 A 
ATOM     72  F   UNL A   1      42.091  35.448  37.340  1.00  0.00    -0.206 F 
ATOM     73  C   UNL A   1      40.790  35.538  40.720  1.00  0.00     0.006 A 
ENDBRANCH  52  66
BRANCH  53  74
ATOM     74  C   UNL A   1      39.978  28.633  29.969  1.00  0.00     0.057 A 
ATOM     75  C   UNL A   1      39.264  27.433  29.883  1.00  0.00     0.134 A 
ATOM     76  C   UNL A   1      40.622  29.087  28.812  1.00  0.00     0.134 A 
ATOM     77  F   UNL A   1      38.643  26.938  30.963  1.00  0.00    -0.206 F 
ATOM     78  C   UNL A   1      39.203  26.704  28.695  1.00  0.00     0.040 A 
ATOM     79  C   UNL A   1      40.550  28.380  27.611  1.00  0.00     0.040 A 
ATOM     80  F   UNL A   1      41.318  30.234  28.829  1.00  0.00    -0.206 F 
ATOM     81  C   UNL A   1      39.843  27.181  27.552  1.00  0.00     0.006 A 
ENDBRANCH  53  74
BRANCH  65  82
ATOM     82  C   UNL A   1      44.488  28.736  35.270  1.00  0.00     0.057 A 
ATOM     83  C   UNL A   1      45.739  29.248  34.904  1.00  0.00     0.134 A 
ATOM     84  C   UNL A   1      44.461  27.503  35.933  1.00  0.00     0.134 A 
ATOM     85  F   UNL A   1      45.831  30.417  34.251  1.00  0.00    -0.206 F 
ATOM     86  C   UNL A   1      46.919  28.551  35.173  1.00  0.00     0.040 A 
ATOM     87  C   UNL A   1      45.635  26.810  36.230  1.00  0.00     0.040 A 
ATOM     88  F   UNL A   1      43.296  26.961  36.317  1.00  0.00    -0.206 F 
ATOM     89  C   UNL A   1      46.867  27.332  35.845  1.00  0.00     0.006 A 
ENDBRANCH  65  82
ENDBRANCH  39  40
ENDBRANCH  31  34
ENDBRANCH  29  30
ENDBRANCH  28  29
ENDBRANCH  27  28
ENDBRANCH   1  27
TORSDOF 16
ENDMDL
MODEL 2
REMARK VINA RESULT:     -11.1      5.772     10.687
REMARK SMILES C[C@@H]1CN(C(=O)NC[C@@H]2CC[C@H](C(=O)NCCCCCCNC(=O)c3ccc(-c4c5nc(c(-c6c(F)cccc6F)c6ccc([nH]6)c(-c6c(F)cccc6F)c6nc(c(-c7c(F)cccc7F)c7ccc4[nH]7)C=C6)C=C5)cc3)O2)CC(C)(C)O1
REMARK SMILES IDX 18 1 17 2 16 3 15 4 13 5 14 6 12 8 9 9 10 10 79 11 11 12
REMARK SMILES IDX 8 13 7 14 5 15 6 16 4 18 1 19 2 20 3 21 84 22 81 23 80 24
REMARK SMILES IDX 82 25 83 26 19 27 20 28 21 29 22 30 23 31 24 33 25 34 26 35
REMARK SMILES IDX 78 36 27 37 77 38 28 39 29 40 30 41 71 42 31 43 76 44 70 45
REMARK SMILES IDX 72 46 32 47 75 48 69 49 68 50 33 52 59 53 42 54 58 55 43 56
REMARK SMILES IDX 46 57 57 58 73 59 44 60 45 61 56 63 74 64 47 65 34 66 35 67
REMARK SMILES IDX 40 68 36 69 37 70 39 71 41 72 38 73 60 74 61 75 66 76 62 77
REMARK SMILES IDX 63 78 65 79 67 80 64 81 48 82 49 83 54 84 50 85 51 86 53 87
REMARK SMILES IDX 55 88 52 89
REMARK H PARENT 15 7 7 17 22 32 72 51 46 62
REMARK Flexibility Score: inf
ROOT
ATOM      1  C   UNL A   1      37.065  21.882  24.347  1.00  0.00     0.002 C 
ENDROOT
BRANCH   1   2
ATOM      2  C   UNL A   1      37.248  23.048  25.323  1.00  0.00     0.021 C 
BRANCH   2   3
ATOM      3  C   UNL A   1      36.047  23.988  25.389  1.00  0.00     0.116 C 
BRANCH   3   4
ATOM      4  N   UNL A   1      34.949  23.441  26.153  1.00  0.00    -0.354 N 
ATOM      5  C   UNL A   1      33.779  22.907  25.697  1.00  0.00     0.249 C 
ATOM      6  O   UNL A   1      33.022  22.389  26.525  1.00  0.00    -0.272 OA
ATOM      7  H   UNL A   1      35.060  23.455  27.131  1.00  0.00     0.163 HD
BRANCH   5   8
ATOM      8  C   UNL A   1      33.361  23.022  24.211  1.00  0.00     0.207 C 
ATOM      9  C   UNL A   1      32.290  24.424  22.709  1.00  0.00     0.138 C 
ATOM     10  C   UNL A   1      31.192  23.572  23.323  1.00  0.00     0.037 C 
ATOM     11  O   UNL A   1      33.402  24.324  23.610  1.00  0.00    -0.363 OA
ATOM     12  C   UNL A   1      31.967  22.443  23.965  1.00  0.00     0.045 C 
BRANCH   9  13
ATOM     13  C   UNL A   1      31.878  25.874  22.405  1.00  0.00     0.149 C 
BRANCH  13  14
ATOM     14  N   UNL A   1      32.914  26.879  22.597  1.00  0.00    -0.335 N 
ATOM     15  C   UNL A   1      33.047  28.048  23.240  1.00  0.00     0.317 C 
ATOM     16  O   UNL A   1      34.056  28.688  22.922  1.00  0.00    -0.249 OA
ATOM     17  H   UNL A   1      33.744  26.632  22.127  1.00  0.00     0.165 HD
BRANCH  15  18
ATOM     18  N   UNL A   1      32.182  28.535  24.165  1.00  0.00    -0.319 N 
ATOM     19  C   UNL A   1      32.222  26.172  26.270  1.00  0.00     0.040 C 
ATOM     20  C   UNL A   1      31.387  27.449  26.223  1.00  0.00     0.135 C 
ATOM     21  C   UNL A   1      31.033  27.892  24.788  1.00  0.00     0.153 C 
ATOM     22  O   UNL A   1      31.973  28.500  27.011  1.00  0.00    -0.369 OA
ATOM     23  C   UNL A   1      33.001  29.299  26.384  1.00  0.00     0.081 C 
ATOM     24  C   UNL A   1      32.602  29.707  24.944  1.00  0.00     0.156 C 
ATOM     25  C   UNL A   1      34.360  28.589  26.430  1.00  0.00     0.044 C 
ATOM     26  C   UNL A   1      33.110  30.561  27.254  1.00  0.00     0.044 C 
ENDBRANCH  15  18
ENDBRANCH  13  14
ENDBRANCH   9  13
ENDBRANCH   5   8
ENDBRANCH   3   4
ENDBRANCH   2   3
ENDBRANCH   1   2
BRANCH   1  27
ATOM     27  C   UNL A   1      36.860  20.508  25.001  1.00  0.00     0.002 C 
BRANCH  27  28
ATOM     28  C   UNL A   1      38.078  19.582  24.983  1.00  0.00     0.021 C 
BRANCH  28  29
ATOM     29  C   UNL A   1      39.227  19.999  25.891  1.00  0.00     0.116 C 
BRANCH  29  30
ATOM     30  N   UNL A   1      40.282  19.000  25.938  1.00  0.00    -0.352 N 
ATOM     31  C   UNL A   1      41.639  19.154  26.060  1.00  0.00     0.251 C 
ATOM     32  H   UNL A   1      39.973  18.067  25.874  1.00  0.00     0.163 HD
ATOM     33  O   UNL A   1      42.384  18.197  25.874  1.00  0.00    -0.269 OA
BRANCH  31  34
ATOM     34  C   UNL A   1      42.215  20.473  26.401  1.00  0.00     0.039 A 
ATOM     35  C   UNL A   1      42.730  21.268  25.373  1.00  0.00     0.014 A 
ATOM     36  C   UNL A   1      42.277  20.915  27.726  1.00  0.00     0.014 A 
ATOM     37  C   UNL A   1      43.249  22.531  25.665  1.00  0.00     0.010 A 
ATOM     38  C   UNL A   1      42.732  22.201  28.008  1.00  0.00     0.010 A 
ATOM     39  C   UNL A   1      43.219  23.022  26.980  1.00  0.00    -0.014 A 
BRANCH  39  40
ATOM     40  C   UNL A   1      43.667  24.401  27.295  1.00  0.00     0.031 A 
ATOM     41  C   UNL A   1      42.673  25.451  27.703  1.00  0.00     0.074 A 
ATOM     42  C   UNL A   1      44.966  24.723  27.139  1.00  0.00     0.049 A 
ATOM     43  N   UNL A   1      42.866  26.724  27.938  1.00  0.00    -0.248 NA
ATOM     44  C   UNL A   1      41.273  25.020  27.840  1.00  0.00     0.031 C 
ATOM     45  C   UNL A   1      46.018  23.803  26.702  1.00  0.00     0.029 A 
ATOM     46  N   UNL A   1      45.619  25.917  27.315  1.00  0.00    -0.354 N 
ATOM     47  C   UNL A   1      41.615  27.248  28.237  1.00  0.00     0.074 A 
ATOM     48  C   UNL A   1      40.663  26.165  28.109  1.00  0.00     0.031 C 
ATOM     49  C   UNL A   1      47.187  24.461  26.660  1.00  0.00     0.029 A 
ATOM     50  C   UNL A   1      46.961  25.856  27.026  1.00  0.00     0.049 A 
ATOM     51  H   UNL A   1      45.170  26.738  27.618  1.00  0.00     0.167 HD
ATOM     52  C   UNL A   1      41.294  28.510  28.604  1.00  0.00     0.037 A 
ATOM     53  C   UNL A   1      47.902  26.819  27.040  1.00  0.00     0.037 A 
ATOM     54  C   UNL A   1      42.248  29.578  28.753  1.00  0.00     0.049 A 
ATOM     55  C   UNL A   1      47.516  28.217  27.435  1.00  0.00     0.074 A 
ATOM     56  C   UNL A   1      42.033  30.871  29.199  1.00  0.00     0.029 A 
ATOM     57  N   UNL A   1      43.599  29.478  28.454  1.00  0.00    -0.354 N 
ATOM     58  N   UNL A   1      46.342  28.680  27.788  1.00  0.00    -0.248 NA
ATOM     59  C   UNL A   1      48.585  29.225  27.429  1.00  0.00     0.031 C 
ATOM     60  C   UNL A   1      43.245  31.567  29.122  1.00  0.00     0.029 A 
ATOM     61  C   UNL A   1      44.223  30.695  28.671  1.00  0.00     0.049 A 
ATOM     62  H   UNL A   1      44.047  28.661  28.135  1.00  0.00     0.167 HD
ATOM     63  C   UNL A   1      46.531  30.028  28.060  1.00  0.00     0.074 A 
ATOM     64  C   UNL A   1      47.938  30.304  27.850  1.00  0.00     0.031 C 
ATOM     65  C   UNL A   1      45.621  30.956  28.446  1.00  0.00     0.037 A 
BRANCH  52  66
ATOM     66  C   UNL A   1      39.847  28.809  28.872  1.00  0.00     0.057 A 
ATOM     67  C   UNL A   1      39.295  28.698  30.154  1.00  0.00     0.134 A 
ATOM     68  C   UNL A   1      39.006  29.253  27.843  1.00  0.00     0.134 A 
ATOM     69  F   UNL A   1      40.044  28.269  31.183  1.00  0.00    -0.206 F 
ATOM     70  C   UNL A   1      37.952  28.993  30.400  1.00  0.00     0.040 A 
ATOM     71  C   UNL A   1      37.669  29.575  28.081  1.00  0.00     0.040 A 
ATOM     72  F   UNL A   1      39.473  29.388  26.593  1.00  0.00    -0.206 F 
ATOM     73  C   UNL A   1      37.137  29.440  29.362  1.00  0.00     0.006 A 
ENDBRANCH  52  66
BRANCH  53  74
ATOM     74  C   UNL A   1      49.302  26.491  26.675  1.00  0.00     0.057 A 
ATOM     75  C   UNL A   1      50.199  25.998  27.629  1.00  0.00     0.134 A 
ATOM     76  C   UNL A   1      49.774  26.655  25.367  1.00  0.00     0.134 A 
ATOM     77  F   UNL A   1      49.810  25.838  28.901  1.00  0.00    -0.206 F 
ATOM     78  C   UNL A   1      51.521  25.693  27.300  1.00  0.00     0.040 A 
ATOM     79  C   UNL A   1      51.086  26.332  25.018  1.00  0.00     0.040 A 
ATOM     80  F   UNL A   1      48.961  27.118  24.406  1.00  0.00    -0.206 F 
ATOM     81  C   UNL A   1      51.965  25.854  25.988  1.00  0.00     0.006 A 
ENDBRANCH  53  74
BRANCH  65  82
ATOM     82  C   UNL A   1      46.120  32.352  28.667  1.00  0.00     0.057 A 
ATOM     83  C   UNL A   1      46.100  33.308  27.644  1.00  0.00     0.134 A 
ATOM     84  C   UNL A   1      46.587  32.757  29.924  1.00  0.00     0.134 A 
ATOM     85  F   UNL A   1      45.680  32.979  26.413  1.00  0.00    -0.206 F 
ATOM     86  C   UNL A   1      46.544  34.615  27.859  1.00  0.00     0.040 A 
ATOM     87  C   UNL A   1      47.009  34.066  30.157  1.00  0.00     0.040 A 
ATOM     88  F   UNL A   1      46.625  31.891  30.948  1.00  0.00    -0.206 F 
ATOM     89  C   UNL A   1      46.992  34.997  29.122  1.00  0.00     0.006 A 
ENDBRANCH  65  82
ENDBRANCH  39  40
ENDBRANCH  31  34
ENDBRANCH  29  30
ENDBRANCH  28  29
ENDBRANCH  27  28
ENDBRANCH   1  27
TORSDOF 16
ENDMDL
MODEL 3
REMARK VINA RESULT:     -11.1      4.673     10.049
REMARK SMILES C[C@@H]1CN(C(=O)NC[C@@H]2CC[C@H](C(=O)NCCCCCCNC(=O)c3ccc(-c4c5nc(c(-c6c(F)cccc6F)c6ccc([nH]6)c(-c6c(F)cccc6F)c6nc(c(-c7c(F)cccc7F)c7ccc4[nH]7)C=C6)C=C5)cc3)O2)CC(C)(C)O1
REMARK SMILES IDX 18 1 17 2 16 3 15 4 13 5 14 6 12 8 9 9 10 10 79 11 11 12
REMARK SMILES IDX 8 13 7 14 5 15 6 16 4 18 1 19 2 20 3 21 84 22 81 23 80 24
REMARK SMILES IDX 82 25 83 26 19 27 20 28 21 29 22 30 23 31 24 33 25 34 26 35
REMARK SMILES IDX 78 36 27 37 77 38 28 39 29 40 30 41 71 42 31 43 76 44 70 45
REMARK SMILES IDX 72 46 32 47 75 48 69 49 68 50 33 52 59 53 42 54 58 55 43 56
REMARK SMILES IDX 46 57 57 58 73 59 44 60 45 61 56 63 74 64 47 65 34 66 35 67
REMARK SMILES IDX 40 68 36 69 37 70 39 71 41 72 38 73 60 74 61 75 66 76 62 77
REMARK SMILES IDX 63 78 65 79 67 80 64 81 48 82 49 83 54 84 50 85 51 86 53 87
REMARK SMILES IDX 55 88 52 89
REMARK H PARENT 15 7 7 17 22 32 72 51 46 62
REMARK Flexibility Score: inf
ROOT
ATOM      1  C   UNL A   1      37.654  21.804  24.605  1.00  0.00     0.002 C 
ENDROOT
BRANCH   1   2
ATOM      2  C   UNL A   1      37.813  22.729  25.815  1.00  0.00     0.021 C 
BRANCH   2   3
ATOM      3  C   UNL A   1      36.571  23.566  26.115  1.00  0.00     0.116 C 
BRANCH   3   4
ATOM      4  N   UNL A   1      35.576  22.839  26.868  1.00  0.00    -0.354 N 
ATOM      5  C   UNL A   1      34.496  22.146  26.403  1.00  0.00     0.249 C 
ATOM      6  O   UNL A   1      33.833  21.499  27.220  1.00  0.00    -0.272 OA
ATOM      7  H   UNL A   1      35.691  22.845  27.847  1.00  0.00     0.163 HD
BRANCH   5   8
ATOM      8  C   UNL A   1      34.053  22.235  24.923  1.00  0.00     0.207 C 
ATOM      9  C   UNL A   1      32.239  22.750  23.577  1.00  0.00     0.138 C 
ATOM     10  C   UNL A   1      32.096  21.273  23.904  1.00  0.00     0.037 C 
ATOM     11  O   UNL A   1      33.134  23.277  24.567  1.00  0.00    -0.363 OA
ATOM     12  C   UNL A   1      33.471  20.913  24.423  1.00  0.00     0.045 C 
BRANCH   9  13
ATOM     13  C   UNL A   1      30.907  23.515  23.487  1.00  0.00     0.149 C 
BRANCH  13  14
ATOM     14  N   UNL A   1      30.959  24.792  22.789  1.00  0.00    -0.335 N 
ATOM     15  C   UNL A   1      31.456  26.018  23.011  1.00  0.00     0.317 C 
ATOM     16  O   UNL A   1      31.045  26.879  22.225  1.00  0.00    -0.249 OA
ATOM     17  H   UNL A   1      30.507  24.742  21.916  1.00  0.00     0.165 HD
BRANCH  15  18
ATOM     18  N   UNL A   1      32.332  26.341  23.994  1.00  0.00    -0.319 N 
ATOM     19  C   UNL A   1      33.707  28.885  22.709  1.00  0.00     0.040 C 
ATOM     20  C   UNL A   1      34.008  28.141  24.007  1.00  0.00     0.135 C 
ATOM     21  C   UNL A   1      33.759  26.621  23.909  1.00  0.00     0.153 C 
ATOM     22  O   UNL A   1      33.356  28.748  25.136  1.00  0.00    -0.369 OA
ATOM     23  C   UNL A   1      31.983  28.372  25.385  1.00  0.00     0.081 C 
ATOM     24  C   UNL A   1      31.785  26.840  25.263  1.00  0.00     0.156 C 
ATOM     25  C   UNL A   1      31.021  29.155  24.482  1.00  0.00     0.044 C 
ATOM     26  C   UNL A   1      31.709  28.802  26.835  1.00  0.00     0.044 C 
ENDBRANCH  15  18
ENDBRANCH  13  14
ENDBRANCH   9  13
ENDBRANCH   5   8
ENDBRANCH   3   4
ENDBRANCH   2   3
ENDBRANCH   1   2
BRANCH   1  27
ATOM     27  C   UNL A   1      37.293  20.349  24.937  1.00  0.00     0.002 C 
BRANCH  27  28
ATOM     28  C   UNL A   1      38.469  19.369  24.965  1.00  0.00     0.021 C 
BRANCH  28  29
ATOM     29  C   UNL A   1      39.407  19.509  26.156  1.00  0.00     0.116 C 
BRANCH  29  30
ATOM     30  N   UNL A   1      40.728  18.967  25.883  1.00  0.00    -0.352 N 
ATOM     31  C   UNL A   1      41.951  19.586  25.871  1.00  0.00     0.251 C 
ATOM     32  H   UNL A   1      40.747  18.004  25.675  1.00  0.00     0.163 HD
ATOM     33  O   UNL A   1      42.930  19.003  25.416  1.00  0.00    -0.269 OA
BRANCH  31  34
ATOM     34  C   UNL A   1      42.098  20.963  26.393  1.00  0.00     0.039 A 
ATOM     35  C   UNL A   1      41.985  21.175  27.770  1.00  0.00     0.014 A 
ATOM     36  C   UNL A   1      42.316  22.043  25.533  1.00  0.00     0.014 A 
ATOM     37  C   UNL A   1      42.153  22.460  28.290  1.00  0.00     0.010 A 
ATOM     38  C   UNL A   1      42.550  23.312  26.059  1.00  0.00     0.010 A 
ATOM     39  C   UNL A   1      42.474  23.531  27.442  1.00  0.00    -0.014 A 
BRANCH  39  40
ATOM     40  C   UNL A   1      42.760  24.882  27.985  1.00  0.00     0.031 A 
ATOM     41  C   UNL A   1      44.147  25.244  28.438  1.00  0.00     0.074 A 
ATOM     42  C   UNL A   1      41.749  25.758  28.139  1.00  0.00     0.049 A 
ATOM     43  N   UNL A   1      44.568  26.342  29.011  1.00  0.00    -0.248 NA
ATOM     44  C   UNL A   1      45.192  24.227  28.245  1.00  0.00     0.031 C 
ATOM     45  C   UNL A   1      40.351  25.507  27.781  1.00  0.00     0.029 A 
ATOM     46  N   UNL A   1      41.737  27.031  28.652  1.00  0.00    -0.354 N 
ATOM     47  C   UNL A   1      45.920  26.145  29.258  1.00  0.00     0.074 A 
ATOM     48  C   UNL A   1      46.240  24.805  28.815  1.00  0.00     0.031 C 
ATOM     49  C   UNL A   1      39.621  26.595  28.070  1.00  0.00     0.029 A 
ATOM     50  C   UNL A   1      40.488  27.605  28.669  1.00  0.00     0.049 A 
ATOM     51  H   UNL A   1      42.545  27.489  28.976  1.00  0.00     0.167 HD
ATOM     52  C   UNL A   1      46.817  27.010  29.788  1.00  0.00     0.037 A 
ATOM     53  C   UNL A   1      40.084  28.804  29.129  1.00  0.00     0.037 A 
ATOM     54  C   UNL A   1      46.500  28.351  30.206  1.00  0.00     0.049 A 
ATOM     55  C   UNL A   1      41.097  29.739  29.728  1.00  0.00     0.074 A 
ATOM     56  C   UNL A   1      47.353  29.332  30.679  1.00  0.00     0.029 A 
ATOM     57  N   UNL A   1      45.224  28.897  30.206  1.00  0.00    -0.354 N 
ATOM     58  N   UNL A   1      42.386  29.568  29.886  1.00  0.00    -0.248 NA
ATOM     59  C   UNL A   1      40.596  31.032  30.216  1.00  0.00     0.031 C 
ATOM     60  C   UNL A   1      46.588  30.455  31.012  1.00  0.00     0.029 A 
ATOM     61  C   UNL A   1      45.263  30.189  30.704  1.00  0.00     0.049 A 
ATOM     62  H   UNL A   1      44.412  28.435  29.896  1.00  0.00     0.167 HD
ATOM     63  C   UNL A   1      42.855  30.733  30.477  1.00  0.00     0.074 A 
ATOM     64  C   UNL A   1      41.713  31.612  30.631  1.00  0.00     0.031 C 
ATOM     65  C   UNL A   1      44.117  31.046  30.861  1.00  0.00     0.037 A 
BRANCH  52  66
ATOM     66  C   UNL A   1      48.231  26.534  29.947  1.00  0.00     0.057 A 
ATOM     67  C   UNL A   1      48.656  25.847  31.091  1.00  0.00     0.134 A 
ATOM     68  C   UNL A   1      49.171  26.731  28.926  1.00  0.00     0.134 A 
ATOM     69  F   UNL A   1      47.808  25.634  32.110  1.00  0.00    -0.206 F 
ATOM     70  C   UNL A   1      49.969  25.392  31.226  1.00  0.00     0.040 A 
ATOM     71  C   UNL A   1      50.480  26.259  29.038  1.00  0.00     0.040 A 
ATOM     72  F   UNL A   1      48.829  27.376  27.801  1.00  0.00    -0.206 F 
ATOM     73  C   UNL A   1      50.884  25.592  30.194  1.00  0.00     0.006 A 
ENDBRANCH  52  66
BRANCH  53  74
ATOM     74  C   UNL A   1      38.655  29.189  29.034  1.00  0.00     0.057 A 
ATOM     75  C   UNL A   1      38.107  29.635  27.826  1.00  0.00     0.134 A 
ATOM     76  C   UNL A   1      37.803  29.116  30.143  1.00  0.00     0.134 A 
ATOM     77  F   UNL A   1      38.878  29.745  26.736  1.00  0.00    -0.206 F 
ATOM     78  C   UNL A   1      36.766  30.008  27.726  1.00  0.00     0.040 A 
ATOM     79  C   UNL A   1      36.454  29.463  30.051  1.00  0.00     0.040 A 
ATOM     80  F   UNL A   1      38.266  28.690  31.327  1.00  0.00    -0.206 F 
ATOM     81  C   UNL A   1      35.934  29.916  28.841  1.00  0.00     0.006 A 
ENDBRANCH  53  74
BRANCH  65  82
ATOM     82  C   UNL A   1      44.327  32.395  31.482  1.00  0.00     0.057 A 
ATOM     83  C   UNL A   1      44.587  33.529  30.701  1.00  0.00     0.134 A 
ATOM     84  C   UNL A   1      44.229  32.570  32.868  1.00  0.00     0.134 A 
ATOM     85  F   UNL A   1      44.708  33.424  29.369  1.00  0.00    -0.206 F 
ATOM     86  C   UNL A   1      44.759  34.787  31.280  1.00  0.00     0.040 A 
ATOM     87  C   UNL A   1      44.375  33.827  33.455  1.00  0.00     0.040 A 
ATOM     88  F   UNL A   1      43.976  31.526  33.670  1.00  0.00    -0.206 F 
ATOM     89  C   UNL A   1      44.645  34.939  32.661  1.00  0.00     0.006 A 
ENDBRANCH  65  82
ENDBRANCH  39  40
ENDBRANCH  31  34
ENDBRANCH  29  30
ENDBRANCH  28  29
ENDBRANCH  27  28
ENDBRANCH   1  27
TORSDOF 16
ENDMDL
