MODEL 1
REMARK VINA RESULT:     -12.2      0.000      0.000
REMARK SMILES Cc1nn(CC(=O)NCCCCCCNC(=O)c2ccc(-c3c4nc(c(-c5c(F)cccc5F)c5ccc([nH]5)c(-c5c(F)cccc5F)c5nc(c(-c6c(F)cccc6F)c6ccc3[nH]6)C=C5)C=C4)cc2)c(C)c1NS(=O)(=O)c1cccc2cccnc12
REMARK SMILES IDX 10 1 9 2 8 3 6 4 7 5 5 7 4 8 1 9 2 10 3 11 74 12 72 13 73 14
REMARK SMILES IDX 75 15 76 17 77 18 78 19 79 20 80 21 88 22 81 23 83 24 87 25
REMARK SMILES IDX 82 26 84 27 86 28 85 29 11 30 12 31 13 32 14 33 15 34 16 35
REMARK SMILES IDX 17 37 18 38 19 39 71 40 20 41 70 42 21 43 22 44 23 45 64 46
REMARK SMILES IDX 24 47 69 48 63 49 65 50 25 51 68 52 62 53 61 54 26 56 52 57
REMARK SMILES IDX 35 58 51 59 36 60 39 61 50 62 66 63 37 64 38 65 49 67 67 68
REMARK SMILES IDX 40 69 27 70 28 71 33 72 29 73 30 74 32 75 34 76 31 77 53 78
REMARK SMILES IDX 54 79 59 80 55 81 56 82 58 83 60 84 57 85 41 86 42 87 47 88
REMARK SMILES IDX 43 89 44 90 46 91 48 92 45 93
REMARK H PARENT 8 6 75 16 15 36 65 55 39 66
REMARK Flexibility Score: inf
ROOT
ATOM      1  C   UNL A   1      39.023  22.867  26.465  1.00  0.00     0.021 C 
ENDROOT
BRANCH   1   2
ATOM      2  C   UNL A   1      37.648  23.210  25.894  1.00  0.00     0.116 C 
BRANCH   2   3
ATOM      3  N   UNL A   1      36.696  22.104  25.866  1.00  0.00    -0.354 N 
ATOM      4  C   UNL A   1      35.694  21.728  25.020  1.00  0.00     0.241 C 
ATOM      5  O   UNL A   1      35.321  20.552  25.192  1.00  0.00    -0.273 OA
ATOM      6  H   UNL A   1      36.800  21.492  26.629  1.00  0.00     0.163 HD
BRANCH   4   7
ATOM      7  C   UNL A   1      35.086  22.477  23.826  1.00  0.00     0.244 C 
BRANCH   7   8
ATOM      8  N   UNL A   1      34.173  23.558  24.096  1.00  0.00    -0.258 N 
ATOM      9  C   UNL A   1      32.863  25.775  26.472  1.00  0.00     0.071 C 
ATOM     10  C   UNL A   1      33.405  25.101  25.269  1.00  0.00     0.084 A 
ATOM     11  N   UNL A   1      33.826  23.833  25.366  1.00  0.00    -0.175 NA
ATOM     12  C   UNL A   1      33.559  25.569  23.929  1.00  0.00     0.093 A 
ATOM     13  C   UNL A   1      33.536  24.400  23.210  1.00  0.00     0.060 A 
ATOM     14  C   UNL A   1      33.069  24.071  21.845  1.00  0.00     0.069 C 
BRANCH  12  15
ATOM     15  N   UNL A   1      33.694  26.878  23.524  1.00  0.00    -0.276 N 
ATOM     16  H   UNL A   1      34.589  27.095  23.179  1.00  0.00     0.180 HD
BRANCH  15  17
ATOM     17  S   UNL A   1      32.645  28.156  23.504  1.00  0.00     0.264 S 
ATOM     18  O   UNL A   1      32.797  28.830  24.781  1.00  0.00    -0.201 OA
ATOM     19  O   UNL A   1      33.076  28.851  22.298  1.00  0.00    -0.201 OA
BRANCH  17  20
ATOM     20  C   UNL A   1      30.887  27.978  23.239  1.00  0.00     0.114 A 
ATOM     21  C   UNL A   1      30.457  26.715  23.717  1.00  0.00     0.024 A 
ATOM     22  C   UNL A   1      29.919  28.870  22.734  1.00  0.00     0.091 A 
ATOM     23  C   UNL A   1      29.117  26.400  23.862  1.00  0.00     0.002 A 
ATOM     24  C   UNL A   1      28.568  28.604  23.101  1.00  0.00     0.002 A 
ATOM     25  N   UNL A   1      30.098  29.858  21.826  1.00  0.00    -0.255 NA
ATOM     26  C   UNL A   1      28.182  27.391  23.658  1.00  0.00     0.010 A 
ATOM     27  C   UNL A   1      27.537  29.496  22.791  1.00  0.00     0.012 A 
ATOM     28  C   UNL A   1      29.007  30.504  21.312  1.00  0.00     0.112 A 
ATOM     29  C   UNL A   1      27.744  30.450  21.830  1.00  0.00     0.021 A 
ENDBRANCH  17  20
ENDBRANCH  15  17
ENDBRANCH  12  15
ENDBRANCH   7   8
ENDBRANCH   4   7
ENDBRANCH   2   3
ENDBRANCH   1   2
BRANCH   1  30
ATOM     30  C   UNL A   1      39.540  21.452  26.172  1.00  0.00     0.002 C 
BRANCH  30  31
ATOM     31  C   UNL A   1      40.941  21.065  26.683  1.00  0.00     0.002 C 
BRANCH  31  32
ATOM     32  C   UNL A   1      41.570  19.755  26.186  1.00  0.00     0.021 C 
BRANCH  32  33
ATOM     33  C   UNL A   1      43.002  19.495  26.636  1.00  0.00     0.116 C 
BRANCH  33  34
ATOM     34  N   UNL A   1      43.974  19.418  25.539  1.00  0.00    -0.352 N 
ATOM     35  C   UNL A   1      44.423  20.445  24.730  1.00  0.00     0.251 C 
ATOM     36  H   UNL A   1      44.353  18.527  25.358  1.00  0.00     0.163 HD
ATOM     37  O   UNL A   1      44.932  20.207  23.626  1.00  0.00    -0.269 OA
BRANCH  35  38
ATOM     38  C   UNL A   1      44.307  21.834  25.197  1.00  0.00     0.039 A 
ATOM     39  C   UNL A   1      43.360  22.730  24.687  1.00  0.00     0.014 A 
ATOM     40  C   UNL A   1      45.177  22.230  26.207  1.00  0.00     0.014 A 
ATOM     41  C   UNL A   1      43.250  23.994  25.266  1.00  0.00     0.010 A 
ATOM     42  C   UNL A   1      44.929  23.376  26.905  1.00  0.00     0.010 A 
ATOM     43  C   UNL A   1      44.032  24.301  26.390  1.00  0.00    -0.014 A 
BRANCH  43  44
ATOM     44  C   UNL A   1      43.864  25.538  27.141  1.00  0.00     0.031 A 
ATOM     45  C   UNL A   1      44.849  26.593  26.785  1.00  0.00     0.074 A 
ATOM     46  C   UNL A   1      42.751  25.787  27.870  1.00  0.00     0.049 A 
ATOM     47  N   UNL A   1      45.797  27.066  27.521  1.00  0.00    -0.248 NA
ATOM     48  C   UNL A   1      44.893  27.061  25.388  1.00  0.00     0.031 C 
ATOM     49  C   UNL A   1      41.559  24.939  28.018  1.00  0.00     0.029 A 
ATOM     50  N   UNL A   1      42.391  26.912  28.544  1.00  0.00    -0.354 N 
ATOM     51  C   UNL A   1      46.391  28.074  26.766  1.00  0.00     0.074 A 
ATOM     52  C   UNL A   1      45.962  27.860  25.410  1.00  0.00     0.031 C 
ATOM     53  C   UNL A   1      40.537  25.668  28.518  1.00  0.00     0.029 A 
ATOM     54  C   UNL A   1      41.041  26.975  28.889  1.00  0.00     0.049 A 
ATOM     55  H   UNL A   1      43.031  27.625  28.770  1.00  0.00     0.167 HD
ATOM     56  C   UNL A   1      46.917  29.173  27.374  1.00  0.00     0.037 A 
ATOM     57  C   UNL A   1      40.386  28.036  29.423  1.00  0.00     0.037 A 
ATOM     58  C   UNL A   1      47.106  28.929  28.787  1.00  0.00     0.049 A 
ATOM     59  C   UNL A   1      41.414  28.941  29.989  1.00  0.00     0.074 A 
ATOM     60  C   UNL A   1      47.803  28.007  29.543  1.00  0.00     0.029 A 
ATOM     61  N   UNL A   1      46.191  29.494  29.641  1.00  0.00    -0.354 N 
ATOM     62  N   UNL A   1      42.150  28.646  31.024  1.00  0.00    -0.248 NA
ATOM     63  C   UNL A   1      41.945  29.981  29.122  1.00  0.00     0.031 C 
ATOM     64  C   UNL A   1      46.962  27.734  30.664  1.00  0.00     0.029 A 
ATOM     65  C   UNL A   1      45.838  28.557  30.573  1.00  0.00     0.049 A 
ATOM     66  H   UNL A   1      45.847  30.415  29.591  1.00  0.00     0.167 HD
ATOM     67  C   UNL A   1      43.413  29.113  30.698  1.00  0.00     0.074 A 
ATOM     68  C   UNL A   1      43.205  30.012  29.564  1.00  0.00     0.031 C 
ATOM     69  C   UNL A   1      44.531  28.494  31.184  1.00  0.00     0.037 A 
BRANCH  56  70
ATOM     70  C   UNL A   1      46.820  30.586  26.828  1.00  0.00     0.057 A 
ATOM     71  C   UNL A   1      47.968  31.402  26.877  1.00  0.00     0.134 A 
ATOM     72  C   UNL A   1      45.617  31.278  26.578  1.00  0.00     0.134 A 
ATOM     73  F   UNL A   1      49.182  30.870  27.093  1.00  0.00    -0.206 F 
ATOM     74  C   UNL A   1      47.905  32.799  26.815  1.00  0.00     0.040 A 
ATOM     75  C   UNL A   1      45.550  32.670  26.463  1.00  0.00     0.040 A 
ATOM     76  F   UNL A   1      44.425  30.676  26.526  1.00  0.00    -0.206 F 
ATOM     77  C   UNL A   1      46.689  33.440  26.625  1.00  0.00     0.006 A 
ENDBRANCH  56  70
BRANCH  57  78
ATOM     78  C   UNL A   1      38.982  28.472  29.237  1.00  0.00     0.057 A 
ATOM     79  C   UNL A   1      38.095  28.540  30.322  1.00  0.00     0.134 A 
ATOM     80  C   UNL A   1      38.558  29.108  28.056  1.00  0.00     0.134 A 
ATOM     81  F   UNL A   1      38.423  27.997  31.504  1.00  0.00    -0.206 F 
ATOM     82  C   UNL A   1      36.877  29.229  30.251  1.00  0.00     0.040 A 
ATOM     83  C   UNL A   1      37.342  29.794  27.970  1.00  0.00     0.040 A 
ATOM     84  F   UNL A   1      39.354  29.168  26.978  1.00  0.00    -0.206 F 
ATOM     85  C   UNL A   1      36.503  29.872  29.075  1.00  0.00     0.006 A 
ENDBRANCH  57  78
BRANCH  69  86
ATOM     86  C   UNL A   1      44.353  27.502  32.301  1.00  0.00     0.057 A 
ATOM     87  C   UNL A   1      44.229  26.116  32.125  1.00  0.00     0.134 A 
ATOM     88  C   UNL A   1      44.450  27.965  33.618  1.00  0.00     0.134 A 
ATOM     89  F   UNL A   1      44.220  25.568  30.903  1.00  0.00    -0.206 F 
ATOM     90  C   UNL A   1      44.162  25.237  33.210  1.00  0.00     0.040 A 
ATOM     91  C   UNL A   1      44.420  27.095  34.710  1.00  0.00     0.040 A 
ATOM     92  F   UNL A   1      44.623  29.273  33.863  1.00  0.00    -0.206 F 
ATOM     93  C   UNL A   1      44.265  25.727  34.508  1.00  0.00     0.006 A 
ENDBRANCH  69  86
ENDBRANCH  43  44
ENDBRANCH  35  38
ENDBRANCH  33  34
ENDBRANCH  32  33
ENDBRANCH  31  32
ENDBRANCH  30  31
ENDBRANCH   1  30
TORSDOF 17
ENDMDL
MODEL 2
REMARK VINA RESULT:     -11.9      1.757      2.151
REMARK SMILES Cc1nn(CC(=O)NCCCCCCNC(=O)c2ccc(-c3c4nc(c(-c5c(F)cccc5F)c5ccc([nH]5)c(-c5c(F)cccc5F)c5nc(c(-c6c(F)cccc6F)c6ccc3[nH]6)C=C5)C=C4)cc2)c(C)c1NS(=O)(=O)c1cccc2cccnc12
REMARK SMILES IDX 10 1 9 2 8 3 6 4 7 5 5 7 4 8 1 9 2 10 3 11 74 12 72 13 73 14
REMARK SMILES IDX 75 15 76 17 77 18 78 19 79 20 80 21 88 22 81 23 83 24 87 25
REMARK SMILES IDX 82 26 84 27 86 28 85 29 11 30 12 31 13 32 14 33 15 34 16 35
REMARK SMILES IDX 17 37 18 38 19 39 71 40 20 41 70 42 21 43 22 44 23 45 64 46
REMARK SMILES IDX 24 47 69 48 63 49 65 50 25 51 68 52 62 53 61 54 26 56 52 57
REMARK SMILES IDX 35 58 51 59 36 60 39 61 50 62 66 63 37 64 38 65 49 67 67 68
REMARK SMILES IDX 40 69 27 70 28 71 33 72 29 73 30 74 32 75 34 76 31 77 53 78
REMARK SMILES IDX 54 79 59 80 55 81 56 82 58 83 60 84 57 85 41 86 42 87 47 88
REMARK SMILES IDX 43 89 44 90 46 91 48 92 45 93
REMARK H PARENT 8 6 75 16 15 36 65 55 39 66
REMARK Flexibility Score: inf
ROOT
ATOM      1  C   UNL A   1      38.676  23.413  26.499  1.00  0.00     0.021 C 
ENDROOT
BRANCH   1   2
ATOM      2  C   UNL A   1      37.235  23.689  26.074  1.00  0.00     0.116 C 
BRANCH   2   3
ATOM      3  N   UNL A   1      36.262  22.686  26.498  1.00  0.00    -0.354 N 
ATOM      4  C   UNL A   1      35.159  22.123  25.925  1.00  0.00     0.241 C 
ATOM      5  O   UNL A   1      34.783  21.084  26.498  1.00  0.00    -0.273 OA
ATOM      6  H   UNL A   1      36.442  22.338  27.400  1.00  0.00     0.163 HD
BRANCH   4   7
ATOM      7  C   UNL A   1      34.431  22.496  24.626  1.00  0.00     0.244 C 
BRANCH   7   8
ATOM      8  N   UNL A   1      33.008  22.712  24.683  1.00  0.00    -0.258 N 
ATOM      9  C   UNL A   1      30.292  23.945  26.522  1.00  0.00     0.071 C 
ATOM     10  C   UNL A   1      31.279  23.556  25.489  1.00  0.00     0.084 A 
ATOM     11  N   UNL A   1      32.420  22.965  25.866  1.00  0.00    -0.175 NA
ATOM     12  C   UNL A   1      31.239  23.683  24.067  1.00  0.00     0.093 A 
ATOM     13  C   UNL A   1      32.081  22.677  23.662  1.00  0.00     0.060 A 
ATOM     14  C   UNL A   1      32.113  21.819  22.458  1.00  0.00     0.069 C 
BRANCH  12  15
ATOM     15  N   UNL A   1      30.519  24.605  23.342  1.00  0.00    -0.276 N 
ATOM     16  H   UNL A   1      29.634  24.283  23.060  1.00  0.00     0.180 HD
BRANCH  15  17
ATOM     17  S   UNL A   1      30.852  26.149  22.854  1.00  0.00     0.264 S 
ATOM     18  O   UNL A   1      31.260  26.060  21.463  1.00  0.00    -0.201 OA
ATOM     19  O   UNL A   1      29.594  26.817  23.165  1.00  0.00    -0.201 OA
BRANCH  17  20
ATOM     20  C   UNL A   1      32.055  27.196  23.661  1.00  0.00     0.114 A 
ATOM     21  C   UNL A   1      33.133  27.453  22.778  1.00  0.00     0.024 A 
ATOM     22  C   UNL A   1      32.056  27.823  24.923  1.00  0.00     0.091 A 
ATOM     23  C   UNL A   1      34.087  28.420  23.044  1.00  0.00     0.002 A 
ATOM     24  C   UNL A   1      32.913  28.952  25.063  1.00  0.00     0.002 A 
ATOM     25  N   UNL A   1      31.456  27.396  26.060  1.00  0.00    -0.255 NA
ATOM     26  C   UNL A   1      33.905  29.243  24.134  1.00  0.00     0.010 A 
ATOM     27  C   UNL A   1      32.892  29.749  26.212  1.00  0.00     0.012 A 
ATOM     28  C   UNL A   1      31.720  28.037  27.240  1.00  0.00     0.112 A 
ATOM     29  C   UNL A   1      32.320  29.259  27.355  1.00  0.00     0.021 A 
ENDBRANCH  17  20
ENDBRANCH  15  17
ENDBRANCH  12  15
ENDBRANCH   7   8
ENDBRANCH   4   7
ENDBRANCH   2   3
ENDBRANCH   1   2
BRANCH   1  30
ATOM     30  C   UNL A   1      39.275  22.082  26.024  1.00  0.00     0.002 C 
BRANCH  30  31
ATOM     31  C   UNL A   1      40.344  21.406  26.904  1.00  0.00     0.002 C 
BRANCH  31  32
ATOM     32  C   UNL A   1      40.987  20.102  26.410  1.00  0.00     0.021 C 
BRANCH  32  33
ATOM     33  C   UNL A   1      42.353  19.771  26.999  1.00  0.00     0.116 C 
BRANCH  33  34
ATOM     34  N   UNL A   1      43.416  19.609  26.001  1.00  0.00    -0.352 N 
ATOM     35  C   UNL A   1      43.989  20.583  25.205  1.00  0.00     0.251 C 
ATOM     36  H   UNL A   1      43.765  18.695  25.885  1.00  0.00     0.163 HD
ATOM     37  O   UNL A   1      44.585  20.281  24.162  1.00  0.00    -0.269 OA
BRANCH  35  38
ATOM     38  C   UNL A   1      43.900  21.992  25.614  1.00  0.00     0.039 A 
ATOM     39  C   UNL A   1      43.031  22.905  25.008  1.00  0.00     0.014 A 
ATOM     40  C   UNL A   1      44.714  22.390  26.669  1.00  0.00     0.014 A 
ATOM     41  C   UNL A   1      42.935  24.194  25.533  1.00  0.00     0.010 A 
ATOM     42  C   UNL A   1      44.468  23.571  27.307  1.00  0.00     0.010 A 
ATOM     43  C   UNL A   1      43.649  24.511  26.698  1.00  0.00    -0.014 A 
BRANCH  43  44
ATOM     44  C   UNL A   1      43.482  25.782  27.392  1.00  0.00     0.031 A 
ATOM     45  C   UNL A   1      44.469  26.817  26.988  1.00  0.00     0.074 A 
ATOM     46  C   UNL A   1      42.370  26.065  28.108  1.00  0.00     0.049 A 
ATOM     47  N   UNL A   1      45.417  27.323  27.703  1.00  0.00    -0.248 NA
ATOM     48  C   UNL A   1      44.514  27.222  25.572  1.00  0.00     0.031 C 
ATOM     49  C   UNL A   1      41.176  25.226  28.294  1.00  0.00     0.029 A 
ATOM     50  N   UNL A   1      42.010  27.221  28.730  1.00  0.00    -0.354 N 
ATOM     51  C   UNL A   1      46.012  28.295  26.902  1.00  0.00     0.074 A 
ATOM     52  C   UNL A   1      45.584  28.019  25.558  1.00  0.00     0.031 C 
ATOM     53  C   UNL A   1      40.155  25.978  28.760  1.00  0.00     0.029 A 
ATOM     54  C   UNL A   1      40.661  27.301  29.072  1.00  0.00     0.049 A 
ATOM     55  H   UNL A   1      42.651  27.942  28.924  1.00  0.00     0.167 HD
ATOM     56  C   UNL A   1      46.540  29.420  27.461  1.00  0.00     0.037 A 
ATOM     57  C   UNL A   1      40.007  28.386  29.556  1.00  0.00     0.037 A 
ATOM     58  C   UNL A   1      46.728  29.240  28.883  1.00  0.00     0.049 A 
ATOM     59  C   UNL A   1      41.036  29.315  30.080  1.00  0.00     0.074 A 
ATOM     60  C   UNL A   1      47.424  28.353  29.680  1.00  0.00     0.029 A 
ATOM     61  N   UNL A   1      45.813  29.845  29.710  1.00  0.00    -0.354 N 
ATOM     62  N   UNL A   1      41.771  29.066  31.128  1.00  0.00    -0.248 NA
ATOM     63  C   UNL A   1      41.569  30.312  29.167  1.00  0.00     0.031 C 
ATOM     64  C   UNL A   1      46.582  28.132  30.812  1.00  0.00     0.029 A 
ATOM     65  C   UNL A   1      45.459  28.952  30.683  1.00  0.00     0.049 A 
ATOM     66  H   UNL A   1      45.471  30.763  29.617  1.00  0.00     0.167 HD
ATOM     67  C   UNL A   1      43.035  29.516  30.782  1.00  0.00     0.074 A 
ATOM     68  C   UNL A   1      42.829  30.362  29.608  1.00  0.00     0.031 C 
ATOM     69  C   UNL A   1      44.151  28.918  31.296  1.00  0.00     0.037 A 
BRANCH  56  70
ATOM     70  C   UNL A   1      46.445  30.806  26.850  1.00  0.00     0.057 A 
ATOM     71  C   UNL A   1      47.593  31.623  26.866  1.00  0.00     0.134 A 
ATOM     72  C   UNL A   1      45.243  31.487  26.566  1.00  0.00     0.134 A 
ATOM     73  F   UNL A   1      48.806  31.101  27.109  1.00  0.00    -0.206 F 
ATOM     74  C   UNL A   1      47.531  33.016  26.740  1.00  0.00     0.040 A 
ATOM     75  C   UNL A   1      45.177  32.872  26.387  1.00  0.00     0.040 A 
ATOM     76  F   UNL A   1      44.051  30.883  26.538  1.00  0.00    -0.206 F 
ATOM     77  C   UNL A   1      46.316  33.648  26.517  1.00  0.00     0.006 A 
ENDBRANCH  56  70
BRANCH  57  78
ATOM     78  C   UNL A   1      38.604  28.814  29.349  1.00  0.00     0.057 A 
ATOM     79  C   UNL A   1      37.718  28.937  30.431  1.00  0.00     0.134 A 
ATOM     80  C   UNL A   1      38.180  29.393  28.139  1.00  0.00     0.134 A 
ATOM     81  F   UNL A   1      38.045  28.452  31.637  1.00  0.00    -0.206 F 
ATOM     82  C   UNL A   1      36.500  29.624  30.327  1.00  0.00     0.040 A 
ATOM     83  C   UNL A   1      36.965  30.076  28.020  1.00  0.00     0.040 A 
ATOM     84  F   UNL A   1      38.975  29.398  27.059  1.00  0.00    -0.206 F 
ATOM     85  C   UNL A   1      36.127  30.209  29.120  1.00  0.00     0.006 A 
ENDBRANCH  57  78
BRANCH  69  86
ATOM     86  C   UNL A   1      43.972  27.979  32.457  1.00  0.00     0.057 A 
ATOM     87  C   UNL A   1      43.839  26.587  32.344  1.00  0.00     0.134 A 
ATOM     88  C   UNL A   1      44.077  28.499  33.752  1.00  0.00     0.134 A 
ATOM     89  F   UNL A   1      43.822  25.985  31.148  1.00  0.00    -0.206 F 
ATOM     90  C   UNL A   1      43.771  25.758  33.468  1.00  0.00     0.040 A 
ATOM     91  C   UNL A   1      44.045  27.679  34.881  1.00  0.00     0.040 A 
ATOM     92  F   UNL A   1      44.259  29.816  33.937  1.00  0.00    -0.206 F 
ATOM     93  C   UNL A   1      43.882  26.305  34.742  1.00  0.00     0.006 A 
ENDBRANCH  69  86
ENDBRANCH  43  44
ENDBRANCH  35  38
ENDBRANCH  33  34
ENDBRANCH  32  33
ENDBRANCH  31  32
ENDBRANCH  30  31
ENDBRANCH   1  30
TORSDOF 17
ENDMDL
MODEL 3
REMARK VINA RESULT:     -11.6      3.795      8.127
REMARK SMILES Cc1nn(CC(=O)NCCCCCCNC(=O)c2ccc(-c3c4nc(c(-c5c(F)cccc5F)c5ccc([nH]5)c(-c5c(F)cccc5F)c5nc(c(-c6c(F)cccc6F)c6ccc3[nH]6)C=C5)C=C4)cc2)c(C)c1NS(=O)(=O)c1cccc2cccnc12
REMARK SMILES IDX 10 1 9 2 8 3 6 4 7 5 5 7 4 8 1 9 2 10 3 11 74 12 72 13 73 14
REMARK SMILES IDX 75 15 76 17 77 18 78 19 79 20 80 21 88 22 81 23 83 24 87 25
REMARK SMILES IDX 82 26 84 27 86 28 85 29 11 30 12 31 13 32 14 33 15 34 16 35
REMARK SMILES IDX 17 37 18 38 19 39 71 40 20 41 70 42 21 43 22 44 23 45 64 46
REMARK SMILES IDX 24 47 69 48 63 49 65 50 25 51 68 52 62 53 61 54 26 56 52 57
REMARK SMILES IDX 35 58 51 59 36 60 39 61 50 62 66 63 37 64 38 65 49 67 67 68
REMARK SMILES IDX 40 69 27 70 28 71 33 72 29 73 30 74 32 75 34 76 31 77 53 78
REMARK SMILES IDX 54 79 59 80 55 81 56 82 58 83 60 84 57 85 41 86 42 87 47 88
REMARK SMILES IDX 43 89 44 90 46 91 48 92 45 93
REMARK H PARENT 8 6 75 16 15 36 65 55 39 66
REMARK Flexibility Score: inf
ROOT
ATOM      1  C   UNL A   1      35.373  23.042  23.731  1.00  0.00     0.021 C 
ENDROOT
BRANCH   1   2
ATOM      2  C   UNL A   1      34.467  24.271  23.669  1.00  0.00     0.116 C 
BRANCH   2   3
ATOM      3  N   UNL A   1      33.821  24.498  22.380  1.00  0.00    -0.354 N 
ATOM      4  C   UNL A   1      33.194  25.563  21.800  1.00  0.00     0.241 C 
ATOM      5  O   UNL A   1      33.051  25.439  20.570  1.00  0.00    -0.273 OA
ATOM      6  H   UNL A   1      33.841  23.705  21.798  1.00  0.00     0.163 HD
BRANCH   4   7
ATOM      7  C   UNL A   1      32.791  26.913  22.409  1.00  0.00     0.244 C 
BRANCH   7   8
ATOM      8  N   UNL A   1      31.683  26.938  23.330  1.00  0.00    -0.258 N 
ATOM      9  C   UNL A   1      28.204  26.904  23.744  1.00  0.00     0.071 C 
ATOM     10  C   UNL A   1      29.671  26.722  23.834  1.00  0.00     0.084 A 
ATOM     11  N   UNL A   1      30.453  27.247  22.881  1.00  0.00    -0.175 NA
ATOM     12  C   UNL A   1      30.470  26.063  24.817  1.00  0.00     0.093 A 
ATOM     13  C   UNL A   1      31.675  26.706  24.689  1.00  0.00     0.060 A 
ATOM     14  C   UNL A   1      32.753  27.020  25.653  1.00  0.00     0.069 C 
BRANCH  12  15
ATOM     15  N   UNL A   1      30.073  25.044  25.653  1.00  0.00    -0.276 N 
ATOM     16  H   UNL A   1      29.100  24.901  25.669  1.00  0.00     0.180 HD
BRANCH  15  17
ATOM     17  S   UNL A   1      30.913  24.012  26.635  1.00  0.00     0.264 S 
ATOM     18  O   UNL A   1      31.712  24.846  27.516  1.00  0.00    -0.201 OA
ATOM     19  O   UNL A   1      29.827  23.233  27.214  1.00  0.00    -0.201 OA
BRANCH  17  20
ATOM     20  C   UNL A   1      32.011  22.745  26.016  1.00  0.00     0.114 A 
ATOM     21  C   UNL A   1      32.997  22.450  26.990  1.00  0.00     0.024 A 
ATOM     22  C   UNL A   1      31.999  21.994  24.823  1.00  0.00     0.091 A 
ATOM     23  C   UNL A   1      33.829  21.348  26.885  1.00  0.00     0.002 A 
ATOM     24  C   UNL A   1      32.707  20.758  24.853  1.00  0.00     0.002 A 
ATOM     25  N   UNL A   1      31.524  22.371  23.613  1.00  0.00    -0.255 NA
ATOM     26  C   UNL A   1      33.600  20.445  25.870  1.00  0.00     0.010 A 
ATOM     27  C   UNL A   1      32.645  19.854  23.787  1.00  0.00     0.012 A 
ATOM     28  C   UNL A   1      31.766  21.582  22.521  1.00  0.00     0.112 A 
ATOM     29  C   UNL A   1      32.205  20.289  22.566  1.00  0.00     0.021 A 
ENDBRANCH  17  20
ENDBRANCH  15  17
ENDBRANCH  12  15
ENDBRANCH   7   8
ENDBRANCH   4   7
ENDBRANCH   2   3
ENDBRANCH   1   2
BRANCH   1  30
ATOM     30  C   UNL A   1      36.816  23.291  24.191  1.00  0.00     0.002 C 
BRANCH  30  31
ATOM     31  C   UNL A   1      37.159  23.067  25.676  1.00  0.00     0.002 C 
BRANCH  31  32
ATOM     32  C   UNL A   1      37.816  24.213  26.460  1.00  0.00     0.021 C 
BRANCH  32  33
ATOM     33  C   UNL A   1      39.221  23.939  26.983  1.00  0.00     0.116 C 
BRANCH  33  34
ATOM     34  N   UNL A   1      40.294  24.428  26.110  1.00  0.00    -0.352 N 
ATOM     35  C   UNL A   1      40.795  25.712  26.018  1.00  0.00     0.251 C 
ATOM     36  H   UNL A   1      40.709  23.758  25.518  1.00  0.00     0.163 HD
ATOM     37  O   UNL A   1      41.413  26.083  25.010  1.00  0.00    -0.269 OA
BRANCH  35  38
ATOM     38  C   UNL A   1      40.603  26.643  27.140  1.00  0.00     0.039 A 
ATOM     39  C   UNL A   1      40.556  26.223  28.474  1.00  0.00     0.014 A 
ATOM     40  C   UNL A   1      40.493  27.992  26.823  1.00  0.00     0.014 A 
ATOM     41  C   UNL A   1      40.480  27.187  29.480  1.00  0.00     0.010 A 
ATOM     42  C   UNL A   1      40.630  28.933  27.802  1.00  0.00     0.010 A 
ATOM     43  C   UNL A   1      40.535  28.545  29.130  1.00  0.00    -0.014 A 
BRANCH  43  44
ATOM     44  C   UNL A   1      40.617  29.603  30.129  1.00  0.00     0.031 A 
ATOM     45  C   UNL A   1      39.333  30.321  30.345  1.00  0.00     0.074 A 
ATOM     46  C   UNL A   1      41.673  29.717  30.966  1.00  0.00     0.049 A 
ATOM     47  N   UNL A   1      39.056  31.547  30.050  1.00  0.00    -0.248 NA
ATOM     48  C   UNL A   1      38.165  29.541  30.790  1.00  0.00     0.031 C 
ATOM     49  C   UNL A   1      42.853  28.844  31.057  1.00  0.00     0.029 A 
ATOM     50  N   UNL A   1      41.866  30.573  32.006  1.00  0.00    -0.354 N 
ATOM     51  C   UNL A   1      37.760  31.760  30.510  1.00  0.00     0.074 A 
ATOM     52  C   UNL A   1      37.195  30.455  30.726  1.00  0.00     0.031 C 
ATOM     53  C   UNL A   1      43.497  29.062  32.225  1.00  0.00     0.029 A 
ATOM     54  C   UNL A   1      42.886  30.201  32.881  1.00  0.00     0.049 A 
ATOM     55  H   UNL A   1      41.329  31.388  32.131  1.00  0.00     0.167 HD
ATOM     56  C   UNL A   1      37.385  32.984  30.974  1.00  0.00     0.037 A 
ATOM     57  C   UNL A   1      43.189  30.780  34.070  1.00  0.00     0.037 A 
ATOM     58  C   UNL A   1      38.328  33.996  30.552  1.00  0.00     0.049 A 
ATOM     59  C   UNL A   1      42.566  32.124  34.070  1.00  0.00     0.074 A 
ATOM     60  C   UNL A   1      38.809  34.451  29.341  1.00  0.00     0.029 A 
ATOM     61  N   UNL A   1      39.215  34.448  31.498  1.00  0.00    -0.354 N 
ATOM     62  N   UNL A   1      42.946  33.100  33.293  1.00  0.00    -0.248 NA
ATOM     63  C   UNL A   1      41.218  32.240  34.603  1.00  0.00     0.031 C 
ATOM     64  C   UNL A   1      40.189  34.735  29.573  1.00  0.00     0.029 A 
ATOM     65  C   UNL A   1      40.455  34.515  30.925  1.00  0.00     0.049 A 
ATOM     66  H   UNL A   1      38.997  34.683  32.429  1.00  0.00     0.167 HD
ATOM     67  C   UNL A   1      41.766  33.696  32.879  1.00  0.00     0.074 A 
ATOM     68  C   UNL A   1      40.743  33.190  33.794  1.00  0.00     0.031 C 
ATOM     69  C   UNL A   1      41.682  34.300  31.656  1.00  0.00     0.037 A 
BRANCH  56  70
ATOM     70  C   UNL A   1      36.473  33.208  32.167  1.00  0.00     0.057 A 
ATOM     71  C   UNL A   1      35.426  34.142  32.041  1.00  0.00     0.134 A 
ATOM     72  C   UNL A   1      36.763  32.825  33.493  1.00  0.00     0.134 A 
ATOM     73  F   UNL A   1      35.036  34.582  30.833  1.00  0.00    -0.206 F 
ATOM     74  C   UNL A   1      34.811  34.742  33.147  1.00  0.00     0.040 A 
ATOM     75  C   UNL A   1      36.119  33.380  34.603  1.00  0.00     0.040 A 
ATOM     76  F   UNL A   1      37.743  31.973  33.809  1.00  0.00    -0.206 F 
ATOM     77  C   UNL A   1      35.170  34.373  34.435  1.00  0.00     0.006 A 
ENDBRANCH  56  70
BRANCH  57  78
ATOM     78  C   UNL A   1      43.725  30.170  35.309  1.00  0.00     0.057 A 
ATOM     79  C   UNL A   1      43.105  29.055  35.894  1.00  0.00     0.134 A 
ATOM     80  C   UNL A   1      45.014  30.475  35.783  1.00  0.00     0.134 A 
ATOM     81  F   UNL A   1      41.891  28.659  35.485  1.00  0.00    -0.206 F 
ATOM     82  C   UNL A   1      43.740  28.269  36.866  1.00  0.00     0.040 A 
ATOM     83  C   UNL A   1      45.657  29.702  36.757  1.00  0.00     0.040 A 
ATOM     84  F   UNL A   1      45.730  31.474  35.247  1.00  0.00    -0.206 F 
ATOM     85  C   UNL A   1      45.027  28.584  37.290  1.00  0.00     0.006 A 
ENDBRANCH  57  78
BRANCH  69  86
ATOM     86  C   UNL A   1      42.966  34.561  30.915  1.00  0.00     0.057 A 
ATOM     87  C   UNL A   1      43.482  33.743  29.899  1.00  0.00     0.134 A 
ATOM     88  C   UNL A   1      43.631  35.769  31.151  1.00  0.00     0.134 A 
ATOM     89  F   UNL A   1      42.864  32.612  29.536  1.00  0.00    -0.206 F 
ATOM     90  C   UNL A   1      44.630  34.091  29.183  1.00  0.00     0.040 A 
ATOM     91  C   UNL A   1      44.760  36.145  30.419  1.00  0.00     0.040 A 
ATOM     92  F   UNL A   1      43.166  36.628  32.071  1.00  0.00    -0.206 F 
ATOM     93  C   UNL A   1      45.269  35.301  29.438  1.00  0.00     0.006 A 
ENDBRANCH  69  86
ENDBRANCH  43  44
ENDBRANCH  35  38
ENDBRANCH  33  34
ENDBRANCH  32  33
ENDBRANCH  31  32
ENDBRANCH  30  31
ENDBRANCH   1  30
TORSDOF 17
ENDMDL
