MODEL 1
REMARK VINA RESULT:     -12.4      0.000      0.000
REMARK SMILES CS(=O)(=O)c1ccc(-c2cc(Cl)cnc2-c2ccc(C(=O)NCCCCCCNC(=O)c3ccc(-c4c5nc(c(-c6c(F)cccc6F)c6ccc([nH]6)c(-c6c(F)cccc6F)c6nc(c(-c7c(F)cccc7F)c7ccc4[nH]7)C=C6)C=C5)cc3)nc2)cc1
REMARK SMILES IDX 25 1 24 2 23 3 22 4 20 5 21 6 19 8 16 9 17 10 87 11 18 12
REMARK SMILES IDX 86 13 15 14 9 15 10 16 11 17 14 18 12 19 13 20 8 21 5 22
REMARK SMILES IDX 6 23 89 24 7 25 88 26 2 27 1 28 3 29 4 30 26 31 27 32 28 33
REMARK SMILES IDX 29 34 30 35 31 37 32 38 33 39 85 40 34 41 84 42 35 43 36 44
REMARK SMILES IDX 37 45 78 46 38 47 83 48 77 49 79 50 39 51 82 52 76 53 75 54
REMARK SMILES IDX 40 56 66 57 49 58 65 59 50 60 53 61 64 62 80 63 51 64 52 65
REMARK SMILES IDX 63 67 81 68 54 69 41 70 42 71 47 72 43 73 44 74 46 75 48 76
REMARK SMILES IDX 45 77 67 78 68 79 73 80 69 81 70 82 72 83 74 84 71 85 55 86
REMARK SMILES IDX 56 87 61 88 57 89 58 90 60 91 62 92 59 93
REMARK H PARENT 22 7 29 36 79 55 53 66
REMARK Flexibility Score: inf
ROOT
ATOM      1  C   UNL A   1      41.268  22.487  27.970  1.00  0.00     0.002 C 
ENDROOT
BRANCH   1   2
ATOM      2  C   UNL A   1      40.633  23.872  27.780  1.00  0.00     0.021 C 
BRANCH   2   3
ATOM      3  C   UNL A   1      39.651  23.938  26.607  1.00  0.00     0.116 C 
BRANCH   3   4
ATOM      4  N   UNL A   1      39.357  22.604  26.124  1.00  0.00    -0.351 N 
ATOM      5  C   UNL A   1      38.250  22.047  25.524  1.00  0.00     0.269 C 
ATOM      6  O   UNL A   1      38.327  20.852  25.233  1.00  0.00    -0.268 OA
ATOM      7  H   UNL A   1      40.098  21.968  26.250  1.00  0.00     0.163 HD
BRANCH   5   8
ATOM      8  C   UNL A   1      37.014  22.831  25.171  1.00  0.00     0.128 A 
ATOM      9  C   UNL A   1      34.594  24.106  24.742  1.00  0.00     0.019 A 
ATOM     10  C   UNL A   1      35.398  23.747  23.657  1.00  0.00     0.014 A 
ATOM     11  C   UNL A   1      35.114  23.875  26.009  1.00  0.00     0.122 A 
ATOM     12  C   UNL A   1      36.634  23.134  23.871  1.00  0.00     0.035 A 
ATOM     13  N   UNL A   1      36.277  23.224  26.244  1.00  0.00    -0.250 NA
BRANCH   9  14
ATOM     14  C   UNL A   1      33.245  24.641  24.554  1.00  0.00     0.080 A 
ATOM     15  C   UNL A   1      32.146  23.819  24.219  1.00  0.00     0.010 A 
ATOM     16  C   UNL A   1      30.918  24.460  23.986  1.00  0.00     0.033 A 
ATOM     17  C   UNL A   1      30.818  25.842  24.099  1.00  0.00     0.060 A 
ATOM     18  N   UNL A   1      33.157  25.991  24.684  1.00  0.00    -0.254 NA
ATOM     19  Cl  UNL A   1      29.329  26.638  23.799  1.00  0.00    -0.083 Cl
ATOM     20  C   UNL A   1      31.949  26.558  24.455  1.00  0.00     0.132 A 
BRANCH  15  21
ATOM     21  C   UNL A   1      32.245  22.352  24.103  1.00  0.00    -0.016 A 
ATOM     22  C   UNL A   1      32.491  19.560  23.872  1.00  0.00     0.067 A 
ATOM     23  C   UNL A   1      32.548  20.156  25.132  1.00  0.00     0.021 A 
ATOM     24  C   UNL A   1      32.285  20.334  22.729  1.00  0.00     0.021 A 
ATOM     25  C   UNL A   1      32.423  21.543  25.241  1.00  0.00     0.010 A 
ATOM     26  C   UNL A   1      32.167  21.723  22.848  1.00  0.00     0.010 A 
BRANCH  22  27
ATOM     27  S   UNL A   1      32.620  17.792  23.739  1.00  0.00     0.175 S 
ATOM     28  C   UNL A   1      34.292  17.453  24.224  1.00  0.00     0.163 C 
ATOM     29  O   UNL A   1      32.489  17.445  22.340  1.00  0.00    -0.224 OA
ATOM     30  O   UNL A   1      31.731  17.226  24.739  1.00  0.00    -0.224 OA
ENDBRANCH  22  27
ENDBRANCH  15  21
ENDBRANCH   9  14
ENDBRANCH   5   8
ENDBRANCH   3   4
ENDBRANCH   2   3
ENDBRANCH   1   2
BRANCH   1  31
ATOM     31  C   UNL A   1      42.725  22.372  27.504  1.00  0.00     0.002 C 
BRANCH  31  32
ATOM     32  C   UNL A   1      42.912  22.007  26.028  1.00  0.00     0.021 C 
BRANCH  32  33
ATOM     33  C   UNL A   1      42.837  23.191  25.068  1.00  0.00     0.116 C 
BRANCH  33  34
ATOM     34  N   UNL A   1      44.154  23.719  24.757  1.00  0.00    -0.352 N 
ATOM     35  C   UNL A   1      44.760  24.868  25.195  1.00  0.00     0.251 C 
ATOM     36  H   UNL A   1      44.690  23.170  24.142  1.00  0.00     0.163 HD
ATOM     37  O   UNL A   1      45.791  25.260  24.656  1.00  0.00    -0.269 OA
BRANCH  35  38
ATOM     38  C   UNL A   1      44.177  25.643  26.312  1.00  0.00     0.039 A 
ATOM     39  C   UNL A   1      44.243  25.114  27.604  1.00  0.00     0.014 A 
ATOM     40  C   UNL A   1      43.518  26.855  26.085  1.00  0.00     0.014 A 
ATOM     41  C   UNL A   1      43.679  25.814  28.672  1.00  0.00     0.010 A 
ATOM     42  C   UNL A   1      43.011  27.584  27.159  1.00  0.00     0.010 A 
ATOM     43  C   UNL A   1      43.070  27.061  28.459  1.00  0.00    -0.014 A 
BRANCH  43  44
ATOM     44  C   UNL A   1      42.462  27.813  29.584  1.00  0.00     0.031 A 
ATOM     45  C   UNL A   1      43.099  27.778  30.947  1.00  0.00     0.074 A 
ATOM     46  C   UNL A   1      41.317  28.496  29.392  1.00  0.00     0.049 A 
ATOM     47  N   UNL A   1      42.700  28.337  32.061  1.00  0.00    -0.248 NA
ATOM     48  C   UNL A   1      44.334  26.989  31.080  1.00  0.00     0.031 C 
ATOM     49  C   UNL A   1      40.581  28.572  28.129  1.00  0.00     0.029 A 
ATOM     50  N   UNL A   1      40.572  29.252  30.259  1.00  0.00    -0.354 N 
ATOM     51  C   UNL A   1      43.625  27.956  33.026  1.00  0.00     0.074 A 
ATOM     52  C   UNL A   1      44.575  27.078  32.379  1.00  0.00     0.031 C 
ATOM     53  C   UNL A   1      39.502  29.353  28.298  1.00  0.00     0.029 A 
ATOM     54  C   UNL A   1      39.457  29.810  29.684  1.00  0.00     0.049 A 
ATOM     55  H   UNL A   1      40.814  29.384  31.204  1.00  0.00     0.167 HD
ATOM     56  C   UNL A   1      43.691  28.324  34.329  1.00  0.00     0.037 A 
ATOM     57  C   UNL A   1      38.508  30.603  30.214  1.00  0.00     0.037 A 
ATOM     58  C   UNL A   1      42.763  29.221  34.964  1.00  0.00     0.049 A 
ATOM     59  C   UNL A   1      38.613  31.013  31.657  1.00  0.00     0.074 A 
ATOM     60  C   UNL A   1      42.770  29.692  36.266  1.00  0.00     0.029 A 
ATOM     61  N   UNL A   1      41.663  29.788  34.340  1.00  0.00    -0.354 N 
ATOM     62  N   UNL A   1      39.524  30.689  32.543  1.00  0.00    -0.248 NA
ATOM     63  C   UNL A   1      37.567  31.909  32.168  1.00  0.00     0.031 C 
ATOM     64  C   UNL A   1      41.656  30.522  36.437  1.00  0.00     0.029 A 
ATOM     65  C   UNL A   1      40.978  30.599  35.230  1.00  0.00     0.049 A 
ATOM     66  H   UNL A   1      41.406  29.638  33.401  1.00  0.00     0.167 HD
ATOM     67  C   UNL A   1      39.178  31.364  33.706  1.00  0.00     0.074 A 
ATOM     68  C   UNL A   1      37.981  32.124  33.409  1.00  0.00     0.031 C 
ATOM     69  C   UNL A   1      39.796  31.357  34.912  1.00  0.00     0.037 A 
BRANCH  56  70
ATOM     70  C   UNL A   1      44.813  27.758  35.149  1.00  0.00     0.057 A 
ATOM     71  C   UNL A   1      46.049  28.412  35.257  1.00  0.00     0.134 A 
ATOM     72  C   UNL A   1      44.652  26.561  35.858  1.00  0.00     0.134 A 
ATOM     73  F   UNL A   1      46.273  29.555  34.592  1.00  0.00    -0.206 F 
ATOM     74  C   UNL A   1      47.092  27.882  36.019  1.00  0.00     0.040 A 
ATOM     75  C   UNL A   1      45.679  26.035  36.644  1.00  0.00     0.040 A 
ATOM     76  F   UNL A   1      43.494  25.887  35.802  1.00  0.00    -0.206 F 
ATOM     77  C   UNL A   1      46.905  26.693  36.721  1.00  0.00     0.006 A 
ENDBRANCH  56  70
BRANCH  57  78
ATOM     78  C   UNL A   1      37.394  31.099  29.367  1.00  0.00     0.057 A 
ATOM     79  C   UNL A   1      36.299  30.281  29.069  1.00  0.00     0.134 A 
ATOM     80  C   UNL A   1      37.401  32.391  28.832  1.00  0.00     0.134 A 
ATOM     81  F   UNL A   1      36.246  29.026  29.539  1.00  0.00    -0.206 F 
ATOM     82  C   UNL A   1      35.257  30.723  28.252  1.00  0.00     0.040 A 
ATOM     83  C   UNL A   1      36.356  32.855  28.032  1.00  0.00     0.040 A 
ATOM     84  F   UNL A   1      38.419  33.226  29.089  1.00  0.00    -0.206 F 
ATOM     85  C   UNL A   1      35.283  32.017  27.734  1.00  0.00     0.006 A 
ENDBRANCH  57  78
BRANCH  69  86
ATOM     86  C   UNL A   1      39.212  32.229  35.984  1.00  0.00     0.057 A 
ATOM     87  C   UNL A   1      38.262  31.747  36.894  1.00  0.00     0.134 A 
ATOM     88  C   UNL A   1      39.624  33.560  36.121  1.00  0.00     0.134 A 
ATOM     89  F   UNL A   1      37.817  30.484  36.808  1.00  0.00    -0.206 F 
ATOM     90  C   UNL A   1      37.725  32.567  37.887  1.00  0.00     0.040 A 
ATOM     91  C   UNL A   1      39.112  34.382  37.125  1.00  0.00     0.040 A 
ATOM     92  F   UNL A   1      40.537  34.079  35.286  1.00  0.00    -0.206 F 
ATOM     93  C   UNL A   1      38.153  33.887  38.007  1.00  0.00     0.006 A 
ENDBRANCH  69  86
ENDBRANCH  43  44
ENDBRANCH  35  38
ENDBRANCH  33  34
ENDBRANCH  32  33
ENDBRANCH  31  32
ENDBRANCH   1  31
TORSDOF 16
ENDMDL
MODEL 2
REMARK VINA RESULT:     -12.2      5.517      9.886
REMARK SMILES CS(=O)(=O)c1ccc(-c2cc(Cl)cnc2-c2ccc(C(=O)NCCCCCCNC(=O)c3ccc(-c4c5nc(c(-c6c(F)cccc6F)c6ccc([nH]6)c(-c6c(F)cccc6F)c6nc(c(-c7c(F)cccc7F)c7ccc4[nH]7)C=C6)C=C5)cc3)nc2)cc1
REMARK SMILES IDX 25 1 24 2 23 3 22 4 20 5 21 6 19 8 16 9 17 10 87 11 18 12
REMARK SMILES IDX 86 13 15 14 9 15 10 16 11 17 14 18 12 19 13 20 8 21 5 22
REMARK SMILES IDX 6 23 89 24 7 25 88 26 2 27 1 28 3 29 4 30 26 31 27 32 28 33
REMARK SMILES IDX 29 34 30 35 31 37 32 38 33 39 85 40 34 41 84 42 35 43 36 44
REMARK SMILES IDX 37 45 78 46 38 47 83 48 77 49 79 50 39 51 82 52 76 53 75 54
REMARK SMILES IDX 40 56 66 57 49 58 65 59 50 60 53 61 64 62 80 63 51 64 52 65
REMARK SMILES IDX 63 67 81 68 54 69 41 70 42 71 47 72 43 73 44 74 46 75 48 76
REMARK SMILES IDX 45 77 67 78 68 79 73 80 69 81 70 82 72 83 74 84 71 85 55 86
REMARK SMILES IDX 56 87 61 88 57 89 58 90 60 91 62 92 59 93
REMARK H PARENT 22 7 29 36 79 55 53 66
REMARK Flexibility Score: inf
ROOT
ATOM      1  C   UNL A   1      37.372  31.132  30.024  1.00  0.00     0.002 C 
ENDROOT
BRANCH   1   2
ATOM      2  C   UNL A   1      36.810  30.855  28.622  1.00  0.00     0.021 C 
BRANCH   2   3
ATOM      3  C   UNL A   1      35.579  29.944  28.627  1.00  0.00     0.116 C 
BRANCH   3   4
ATOM      4  N   UNL A   1      34.419  30.667  28.147  1.00  0.00    -0.351 N 
ATOM      5  C   UNL A   1      33.359  30.311  27.344  1.00  0.00     0.269 C 
ATOM      6  O   UNL A   1      32.522  31.187  27.120  1.00  0.00    -0.268 OA
ATOM      7  H   UNL A   1      34.380  31.600  28.458  1.00  0.00     0.163 HD
BRANCH   5   8
ATOM      8  C   UNL A   1      33.163  28.924  26.794  1.00  0.00     0.128 A 
ATOM      9  C   UNL A   1      32.840  26.498  25.499  1.00  0.00     0.019 A 
ATOM     10  C   UNL A   1      32.022  26.826  26.583  1.00  0.00     0.014 A 
ATOM     11  C   UNL A   1      33.852  27.395  25.186  1.00  0.00     0.122 A 
ATOM     12  C   UNL A   1      32.204  28.034  27.259  1.00  0.00     0.035 A 
ATOM     13  N   UNL A   1      34.009  28.599  25.781  1.00  0.00    -0.250 NA
BRANCH   9  14
ATOM     14  C   UNL A   1      32.603  25.298  24.695  1.00  0.00     0.080 A 
ATOM     15  C   UNL A   1      31.583  25.232  23.720  1.00  0.00     0.010 A 
ATOM     16  C   UNL A   1      31.401  23.999  23.070  1.00  0.00     0.033 A 
ATOM     17  C   UNL A   1      32.214  22.916  23.385  1.00  0.00     0.060 A 
ATOM     18  N   UNL A   1      33.415  24.252  25.000  1.00  0.00    -0.254 NA
ATOM     19  Cl  UNL A   1      31.991  21.402  22.611  1.00  0.00    -0.083 Cl
ATOM     20  C   UNL A   1      33.202  23.089  24.340  1.00  0.00     0.132 A 
BRANCH  15  21
ATOM     21  C   UNL A   1      30.721  26.379  23.378  1.00  0.00    -0.016 A 
ATOM     22  C   UNL A   1      29.092  28.591  22.776  1.00  0.00     0.067 A 
ATOM     23  C   UNL A   1      30.410  28.559  22.319  1.00  0.00     0.021 A 
ATOM     24  C   UNL A   1      28.568  27.522  23.505  1.00  0.00     0.021 A 
ATOM     25  C   UNL A   1      31.214  27.456  22.619  1.00  0.00     0.010 A 
ATOM     26  C   UNL A   1      29.383  26.425  23.806  1.00  0.00     0.010 A 
BRANCH  22  27
ATOM     27  S   UNL A   1      28.063  29.981  22.368  1.00  0.00     0.175 S 
ATOM     28  C   UNL A   1      28.961  31.373  23.001  1.00  0.00     0.163 C 
ATOM     29  O   UNL A   1      26.840  29.863  23.133  1.00  0.00    -0.224 OA
ATOM     30  O   UNL A   1      28.035  30.077  20.919  1.00  0.00    -0.224 OA
ENDBRANCH  22  27
ENDBRANCH  15  21
ENDBRANCH   9  14
ENDBRANCH   5   8
ENDBRANCH   3   4
ENDBRANCH   2   3
ENDBRANCH   1   2
BRANCH   1  31
ATOM     31  C   UNL A   1      36.507  30.619  31.183  1.00  0.00     0.002 C 
BRANCH  31  32
ATOM     32  C   UNL A   1      35.887  31.706  32.066  1.00  0.00     0.021 C 
BRANCH  32  33
ATOM     33  C   UNL A   1      35.943  33.111  31.475  1.00  0.00     0.116 C 
BRANCH  33  34
ATOM     34  N   UNL A   1      36.505  34.069  32.412  1.00  0.00    -0.352 N 
ATOM     35  C   UNL A   1      37.803  34.235  32.819  1.00  0.00     0.251 C 
ATOM     36  H   UNL A   1      35.857  34.691  32.814  1.00  0.00     0.163 HD
ATOM     37  O   UNL A   1      38.056  34.953  33.781  1.00  0.00    -0.269 OA
BRANCH  35  38
ATOM     38  C   UNL A   1      38.904  33.547  32.109  1.00  0.00     0.039 A 
ATOM     39  C   UNL A   1      39.242  33.974  30.821  1.00  0.00     0.014 A 
ATOM     40  C   UNL A   1      39.562  32.454  32.679  1.00  0.00     0.014 A 
ATOM     41  C   UNL A   1      40.260  33.326  30.119  1.00  0.00     0.010 A 
ATOM     42  C   UNL A   1      40.620  31.849  32.004  1.00  0.00     0.010 A 
ATOM     43  C   UNL A   1      40.967  32.267  30.711  1.00  0.00    -0.014 A 
BRANCH  43  44
ATOM     44  C   UNL A   1      42.047  31.567  29.974  1.00  0.00     0.031 A 
ATOM     45  C   UNL A   1      43.357  32.262  29.716  1.00  0.00     0.074 A 
ATOM     46  C   UNL A   1      41.839  30.323  29.504  1.00  0.00     0.049 A 
ATOM     47  N   UNL A   1      44.406  31.833  29.061  1.00  0.00    -0.248 NA
ATOM     48  C   UNL A   1      43.495  33.630  30.241  1.00  0.00     0.031 C 
ATOM     49  C   UNL A   1      40.599  29.559  29.652  1.00  0.00     0.029 A 
ATOM     50  N   UNL A   1      42.666  29.483  28.803  1.00  0.00    -0.354 N 
ATOM     51  C   UNL A   1      45.319  32.880  29.084  1.00  0.00     0.074 A 
ATOM     52  C   UNL A   1      44.682  33.983  29.772  1.00  0.00     0.031 C 
ATOM     53  C   UNL A   1      40.756  28.354  29.081  1.00  0.00     0.029 A 
ATOM     54  C   UNL A   1      42.094  28.270  28.505  1.00  0.00     0.049 A 
ATOM     55  H   UNL A   1      43.583  29.726  28.539  1.00  0.00     0.167 HD
ATOM     56  C   UNL A   1      46.583  32.913  28.598  1.00  0.00     0.037 A 
ATOM     57  C   UNL A   1      42.596  27.210  27.845  1.00  0.00     0.037 A 
ATOM     58  C   UNL A   1      47.227  31.807  27.941  1.00  0.00     0.049 A 
ATOM     59  C   UNL A   1      44.008  27.264  27.332  1.00  0.00     0.074 A 
ATOM     60  C   UNL A   1      48.520  31.724  27.454  1.00  0.00     0.029 A 
ATOM     61  N   UNL A   1      46.624  30.584  27.684  1.00  0.00    -0.354 N 
ATOM     62  N   UNL A   1      44.879  28.241  27.409  1.00  0.00    -0.248 NA
ATOM     63  C   UNL A   1      44.511  26.062  26.651  1.00  0.00     0.031 C 
ATOM     64  C   UNL A   1      48.689  30.461  26.875  1.00  0.00     0.029 A 
ATOM     65  C   UNL A   1      47.515  29.744  27.038  1.00  0.00     0.049 A 
ATOM     66  H   UNL A   1      45.699  30.349  27.926  1.00  0.00     0.167 HD
ATOM     67  C   UNL A   1      46.039  27.763  26.816  1.00  0.00     0.074 A 
ATOM     68  C   UNL A   1      45.765  26.405  26.394  1.00  0.00     0.031 C 
ATOM     69  C   UNL A   1      47.227  28.391  26.637  1.00  0.00     0.037 A 
BRANCH  56  70
ATOM     70  C   UNL A   1      47.355  34.189  28.769  1.00  0.00     0.057 A 
ATOM     71  C   UNL A   1      47.318  35.207  27.806  1.00  0.00     0.134 A 
ATOM     72  C   UNL A   1      48.125  34.414  29.917  1.00  0.00     0.134 A 
ATOM     73  F   UNL A   1      46.611  35.049  26.677  1.00  0.00    -0.206 F 
ATOM     74  C   UNL A   1      48.040  36.391  27.967  1.00  0.00     0.040 A 
ATOM     75  C   UNL A   1      48.830  35.605  30.101  1.00  0.00     0.040 A 
ATOM     76  F   UNL A   1      48.201  33.483  30.880  1.00  0.00    -0.206 F 
ATOM     77  C   UNL A   1      48.793  36.595  29.122  1.00  0.00     0.006 A 
ENDBRANCH  56  70
BRANCH  57  78
ATOM     78  C   UNL A   1      41.772  25.989  27.666  1.00  0.00     0.057 A 
ATOM     79  C   UNL A   1      41.953  24.872  28.489  1.00  0.00     0.134 A 
ATOM     80  C   UNL A   1      40.792  25.906  26.670  1.00  0.00     0.134 A 
ATOM     81  F   UNL A   1      42.890  24.887  29.449  1.00  0.00    -0.206 F 
ATOM     82  C   UNL A   1      41.205  23.707  28.316  1.00  0.00     0.040 A 
ATOM     83  C   UNL A   1      40.021  24.756  26.500  1.00  0.00     0.040 A 
ATOM     84  F   UNL A   1      40.565  26.947  25.856  1.00  0.00    -0.206 F 
ATOM     85  C   UNL A   1      40.231  23.649  27.320  1.00  0.00     0.006 A 
ENDBRANCH  57  78
BRANCH  69  86
ATOM     86  C   UNL A   1      48.328  27.599  25.996  1.00  0.00     0.057 A 
ATOM     87  C   UNL A   1      48.420  27.452  24.606  1.00  0.00     0.134 A 
ATOM     88  C   UNL A   1      49.321  26.999  26.779  1.00  0.00     0.134 A 
ATOM     89  F   UNL A   1      47.492  27.993  23.802  1.00  0.00    -0.206 F 
ATOM     90  C   UNL A   1      49.448  26.713  24.019  1.00  0.00     0.040 A 
ATOM     91  C   UNL A   1      50.368  26.279  26.203  1.00  0.00     0.040 A 
ATOM     92  F   UNL A   1      49.295  27.111  28.116  1.00  0.00    -0.206 F 
ATOM     93  C   UNL A   1      50.429  26.128  24.818  1.00  0.00     0.006 A 
ENDBRANCH  69  86
ENDBRANCH  43  44
ENDBRANCH  35  38
ENDBRANCH  33  34
ENDBRANCH  32  33
ENDBRANCH  31  32
ENDBRANCH   1  31
TORSDOF 16
ENDMDL
MODEL 3
REMARK VINA RESULT:     -12.1      3.111      7.922
REMARK SMILES CS(=O)(=O)c1ccc(-c2cc(Cl)cnc2-c2ccc(C(=O)NCCCCCCNC(=O)c3ccc(-c4c5nc(c(-c6c(F)cccc6F)c6ccc([nH]6)c(-c6c(F)cccc6F)c6nc(c(-c7c(F)cccc7F)c7ccc4[nH]7)C=C6)C=C5)cc3)nc2)cc1
REMARK SMILES IDX 25 1 24 2 23 3 22 4 20 5 21 6 19 8 16 9 17 10 87 11 18 12
REMARK SMILES IDX 86 13 15 14 9 15 10 16 11 17 14 18 12 19 13 20 8 21 5 22
REMARK SMILES IDX 6 23 89 24 7 25 88 26 2 27 1 28 3 29 4 30 26 31 27 32 28 33
REMARK SMILES IDX 29 34 30 35 31 37 32 38 33 39 85 40 34 41 84 42 35 43 36 44
REMARK SMILES IDX 37 45 78 46 38 47 83 48 77 49 79 50 39 51 82 52 76 53 75 54
REMARK SMILES IDX 40 56 66 57 49 58 65 59 50 60 53 61 64 62 80 63 51 64 52 65
REMARK SMILES IDX 63 67 81 68 54 69 41 70 42 71 47 72 43 73 44 74 46 75 48 76
REMARK SMILES IDX 45 77 67 78 68 79 73 80 69 81 70 82 72 83 74 84 71 85 55 86
REMARK SMILES IDX 56 87 61 88 57 89 58 90 60 91 62 92 59 93
REMARK H PARENT 22 7 29 36 79 55 53 66
REMARK Flexibility Score: inf
ROOT
ATOM      1  C   UNL A   1      32.163  29.909  26.141  1.00  0.00     0.002 C 
ENDROOT
BRANCH   1   2
ATOM      2  C   UNL A   1      31.730  28.888  27.203  1.00  0.00     0.021 C 
BRANCH   2   3
ATOM      3  C   UNL A   1      32.388  27.516  27.034  1.00  0.00     0.116 C 
BRANCH   3   4
ATOM      4  N   UNL A   1      31.426  26.557  26.529  1.00  0.00    -0.351 N 
ATOM      5  C   UNL A   1      31.555  25.313  25.954  1.00  0.00     0.269 C 
ATOM      6  O   UNL A   1      30.509  24.750  25.625  1.00  0.00    -0.268 OA
ATOM      7  H   UNL A   1      30.491  26.856  26.615  1.00  0.00     0.163 HD
BRANCH   5   8
ATOM      8  C   UNL A   1      32.876  24.616  25.771  1.00  0.00     0.128 A 
ATOM      9  C   UNL A   1      35.378  23.431  25.723  1.00  0.00     0.019 A 
ATOM     10  C   UNL A   1      34.899  24.100  24.594  1.00  0.00     0.014 A 
ATOM     11  C   UNL A   1      34.509  23.321  26.799  1.00  0.00     0.122 A 
ATOM     12  C   UNL A   1      33.624  24.670  24.603  1.00  0.00     0.035 A 
ATOM     13  N   UNL A   1      33.296  23.919  26.859  1.00  0.00    -0.250 NA
BRANCH   9  14
ATOM     14  C   UNL A   1      36.749  22.924  25.790  1.00  0.00     0.080 A 
ATOM     15  C   UNL A   1      37.067  21.569  25.548  1.00  0.00     0.010 A 
ATOM     16  C   UNL A   1      38.407  21.187  25.722  1.00  0.00     0.033 A 
ATOM     17  C   UNL A   1      39.358  22.127  26.105  1.00  0.00     0.060 A 
ATOM     18  N   UNL A   1      37.672  23.855  26.149  1.00  0.00    -0.254 NA
ATOM     19  Cl  UNL A   1      40.994  21.669  26.339  1.00  0.00    -0.083 Cl
ATOM     20  C   UNL A   1      38.951  23.436  26.297  1.00  0.00     0.132 A 
BRANCH  15  21
ATOM     21  C   UNL A   1      36.063  20.570  25.136  1.00  0.00    -0.016 A 
ATOM     22  C   UNL A   1      34.143  18.650  24.405  1.00  0.00     0.067 A 
ATOM     23  C   UNL A   1      33.753  19.973  24.607  1.00  0.00     0.021 A 
ATOM     24  C   UNL A   1      35.482  18.276  24.535  1.00  0.00     0.021 A 
ATOM     25  C   UNL A   1      34.712  20.924  24.967  1.00  0.00     0.010 A 
ATOM     26  C   UNL A   1      36.433  19.234  24.902  1.00  0.00     0.010 A 
BRANCH  22  27
ATOM     27  S   UNL A   1      32.927  17.449  23.918  1.00  0.00     0.175 S 
ATOM     28  C   UNL A   1      32.262  18.107  22.411  1.00  0.00     0.163 C 
ATOM     29  O   UNL A   1      31.871  17.464  24.908  1.00  0.00    -0.224 OA
ATOM     30  O   UNL A   1      33.642  16.224  23.604  1.00  0.00    -0.224 OA
ENDBRANCH  22  27
ENDBRANCH  15  21
ENDBRANCH   9  14
ENDBRANCH   5   8
ENDBRANCH   3   4
ENDBRANCH   2   3
ENDBRANCH   1   2
BRANCH   1  31
ATOM     31  C   UNL A   1      31.055  30.856  25.662  1.00  0.00     0.002 C 
BRANCH  31  32
ATOM     32  C   UNL A   1      31.127  32.281  26.220  1.00  0.00     0.021 C 
BRANCH  32  33
ATOM     33  C   UNL A   1      32.324  32.546  27.129  1.00  0.00     0.116 C 
BRANCH  33  34
ATOM     34  N   UNL A   1      32.430  33.950  27.487  1.00  0.00    -0.352 N 
ATOM     35  C   UNL A   1      33.281  34.564  28.368  1.00  0.00     0.251 C 
ATOM     36  H   UNL A   1      31.796  34.547  27.029  1.00  0.00     0.163 HD
ATOM     37  O   UNL A   1      33.079  35.728  28.703  1.00  0.00    -0.269 OA
BRANCH  35  38
ATOM     38  C   UNL A   1      34.440  33.833  28.923  1.00  0.00     0.039 A 
ATOM     39  C   UNL A   1      34.211  32.655  29.641  1.00  0.00     0.014 A 
ATOM     40  C   UNL A   1      35.741  34.329  28.790  1.00  0.00     0.014 A 
ATOM     41  C   UNL A   1      35.286  31.960  30.197  1.00  0.00     0.010 A 
ATOM     42  C   UNL A   1      36.818  33.601  29.290  1.00  0.00     0.010 A 
ATOM     43  C   UNL A   1      36.599  32.419  30.014  1.00  0.00    -0.014 A 
BRANCH  43  44
ATOM     44  C   UNL A   1      37.750  31.692  30.603  1.00  0.00     0.031 A 
ATOM     45  C   UNL A   1      38.140  31.933  32.036  1.00  0.00     0.074 A 
ATOM     46  C   UNL A   1      38.467  30.844  29.841  1.00  0.00     0.049 A 
ATOM     47  N   UNL A   1      39.134  31.424  32.719  1.00  0.00    -0.248 NA
ATOM     48  C   UNL A   1      37.321  32.894  32.793  1.00  0.00     0.031 C 
ATOM     49  C   UNL A   1      38.215  30.557  28.428  1.00  0.00     0.029 A 
ATOM     50  N   UNL A   1      39.557  30.071  30.149  1.00  0.00    -0.354 N 
ATOM     51  C   UNL A   1      39.067  32.011  33.977  1.00  0.00     0.074 A 
ATOM     52  C   UNL A   1      37.968  32.952  33.947  1.00  0.00     0.031 C 
ATOM     53  C   UNL A   1      39.109  29.653  27.998  1.00  0.00     0.029 A 
ATOM     54  C   UNL A   1      40.012  29.317  29.095  1.00  0.00     0.049 A 
ATOM     55  H   UNL A   1      39.973  30.056  31.041  1.00  0.00     0.167 HD
ATOM     56  C   UNL A   1      39.835  31.771  35.067  1.00  0.00     0.037 A 
ATOM     57  C   UNL A   1      41.038  28.450  29.024  1.00  0.00     0.037 A 
ATOM     58  C   UNL A   1      40.909  30.814  35.105  1.00  0.00     0.049 A 
ATOM     59  C   UNL A   1      41.865  28.186  30.252  1.00  0.00     0.074 A 
ATOM     60  C   UNL A   1      41.716  30.464  36.173  1.00  0.00     0.029 A 
ATOM     61  N   UNL A   1      41.320  30.048  34.025  1.00  0.00    -0.354 N 
ATOM     62  N   UNL A   1      41.755  28.708  31.450  1.00  0.00    -0.248 NA
ATOM     63  C   UNL A   1      42.948  27.202  30.122  1.00  0.00     0.031 C 
ATOM     64  C   UNL A   1      42.637  29.507  35.730  1.00  0.00     0.029 A 
ATOM     65  C   UNL A   1      42.375  29.232  34.397  1.00  0.00     0.049 A 
ATOM     66  H   UNL A   1      40.920  30.079  33.125  1.00  0.00     0.167 HD
ATOM     67  C   UNL A   1      42.733  28.096  32.222  1.00  0.00     0.074 A 
ATOM     68  C   UNL A   1      43.419  27.155  31.360  1.00  0.00     0.031 C 
ATOM     69  C   UNL A   1      43.037  28.293  33.528  1.00  0.00     0.037 A 
BRANCH  56  70
ATOM     70  C   UNL A   1      39.533  32.555  36.311  1.00  0.00     0.057 A 
ATOM     71  C   UNL A   1      40.211  33.744  36.615  1.00  0.00     0.134 A 
ATOM     72  C   UNL A   1      38.539  32.132  37.202  1.00  0.00     0.134 A 
ATOM     73  F   UNL A   1      41.184  34.197  35.810  1.00  0.00    -0.206 F 
ATOM     74  C   UNL A   1      39.929  34.469  37.774  1.00  0.00     0.040 A 
ATOM     75  C   UNL A   1      38.230  32.863  38.351  1.00  0.00     0.040 A 
ATOM     76  F   UNL A   1      37.849  31.006  36.969  1.00  0.00    -0.206 F 
ATOM     77  C   UNL A   1      38.931  34.032  38.643  1.00  0.00     0.006 A 
ENDBRANCH  56  70
BRANCH  57  78
ATOM     78  C   UNL A   1      41.320  27.734  27.755  1.00  0.00     0.057 A 
ATOM     79  C   UNL A   1      42.090  28.329  26.750  1.00  0.00     0.134 A 
ATOM     80  C   UNL A   1      40.825  26.448  27.515  1.00  0.00     0.134 A 
ATOM     81  F   UNL A   1      42.576  29.568  26.916  1.00  0.00    -0.206 F 
ATOM     82  C   UNL A   1      42.341  27.680  25.540  1.00  0.00     0.040 A 
ATOM     83  C   UNL A   1      41.087  25.777  26.319  1.00  0.00     0.040 A 
ATOM     84  F   UNL A   1      40.088  25.821  28.444  1.00  0.00    -0.206 F 
ATOM     85  C   UNL A   1      41.841  26.396  25.325  1.00  0.00     0.006 A 
ENDBRANCH  57  78
BRANCH  69  86
ATOM     86  C   UNL A   1      44.129  27.446  34.111  1.00  0.00     0.057 A 
ATOM     87  C   UNL A   1      43.871  26.187  34.666  1.00  0.00     0.134 A 
ATOM     88  C   UNL A   1      45.457  27.888  34.094  1.00  0.00     0.134 A 
ATOM     89  F   UNL A   1      42.617  25.712  34.724  1.00  0.00    -0.206 F 
ATOM     90  C   UNL A   1      44.895  25.407  35.207  1.00  0.00     0.040 A 
ATOM     91  C   UNL A   1      46.492  27.108  34.608  1.00  0.00     0.040 A 
ATOM     92  F   UNL A   1      45.771  29.082  33.568  1.00  0.00    -0.206 F 
ATOM     93  C   UNL A   1      46.210  25.865  35.175  1.00  0.00     0.006 A 
ENDBRANCH  69  86
ENDBRANCH  43  44
ENDBRANCH  35  38
ENDBRANCH  33  34
ENDBRANCH  32  33
ENDBRANCH  31  32
ENDBRANCH   1  31
TORSDOF 16
ENDMDL
