MODEL 1
REMARK VINA RESULT:     -11.1      0.000      0.000
REMARK SMILES O=C(CC[C@]12C[C@H]3C[C@H](C[C@H](C3)C1)C2)NCCCCCCNC(=O)c1ccc(-c2c3nc(c(-c4c(F)cccc4F)c4ccc([nH]4)c(-c4c(F)cccc4F)c4nc(c(-c5c(F)cccc5F)c5ccc2[nH]5)C=C4)C=C3)cc1
REMARK SMILES IDX 18 1 17 2 16 3 15 4 1 5 2 6 3 8 4 9 5 10 6 11 13 12 14 13
REMARK SMILES IDX 7 14 11 15 9 16 8 17 12 18 10 19 19 20 20 21 21 22 22 23
REMARK SMILES IDX 23 24 24 26 25 27 26 28 78 29 27 30 77 31 28 32 29 33 30 34
REMARK SMILES IDX 71 35 31 36 76 37 70 38 72 39 32 40 75 41 69 42 68 43 33 45
REMARK SMILES IDX 59 46 42 47 58 48 43 49 46 50 57 51 73 52 44 53 45 54 56 56
REMARK SMILES IDX 74 57 47 58 34 59 35 60 40 61 36 62 37 63 39 64 41 65 38 66
REMARK SMILES IDX 60 67 61 68 66 69 62 70 63 71 65 72 67 73 64 74 48 75 49 76
REMARK SMILES IDX 54 77 50 78 51 79 53 80 55 81 52 82
REMARK H PARENT 15 7 22 25 72 44 46 55
REMARK Flexibility Score: inf
ROOT
ATOM      1  C   UNL A   1      33.433  30.010  27.409  1.00  0.00     0.002 C 
ENDROOT
BRANCH   1   2
ATOM      2  C   UNL A   1      34.192  29.000  26.541  1.00  0.00     0.021 C 
BRANCH   2   3
ATOM      3  C   UNL A   1      33.598  27.590  26.495  1.00  0.00     0.116 C 
BRANCH   3   4
ATOM      4  N   UNL A   1      32.657  27.393  25.410  1.00  0.00    -0.356 N 
ATOM      5  O   UNL A   1      30.914  26.812  26.788  1.00  0.00    -0.275 OA
ATOM      6  C   UNL A   1      31.341  27.058  25.664  1.00  0.00     0.220 C 
ATOM      7  H   UNL A   1      32.959  27.501  24.480  1.00  0.00     0.163 HD
BRANCH   6   8
ATOM      8  C   UNL A   1      30.443  27.057  24.441  1.00  0.00     0.100 C 
BRANCH   8   9
ATOM      9  C   UNL A   1      30.842  28.090  23.372  1.00  0.00     0.017 C 
BRANCH   9  10
ATOM     10  C   UNL A   1      29.815  29.200  23.011  1.00  0.00    -0.028 C 
ATOM     11  C   UNL A   1      30.146  29.856  21.647  1.00  0.00     0.010 C 
ATOM     12  C   UNL A   1      29.875  30.341  24.073  1.00  0.00     0.010 C 
ATOM     13  C   UNL A   1      28.362  28.660  23.006  1.00  0.00     0.010 C 
ATOM     14  C   UNL A   1      29.128  30.949  21.298  1.00  0.00    -0.010 C 
ATOM     15  C   UNL A   1      28.874  31.468  23.738  1.00  0.00    -0.010 C 
ATOM     16  C   UNL A   1      27.362  29.776  22.669  1.00  0.00    -0.010 C 
ATOM     17  C   UNL A   1      27.717  30.342  21.292  1.00  0.00     0.007 C 
ATOM     18  C   UNL A   1      29.202  32.055  22.356  1.00  0.00     0.007 C 
ATOM     19  C   UNL A   1      27.449  30.894  23.711  1.00  0.00     0.007 C 
ENDBRANCH   9  10
ENDBRANCH   8   9
ENDBRANCH   6   8
ENDBRANCH   3   4
ENDBRANCH   2   3
ENDBRANCH   1   2
BRANCH   1  20
ATOM     20  C   UNL A   1      32.024  30.371  26.930  1.00  0.00     0.002 C 
BRANCH  20  21
ATOM     21  C   UNL A   1      31.678  31.851  26.884  1.00  0.00     0.021 C 
BRANCH  21  22
ATOM     22  C   UNL A   1      32.843  32.782  27.189  1.00  0.00     0.116 C 
BRANCH  22  23
ATOM     23  N   UNL A   1      32.444  34.113  27.622  1.00  0.00    -0.352 N 
ATOM     24  C   UNL A   1      33.015  34.912  28.592  1.00  0.00     0.251 C 
ATOM     25  H   UNL A   1      31.663  34.495  27.161  1.00  0.00     0.163 HD
ATOM     26  O   UNL A   1      32.512  35.984  28.899  1.00  0.00    -0.269 OA
BRANCH  24  27
ATOM     27  C   UNL A   1      34.224  34.428  29.291  1.00  0.00     0.039 A 
ATOM     28  C   UNL A   1      34.078  33.682  30.462  1.00  0.00     0.014 A 
ATOM     29  C   UNL A   1      35.489  34.647  28.745  1.00  0.00     0.014 A 
ATOM     30  C   UNL A   1      35.198  33.081  31.038  1.00  0.00     0.010 A 
ATOM     31  C   UNL A   1      36.586  33.968  29.259  1.00  0.00     0.010 A 
ATOM     32  C   UNL A   1      36.453  33.181  30.413  1.00  0.00    -0.014 A 
BRANCH  32  33
ATOM     33  C   UNL A   1      37.643  32.474  30.946  1.00  0.00     0.031 A 
ATOM     34  C   UNL A   1      38.308  32.968  32.201  1.00  0.00     0.074 A 
ATOM     35  C   UNL A   1      38.171  31.442  30.262  1.00  0.00     0.049 A 
ATOM     36  N   UNL A   1      39.389  32.529  32.794  1.00  0.00    -0.248 NA
ATOM     37  C   UNL A   1      37.700  34.138  32.855  1.00  0.00     0.031 C 
ATOM     38  C   UNL A   1      37.658  30.908  28.997  1.00  0.00     0.029 A 
ATOM     39  N   UNL A   1      39.263  30.655  30.533  1.00  0.00    -0.354 N 
ATOM     40  C   UNL A   1      39.602  33.382  33.868  1.00  0.00     0.074 A 
ATOM     41  C   UNL A   1      38.577  34.400  33.811  1.00  0.00     0.031 C 
ATOM     42  C   UNL A   1      38.407  29.858  28.626  1.00  0.00     0.029 A 
ATOM     43  C   UNL A   1      39.471  29.664  29.605  1.00  0.00     0.049 A 
ATOM     44  H   UNL A   1      39.841  30.789  31.318  1.00  0.00     0.167 HD
ATOM     45  C   UNL A   1      40.550  33.310  34.832  1.00  0.00     0.037 A 
ATOM     46  C   UNL A   1      40.412  28.703  29.556  1.00  0.00     0.037 A 
ATOM     47  C   UNL A   1      41.540  32.270  34.910  1.00  0.00     0.049 A 
ATOM     48  C   UNL A   1      41.442  28.629  30.650  1.00  0.00     0.074 A 
ATOM     49  C   UNL A   1      42.487  32.052  35.894  1.00  0.00     0.029 A 
ATOM     50  N   UNL A   1      41.709  31.272  33.961  1.00  0.00    -0.354 N 
ATOM     51  N   UNL A   1      41.580  29.391  31.708  1.00  0.00    -0.248 NA
ATOM     52  C   UNL A   1      42.442  27.558  30.544  1.00  0.00     0.031 C 
ATOM     53  C   UNL A   1      43.256  30.944  35.521  1.00  0.00     0.029 A 
ATOM     54  C   UNL A   1      42.761  30.448  34.325  1.00  0.00     0.049 A 
ATOM     55  H   UNL A   1      41.162  31.166  33.149  1.00  0.00     0.167 HD
ATOM     56  C   UNL A   1      42.662  28.874  32.408  1.00  0.00     0.074 A 
ATOM     57  C   UNL A   1      43.135  27.727  31.660  1.00  0.00     0.031 C 
ATOM     58  C   UNL A   1      43.214  29.308  33.569  1.00  0.00     0.037 A 
BRANCH  45  59
ATOM     59  C   UNL A   1      40.549  34.387  35.877  1.00  0.00     0.057 A 
ATOM     60  C   UNL A   1      39.783  34.286  37.045  1.00  0.00     0.134 A 
ATOM     61  C   UNL A   1      41.326  35.542  35.713  1.00  0.00     0.134 A 
ATOM     62  F   UNL A   1      39.004  33.214  37.258  1.00  0.00    -0.206 F 
ATOM     63  C   UNL A   1      39.759  35.310  37.995  1.00  0.00     0.040 A 
ATOM     64  C   UNL A   1      41.332  36.559  36.669  1.00  0.00     0.040 A 
ATOM     65  F   UNL A   1      42.087  35.702  34.620  1.00  0.00    -0.206 F 
ATOM     66  C   UNL A   1      40.539  36.448  37.809  1.00  0.00     0.006 A 
ENDBRANCH  45  59
BRANCH  46  67
ATOM     67  C   UNL A   1      40.393  27.696  28.466  1.00  0.00     0.057 A 
ATOM     68  C   UNL A   1      41.082  27.926  27.269  1.00  0.00     0.134 A 
ATOM     69  C   UNL A   1      39.694  26.490  28.588  1.00  0.00     0.134 A 
ATOM     70  F   UNL A   1      41.755  29.072  27.089  1.00  0.00    -0.206 F 
ATOM     71  C   UNL A   1      41.065  27.002  26.225  1.00  0.00     0.040 A 
ATOM     72  C   UNL A   1      39.685  25.546  27.559  1.00  0.00     0.040 A 
ATOM     73  F   UNL A   1      39.019  26.207  29.712  1.00  0.00    -0.206 F 
ATOM     74  C   UNL A   1      40.368  25.804  26.371  1.00  0.00     0.006 A 
ENDBRANCH  46  67
BRANCH  58  75
ATOM     75  C   UNL A   1      44.368  28.519  34.112  1.00  0.00     0.057 A 
ATOM     76  C   UNL A   1      45.695  28.855  33.820  1.00  0.00     0.134 A 
ATOM     77  C   UNL A   1      44.146  27.427  34.960  1.00  0.00     0.134 A 
ATOM     78  F   UNL A   1      45.973  29.883  33.003  1.00  0.00    -0.206 F 
ATOM     79  C   UNL A   1      46.763  28.117  34.334  1.00  0.00     0.040 A 
ATOM     80  C   UNL A   1      45.205  26.697  35.501  1.00  0.00     0.040 A 
ATOM     81  F   UNL A   1      42.898  27.058  35.285  1.00  0.00    -0.206 F 
ATOM     82  C   UNL A   1      46.519  27.038  35.182  1.00  0.00     0.006 A 
ENDBRANCH  58  75
ENDBRANCH  32  33
ENDBRANCH  24  27
ENDBRANCH  22  23
ENDBRANCH  21  22
ENDBRANCH  20  21
ENDBRANCH   1  20
TORSDOF 15
ENDMDL
MODEL 2
REMARK VINA RESULT:     -11.0      4.941     10.876
REMARK SMILES O=C(CC[C@]12C[C@H]3C[C@H](C[C@H](C3)C1)C2)NCCCCCCNC(=O)c1ccc(-c2c3nc(c(-c4c(F)cccc4F)c4ccc([nH]4)c(-c4c(F)cccc4F)c4nc(c(-c5c(F)cccc5F)c5ccc2[nH]5)C=C4)C=C3)cc1
REMARK SMILES IDX 18 1 17 2 16 3 15 4 1 5 2 6 3 8 4 9 5 10 6 11 13 12 14 13
REMARK SMILES IDX 7 14 11 15 9 16 8 17 12 18 10 19 19 20 20 21 21 22 22 23
REMARK SMILES IDX 23 24 24 26 25 27 26 28 78 29 27 30 77 31 28 32 29 33 30 34
REMARK SMILES IDX 71 35 31 36 76 37 70 38 72 39 32 40 75 41 69 42 68 43 33 45
REMARK SMILES IDX 59 46 42 47 58 48 43 49 46 50 57 51 73 52 44 53 45 54 56 56
REMARK SMILES IDX 74 57 47 58 34 59 35 60 40 61 36 62 37 63 39 64 41 65 38 66
REMARK SMILES IDX 60 67 61 68 66 69 62 70 63 71 65 72 67 73 64 74 48 75 49 76
REMARK SMILES IDX 54 77 50 78 51 79 53 80 55 81 52 82
REMARK H PARENT 15 7 22 25 72 44 46 55
REMARK Flexibility Score: inf
ROOT
ATOM      1  C   UNL A   1      41.851  19.460  26.131  1.00  0.00     0.002 C 
ENDROOT
BRANCH   1   2
ATOM      2  C   UNL A   1      43.020  18.473  26.238  1.00  0.00     0.021 C 
BRANCH   2   3
ATOM      3  C   UNL A   1      44.227  18.778  25.348  1.00  0.00     0.116 C 
BRANCH   3   4
ATOM      4  N   UNL A   1      44.232  20.128  24.820  1.00  0.00    -0.356 N 
ATOM      5  O   UNL A   1      46.516  20.344  24.899  1.00  0.00    -0.275 OA
ATOM      6  C   UNL A   1      45.418  20.795  24.589  1.00  0.00     0.220 C 
ATOM      7  H   UNL A   1      43.377  20.575  24.622  1.00  0.00     0.163 HD
BRANCH   6   8
ATOM      8  C   UNL A   1      45.264  22.126  23.876  1.00  0.00     0.100 C 
BRANCH   8   9
ATOM      9  C   UNL A   1      46.140  23.251  24.456  1.00  0.00     0.017 C 
BRANCH   9  10
ATOM     10  C   UNL A   1      45.561  24.099  25.624  1.00  0.00    -0.028 C 
ATOM     11  C   UNL A   1      46.224  25.498  25.689  1.00  0.00     0.010 C 
ATOM     12  C   UNL A   1      45.870  23.403  26.985  1.00  0.00     0.010 C 
ATOM     13  C   UNL A   1      44.022  24.240  25.524  1.00  0.00     0.010 C 
ATOM     14  C   UNL A   1      45.647  26.329  26.843  1.00  0.00    -0.010 C 
ATOM     15  C   UNL A   1      45.319  24.226  28.170  1.00  0.00    -0.010 C 
ATOM     16  C   UNL A   1      43.467  25.062  26.698  1.00  0.00    -0.010 C 
ATOM     17  C   UNL A   1      44.125  26.443  26.672  1.00  0.00     0.007 C 
ATOM     18  C   UNL A   1      45.957  25.624  28.167  1.00  0.00     0.007 C 
ATOM     19  C   UNL A   1      43.797  24.373  28.025  1.00  0.00     0.007 C 
ENDBRANCH   9  10
ENDBRANCH   8   9
ENDBRANCH   6   8
ENDBRANCH   3   4
ENDBRANCH   2   3
ENDBRANCH   1   2
BRANCH   1  20
ATOM     20  C   UNL A   1      41.284  19.964  27.461  1.00  0.00     0.002 C 
BRANCH  20  21
ATOM     21  C   UNL A   1      41.132  21.470  27.611  1.00  0.00     0.021 C 
BRANCH  21  22
ATOM     22  C   UNL A   1      41.027  22.228  26.294  1.00  0.00     0.116 C 
BRANCH  22  23
ATOM     23  N   UNL A   1      39.660  22.491  25.867  1.00  0.00    -0.352 N 
ATOM     24  C   UNL A   1      38.851  23.565  26.179  1.00  0.00     0.251 C 
ATOM     25  H   UNL A   1      39.260  21.813  25.276  1.00  0.00     0.163 HD
ATOM     26  O   UNL A   1      37.687  23.605  25.802  1.00  0.00    -0.269 OA
BRANCH  24  27
ATOM     27  C   UNL A   1      39.400  24.650  27.018  1.00  0.00     0.039 A 
ATOM     28  C   UNL A   1      40.078  25.705  26.404  1.00  0.00     0.014 A 
ATOM     29  C   UNL A   1      39.177  24.658  28.396  1.00  0.00     0.014 A 
ATOM     30  C   UNL A   1      40.455  26.814  27.164  1.00  0.00     0.010 A 
ATOM     31  C   UNL A   1      39.462  25.801  29.130  1.00  0.00     0.010 A 
ATOM     32  C   UNL A   1      40.107  26.890  28.523  1.00  0.00    -0.014 A 
BRANCH  32  33
ATOM     33  C   UNL A   1      40.407  28.095  29.334  1.00  0.00     0.031 A 
ATOM     34  C   UNL A   1      41.719  28.200  30.062  1.00  0.00     0.074 A 
ATOM     35  C   UNL A   1      39.473  29.054  29.479  1.00  0.00     0.049 A 
ATOM     36  N   UNL A   1      42.146  29.140  30.867  1.00  0.00    -0.248 NA
ATOM     37  C   UNL A   1      42.660  27.081  29.894  1.00  0.00     0.031 C 
ATOM     38  C   UNL A   1      38.137  29.037  28.878  1.00  0.00     0.029 A 
ATOM     39  N   UNL A   1      39.504  30.231  30.184  1.00  0.00    -0.354 N 
ATOM     40  C   UNL A   1      43.387  28.711  31.319  1.00  0.00     0.074 A 
ATOM     41  C   UNL A   1      43.618  27.403  30.750  1.00  0.00     0.031 C 
ATOM     42  C   UNL A   1      37.494  30.170  29.204  1.00  0.00     0.029 A 
ATOM     43  C   UNL A   1      38.356  30.975  30.064  1.00  0.00     0.049 A 
ATOM     44  H   UNL A   1      40.276  30.514  30.725  1.00  0.00     0.167 HD
ATOM     45  C   UNL A   1      44.268  29.360  32.116  1.00  0.00     0.037 A 
ATOM     46  C   UNL A   1      38.040  32.177  30.582  1.00  0.00     0.037 A 
ATOM     47  C   UNL A   1      44.053  30.681  32.644  1.00  0.00     0.049 A 
ATOM     48  C   UNL A   1      39.043  32.889  31.446  1.00  0.00     0.074 A 
ATOM     49  C   UNL A   1      44.919  31.466  33.385  1.00  0.00     0.029 A 
ATOM     50  N   UNL A   1      42.885  31.411  32.485  1.00  0.00    -0.354 N 
ATOM     51  N   UNL A   1      40.249  32.511  31.796  1.00  0.00    -0.248 NA
ATOM     52  C   UNL A   1      38.642  34.196  31.983  1.00  0.00     0.031 C 
ATOM     53  C   UNL A   1      44.259  32.656  33.708  1.00  0.00     0.029 A 
ATOM     54  C   UNL A   1      42.998  32.630  33.133  1.00  0.00     0.049 A 
ATOM     55  H   UNL A   1      42.093  31.108  31.985  1.00  0.00     0.167 HD
ATOM     56  C   UNL A   1      40.761  33.545  32.568  1.00  0.00     0.074 A 
ATOM     57  C   UNL A   1      39.740  34.570  32.624  1.00  0.00     0.031 C 
ATOM     58  C   UNL A   1      41.971  33.639  33.175  1.00  0.00     0.037 A 
BRANCH  45  59
ATOM     59  C   UNL A   1      45.543  28.645  32.456  1.00  0.00     0.057 A 
ATOM     60  C   UNL A   1      45.668  27.858  33.608  1.00  0.00     0.134 A 
ATOM     61  C   UNL A   1      46.662  28.744  31.618  1.00  0.00     0.134 A 
ATOM     62  F   UNL A   1      44.640  27.733  34.462  1.00  0.00    -0.206 F 
ATOM     63  C   UNL A   1      46.870  27.227  33.936  1.00  0.00     0.040 A 
ATOM     64  C   UNL A   1      47.860  28.094  31.921  1.00  0.00     0.040 A 
ATOM     65  F   UNL A   1      46.611  29.477  30.496  1.00  0.00    -0.206 F 
ATOM     66  C   UNL A   1      47.968  27.341  33.088  1.00  0.00     0.006 A 
ENDBRANCH  45  59
BRANCH  46  67
ATOM     67  C   UNL A   1      36.739  32.811  30.253  1.00  0.00     0.057 A 
ATOM     68  C   UNL A   1      36.603  33.611  29.112  1.00  0.00     0.134 A 
ATOM     69  C   UNL A   1      35.608  32.637  31.059  1.00  0.00     0.134 A 
ATOM     70  F   UNL A   1      37.657  33.827  28.312  1.00  0.00    -0.206 F 
ATOM     71  C   UNL A   1      35.395  34.230  28.792  1.00  0.00     0.040 A 
ATOM     72  C   UNL A   1      34.387  33.233  30.740  1.00  0.00     0.040 A 
ATOM     73  F   UNL A   1      35.672  31.877  32.162  1.00  0.00    -0.206 F 
ATOM     74  C   UNL A   1      34.280  34.037  29.605  1.00  0.00     0.006 A 
ENDBRANCH  46  67
BRANCH  58  75
ATOM     75  C   UNL A   1      42.262  34.907  33.920  1.00  0.00     0.057 A 
ATOM     76  C   UNL A   1      41.996  35.037  35.289  1.00  0.00     0.134 A 
ATOM     77  C   UNL A   1      42.843  36.001  33.266  1.00  0.00     0.134 A 
ATOM     78  F   UNL A   1      41.427  34.031  35.970  1.00  0.00    -0.206 F 
ATOM     79  C   UNL A   1      42.274  36.221  35.976  1.00  0.00     0.040 A 
ATOM     80  C   UNL A   1      43.150  37.179  33.946  1.00  0.00     0.040 A 
ATOM     81  F   UNL A   1      43.131  35.937  31.957  1.00  0.00    -0.206 F 
ATOM     82  C   UNL A   1      42.859  37.293  35.305  1.00  0.00     0.006 A 
ENDBRANCH  58  75
ENDBRANCH  32  33
ENDBRANCH  24  27
ENDBRANCH  22  23
ENDBRANCH  21  22
ENDBRANCH  20  21
ENDBRANCH   1  20
TORSDOF 15
ENDMDL
MODEL 3
REMARK VINA RESULT:     -10.9      4.781      9.554
REMARK SMILES O=C(CC[C@]12C[C@H]3C[C@H](C[C@H](C3)C1)C2)NCCCCCCNC(=O)c1ccc(-c2c3nc(c(-c4c(F)cccc4F)c4ccc([nH]4)c(-c4c(F)cccc4F)c4nc(c(-c5c(F)cccc5F)c5ccc2[nH]5)C=C4)C=C3)cc1
REMARK SMILES IDX 18 1 17 2 16 3 15 4 1 5 2 6 3 8 4 9 5 10 6 11 13 12 14 13
REMARK SMILES IDX 7 14 11 15 9 16 8 17 12 18 10 19 19 20 20 21 21 22 22 23
REMARK SMILES IDX 23 24 24 26 25 27 26 28 78 29 27 30 77 31 28 32 29 33 30 34
REMARK SMILES IDX 71 35 31 36 76 37 70 38 72 39 32 40 75 41 69 42 68 43 33 45
REMARK SMILES IDX 59 46 42 47 58 48 43 49 46 50 57 51 73 52 44 53 45 54 56 56
REMARK SMILES IDX 74 57 47 58 34 59 35 60 40 61 36 62 37 63 39 64 41 65 38 66
REMARK SMILES IDX 60 67 61 68 66 69 62 70 63 71 65 72 67 73 64 74 48 75 49 76
REMARK SMILES IDX 54 77 50 78 51 79 53 80 55 81 52 82
REMARK H PARENT 15 7 22 25 72 44 46 55
REMARK Flexibility Score: inf
ROOT
ATOM      1  C   UNL A   1      35.494  21.206  25.736  1.00  0.00     0.002 C 
ENDROOT
BRANCH   1   2
ATOM      2  C   UNL A   1      34.193  21.172  24.925  1.00  0.00     0.021 C 
BRANCH   2   3
ATOM      3  C   UNL A   1      32.912  21.442  25.718  1.00  0.00     0.116 C 
BRANCH   3   4
ATOM      4  N   UNL A   1      32.135  22.552  25.203  1.00  0.00    -0.356 N 
ATOM      5  O   UNL A   1      31.589  23.368  27.279  1.00  0.00    -0.275 OA
ATOM      6  C   UNL A   1      31.564  23.475  26.057  1.00  0.00     0.220 C 
ATOM      7  H   UNL A   1      32.013  22.650  24.232  1.00  0.00     0.163 HD
BRANCH   6   8
ATOM      8  C   UNL A   1      30.932  24.668  25.364  1.00  0.00     0.100 C 
BRANCH   8   9
ATOM      9  C   UNL A   1      30.682  25.870  26.292  1.00  0.00     0.017 C 
BRANCH   9  10
ATOM     10  C   UNL A   1      31.533  27.153  26.069  1.00  0.00    -0.028 C 
ATOM     11  C   UNL A   1      33.039  26.815  25.933  1.00  0.00     0.010 C 
ATOM     12  C   UNL A   1      31.404  28.093  27.307  1.00  0.00     0.010 C 
ATOM     13  C   UNL A   1      31.050  27.957  24.836  1.00  0.00     0.010 C 
ATOM     14  C   UNL A   1      33.871  28.086  25.713  1.00  0.00    -0.010 C 
ATOM     15  C   UNL A   1      32.248  29.373  27.126  1.00  0.00    -0.010 C 
ATOM     16  C   UNL A   1      31.889  29.230  24.647  1.00  0.00    -0.010 C 
ATOM     17  C   UNL A   1      33.352  28.821  24.468  1.00  0.00     0.007 C 
ATOM     18  C   UNL A   1      33.725  28.994  26.938  1.00  0.00     0.007 C 
ATOM     19  C   UNL A   1      31.765  30.130  25.879  1.00  0.00     0.007 C 
ENDBRANCH   9  10
ENDBRANCH   8   9
ENDBRANCH   6   8
ENDBRANCH   3   4
ENDBRANCH   2   3
ENDBRANCH   1   2
BRANCH   1  20
ATOM     20  C   UNL A   1      36.777  21.395  24.923  1.00  0.00     0.002 C 
BRANCH  20  21
ATOM     21  C   UNL A   1      37.791  20.262  24.976  1.00  0.00     0.021 C 
BRANCH  21  22
ATOM     22  C   UNL A   1      39.035  20.567  25.798  1.00  0.00     0.116 C 
BRANCH  22  23
ATOM     23  N   UNL A   1      40.012  19.487  25.824  1.00  0.00    -0.352 N 
ATOM     24  C   UNL A   1      41.356  19.548  26.131  1.00  0.00     0.251 C 
ATOM     25  H   UNL A   1      39.667  18.595  25.592  1.00  0.00     0.163 HD
ATOM     26  O   UNL A   1      42.068  18.558  26.030  1.00  0.00    -0.269 OA
BRANCH  24  27
ATOM     27  C   UNL A   1      41.935  20.844  26.540  1.00  0.00     0.039 A 
ATOM     28  C   UNL A   1      42.283  21.772  25.557  1.00  0.00     0.014 A 
ATOM     29  C   UNL A   1      42.059  21.165  27.892  1.00  0.00     0.014 A 
ATOM     30  C   UNL A   1      42.674  23.058  25.934  1.00  0.00     0.010 A 
ATOM     31  C   UNL A   1      42.350  22.471  28.263  1.00  0.00     0.010 A 
ATOM     32  C   UNL A   1      42.663  23.431  27.289  1.00  0.00    -0.014 A 
BRANCH  32  33
ATOM     33  C   UNL A   1      42.979  24.816  27.714  1.00  0.00     0.031 A 
ATOM     34  C   UNL A   1      44.413  25.255  27.832  1.00  0.00     0.074 A 
ATOM     35  C   UNL A   1      41.985  25.650  28.071  1.00  0.00     0.049 A 
ATOM     36  N   UNL A   1      44.897  26.399  28.242  1.00  0.00    -0.248 NA
ATOM     37  C   UNL A   1      45.440  24.262  27.477  1.00  0.00     0.031 C 
ATOM     38  C   UNL A   1      40.556  25.322  28.064  1.00  0.00     0.029 A 
ATOM     39  N   UNL A   1      42.023  26.949  28.513  1.00  0.00    -0.354 N 
ATOM     40  C   UNL A   1      46.278  26.252  28.222  1.00  0.00     0.074 A 
ATOM     41  C   UNL A   1      46.554  24.892  27.818  1.00  0.00     0.031 C 
ATOM     42  C   UNL A   1      39.855  26.403  28.440  1.00  0.00     0.029 A 
ATOM     43  C   UNL A   1      40.782  27.488  28.747  1.00  0.00     0.049 A 
ATOM     44  H   UNL A   1      42.862  27.447  28.649  1.00  0.00     0.167 HD
ATOM     45  C   UNL A   1      47.232  27.174  28.489  1.00  0.00     0.037 A 
ATOM     46  C   UNL A   1      40.432  28.722  29.156  1.00  0.00     0.037 A 
ATOM     47  C   UNL A   1      46.953  28.539  28.847  1.00  0.00     0.049 A 
ATOM     48  C   UNL A   1      41.509  29.737  29.425  1.00  0.00     0.074 A 
ATOM     49  C   UNL A   1      47.845  29.578  29.049  1.00  0.00     0.029 A 
ATOM     50  N   UNL A   1      45.683  29.054  29.057  1.00  0.00    -0.354 N 
ATOM     51  N   UNL A   1      42.810  29.610  29.318  1.00  0.00    -0.248 NA
ATOM     52  C   UNL A   1      41.067  31.066  29.867  1.00  0.00     0.031 C 
ATOM     53  C   UNL A   1      47.115  30.713  29.420  1.00  0.00     0.029 A 
ATOM     54  C   UNL A   1      45.766  30.391  29.409  1.00  0.00     0.049 A 
ATOM     55  H   UNL A   1      44.845  28.544  28.969  1.00  0.00     0.167 HD
ATOM     56  C   UNL A   1      43.339  30.850  29.650  1.00  0.00     0.074 A 
ATOM     57  C   UNL A   1      42.218  31.717  29.950  1.00  0.00     0.031 C 
ATOM     58  C   UNL A   1      44.638  31.238  29.700  1.00  0.00     0.037 A 
BRANCH  45  59
ATOM     59  C   UNL A   1      48.663  26.729  28.397  1.00  0.00     0.057 A 
ATOM     60  C   UNL A   1      49.351  26.211  29.502  1.00  0.00     0.134 A 
ATOM     61  C   UNL A   1      49.362  26.821  27.186  1.00  0.00     0.134 A 
ATOM     62  F   UNL A   1      48.745  26.110  30.695  1.00  0.00    -0.206 F 
ATOM     63  C   UNL A   1      50.692  25.835  29.417  1.00  0.00     0.040 A 
ATOM     64  C   UNL A   1      50.696  26.421  27.082  1.00  0.00     0.040 A 
ATOM     65  F   UNL A   1      48.763  27.304  26.087  1.00  0.00    -0.206 F 
ATOM     66  C   UNL A   1      51.367  25.935  28.202  1.00  0.00     0.006 A 
ENDBRANCH  45  59
BRANCH  46  67
ATOM     67  C   UNL A   1      39.000  29.088  29.280  1.00  0.00     0.057 A 
ATOM     68  C   UNL A   1      38.282  29.553  28.171  1.00  0.00     0.134 A 
ATOM     69  C   UNL A   1      38.314  28.984  30.496  1.00  0.00     0.134 A 
ATOM     70  F   UNL A   1      38.891  29.689  26.984  1.00  0.00    -0.206 F 
ATOM     71  C   UNL A   1      36.940  29.918  28.268  1.00  0.00     0.040 A 
ATOM     72  C   UNL A   1      36.964  29.325  30.603  1.00  0.00     0.040 A 
ATOM     73  F   UNL A   1      38.943  28.539  31.593  1.00  0.00    -0.206 F 
ATOM     74  C   UNL A   1      36.275  29.799  29.487  1.00  0.00     0.006 A 
ENDBRANCH  46  67
BRANCH  58  75
ATOM     75  C   UNL A   1      44.909  32.668  30.061  1.00  0.00     0.057 A 
ATOM     76  C   UNL A   1      44.944  33.680  29.093  1.00  0.00     0.134 A 
ATOM     77  C   UNL A   1      45.109  33.040  31.396  1.00  0.00     0.134 A 
ATOM     78  F   UNL A   1      44.774  33.387  27.795  1.00  0.00    -0.206 F 
ATOM     79  C   UNL A   1      45.193  35.010  29.439  1.00  0.00     0.040 A 
ATOM     80  C   UNL A   1      45.332  34.369  31.757  1.00  0.00     0.040 A 
ATOM     81  F   UNL A   1      45.079  32.120  32.371  1.00  0.00    -0.206 F 
ATOM     82  C   UNL A   1      45.382  35.357  30.775  1.00  0.00     0.006 A 
ENDBRANCH  58  75
ENDBRANCH  32  33
ENDBRANCH  24  27
ENDBRANCH  22  23
ENDBRANCH  21  22
ENDBRANCH  20  21
ENDBRANCH   1  20
TORSDOF 15
ENDMDL
