MODEL 1
REMARK VINA RESULT:     -11.1      0.000      0.000
REMARK SMILES CC(C)Oc1ccc([C@H](O)[C@H](F)C(=O)NCCCCCCNC(=O)c2ccc(-c3c4nc(c(-c5c(F)cccc5F)c5ccc([nH]5)c(-c5c(F)cccc5F)c5nc(c(-c6c(F)cccc6F)c6ccc3[nH]6)C=C5)C=C4)cc2)cc1
REMARK SMILES IDX 17 1 16 2 15 3 13 4 14 5 11 7 12 8 9 9 8 10 5 11 6 12 80 13
REMARK SMILES IDX 7 14 79 15 4 16 2 17 1 18 3 19 10 20 18 22 19 23 20 24 21 25
REMARK SMILES IDX 22 26 23 27 24 29 25 30 26 31 78 32 27 33 77 34 28 35 29 36
REMARK SMILES IDX 30 37 71 38 31 39 76 40 70 41 72 42 32 43 75 44 69 45 68 46
REMARK SMILES IDX 33 48 59 49 42 50 58 51 43 52 46 53 57 54 73 55 44 56 45 57
REMARK SMILES IDX 56 59 74 60 47 61 34 62 35 63 40 64 36 65 37 66 39 67 41 68
REMARK SMILES IDX 38 69 60 70 61 71 66 72 62 73 63 74 65 75 67 76 64 77 48 78
REMARK SMILES IDX 49 79 54 80 50 81 51 82 53 83 55 84 52 85
REMARK H PARENT 15 6 10 21 22 28 72 47 46 58
REMARK Flexibility Score: inf
ROOT
ATOM      1  C   UNL A   1      32.905  28.484  27.195  1.00  0.00     0.021 C 
ENDROOT
BRANCH   1   2
ATOM      2  C   UNL A   1      31.517  27.862  27.093  1.00  0.00     0.116 C 
BRANCH   2   3
ATOM      3  N   UNL A   1      31.576  26.416  27.011  1.00  0.00    -0.353 N 
ATOM      4  C   UNL A   1      31.578  25.616  25.909  1.00  0.00     0.257 C 
ATOM      5  O   UNL A   1      31.739  24.403  26.073  1.00  0.00    -0.272 OA
ATOM      6  H   UNL A   1      31.619  25.946  27.875  1.00  0.00     0.163 HD
BRANCH   4   7
ATOM      7  C   UNL A   1      31.501  26.202  24.509  1.00  0.00     0.288 C 
ATOM      8  F   UNL A   1      32.295  25.524  23.628  1.00  0.00    -0.234 F 
BRANCH   7   9
ATOM      9  C   UNL A   1      30.042  26.198  24.022  1.00  0.00     0.188 C 
BRANCH   9  10
ATOM     10  C   UNL A   1      29.455  27.542  23.634  1.00  0.00    -0.016 A 
ATOM     11  C   UNL A   1      28.199  29.996  23.064  1.00  0.00     0.119 A 
ATOM     12  C   UNL A   1      29.584  29.932  23.200  1.00  0.00     0.047 A 
ATOM     13  C   UNL A   1      27.445  28.833  23.130  1.00  0.00     0.047 A 
ATOM     14  C   UNL A   1      30.209  28.714  23.487  1.00  0.00     0.010 A 
ATOM     15  C   UNL A   1      28.065  27.620  23.434  1.00  0.00     0.010 A 
BRANCH  11  16
ATOM     16  O   UNL A   1      27.653  31.214  22.780  1.00  0.00    -0.491 OA
BRANCH  16  17
ATOM     17  C   UNL A   1      28.504  32.181  22.135  1.00  0.00     0.167 C 
ATOM     18  C   UNL A   1      28.046  32.524  20.721  1.00  0.00     0.052 C 
ATOM     19  C   UNL A   1      28.803  33.427  22.972  1.00  0.00     0.052 C 
ENDBRANCH  16  17
ENDBRANCH  11  16
ENDBRANCH   9  10
BRANCH   9  20
ATOM     20  O   UNL A   1      29.122  25.635  24.972  1.00  0.00    -0.385 OA
ATOM     21  H   UNL A   1      29.515  25.662  25.858  1.00  0.00     0.211 HD
ENDBRANCH   9  20
ENDBRANCH   7   9
ENDBRANCH   4   7
ENDBRANCH   2   3
ENDBRANCH   1   2
BRANCH   1  22
ATOM     22  C   UNL A   1      32.963  29.980  26.864  1.00  0.00     0.002 C 
BRANCH  22  23
ATOM     23  C   UNL A   1      31.660  30.587  26.337  1.00  0.00     0.002 C 
BRANCH  23  24
ATOM     24  C   UNL A   1      31.439  32.059  26.688  1.00  0.00     0.021 C 
BRANCH  24  25
ATOM     25  C   UNL A   1      32.652  32.764  27.285  1.00  0.00     0.116 C 
BRANCH  25  26
ATOM     26  N   UNL A   1      32.375  34.150  27.627  1.00  0.00    -0.352 N 
ATOM     27  C   UNL A   1      32.990  34.956  28.551  1.00  0.00     0.251 C 
ATOM     28  H   UNL A   1      31.642  34.571  27.122  1.00  0.00     0.163 HD
ATOM     29  O   UNL A   1      32.512  36.052  28.831  1.00  0.00    -0.269 OA
BRANCH  27  30
ATOM     30  C   UNL A   1      34.215  34.491  29.233  1.00  0.00     0.039 A 
ATOM     31  C   UNL A   1      34.102  33.916  30.501  1.00  0.00     0.014 A 
ATOM     32  C   UNL A   1      35.467  34.611  28.624  1.00  0.00     0.014 A 
ATOM     33  C   UNL A   1      35.237  33.399  31.128  1.00  0.00     0.010 A 
ATOM     34  C   UNL A   1      36.584  34.029  29.216  1.00  0.00     0.010 A 
ATOM     35  C   UNL A   1      36.481  33.414  30.473  1.00  0.00    -0.014 A 
BRANCH  35  36
ATOM     36  C   UNL A   1      37.673  32.769  31.080  1.00  0.00     0.031 A 
ATOM     37  C   UNL A   1      38.278  31.544  30.453  1.00  0.00     0.074 A 
ATOM     38  C   UNL A   1      38.172  33.252  32.236  1.00  0.00     0.049 A 
ATOM     39  N   UNL A   1      39.275  30.808  30.873  1.00  0.00    -0.248 NA
ATOM     40  C   UNL A   1      37.669  31.068  29.200  1.00  0.00     0.031 C 
ATOM     41  C   UNL A   1      37.644  34.405  32.970  1.00  0.00     0.029 A 
ATOM     42  N   UNL A   1      39.227  32.826  33.005  1.00  0.00    -0.354 N 
ATOM     43  C   UNL A   1      39.405  29.780  29.948  1.00  0.00     0.074 A 
ATOM     44  C   UNL A   1      38.355  29.957  28.969  1.00  0.00     0.031 C 
ATOM     45  C   UNL A   1      38.387  34.604  34.071  1.00  0.00     0.029 A 
ATOM     46  C   UNL A   1      39.413  33.570  34.146  1.00  0.00     0.049 A 
ATOM     47  H   UNL A   1      39.795  32.060  32.763  1.00  0.00     0.167 HD
ATOM     48  C   UNL A   1      40.327  28.789  29.909  1.00  0.00     0.037 A 
ATOM     49  C   UNL A   1      40.301  33.427  35.148  1.00  0.00     0.037 A 
ATOM     50  C   UNL A   1      41.385  28.630  30.872  1.00  0.00     0.049 A 
ATOM     51  C   UNL A   1      41.305  32.308  35.084  1.00  0.00     0.074 A 
ATOM     52  C   UNL A   1      42.410  27.699  30.877  1.00  0.00     0.029 A 
ATOM     53  N   UNL A   1      41.551  29.412  32.004  1.00  0.00    -0.354 N 
ATOM     54  N   UNL A   1      41.467  31.393  34.159  1.00  0.00    -0.248 NA
ATOM     55  C   UNL A   1      42.255  32.204  36.200  1.00  0.00     0.031 C 
ATOM     56  C   UNL A   1      43.161  27.882  32.041  1.00  0.00     0.029 A 
ATOM     57  C   UNL A   1      42.643  28.965  32.731  1.00  0.00     0.049 A 
ATOM     58  H   UNL A   1      40.979  30.173  32.254  1.00  0.00     0.167 HD
ATOM     59  C   UNL A   1      42.550  30.626  34.566  1.00  0.00     0.074 A 
ATOM     60  C   UNL A   1      43.021  31.195  35.811  1.00  0.00     0.031 C 
ATOM     61  C   UNL A   1      43.105  29.545  33.965  1.00  0.00     0.037 A 
BRANCH  48  62
ATOM     62  C   UNL A   1      40.244  27.795  28.787  1.00  0.00     0.057 A 
ATOM     63  C   UNL A   1      40.935  27.978  27.582  1.00  0.00     0.134 A 
ATOM     64  C   UNL A   1      39.520  26.606  28.942  1.00  0.00     0.134 A 
ATOM     65  F   UNL A   1      41.639  29.099  27.365  1.00  0.00    -0.206 F 
ATOM     66  C   UNL A   1      40.898  27.022  26.567  1.00  0.00     0.040 A 
ATOM     67  C   UNL A   1      39.498  25.630  27.944  1.00  0.00     0.040 A 
ATOM     68  F   UNL A   1      38.840  26.363  30.072  1.00  0.00    -0.206 F 
ATOM     69  C   UNL A   1      40.186  25.838  26.751  1.00  0.00     0.006 A 
ENDBRANCH  48  62
BRANCH  49  70
ATOM     70  C   UNL A   1      40.285  34.359  36.305  1.00  0.00     0.057 A 
ATOM     71  C   UNL A   1      39.556  34.068  37.463  1.00  0.00     0.134 A 
ATOM     72  C   UNL A   1      40.969  35.582  36.268  1.00  0.00     0.134 A 
ATOM     73  F   UNL A   1      38.864  32.922  37.555  1.00  0.00    -0.206 F 
ATOM     74  C   UNL A   1      39.478  34.970  38.527  1.00  0.00     0.040 A 
ATOM     75  C   UNL A   1      40.926  36.478  37.335  1.00  0.00     0.040 A 
ATOM     76  F   UNL A   1      41.695  35.919  35.191  1.00  0.00    -0.206 F 
ATOM     77  C   UNL A   1      40.168  36.178  38.466  1.00  0.00     0.006 A 
ENDBRANCH  49  70
BRANCH  61  78
ATOM     78  C   UNL A   1      44.305  28.930  34.623  1.00  0.00     0.057 A 
ATOM     79  C   UNL A   1      44.189  27.884  35.547  1.00  0.00     0.134 A 
ATOM     80  C   UNL A   1      45.597  29.365  34.299  1.00  0.00     0.134 A 
ATOM     81  F   UNL A   1      42.980  27.429  35.912  1.00  0.00    -0.206 F 
ATOM     82  C   UNL A   1      45.313  27.308  36.143  1.00  0.00     0.040 A 
ATOM     83  C   UNL A   1      46.729  28.777  34.863  1.00  0.00     0.040 A 
ATOM     84  F   UNL A   1      45.780  30.356  33.414  1.00  0.00    -0.206 F 
ATOM     85  C   UNL A   1      46.588  27.750  35.795  1.00  0.00     0.006 A 
ENDBRANCH  61  78
ENDBRANCH  35  36
ENDBRANCH  27  30
ENDBRANCH  25  26
ENDBRANCH  24  25
ENDBRANCH  23  24
ENDBRANCH  22  23
ENDBRANCH   1  22
TORSDOF 18
ENDMDL
MODEL 2
REMARK VINA RESULT:     -10.9      1.058      6.201
REMARK SMILES CC(C)Oc1ccc([C@H](O)[C@H](F)C(=O)NCCCCCCNC(=O)c2ccc(-c3c4nc(c(-c5c(F)cccc5F)c5ccc([nH]5)c(-c5c(F)cccc5F)c5nc(c(-c6c(F)cccc6F)c6ccc3[nH]6)C=C5)C=C4)cc2)cc1
REMARK SMILES IDX 17 1 16 2 15 3 13 4 14 5 11 7 12 8 9 9 8 10 5 11 6 12 80 13
REMARK SMILES IDX 7 14 79 15 4 16 2 17 1 18 3 19 10 20 18 22 19 23 20 24 21 25
REMARK SMILES IDX 22 26 23 27 24 29 25 30 26 31 78 32 27 33 77 34 28 35 29 36
REMARK SMILES IDX 30 37 71 38 31 39 76 40 70 41 72 42 32 43 75 44 69 45 68 46
REMARK SMILES IDX 33 48 59 49 42 50 58 51 43 52 46 53 57 54 73 55 44 56 45 57
REMARK SMILES IDX 56 59 74 60 47 61 34 62 35 63 40 64 36 65 37 66 39 67 41 68
REMARK SMILES IDX 38 69 60 70 61 71 66 72 62 73 63 74 65 75 67 76 64 77 48 78
REMARK SMILES IDX 49 79 54 80 50 81 51 82 53 83 55 84 52 85
REMARK H PARENT 15 6 10 21 22 28 72 47 46 58
REMARK Flexibility Score: inf
ROOT
ATOM      1  C   UNL A   1      32.833  28.452  26.541  1.00  0.00     0.021 C 
ENDROOT
BRANCH   1   2
ATOM      2  C   UNL A   1      31.420  27.923  26.754  1.00  0.00     0.116 C 
BRANCH   2   3
ATOM      3  N   UNL A   1      31.420  26.550  27.221  1.00  0.00    -0.353 N 
ATOM      4  C   UNL A   1      31.515  25.397  26.503  1.00  0.00     0.257 C 
ATOM      5  O   UNL A   1      31.598  24.332  27.123  1.00  0.00    -0.272 OA
ATOM      6  H   UNL A   1      31.339  26.435  28.195  1.00  0.00     0.163 HD
BRANCH   4   7
ATOM      7  C   UNL A   1      31.631  25.419  24.988  1.00  0.00     0.288 C 
ATOM      8  F   UNL A   1      32.199  24.275  24.503  1.00  0.00    -0.234 F 
BRANCH   7   9
ATOM      9  C   UNL A   1      30.242  25.629  24.362  1.00  0.00     0.188 C 
BRANCH   9  10
ATOM     10  C   UNL A   1      30.039  26.915  23.582  1.00  0.00    -0.016 A 
ATOM     11  C   UNL A   1      29.519  29.366  22.299  1.00  0.00     0.119 A 
ATOM     12  C   UNL A   1      30.820  28.875  22.371  1.00  0.00     0.047 A 
ATOM     13  C   UNL A   1      28.467  28.606  22.790  1.00  0.00     0.047 A 
ATOM     14  C   UNL A   1      31.081  27.659  23.012  1.00  0.00     0.010 A 
ATOM     15  C   UNL A   1      28.726  27.402  23.445  1.00  0.00     0.010 A 
BRANCH  11  16
ATOM     16  O   UNL A   1      29.333  30.556  21.657  1.00  0.00    -0.491 OA
BRANCH  16  17
ATOM     17  C   UNL A   1      28.386  31.473  22.237  1.00  0.00     0.167 C 
ATOM     18  C   UNL A   1      28.755  31.886  23.660  1.00  0.00     0.052 C 
ATOM     19  C   UNL A   1      28.035  32.672  21.353  1.00  0.00     0.052 C 
ENDBRANCH  16  17
ENDBRANCH  11  16
ENDBRANCH   9  10
BRANCH   9  20
ATOM     20  O   UNL A   1      29.169  25.585  25.317  1.00  0.00    -0.385 OA
ATOM     21  H   UNL A   1      28.910  24.663  25.470  1.00  0.00     0.211 HD
ENDBRANCH   9  20
ENDBRANCH   7   9
ENDBRANCH   4   7
ENDBRANCH   2   3
ENDBRANCH   1   2
BRANCH   1  22
ATOM     22  C   UNL A   1      32.907  29.901  26.048  1.00  0.00     0.002 C 
BRANCH  22  23
ATOM     23  C   UNL A   1      31.558  30.571  25.772  1.00  0.00     0.002 C 
BRANCH  23  24
ATOM     24  C   UNL A   1      31.378  31.954  26.397  1.00  0.00     0.021 C 
BRANCH  24  25
ATOM     25  C   UNL A   1      32.570  32.452  27.206  1.00  0.00     0.116 C 
BRANCH  25  26
ATOM     26  N   UNL A   1      32.453  33.857  27.560  1.00  0.00    -0.352 N 
ATOM     27  C   UNL A   1      33.156  34.580  28.492  1.00  0.00     0.251 C 
ATOM     28  H   UNL A   1      31.773  34.363  27.060  1.00  0.00     0.163 HD
ATOM     29  O   UNL A   1      32.806  35.721  28.781  1.00  0.00    -0.269 OA
BRANCH  27  30
ATOM     30  C   UNL A   1      34.320  33.972  29.169  1.00  0.00     0.039 A 
ATOM     31  C   UNL A   1      34.096  33.075  30.216  1.00  0.00     0.014 A 
ATOM     32  C   UNL A   1      35.624  34.275  28.768  1.00  0.00     0.014 A 
ATOM     33  C   UNL A   1      35.179  32.431  30.816  1.00  0.00     0.010 A 
ATOM     34  C   UNL A   1      36.696  33.577  29.316  1.00  0.00     0.010 A 
ATOM     35  C   UNL A   1      36.485  32.645  30.344  1.00  0.00    -0.014 A 
BRANCH  35  36
ATOM     36  C   UNL A   1      37.634  31.884  30.898  1.00  0.00     0.031 A 
ATOM     37  C   UNL A   1      38.165  32.200  32.269  1.00  0.00     0.074 A 
ATOM     38  C   UNL A   1      38.240  30.950  30.138  1.00  0.00     0.049 A 
ATOM     39  N   UNL A   1      39.197  31.690  32.891  1.00  0.00    -0.248 NA
ATOM     40  C   UNL A   1      37.460  33.242  33.033  1.00  0.00     0.031 C 
ATOM     41  C   UNL A   1      37.851  30.586  28.773  1.00  0.00     0.029 A 
ATOM     42  N   UNL A   1      39.322  30.145  30.398  1.00  0.00    -0.354 N 
ATOM     43  C   UNL A   1      39.272  32.354  34.109  1.00  0.00     0.074 A 
ATOM     44  C   UNL A   1      38.211  33.337  34.121  1.00  0.00     0.031 C 
ATOM     45  C   UNL A   1      38.669  29.621  28.324  1.00  0.00     0.029 A 
ATOM     46  C   UNL A   1      39.665  29.328  29.347  1.00  0.00     0.049 A 
ATOM     47  H   UNL A   1      39.805  30.154  31.255  1.00  0.00     0.167 HD
ATOM     48  C   UNL A   1      40.135  32.149  35.133  1.00  0.00     0.037 A 
ATOM     49  C   UNL A   1      40.680  28.451  29.217  1.00  0.00     0.037 A 
ATOM     50  C   UNL A   1      41.174  31.153  35.128  1.00  0.00     0.049 A 
ATOM     51  C   UNL A   1      41.632  28.256  30.367  1.00  0.00     0.074 A 
ATOM     52  C   UNL A   1      42.053  30.823  36.146  1.00  0.00     0.029 A 
ATOM     53  N   UNL A   1      41.481  30.333  34.053  1.00  0.00    -0.354 N 
ATOM     54  N   UNL A   1      41.638  28.833  31.543  1.00  0.00    -0.248 NA
ATOM     55  C   UNL A   1      42.715  27.281  30.172  1.00  0.00     0.031 C 
ATOM     56  C   UNL A   1      42.928  29.844  35.666  1.00  0.00     0.029 A 
ATOM     57  C   UNL A   1      42.557  29.520  34.372  1.00  0.00     0.049 A 
ATOM     58  H   UNL A   1      41.005  30.330  33.191  1.00  0.00     0.167 HD
ATOM     59  C   UNL A   1      42.703  28.273  32.237  1.00  0.00     0.074 A 
ATOM     60  C   UNL A   1      43.307  27.295  31.357  1.00  0.00     0.031 C 
ATOM     61  C   UNL A   1      43.144  28.545  33.490  1.00  0.00     0.037 A 
BRANCH  48  62
ATOM     62  C   UNL A   1      39.997  33.014  36.352  1.00  0.00     0.057 A 
ATOM     63  C   UNL A   1      40.738  34.191  36.513  1.00  0.00     0.134 A 
ATOM     64  C   UNL A   1      39.058  32.701  37.344  1.00  0.00     0.134 A 
ATOM     65  F   UNL A   1      41.661  34.544  35.606  1.00  0.00    -0.206 F 
ATOM     66  C   UNL A   1      40.562  35.019  37.623  1.00  0.00     0.040 A 
ATOM     67  C   UNL A   1      38.852  33.535  38.444  1.00  0.00     0.040 A 
ATOM     68  F   UNL A   1      38.309  31.592  37.249  1.00  0.00    -0.206 F 
ATOM     69  C   UNL A   1      39.608  34.697  38.587  1.00  0.00     0.006 A 
ENDBRANCH  48  62
BRANCH  49  70
ATOM     70  C   UNL A   1      40.860  27.693  27.952  1.00  0.00     0.057 A 
ATOM     71  C   UNL A   1      40.290  26.426  27.778  1.00  0.00     0.134 A 
ATOM     72  C   UNL A   1      41.635  28.199  26.901  1.00  0.00     0.134 A 
ATOM     73  F   UNL A   1      39.552  25.877  28.754  1.00  0.00    -0.206 F 
ATOM     74  C   UNL A   1      40.511  25.676  26.620  1.00  0.00     0.040 A 
ATOM     75  C   UNL A   1      41.839  27.474  25.727  1.00  0.00     0.040 A 
ATOM     76  F   UNL A   1      42.202  29.411  26.999  1.00  0.00    -0.206 F 
ATOM     77  C   UNL A   1      41.286  26.203  25.588  1.00  0.00     0.006 A 
ENDBRANCH  49  70
BRANCH  61  78
ATOM     78  C   UNL A   1      44.310  27.750  33.998  1.00  0.00     0.057 A 
ATOM     79  C   UNL A   1      44.146  26.499  34.608  1.00  0.00     0.134 A 
ATOM     80  C   UNL A   1      45.619  28.224  33.840  1.00  0.00     0.134 A 
ATOM     81  F   UNL A   1      42.919  25.993  34.802  1.00  0.00    -0.206 F 
ATOM     82  C   UNL A   1      45.240  25.760  35.063  1.00  0.00     0.040 A 
ATOM     83  C   UNL A   1      46.722  27.482  34.262  1.00  0.00     0.040 A 
ATOM     84  F   UNL A   1      45.848  29.410  33.255  1.00  0.00    -0.206 F 
ATOM     85  C   UNL A   1      46.533  26.249  34.883  1.00  0.00     0.006 A 
ENDBRANCH  61  78
ENDBRANCH  35  36
ENDBRANCH  27  30
ENDBRANCH  25  26
ENDBRANCH  24  25
ENDBRANCH  23  24
ENDBRANCH  22  23
ENDBRANCH   1  22
TORSDOF 18
ENDMDL
MODEL 3
REMARK VINA RESULT:     -10.6      3.736      7.965
REMARK SMILES CC(C)Oc1ccc([C@H](O)[C@H](F)C(=O)NCCCCCCNC(=O)c2ccc(-c3c4nc(c(-c5c(F)cccc5F)c5ccc([nH]5)c(-c5c(F)cccc5F)c5nc(c(-c6c(F)cccc6F)c6ccc3[nH]6)C=C5)C=C4)cc2)cc1
REMARK SMILES IDX 17 1 16 2 15 3 13 4 14 5 11 7 12 8 9 9 8 10 5 11 6 12 80 13
REMARK SMILES IDX 7 14 79 15 4 16 2 17 1 18 3 19 10 20 18 22 19 23 20 24 21 25
REMARK SMILES IDX 22 26 23 27 24 29 25 30 26 31 78 32 27 33 77 34 28 35 29 36
REMARK SMILES IDX 30 37 71 38 31 39 76 40 70 41 72 42 32 43 75 44 69 45 68 46
REMARK SMILES IDX 33 48 59 49 42 50 58 51 43 52 46 53 57 54 73 55 44 56 45 57
REMARK SMILES IDX 56 59 74 60 47 61 34 62 35 63 40 64 36 65 37 66 39 67 41 68
REMARK SMILES IDX 38 69 60 70 61 71 66 72 62 73 63 74 65 75 67 76 64 77 48 78
REMARK SMILES IDX 49 79 54 80 50 81 51 82 53 83 55 84 52 85
REMARK H PARENT 15 6 10 21 22 28 72 47 46 58
REMARK Flexibility Score: inf
ROOT
ATOM      1  C   UNL A   1      34.828  24.893  25.435  1.00  0.00     0.021 C 
ENDROOT
BRANCH   1   2
ATOM      2  C   UNL A   1      34.616  24.021  24.203  1.00  0.00     0.116 C 
BRANCH   2   3
ATOM      3  N   UNL A   1      34.131  22.700  24.552  1.00  0.00    -0.353 N 
ATOM      4  C   UNL A   1      33.071  22.011  24.046  1.00  0.00     0.257 C 
ATOM      5  O   UNL A   1      32.901  20.848  24.422  1.00  0.00    -0.272 OA
ATOM      6  H   UNL A   1      34.640  22.235  25.255  1.00  0.00     0.163 HD
BRANCH   4   7
ATOM      7  C   UNL A   1      32.186  22.611  22.965  1.00  0.00     0.288 C 
ATOM      8  F   UNL A   1      31.755  21.666  22.077  1.00  0.00    -0.234 F 
BRANCH   7   9
ATOM      9  C   UNL A   1      30.983  23.319  23.611  1.00  0.00     0.188 C 
BRANCH   9  10
ATOM     10  C   UNL A   1      30.856  24.809  23.348  1.00  0.00    -0.016 A 
ATOM     11  C   UNL A   1      30.633  27.603  23.087  1.00  0.00     0.119 A 
ATOM     12  C   UNL A   1      31.447  26.880  22.218  1.00  0.00     0.047 A 
ATOM     13  C   UNL A   1      29.868  26.933  24.032  1.00  0.00     0.047 A 
ATOM     14  C   UNL A   1      31.562  25.492  22.349  1.00  0.00     0.010 A 
ATOM     15  C   UNL A   1      29.994  25.552  24.176  1.00  0.00     0.010 A 
BRANCH  11  16
ATOM     16  O   UNL A   1      30.562  28.953  22.903  1.00  0.00    -0.491 OA
BRANCH  16  17
ATOM     17  C   UNL A   1      29.293  29.585  23.158  1.00  0.00     0.167 C 
ATOM     18  C   UNL A   1      29.436  30.971  23.780  1.00  0.00     0.052 C 
ATOM     19  C   UNL A   1      28.324  29.572  21.974  1.00  0.00     0.052 C 
ENDBRANCH  16  17
ENDBRANCH  11  16
ENDBRANCH   9  10
BRANCH   9  20
ATOM     20  O   UNL A   1      30.930  23.174  25.039  1.00  0.00    -0.385 OA
ATOM     21  H   UNL A   1      31.397  23.914  25.458  1.00  0.00     0.211 HD
ENDBRANCH   9  20
ENDBRANCH   7   9
ENDBRANCH   4   7
ENDBRANCH   2   3
ENDBRANCH   1   2
BRANCH   1  22
ATOM     22  C   UNL A   1      33.710  25.908  25.701  1.00  0.00     0.002 C 
BRANCH  22  23
ATOM     23  C   UNL A   1      33.892  27.276  25.038  1.00  0.00     0.002 C 
BRANCH  23  24
ATOM     24  C   UNL A   1      33.252  28.449  25.779  1.00  0.00     0.021 C 
BRANCH  24  25
ATOM     25  C   UNL A   1      33.682  28.598  27.235  1.00  0.00     0.116 C 
BRANCH  25  26
ATOM     26  N   UNL A   1      33.667  29.982  27.679  1.00  0.00    -0.352 N 
ATOM     27  C   UNL A   1      34.642  30.698  28.326  1.00  0.00     0.251 C 
ATOM     28  H   UNL A   1      32.838  30.478  27.489  1.00  0.00     0.163 HD
ATOM     29  O   UNL A   1      34.394  31.811  28.782  1.00  0.00    -0.269 OA
BRANCH  27  30
ATOM     30  C   UNL A   1      35.989  30.114  28.500  1.00  0.00     0.039 A 
ATOM     31  C   UNL A   1      36.894  30.182  27.439  1.00  0.00     0.014 A 
ATOM     32  C   UNL A   1      36.361  29.511  29.705  1.00  0.00     0.014 A 
ATOM     33  C   UNL A   1      38.195  29.707  27.610  1.00  0.00     0.010 A 
ATOM     34  C   UNL A   1      37.678  29.107  29.898  1.00  0.00     0.010 A 
ATOM     35  C   UNL A   1      38.610  29.203  28.854  1.00  0.00    -0.014 A 
BRANCH  35  36
ATOM     36  C   UNL A   1      40.021  28.797  29.083  1.00  0.00     0.031 A 
ATOM     37  C   UNL A   1      41.000  29.759  29.696  1.00  0.00     0.074 A 
ATOM     38  C   UNL A   1      40.434  27.579  28.677  1.00  0.00     0.049 A 
ATOM     39  N   UNL A   1      42.281  29.607  29.911  1.00  0.00    -0.248 NA
ATOM     40  C   UNL A   1      40.477  31.075  30.100  1.00  0.00     0.031 C 
ATOM     41  C   UNL A   1      39.594  26.573  28.024  1.00  0.00     0.029 A 
ATOM     42  N   UNL A   1      41.671  26.985  28.741  1.00  0.00    -0.354 N 
ATOM     43  C   UNL A   1      42.719  30.806  30.462  1.00  0.00     0.074 A 
ATOM     44  C   UNL A   1      41.577  31.693  30.504  1.00  0.00     0.031 C 
ATOM     45  C   UNL A   1      40.333  25.483  27.764  1.00  0.00     0.029 A 
ATOM     46  C   UNL A   1      41.706  25.726  28.189  1.00  0.00     0.049 A 
ATOM     47  H   UNL A   1      42.457  27.419  29.142  1.00  0.00     0.167 HD
ATOM     48  C   UNL A   1      43.956  31.129  30.909  1.00  0.00     0.037 A 
ATOM     49  C   UNL A   1      42.734  24.870  28.030  1.00  0.00     0.037 A 
ATOM     50  C   UNL A   1      45.084  30.235  30.888  1.00  0.00     0.049 A 
ATOM     51  C   UNL A   1      44.100  25.264  28.524  1.00  0.00     0.074 A 
ATOM     52  C   UNL A   1      46.359  30.449  31.382  1.00  0.00     0.029 A 
ATOM     53  N   UNL A   1      45.076  28.963  30.336  1.00  0.00    -0.354 N 
ATOM     54  N   UNL A   1      44.478  26.369  29.117  1.00  0.00    -0.248 NA
ATOM     55  C   UNL A   1      45.181  24.287  28.331  1.00  0.00     0.031 C 
ATOM     56  C   UNL A   1      47.138  29.329  31.079  1.00  0.00     0.029 A 
ATOM     57  C   UNL A   1      46.334  28.393  30.450  1.00  0.00     0.049 A 
ATOM     58  H   UNL A   1      44.294  28.530  29.925  1.00  0.00     0.167 HD
ATOM     59  C   UNL A   1      45.830  26.210  29.394  1.00  0.00     0.074 A 
ATOM     60  C   UNL A   1      46.201  24.893  28.922  1.00  0.00     0.031 C 
ATOM     61  C   UNL A   1      46.688  27.078  29.984  1.00  0.00     0.037 A 
BRANCH  48  62
ATOM     62  C   UNL A   1      44.163  32.508  31.466  1.00  0.00     0.057 A 
ATOM     63  C   UNL A   1      44.031  32.782  32.833  1.00  0.00     0.134 A 
ATOM     64  C   UNL A   1      44.570  33.559  30.633  1.00  0.00     0.134 A 
ATOM     65  F   UNL A   1      43.635  31.823  33.684  1.00  0.00    -0.206 F 
ATOM     66  C   UNL A   1      44.282  34.053  33.351  1.00  0.00     0.040 A 
ATOM     67  C   UNL A   1      44.850  34.827  31.143  1.00  0.00     0.040 A 
ATOM     68  F   UNL A   1      44.722  33.365  29.315  1.00  0.00    -0.206 F 
ATOM     69  C   UNL A   1      44.703  35.078  32.505  1.00  0.00     0.006 A 
ENDBRANCH  48  62
BRANCH  49  70
ATOM     70  C   UNL A   1      42.521  23.556  27.369  1.00  0.00     0.057 A 
ATOM     71  C   UNL A   1      42.160  22.422  28.106  1.00  0.00     0.134 A 
ATOM     72  C   UNL A   1      42.708  23.393  25.991  1.00  0.00     0.134 A 
ATOM     73  F   UNL A   1      41.984  22.507  29.434  1.00  0.00    -0.206 F 
ATOM     74  C   UNL A   1      42.026  21.169  27.504  1.00  0.00     0.040 A 
ATOM     75  C   UNL A   1      42.548  22.153  25.371  1.00  0.00     0.040 A 
ATOM     76  F   UNL A   1      43.046  24.441  25.224  1.00  0.00    -0.206 F 
ATOM     77  C   UNL A   1      42.217  21.033  26.131  1.00  0.00     0.006 A 
ENDBRANCH  49  70
BRANCH  61  78
ATOM     78  C   UNL A   1      48.102  26.618  30.186  1.00  0.00     0.057 A 
ATOM     79  C   UNL A   1      49.115  26.906  29.262  1.00  0.00     0.134 A 
ATOM     80  C   UNL A   1      48.463  25.911  31.340  1.00  0.00     0.134 A 
ATOM     81  F   UNL A   1      48.835  27.569  28.130  1.00  0.00    -0.206 F 
ATOM     82  C   UNL A   1      50.432  26.487  29.468  1.00  0.00     0.040 A 
ATOM     83  C   UNL A   1      49.780  25.513  31.573  1.00  0.00     0.040 A 
ATOM     84  F   UNL A   1      47.544  25.610  32.270  1.00  0.00    -0.206 F 
ATOM     85  C   UNL A   1      50.767  25.794  30.631  1.00  0.00     0.006 A 
ENDBRANCH  61  78
ENDBRANCH  35  36
ENDBRANCH  27  30
ENDBRANCH  25  26
ENDBRANCH  24  25
ENDBRANCH  23  24
ENDBRANCH  22  23
ENDBRANCH   1  22
TORSDOF 18
ENDMDL
