MODEL 1
REMARK VINA RESULT:     -11.8      0.000      0.000
REMARK SMILES O=C(NCCCCCCNC(=O)[C@@H]1CCC(=O)N(CCCOC2CCCCC2)[C@H]1c1ccco1)c1ccc(-c2c3nc(c(-c4c(F)cccc4F)c4ccc([nH]4)c(-c4c(F)cccc4F)c4nc(c(-c5c(F)cccc5F)c5ccc2[nH]5)C=C4)C=C3)cc1
REMARK SMILES IDX 8 1 7 2 6 3 5 4 4 5 3 6 1 7 2 8 35 10 36 11 88 12 37 13
REMARK SMILES IDX 87 14 38 15 39 16 40 17 81 18 41 19 86 20 80 21 82 22 42 23
REMARK SMILES IDX 85 24 79 25 78 26 43 28 69 29 52 30 68 31 53 32 56 33 67 34
REMARK SMILES IDX 83 35 54 36 55 37 66 39 84 40 57 41 44 42 45 43 50 44 46 45
REMARK SMILES IDX 47 46 49 47 51 48 48 49 70 50 71 51 76 52 72 53 73 54 75 55
REMARK SMILES IDX 77 56 74 57 58 58 59 59 64 60 60 61 61 62 63 63 65 64 62 65
REMARK SMILES IDX 9 66 10 67 11 68 12 70 13 71 14 72 29 73 15 74 18 75 16 76
REMARK SMILES IDX 17 77 30 78 31 79 34 80 32 81 33 82 19 83 20 84 21 85 22 86
REMARK SMILES IDX 23 87 24 88 28 89 25 90 27 91 26 92
REMARK H PARENT 3 9 82 27 56 38 10 69
REMARK Flexibility Score: inf
ROOT
ATOM      1  C   UNL A   1      31.866  28.235  27.479  1.00  0.00     0.021 C 
ENDROOT
BRANCH   1   2
ATOM      2  C   UNL A   1      32.520  29.535  27.002  1.00  0.00     0.002 C 
BRANCH   2   3
ATOM      3  C   UNL A   1      31.623  30.407  26.116  1.00  0.00     0.002 C 
BRANCH   3   4
ATOM      4  C   UNL A   1      31.416  31.835  26.622  1.00  0.00     0.021 C 
BRANCH   4   5
ATOM      5  C   UNL A   1      32.635  32.442  27.304  1.00  0.00     0.116 C 
BRANCH   5   6
ATOM      6  N   UNL A   1      32.427  33.837  27.655  1.00  0.00    -0.352 N 
ATOM      7  O   UNL A   1      32.731  35.709  28.891  1.00  0.00    -0.269 OA
ATOM      8  C   UNL A   1      33.143  34.610  28.535  1.00  0.00     0.251 C 
ATOM      9  H   UNL A   1      31.675  34.285  27.204  1.00  0.00     0.163 HD
BRANCH   8  10
ATOM     10  C   UNL A   1      34.415  34.082  29.066  1.00  0.00     0.039 A 
ATOM     11  C   UNL A   1      35.614  34.371  28.409  1.00  0.00     0.014 A 
ATOM     12  C   UNL A   1      34.404  33.259  30.194  1.00  0.00     0.014 A 
ATOM     13  C   UNL A   1      36.774  33.712  28.785  1.00  0.00     0.010 A 
ATOM     14  C   UNL A   1      35.596  32.679  30.633  1.00  0.00     0.010 A 
ATOM     15  C   UNL A   1      36.786  32.874  29.913  1.00  0.00    -0.014 A 
BRANCH  15  16
ATOM     16  C   UNL A   1      38.070  32.270  30.347  1.00  0.00     0.031 A 
ATOM     17  C   UNL A   1      38.904  32.892  31.431  1.00  0.00     0.074 A 
ATOM     18  C   UNL A   1      38.462  31.120  29.763  1.00  0.00     0.049 A 
ATOM     19  N   UNL A   1      40.034  32.471  31.943  1.00  0.00    -0.248 NA
ATOM     20  C   UNL A   1      38.416  34.152  32.011  1.00  0.00     0.031 C 
ATOM     21  C   UNL A   1      37.739  30.429  28.693  1.00  0.00     0.029 A 
ATOM     22  N   UNL A   1      39.545  30.315  30.002  1.00  0.00    -0.354 N 
ATOM     23  C   UNL A   1      40.407  33.424  32.882  1.00  0.00     0.074 A 
ATOM     24  C   UNL A   1      39.394  34.458  32.854  1.00  0.00     0.031 C 
ATOM     25  C   UNL A   1      38.360  29.277  28.412  1.00  0.00     0.029 A 
ATOM     26  C   UNL A   1      39.563  29.181  29.228  1.00  0.00     0.049 A 
ATOM     27  H   UNL A   1      40.242  30.528  30.664  1.00  0.00     0.167 HD
ATOM     28  C   UNL A   1      41.492  33.430  33.695  1.00  0.00     0.037 A 
ATOM     29  C   UNL A   1      40.458  28.178  29.167  1.00  0.00     0.037 A 
ATOM     30  C   UNL A   1      42.484  32.384  33.729  1.00  0.00     0.049 A 
ATOM     31  C   UNL A   1      41.659  28.226  30.064  1.00  0.00     0.074 A 
ATOM     32  C   UNL A   1      43.595  32.275  34.549  1.00  0.00     0.029 A 
ATOM     33  N   UNL A   1      42.489  31.270  32.902  1.00  0.00    -0.354 N 
ATOM     34  N   UNL A   1      41.979  29.113  30.974  1.00  0.00    -0.248 NA
ATOM     35  C   UNL A   1      42.627  27.131  29.920  1.00  0.00     0.031 C 
ATOM     36  C   UNL A   1      44.301  31.124  34.179  1.00  0.00     0.029 A 
ATOM     37  C   UNL A   1      43.599  30.484  33.171  1.00  0.00     0.049 A 
ATOM     38  H   UNL A   1      41.805  31.068  32.223  1.00  0.00     0.167 HD
ATOM     39  C   UNL A   1      43.170  28.673  31.531  1.00  0.00     0.074 A 
ATOM     40  C   UNL A   1      43.505  27.429  30.868  1.00  0.00     0.031 C 
ATOM     41  C   UNL A   1      43.919  29.246  32.504  1.00  0.00     0.037 A 
BRANCH  28  42
ATOM     42  C   UNL A   1      41.682  34.618  34.596  1.00  0.00     0.057 A 
ATOM     43  C   UNL A   1      41.170  34.659  35.900  1.00  0.00     0.134 A 
ATOM     44  C   UNL A   1      42.425  35.726  34.164  1.00  0.00     0.134 A 
ATOM     45  F   UNL A   1      40.441  33.639  36.376  1.00  0.00    -0.206 F 
ATOM     46  C   UNL A   1      41.367  35.766  36.729  1.00  0.00     0.040 A 
ATOM     47  C   UNL A   1      42.653  36.825  34.993  1.00  0.00     0.040 A 
ATOM     48  F   UNL A   1      42.954  35.752  32.931  1.00  0.00    -0.206 F 
ATOM     49  C   UNL A   1      42.116  36.852  36.278  1.00  0.00     0.006 A 
ENDBRANCH  28  42
BRANCH  29  50
ATOM     50  C   UNL A   1      40.243  27.051  28.228  1.00  0.00     0.057 A 
ATOM     51  C   UNL A   1      39.476  25.940  28.597  1.00  0.00     0.134 A 
ATOM     52  C   UNL A   1      40.790  27.057  26.939  1.00  0.00     0.134 A 
ATOM     53  F   UNL A   1      38.938  25.868  29.823  1.00  0.00    -0.206 F 
ATOM     54  C   UNL A   1      39.276  24.869  27.725  1.00  0.00     0.040 A 
ATOM     55  C   UNL A   1      40.573  26.008  26.046  1.00  0.00     0.040 A 
ATOM     56  F   UNL A   1      41.526  28.098  26.521  1.00  0.00    -0.206 F 
ATOM     57  C   UNL A   1      39.820  24.905  26.443  1.00  0.00     0.006 A 
ENDBRANCH  29  50
BRANCH  41  58
ATOM     58  C   UNL A   1      45.150  28.506  32.937  1.00  0.00     0.057 A 
ATOM     59  C   UNL A   1      45.120  27.539  33.950  1.00  0.00     0.134 A 
ATOM     60  C   UNL A   1      46.384  28.760  32.323  1.00  0.00     0.134 A 
ATOM     61  F   UNL A   1      43.974  27.259  34.589  1.00  0.00    -0.206 F 
ATOM     62  C   UNL A   1      46.278  26.875  34.360  1.00  0.00     0.040 A 
ATOM     63  C   UNL A   1      47.542  28.081  32.702  1.00  0.00     0.040 A 
ATOM     64  F   UNL A   1      46.482  29.669  31.341  1.00  0.00    -0.206 F 
ATOM     65  C   UNL A   1      47.492  27.142  33.731  1.00  0.00     0.006 A 
ENDBRANCH  41  58
ENDBRANCH  15  16
ENDBRANCH   8  10
ENDBRANCH   5   6
ENDBRANCH   4   5
ENDBRANCH   3   4
ENDBRANCH   2   3
ENDBRANCH   1   2
BRANCH   1  66
ATOM     66  C   UNL A   1      31.459  27.285  26.355  1.00  0.00     0.116 C 
BRANCH  66  67
ATOM     67  N   UNL A   1      31.193  25.937  26.807  1.00  0.00    -0.356 N 
ATOM     68  C   UNL A   1      31.904  24.785  26.748  1.00  0.00     0.225 C 
ATOM     69  H   UNL A   1      30.319  25.836  27.249  1.00  0.00     0.163 HD
ATOM     70  O   UNL A   1      31.386  23.815  27.316  1.00  0.00    -0.275 OA
BRANCH  68  71
ATOM     71  C   UNL A   1      33.221  24.568  25.987  1.00  0.00     0.109 C 
ATOM     72  C   UNL A   1      33.855  25.748  25.277  1.00  0.00     0.026 C 
ATOM     73  C   UNL A   1      33.164  23.324  25.118  1.00  0.00     0.164 C 
ATOM     74  C   UNL A   1      33.668  25.809  23.766  1.00  0.00     0.101 C 
ATOM     75  N   UNL A   1      32.591  23.556  23.801  1.00  0.00    -0.332 N 
ATOM     76  C   UNL A   1      32.952  24.662  23.052  1.00  0.00     0.223 C 
ATOM     77  O   UNL A   1      32.616  24.807  21.875  1.00  0.00    -0.275 OA
BRANCH  73  78
ATOM     78  C   UNL A   1      34.486  22.617  24.979  1.00  0.00     0.127 A 
ATOM     79  C   UNL A   1      35.457  22.638  23.995  1.00  0.00     0.048 A 
ATOM     80  O   UNL A   1      34.934  21.887  26.042  1.00  0.00    -0.467 OA
ATOM     81  C   UNL A   1      36.572  21.938  24.515  1.00  0.00     0.042 A 
ATOM     82  C   UNL A   1      36.205  21.505  25.766  1.00  0.00     0.195 A 
ENDBRANCH  73  78
BRANCH  75  83
ATOM     83  C   UNL A   1      31.635  22.576  23.268  1.00  0.00     0.122 C 
BRANCH  83  84
ATOM     84  C   UNL A   1      32.172  21.474  22.346  1.00  0.00     0.050 C 
BRANCH  84  85
ATOM     85  C   UNL A   1      32.201  20.040  22.897  1.00  0.00     0.162 C 
BRANCH  85  86
ATOM     86  O   UNL A   1      32.220  19.909  24.322  1.00  0.00    -0.378 OA
BRANCH  86  87
ATOM     87  C   UNL A   1      32.995  18.892  24.973  1.00  0.00     0.118 C 
ATOM     88  C   UNL A   1      32.255  17.581  25.262  1.00  0.00     0.032 C 
ATOM     89  C   UNL A   1      34.365  18.777  24.293  1.00  0.00     0.032 C 
ATOM     90  C   UNL A   1      33.153  16.421  25.665  1.00  0.00     0.003 C 
ATOM     91  C   UNL A   1      35.150  17.513  24.623  1.00  0.00     0.003 C 
ATOM     92  C   UNL A   1      34.281  16.265  24.663  1.00  0.00     0.000 C 
ENDBRANCH  86  87
ENDBRANCH  85  86
ENDBRANCH  84  85
ENDBRANCH  83  84
ENDBRANCH  75  83
ENDBRANCH  68  71
ENDBRANCH  66  67
ENDBRANCH   1  66
TORSDOF 19
ENDMDL
MODEL 2
REMARK VINA RESULT:     -11.7      4.078      9.081
REMARK SMILES O=C(NCCCCCCNC(=O)[C@@H]1CCC(=O)N(CCCOC2CCCCC2)[C@H]1c1ccco1)c1ccc(-c2c3nc(c(-c4c(F)cccc4F)c4ccc([nH]4)c(-c4c(F)cccc4F)c4nc(c(-c5c(F)cccc5F)c5ccc2[nH]5)C=C4)C=C3)cc1
REMARK SMILES IDX 8 1 7 2 6 3 5 4 4 5 3 6 1 7 2 8 35 10 36 11 88 12 37 13
REMARK SMILES IDX 87 14 38 15 39 16 40 17 81 18 41 19 86 20 80 21 82 22 42 23
REMARK SMILES IDX 85 24 79 25 78 26 43 28 69 29 52 30 68 31 53 32 56 33 67 34
REMARK SMILES IDX 83 35 54 36 55 37 66 39 84 40 57 41 44 42 45 43 50 44 46 45
REMARK SMILES IDX 47 46 49 47 51 48 48 49 70 50 71 51 76 52 72 53 73 54 75 55
REMARK SMILES IDX 77 56 74 57 58 58 59 59 64 60 60 61 61 62 63 63 65 64 62 65
REMARK SMILES IDX 9 66 10 67 11 68 12 70 13 71 14 72 29 73 15 74 18 75 16 76
REMARK SMILES IDX 17 77 30 78 31 79 34 80 32 81 33 82 19 83 20 84 21 85 22 86
REMARK SMILES IDX 23 87 24 88 28 89 25 90 27 91 26 92
REMARK H PARENT 3 9 82 27 56 38 10 69
REMARK Flexibility Score: inf
ROOT
ATOM      1  C   UNL A   1      37.012  23.346  24.790  1.00  0.00     0.021 C 
ENDROOT
BRANCH   1   2
ATOM      2  C   UNL A   1      37.429  22.062  25.513  1.00  0.00     0.002 C 
BRANCH   2   3
ATOM      3  C   UNL A   1      37.157  20.775  24.727  1.00  0.00     0.002 C 
BRANCH   3   4
ATOM      4  C   UNL A   1      38.141  19.636  24.999  1.00  0.00     0.021 C 
BRANCH   4   5
ATOM      5  C   UNL A   1      39.303  20.017  25.906  1.00  0.00     0.116 C 
BRANCH   5   6
ATOM      6  N   UNL A   1      40.328  18.986  25.942  1.00  0.00    -0.352 N 
ATOM      7  O   UNL A   1      42.450  18.199  25.863  1.00  0.00    -0.269 OA
ATOM      8  C   UNL A   1      41.688  19.141  26.056  1.00  0.00     0.251 C 
ATOM      9  H   UNL A   1      40.006  18.058  25.874  1.00  0.00     0.163 HD
BRANCH   8  10
ATOM     10  C   UNL A   1      42.221  20.474  26.396  1.00  0.00     0.039 A 
ATOM     11  C   UNL A   1      42.278  20.878  27.733  1.00  0.00     0.014 A 
ATOM     12  C   UNL A   1      42.620  21.339  25.376  1.00  0.00     0.014 A 
ATOM     13  C   UNL A   1      42.584  22.196  28.035  1.00  0.00     0.010 A 
ATOM     14  C   UNL A   1      43.028  22.637  25.695  1.00  0.00     0.010 A 
ATOM     15  C   UNL A   1      42.982  23.086  27.025  1.00  0.00    -0.014 A 
BRANCH  15  16
ATOM     16  C   UNL A   1      43.403  24.459  27.400  1.00  0.00     0.031 A 
ATOM     17  C   UNL A   1      44.834  24.901  27.282  1.00  0.00     0.074 A 
ATOM     18  C   UNL A   1      42.458  25.321  27.823  1.00  0.00     0.049 A 
ATOM     19  N   UNL A   1      45.357  26.074  27.542  1.00  0.00    -0.248 NA
ATOM     20  C   UNL A   1      45.809  23.900  26.823  1.00  0.00     0.031 C 
ATOM     21  C   UNL A   1      41.038  25.001  27.987  1.00  0.00     0.029 A 
ATOM     22  N   UNL A   1      42.539  26.646  28.168  1.00  0.00    -0.354 N 
ATOM     23  C   UNL A   1      46.720  25.946  27.306  1.00  0.00     0.074 A 
ATOM     24  C   UNL A   1      46.948  24.575  26.904  1.00  0.00     0.031 C 
ATOM     25  C   UNL A   1      40.373  26.110  28.337  1.00  0.00     0.029 A 
ATOM     26  C   UNL A   1      41.326  27.200  28.494  1.00  0.00     0.049 A 
ATOM     27  H   UNL A   1      43.385  27.151  28.179  1.00  0.00     0.167 HD
ATOM     28  C   UNL A   1      47.688  26.890  27.411  1.00  0.00     0.037 A 
ATOM     29  C   UNL A   1      41.014  28.447  28.891  1.00  0.00     0.037 A 
ATOM     30  C   UNL A   1      47.445  28.260  27.793  1.00  0.00     0.049 A 
ATOM     31  C   UNL A   1      42.110  29.461  29.020  1.00  0.00     0.074 A 
ATOM     32  C   UNL A   1      48.351  29.303  27.884  1.00  0.00     0.029 A 
ATOM     33  N   UNL A   1      46.208  28.774  28.154  1.00  0.00    -0.354 N 
ATOM     34  N   UNL A   1      43.388  29.337  28.757  1.00  0.00    -0.248 NA
ATOM     35  C   UNL A   1      41.719  30.791  29.505  1.00  0.00     0.031 C 
ATOM     36  C   UNL A   1      47.672  30.433  28.354  1.00  0.00     0.029 A 
ATOM     37  C   UNL A   1      46.332  30.112  28.498  1.00  0.00     0.049 A 
ATOM     38  H   UNL A   1      45.366  28.264  28.166  1.00  0.00     0.167 HD
ATOM     39  C   UNL A   1      43.952  30.577  29.019  1.00  0.00     0.074 A 
ATOM     40  C   UNL A   1      42.871  31.444  29.443  1.00  0.00     0.031 C 
ATOM     41  C   UNL A   1      45.247  30.964  28.916  1.00  0.00     0.037 A 
BRANCH  28  42
ATOM     42  C   UNL A   1      49.105  26.470  27.138  1.00  0.00     0.057 A 
ATOM     43  C   UNL A   1      49.946  25.974  28.144  1.00  0.00     0.134 A 
ATOM     44  C   UNL A   1      49.624  26.524  25.837  1.00  0.00     0.134 A 
ATOM     45  F   UNL A   1      49.519  25.903  29.413  1.00  0.00    -0.206 F 
ATOM     46  C   UNL A   1      51.256  25.575  27.871  1.00  0.00     0.040 A 
ATOM     47  C   UNL A   1      50.922  26.102  25.547  1.00  0.00     0.040 A 
ATOM     48  F   UNL A   1      48.872  26.978  24.822  1.00  0.00    -0.206 F 
ATOM     49  C   UNL A   1      51.747  25.633  26.567  1.00  0.00     0.006 A 
ENDBRANCH  28  42
BRANCH  29  50
ATOM     50  C   UNL A   1      39.604  28.796  29.190  1.00  0.00     0.057 A 
ATOM     51  C   UNL A   1      38.754  29.284  28.191  1.00  0.00     0.134 A 
ATOM     52  C   UNL A   1      39.068  28.645  30.475  1.00  0.00     0.134 A 
ATOM     53  F   UNL A   1      39.212  29.465  26.943  1.00  0.00    -0.206 F 
ATOM     54  C   UNL A   1      37.429  29.626  28.462  1.00  0.00     0.040 A 
ATOM     55  C   UNL A   1      37.736  28.953  30.754  1.00  0.00     0.040 A 
ATOM     56  F   UNL A   1      39.828  28.171  31.474  1.00  0.00    -0.206 F 
ATOM     57  C   UNL A   1      36.915  29.454  29.746  1.00  0.00     0.006 A 
ENDBRANCH  29  50
BRANCH  41  58
ATOM     58  C   UNL A   1      45.552  32.399  29.228  1.00  0.00     0.057 A 
ATOM     59  C   UNL A   1      45.480  33.405  28.255  1.00  0.00     0.134 A 
ATOM     60  C   UNL A   1      45.917  32.781  30.526  1.00  0.00     0.134 A 
ATOM     61  F   UNL A   1      45.153  33.103  26.989  1.00  0.00    -0.206 F 
ATOM     62  C   UNL A   1      45.791  34.733  28.553  1.00  0.00     0.040 A 
ATOM     63  C   UNL A   1      46.200  34.110  30.843  1.00  0.00     0.040 A 
ATOM     64  F   UNL A   1      45.998  31.871  31.508  1.00  0.00    -0.206 F 
ATOM     65  C   UNL A   1      46.147  35.088  29.853  1.00  0.00     0.006 A 
ENDBRANCH  41  58
ENDBRANCH  15  16
ENDBRANCH   8  10
ENDBRANCH   5   6
ENDBRANCH   4   5
ENDBRANCH   3   4
ENDBRANCH   2   3
ENDBRANCH   1   2
BRANCH   1  66
ATOM     66  C   UNL A   1      35.509  23.613  24.796  1.00  0.00     0.116 C 
BRANCH  66  67
ATOM     67  N   UNL A   1      34.877  23.381  23.516  1.00  0.00    -0.356 N 
ATOM     68  C   UNL A   1      33.955  24.070  22.801  1.00  0.00     0.225 C 
ATOM     69  H   UNL A   1      35.179  22.555  23.072  1.00  0.00     0.163 HD
ATOM     70  O   UNL A   1      33.694  23.604  21.685  1.00  0.00    -0.275 OA
BRANCH  68  71
ATOM     71  C   UNL A   1      33.168  25.300  23.281  1.00  0.00     0.109 C 
ATOM     72  C   UNL A   1      33.817  26.234  24.283  1.00  0.00     0.026 C 
ATOM     73  C   UNL A   1      31.742  24.939  23.655  1.00  0.00     0.164 C 
ATOM     74  C   UNL A   1      33.355  26.100  25.730  1.00  0.00     0.101 C 
ATOM     75  N   UNL A   1      31.597  24.473  25.025  1.00  0.00    -0.332 N 
ATOM     76  C   UNL A   1      32.228  25.125  26.070  1.00  0.00     0.223 C 
ATOM     77  O   UNL A   1      32.001  24.862  27.252  1.00  0.00    -0.275 OA
BRANCH  73  78
ATOM     78  C   UNL A   1      30.744  26.033  23.383  1.00  0.00     0.127 A 
ATOM     79  C   UNL A   1      29.503  26.320  23.920  1.00  0.00     0.048 A 
ATOM     80  O   UNL A   1      31.117  27.041  22.540  1.00  0.00    -0.467 OA
ATOM     81  C   UNL A   1      29.135  27.594  23.425  1.00  0.00     0.042 A 
ATOM     82  C   UNL A   1      30.153  27.992  22.593  1.00  0.00     0.195 A 
ENDBRANCH  73  78
BRANCH  75  83
ATOM     83  C   UNL A   1      30.743  23.306  25.285  1.00  0.00     0.122 C 
BRANCH  83  84
ATOM     84  C   UNL A   1      31.395  22.054  25.885  1.00  0.00     0.050 C 
BRANCH  84  85
ATOM     85  C   UNL A   1      32.161  21.125  24.931  1.00  0.00     0.162 C 
BRANCH  85  86
ATOM     86  O   UNL A   1      31.810  19.738  24.978  1.00  0.00    -0.378 OA
BRANCH  86  87
ATOM     87  C   UNL A   1      32.788  18.725  25.254  1.00  0.00     0.118 C 
ATOM     88  C   UNL A   1      32.242  17.299  25.382  1.00  0.00     0.032 C 
ATOM     89  C   UNL A   1      34.002  18.921  24.339  1.00  0.00     0.032 C 
ATOM     90  C   UNL A   1      33.304  16.209  25.369  1.00  0.00     0.003 C 
ATOM     91  C   UNL A   1      34.949  17.729  24.252  1.00  0.00     0.003 C 
ATOM     92  C   UNL A   1      34.223  16.395  24.176  1.00  0.00     0.000 C 
ENDBRANCH  86  87
ENDBRANCH  85  86
ENDBRANCH  84  85
ENDBRANCH  83  84
ENDBRANCH  75  83
ENDBRANCH  68  71
ENDBRANCH  66  67
ENDBRANCH   1  66
TORSDOF 19
ENDMDL
MODEL 3
REMARK VINA RESULT:     -11.7      2.081      4.677
REMARK SMILES O=C(NCCCCCCNC(=O)[C@@H]1CCC(=O)N(CCCOC2CCCCC2)[C@H]1c1ccco1)c1ccc(-c2c3nc(c(-c4c(F)cccc4F)c4ccc([nH]4)c(-c4c(F)cccc4F)c4nc(c(-c5c(F)cccc5F)c5ccc2[nH]5)C=C4)C=C3)cc1
REMARK SMILES IDX 8 1 7 2 6 3 5 4 4 5 3 6 1 7 2 8 35 10 36 11 88 12 37 13
REMARK SMILES IDX 87 14 38 15 39 16 40 17 81 18 41 19 86 20 80 21 82 22 42 23
REMARK SMILES IDX 85 24 79 25 78 26 43 28 69 29 52 30 68 31 53 32 56 33 67 34
REMARK SMILES IDX 83 35 54 36 55 37 66 39 84 40 57 41 44 42 45 43 50 44 46 45
REMARK SMILES IDX 47 46 49 47 51 48 48 49 70 50 71 51 76 52 72 53 73 54 75 55
REMARK SMILES IDX 77 56 74 57 58 58 59 59 64 60 60 61 61 62 63 63 65 64 62 65
REMARK SMILES IDX 9 66 10 67 11 68 12 70 13 71 14 72 29 73 15 74 18 75 16 76
REMARK SMILES IDX 17 77 30 78 31 79 34 80 32 81 33 82 19 83 20 84 21 85 22 86
REMARK SMILES IDX 23 87 24 88 28 89 25 90 27 91 26 92
REMARK H PARENT 3 9 82 27 56 38 10 69
REMARK Flexibility Score: inf
ROOT
ATOM      1  C   UNL A   1      33.513  29.472  27.298  1.00  0.00     0.021 C 
ENDROOT
BRANCH   1   2
ATOM      2  C   UNL A   1      32.019  29.627  27.001  1.00  0.00     0.002 C 
BRANCH   2   3
ATOM      3  C   UNL A   1      31.669  30.837  26.127  1.00  0.00     0.002 C 
BRANCH   3   4
ATOM      4  C   UNL A   1      31.433  32.137  26.896  1.00  0.00     0.021 C 
BRANCH   4   5
ATOM      5  C   UNL A   1      32.704  32.903  27.237  1.00  0.00     0.116 C 
BRANCH   5   6
ATOM      6  N   UNL A   1      32.424  34.265  27.660  1.00  0.00    -0.352 N 
ATOM      7  O   UNL A   1      32.538  36.045  29.055  1.00  0.00    -0.269 OA
ATOM      8  C   UNL A   1      33.014  34.981  28.672  1.00  0.00     0.251 C 
ATOM      9  H   UNL A   1      31.720  34.735  27.157  1.00  0.00     0.163 HD
BRANCH   8  10
ATOM     10  C   UNL A   1      34.228  34.434  29.310  1.00  0.00     0.039 A 
ATOM     11  C   UNL A   1      35.475  34.637  28.715  1.00  0.00     0.014 A 
ATOM     12  C   UNL A   1      34.112  33.678  30.478  1.00  0.00     0.014 A 
ATOM     13  C   UNL A   1      36.581  33.955  29.199  1.00  0.00     0.010 A 
ATOM     14  C   UNL A   1      35.250  33.077  31.023  1.00  0.00     0.010 A 
ATOM     15  C   UNL A   1      36.488  33.184  30.369  1.00  0.00    -0.014 A 
BRANCH  15  16
ATOM     16  C   UNL A   1      37.717  32.554  30.916  1.00  0.00     0.031 A 
ATOM     17  C   UNL A   1      38.360  33.053  32.178  1.00  0.00     0.074 A 
ATOM     18  C   UNL A   1      38.231  31.492  30.265  1.00  0.00     0.049 A 
ATOM     19  N   UNL A   1      39.417  32.595  32.800  1.00  0.00    -0.248 NA
ATOM     20  C   UNL A   1      37.746  34.224  32.825  1.00  0.00     0.031 C 
ATOM     21  C   UNL A   1      37.698  30.925  29.024  1.00  0.00     0.029 A 
ATOM     22  N   UNL A   1      39.296  30.684  30.566  1.00  0.00    -0.354 N 
ATOM     23  C   UNL A   1      39.613  33.432  33.891  1.00  0.00     0.074 A 
ATOM     24  C   UNL A   1      38.578  34.442  33.835  1.00  0.00     0.031 C 
ATOM     25  C   UNL A   1      38.396  29.827  28.705  1.00  0.00     0.029 A 
ATOM     26  C   UNL A   1      39.469  29.655  29.674  1.00  0.00     0.049 A 
ATOM     27  H   UNL A   1      39.881  30.827  31.346  1.00  0.00     0.167 HD
ATOM     28  C   UNL A   1      40.566  33.358  34.853  1.00  0.00     0.037 A 
ATOM     29  C   UNL A   1      40.399  28.684  29.630  1.00  0.00     0.037 A 
ATOM     30  C   UNL A   1      41.581  32.334  34.910  1.00  0.00     0.049 A 
ATOM     31  C   UNL A   1      41.454  28.643  30.695  1.00  0.00     0.074 A 
ATOM     32  C   UNL A   1      42.563  32.146  35.868  1.00  0.00     0.029 A 
ATOM     33  N   UNL A   1      41.748  31.330  33.967  1.00  0.00    -0.354 N 
ATOM     34  N   UNL A   1      41.604  29.418  31.741  1.00  0.00    -0.248 NA
ATOM     35  C   UNL A   1      42.472  27.592  30.569  1.00  0.00     0.031 C 
ATOM     36  C   UNL A   1      43.357  31.062  35.474  1.00  0.00     0.029 A 
ATOM     37  C   UNL A   1      42.835  30.538  34.304  1.00  0.00     0.049 A 
ATOM     38  H   UNL A   1      41.179  31.200  33.174  1.00  0.00     0.167 HD
ATOM     39  C   UNL A   1      42.716  28.934  32.414  1.00  0.00     0.074 A 
ATOM     40  C   UNL A   1      43.190  27.787  31.666  1.00  0.00     0.031 C 
ATOM     41  C   UNL A   1      43.293  29.397  33.550  1.00  0.00     0.037 A 
BRANCH  28  42
ATOM     42  C   UNL A   1      40.579  34.429  35.907  1.00  0.00     0.057 A 
ATOM     43  C   UNL A   1      41.326  35.607  35.768  1.00  0.00     0.134 A 
ATOM     44  C   UNL A   1      39.797  34.298  37.063  1.00  0.00     0.134 A 
ATOM     45  F   UNL A   1      42.104  35.796  34.693  1.00  0.00    -0.206 F 
ATOM     46  C   UNL A   1      41.317  36.599  36.752  1.00  0.00     0.040 A 
ATOM     47  C   UNL A   1      39.758  35.295  38.039  1.00  0.00     0.040 A 
ATOM     48  F   UNL A   1      39.048  33.201  37.258  1.00  0.00    -0.206 F 
ATOM     49  C   UNL A   1      40.526  36.447  37.889  1.00  0.00     0.006 A 
ENDBRANCH  28  42
BRANCH  29  50
ATOM     50  C   UNL A   1      40.366  27.676  28.541  1.00  0.00     0.057 A 
ATOM     51  C   UNL A   1      41.049  27.891  27.338  1.00  0.00     0.134 A 
ATOM     52  C   UNL A   1      39.661  26.474  28.677  1.00  0.00     0.134 A 
ATOM     53  F   UNL A   1      41.730  29.030  27.142  1.00  0.00    -0.206 F 
ATOM     54  C   UNL A   1      41.017  26.955  26.304  1.00  0.00     0.040 A 
ATOM     55  C   UNL A   1      39.645  25.516  27.663  1.00  0.00     0.040 A 
ATOM     56  F   UNL A   1      38.996  26.204  29.810  1.00  0.00    -0.206 F 
ATOM     57  C   UNL A   1      40.319  25.761  26.468  1.00  0.00     0.006 A 
ENDBRANCH  29  50
BRANCH  41  58
ATOM     58  C   UNL A   1      44.475  28.632  34.071  1.00  0.00     0.057 A 
ATOM     59  C   UNL A   1      45.789  28.962  33.718  1.00  0.00     0.134 A 
ATOM     60  C   UNL A   1      44.292  27.554  34.947  1.00  0.00     0.134 A 
ATOM     61  F   UNL A   1      46.032  29.974  32.870  1.00  0.00    -0.206 F 
ATOM     62  C   UNL A   1      46.878  28.227  34.190  1.00  0.00     0.040 A 
ATOM     63  C   UNL A   1      45.374  26.831  35.450  1.00  0.00     0.040 A 
ATOM     64  F   UNL A   1      43.060  27.189  35.332  1.00  0.00    -0.206 F 
ATOM     65  C   UNL A   1      46.671  27.161  35.063  1.00  0.00     0.006 A 
ENDBRANCH  41  58
ENDBRANCH  15  16
ENDBRANCH   8  10
ENDBRANCH   5   6
ENDBRANCH   4   5
ENDBRANCH   3   4
ENDBRANCH   2   3
ENDBRANCH   1   2
BRANCH   1  66
ATOM     66  C   UNL A   1      34.174  28.283  26.606  1.00  0.00     0.116 C 
BRANCH  66  67
ATOM     67  N   UNL A   1      33.995  28.278  25.171  1.00  0.00    -0.356 N 
ATOM     68  C   UNL A   1      33.776  27.291  24.269  1.00  0.00     0.225 C 
ATOM     69  H   UNL A   1      34.041  29.175  24.767  1.00  0.00     0.163 HD
ATOM     70  O   UNL A   1      33.594  27.670  23.104  1.00  0.00    -0.275 OA
BRANCH  68  71
ATOM     71  C   UNL A   1      33.814  25.781  24.548  1.00  0.00     0.109 C 
ATOM     72  C   UNL A   1      34.071  24.833  23.393  1.00  0.00     0.026 C 
ATOM     73  C   UNL A   1      32.647  25.344  25.416  1.00  0.00     0.164 C 
ATOM     74  C   UNL A   1      32.855  24.108  22.829  1.00  0.00     0.101 C 
ATOM     75  N   UNL A   1      31.439  25.043  24.662  1.00  0.00    -0.332 N 
ATOM     76  C   UNL A   1      31.493  24.296  23.498  1.00  0.00     0.223 C 
ATOM     77  O   UNL A   1      30.483  23.885  22.925  1.00  0.00    -0.275 OA
BRANCH  73  78
ATOM     78  C   UNL A   1      32.968  24.198  26.338  1.00  0.00     0.127 A 
ATOM     79  C   UNL A   1      32.172  23.328  27.058  1.00  0.00     0.048 A 
ATOM     80  O   UNL A   1      34.273  23.808  26.440  1.00  0.00    -0.467 OA
ATOM     81  C   UNL A   1      33.031  22.327  27.571  1.00  0.00     0.042 A 
ATOM     82  C   UNL A   1      34.299  22.662  27.163  1.00  0.00     0.195 A 
ENDBRANCH  73  78
BRANCH  75  83
ATOM     83  C   UNL A   1      30.151  25.528  25.175  1.00  0.00     0.122 C 
BRANCH  83  84
ATOM     84  C   UNL A   1      29.415  26.608  24.373  1.00  0.00     0.050 C 
BRANCH  84  85
ATOM     85  C   UNL A   1      30.267  27.583  23.546  1.00  0.00     0.162 C 
BRANCH  85  86
ATOM     86  O   UNL A   1      29.635  28.164  22.401  1.00  0.00    -0.378 OA
BRANCH  86  87
ATOM     87  C   UNL A   1      29.451  29.582  22.284  1.00  0.00     0.118 C 
ATOM     88  C   UNL A   1      28.271  30.025  21.411  1.00  0.00     0.032 C 
ATOM     89  C   UNL A   1      29.568  30.232  23.668  1.00  0.00     0.032 C 
ATOM     90  C   UNL A   1      27.903  31.496  21.539  1.00  0.00     0.003 C 
ATOM     91  C   UNL A   1      29.039  31.659  23.764  1.00  0.00     0.003 C 
ATOM     92  C   UNL A   1      27.739  31.864  23.002  1.00  0.00     0.000 C 
ENDBRANCH  86  87
ENDBRANCH  85  86
ENDBRANCH  84  85
ENDBRANCH  83  84
ENDBRANCH  75  83
ENDBRANCH  68  71
ENDBRANCH  66  67
ENDBRANCH   1  66
TORSDOF 19
ENDMDL
