MODEL 1
REMARK VINA RESULT:     -11.3      0.000      0.000
REMARK SMILES CC(C)[C@@H](C)[N@@H+]1[C@@H](C(=O)NCCCCCCNC(=O)c2ccc(-c3c4nc(c(-c5c(F)cccc5F)c5ccc([nH]5)c(-c5c(F)cccc5F)c5nc(c(-c6c(F)cccc6F)c6ccc3[nH]6)C=C5)C=C4)cc2)C[C@H]2CCCC[C@H]21
REMARK SMILES IDX 13 1 12 2 11 3 10 4 8 5 9 6 7 8 6 9 80 10 74 12 75 13 79 14
REMARK SMILES IDX 76 15 78 16 77 17 4 18 5 19 2 20 1 21 3 22 14 23 15 24 16 25
REMARK SMILES IDX 17 26 18 27 19 29 20 30 21 31 73 32 22 33 72 34 23 35 24 36
REMARK SMILES IDX 25 37 66 38 26 39 71 40 65 41 67 42 27 43 70 44 64 45 63 46
REMARK SMILES IDX 28 48 54 49 37 50 53 51 38 52 41 53 52 54 68 55 39 56 40 57
REMARK SMILES IDX 51 59 69 60 42 61 29 62 30 63 35 64 31 65 32 66 34 67 36 68
REMARK SMILES IDX 33 69 55 70 56 71 61 72 57 73 58 74 60 75 62 76 59 77 43 78
REMARK SMILES IDX 44 79 49 80 45 81 46 82 48 83 50 84 47 85
REMARK H PARENT 10 7 6 11 17 28 67 47 41 58
REMARK Flexibility Score: inf
ROOT
ATOM      1  C   UNL A   1      32.469  29.506  26.527  1.00  0.00     0.002 C 
ENDROOT
BRANCH   1   2
ATOM      2  C   UNL A   1      31.708  28.392  27.258  1.00  0.00     0.021 C 
BRANCH   2   3
ATOM      3  C   UNL A   1      31.065  27.395  26.295  1.00  0.00     0.116 C 
BRANCH   3   4
ATOM      4  N   UNL A   1      31.051  26.077  26.873  1.00  0.00    -0.351 N 
ATOM      5  C   UNL A   1      31.773  24.975  26.525  1.00  0.00     0.278 C 
ATOM      6  O   UNL A   1      31.455  23.925  27.094  1.00  0.00    -0.268 OA
ATOM      7  H   UNL A   1      30.432  25.953  27.628  1.00  0.00     0.163 HD
BRANCH   5   8
ATOM      8  C   UNL A   1      33.033  25.076  25.617  1.00  0.00     0.275 C 
ATOM      9  N   UNL A   1      32.732  25.009  24.140  1.00  0.00    -0.320 N 
ATOM     10  C   UNL A   1      33.103  23.622  23.740  1.00  0.00     0.188 C 
ATOM     11  H   UNL A   1      31.750  25.246  24.003  1.00  0.00     0.349 HD
ATOM     12  C   UNL A   1      34.006  23.922  25.924  1.00  0.00     0.085 C 
ATOM     13  C   UNL A   1      34.349  23.324  24.569  1.00  0.00     0.054 C 
ATOM     14  C   UNL A   1      31.948  22.636  23.992  1.00  0.00     0.065 C 
ATOM     15  C   UNL A   1      34.742  21.849  24.597  1.00  0.00     0.010 C 
ATOM     16  C   UNL A   1      32.412  21.185  23.893  1.00  0.00     0.006 C 
ATOM     17  C   UNL A   1      33.570  20.906  24.845  1.00  0.00     0.001 C 
BRANCH   9  18
ATOM     18  C   UNL A   1      33.433  26.016  23.260  1.00  0.00     0.184 C 
ATOM     19  C   UNL A   1      34.021  27.244  23.988  1.00  0.00     0.075 C 
BRANCH  18  20
ATOM     20  C   UNL A   1      32.474  26.488  22.096  1.00  0.00     0.041 C 
ATOM     21  C   UNL A   1      32.528  25.579  20.857  1.00  0.00     0.013 C 
ATOM     22  C   UNL A   1      31.008  26.615  22.526  1.00  0.00     0.013 C 
ENDBRANCH  18  20
ENDBRANCH   9  18
ENDBRANCH   5   8
ENDBRANCH   3   4
ENDBRANCH   2   3
ENDBRANCH   1   2
BRANCH   1  23
ATOM     23  C   UNL A   1      31.572  30.502  25.782  1.00  0.00     0.002 C 
BRANCH  23  24
ATOM     24  C   UNL A   1      31.378  31.842  26.498  1.00  0.00     0.021 C 
BRANCH  24  25
ATOM     25  C   UNL A   1      32.664  32.427  27.070  1.00  0.00     0.116 C 
BRANCH  25  26
ATOM     26  N   UNL A   1      32.499  33.828  27.434  1.00  0.00    -0.352 N 
ATOM     27  C   UNL A   1      33.095  34.539  28.440  1.00  0.00     0.251 C 
ATOM     28  H   UNL A   1      31.867  34.336  26.876  1.00  0.00     0.163 HD
ATOM     29  O   UNL A   1      32.665  35.648  28.755  1.00  0.00    -0.269 OA
BRANCH  27  30
ATOM     30  C   UNL A   1      34.251  33.966  29.155  1.00  0.00     0.039 A 
ATOM     31  C   UNL A   1      34.025  33.054  30.188  1.00  0.00     0.014 A 
ATOM     32  C   UNL A   1      35.555  34.339  28.813  1.00  0.00     0.014 A 
ATOM     33  C   UNL A   1      35.111  32.475  30.845  1.00  0.00     0.010 A 
ATOM     34  C   UNL A   1      36.634  33.703  29.415  1.00  0.00     0.010 A 
ATOM     35  C   UNL A   1      36.425  32.772  30.443  1.00  0.00    -0.014 A 
BRANCH  35  36
ATOM     36  C   UNL A   1      37.590  32.119  31.088  1.00  0.00     0.031 A 
ATOM     37  C   UNL A   1      38.330  31.021  30.376  1.00  0.00     0.074 A 
ATOM     38  C   UNL A   1      37.942  32.475  32.339  1.00  0.00     0.049 A 
ATOM     39  N   UNL A   1      39.334  30.294  30.798  1.00  0.00    -0.248 NA
ATOM     40  C   UNL A   1      37.866  30.676  29.024  1.00  0.00     0.031 C 
ATOM     41  C   UNL A   1      37.270  33.492  33.150  1.00  0.00     0.029 A 
ATOM     42  N   UNL A   1      38.948  32.014  33.150  1.00  0.00    -0.354 N 
ATOM     43  C   UNL A   1      39.611  29.402  29.770  1.00  0.00     0.074 A 
ATOM     44  C   UNL A   1      38.634  29.638  28.730  1.00  0.00     0.031 C 
ATOM     45  C   UNL A   1      37.898  33.596  34.331  1.00  0.00     0.029 A 
ATOM     46  C   UNL A   1      38.988  32.626  34.378  1.00  0.00     0.049 A 
ATOM     47  H   UNL A   1      39.580  31.311  32.877  1.00  0.00     0.167 HD
ATOM     48  C   UNL A   1      40.605  28.485  29.690  1.00  0.00     0.037 A 
ATOM     49  C   UNL A   1      39.807  32.424  35.428  1.00  0.00     0.037 A 
ATOM     50  C   UNL A   1      41.585  28.267  30.721  1.00  0.00     0.049 A 
ATOM     51  C   UNL A   1      40.894  31.390  35.318  1.00  0.00     0.074 A 
ATOM     52  C   UNL A   1      42.666  27.402  30.713  1.00  0.00     0.029 A 
ATOM     53  N   UNL A   1      41.601  28.916  31.947  1.00  0.00    -0.354 N 
ATOM     54  N   UNL A   1      41.189  30.603  34.314  1.00  0.00    -0.248 NA
ATOM     55  C   UNL A   1      41.767  31.221  36.490  1.00  0.00     0.031 C 
ATOM     56  C   UNL A   1      43.305  27.490  31.953  1.00  0.00     0.029 A 
ATOM     57  C   UNL A   1      42.658  28.452  32.713  1.00  0.00     0.049 A 
ATOM     58  H   UNL A   1      40.957  29.604  32.230  1.00  0.00     0.167 HD
ATOM     59  C   UNL A   1      42.298  29.868  34.716  1.00  0.00     0.074 A 
ATOM     60  C   UNL A   1      42.630  30.316  36.054  1.00  0.00     0.031 C 
ATOM     61  C   UNL A   1      42.980  28.913  34.040  1.00  0.00     0.037 A 
BRANCH  48  62
ATOM     62  C   UNL A   1      40.678  27.649  28.444  1.00  0.00     0.057 A 
ATOM     63  C   UNL A   1      41.438  28.040  27.334  1.00  0.00     0.134 A 
ATOM     64  C   UNL A   1      40.008  26.422  28.367  1.00  0.00     0.134 A 
ATOM     65  F   UNL A   1      42.096  29.210  27.337  1.00  0.00    -0.206 F 
ATOM     66  C   UNL A   1      41.505  27.256  26.181  1.00  0.00     0.040 A 
ATOM     67  C   UNL A   1      40.093  25.614  27.231  1.00  0.00     0.040 A 
ATOM     68  F   UNL A   1      39.268  25.981  29.396  1.00  0.00    -0.206 F 
ATOM     69  C   UNL A   1      40.836  26.034  26.131  1.00  0.00     0.006 A 
ENDBRANCH  48  62
BRANCH  49  70
ATOM     70  C   UNL A   1      39.646  33.229  36.663  1.00  0.00     0.057 A 
ATOM     71  C   UNL A   1      38.746  32.845  37.664  1.00  0.00     0.134 A 
ATOM     72  C   UNL A   1      40.377  34.406  36.872  1.00  0.00     0.134 A 
ATOM     73  F   UNL A   1      38.004  31.737  37.516  1.00  0.00    -0.206 F 
ATOM     74  C   UNL A   1      38.563  33.610  38.817  1.00  0.00     0.040 A 
ATOM     75  C   UNL A   1      40.224  35.167  38.032  1.00  0.00     0.040 A 
ATOM     76  F   UNL A   1      41.262  34.825  35.955  1.00  0.00    -0.206 F 
ATOM     77  C   UNL A   1      39.308  34.773  39.006  1.00  0.00     0.006 A 
ENDBRANCH  49  70
BRANCH  61  78
ATOM     78  C   UNL A   1      44.179  28.313  34.718  1.00  0.00     0.057 A 
ATOM     79  C   UNL A   1      45.452  28.886  34.619  1.00  0.00     0.134 A 
ATOM     80  C   UNL A   1      44.046  27.166  35.512  1.00  0.00     0.134 A 
ATOM     81  F   UNL A   1      45.650  29.978  33.864  1.00  0.00    -0.206 F 
ATOM     82  C   UNL A   1      46.555  28.327  35.266  1.00  0.00     0.040 A 
ATOM     83  C   UNL A   1      45.135  26.616  36.188  1.00  0.00     0.040 A 
ATOM     84  F   UNL A   1      42.851  26.571  35.656  1.00  0.00    -0.206 F 
ATOM     85  C   UNL A   1      46.396  27.193  36.060  1.00  0.00     0.006 A 
ENDBRANCH  61  78
ENDBRANCH  35  36
ENDBRANCH  27  30
ENDBRANCH  25  26
ENDBRANCH  24  25
ENDBRANCH  23  24
ENDBRANCH   1  23
TORSDOF 15
ENDMDL
MODEL 2
REMARK VINA RESULT:     -11.3      4.472      9.244
REMARK SMILES CC(C)[C@@H](C)[N@@H+]1[C@@H](C(=O)NCCCCCCNC(=O)c2ccc(-c3c4nc(c(-c5c(F)cccc5F)c5ccc([nH]5)c(-c5c(F)cccc5F)c5nc(c(-c6c(F)cccc6F)c6ccc3[nH]6)C=C5)C=C4)cc2)C[C@H]2CCCC[C@H]21
REMARK SMILES IDX 13 1 12 2 11 3 10 4 8 5 9 6 7 8 6 9 80 10 74 12 75 13 79 14
REMARK SMILES IDX 76 15 78 16 77 17 4 18 5 19 2 20 1 21 3 22 14 23 15 24 16 25
REMARK SMILES IDX 17 26 18 27 19 29 20 30 21 31 73 32 22 33 72 34 23 35 24 36
REMARK SMILES IDX 25 37 66 38 26 39 71 40 65 41 67 42 27 43 70 44 64 45 63 46
REMARK SMILES IDX 28 48 54 49 37 50 53 51 38 52 41 53 52 54 68 55 39 56 40 57
REMARK SMILES IDX 51 59 69 60 42 61 29 62 30 63 35 64 31 65 32 66 34 67 36 68
REMARK SMILES IDX 33 69 55 70 56 71 61 72 57 73 58 74 60 75 62 76 59 77 43 78
REMARK SMILES IDX 44 79 49 80 45 81 46 82 48 83 50 84 47 85
REMARK H PARENT 10 7 6 11 17 28 67 47 41 58
REMARK Flexibility Score: inf
ROOT
ATOM      1  C   UNL A   1      34.981  19.034  24.597  1.00  0.00     0.002 C 
ENDROOT
BRANCH   1   2
ATOM      2  C   UNL A   1      33.571  19.618  24.755  1.00  0.00     0.021 C 
BRANCH   2   3
ATOM      3  C   UNL A   1      33.479  20.619  25.906  1.00  0.00     0.116 C 
BRANCH   3   4
ATOM      4  N   UNL A   1      32.121  21.066  26.075  1.00  0.00    -0.351 N 
ATOM      5  C   UNL A   1      31.509  22.172  25.568  1.00  0.00     0.278 C 
ATOM      6  O   UNL A   1      30.370  22.397  25.996  1.00  0.00    -0.268 OA
ATOM      7  H   UNL A   1      31.555  20.492  26.639  1.00  0.00     0.163 HD
BRANCH   5   8
ATOM      8  C   UNL A   1      32.126  22.983  24.392  1.00  0.00     0.275 C 
ATOM      9  N   UNL A   1      33.142  24.012  24.822  1.00  0.00    -0.320 N 
ATOM     10  C   UNL A   1      32.418  25.312  24.752  1.00  0.00     0.188 C 
ATOM     11  H   UNL A   1      33.479  23.758  25.751  1.00  0.00     0.349 HD
ATOM     12  C   UNL A   1      31.022  23.741  23.629  1.00  0.00     0.085 C 
ATOM     13  C   UNL A   1      31.531  25.169  23.518  1.00  0.00     0.054 C 
ATOM     14  C   UNL A   1      31.630  25.589  26.045  1.00  0.00     0.065 C 
ATOM     15  C   UNL A   1      30.441  26.233  23.406  1.00  0.00     0.010 C 
ATOM     16  C   UNL A   1      30.642  26.739  25.870  1.00  0.00     0.006 C 
ATOM     17  C   UNL A   1      29.688  26.480  24.709  1.00  0.00     0.001 C 
BRANCH   9  18
ATOM     18  C   UNL A   1      34.421  24.077  24.022  1.00  0.00     0.184 C 
ATOM     19  C   UNL A   1      34.592  22.981  22.947  1.00  0.00     0.075 C 
BRANCH  18  20
ATOM     20  C   UNL A   1      35.672  24.085  24.987  1.00  0.00     0.041 C 
ATOM     21  C   UNL A   1      35.371  23.501  26.377  1.00  0.00     0.013 C 
ATOM     22  C   UNL A   1      36.888  23.345  24.416  1.00  0.00     0.013 C 
ENDBRANCH  18  20
ENDBRANCH   9  18
ENDBRANCH   5   8
ENDBRANCH   3   4
ENDBRANCH   2   3
ENDBRANCH   1   2
BRANCH   1  23
ATOM     23  C   UNL A   1      36.110  19.988  25.007  1.00  0.00     0.002 C 
BRANCH  23  24
ATOM     24  C   UNL A   1      37.517  19.490  24.668  1.00  0.00     0.021 C 
BRANCH  24  25
ATOM     25  C   UNL A   1      38.621  20.157  25.481  1.00  0.00     0.116 C 
BRANCH  25  26
ATOM     26  N   UNL A   1      39.744  19.256  25.699  1.00  0.00    -0.352 N 
ATOM     27  C   UNL A   1      41.024  19.544  26.087  1.00  0.00     0.251 C 
ATOM     28  H   UNL A   1      39.555  18.303  25.545  1.00  0.00     0.163 HD
ATOM     29  O   UNL A   1      41.908  18.693  25.993  1.00  0.00    -0.269 OA
BRANCH  27  30
ATOM     30  C   UNL A   1      41.347  20.886  26.610  1.00  0.00     0.039 A 
ATOM     31  C   UNL A   1      41.300  21.105  27.988  1.00  0.00     0.014 A 
ATOM     32  C   UNL A   1      41.682  21.927  25.739  1.00  0.00     0.014 A 
ATOM     33  C   UNL A   1      41.642  22.358  28.498  1.00  0.00     0.010 A 
ATOM     34  C   UNL A   1      42.096  23.150  26.253  1.00  0.00     0.010 A 
ATOM     35  C   UNL A   1      42.072  23.381  27.636  1.00  0.00    -0.014 A 
BRANCH  35  36
ATOM     36  C   UNL A   1      42.498  24.701  28.166  1.00  0.00     0.031 A 
ATOM     37  C   UNL A   1      41.486  25.793  28.372  1.00  0.00     0.074 A 
ATOM     38  C   UNL A   1      43.803  24.931  28.402  1.00  0.00     0.049 A 
ATOM     39  N   UNL A   1      41.671  27.026  28.771  1.00  0.00    -0.248 NA
ATOM     40  C   UNL A   1      40.085  25.466  28.067  1.00  0.00     0.031 C 
ATOM     41  C   UNL A   1      44.884  23.966  28.193  1.00  0.00     0.029 A 
ATOM     42  N   UNL A   1      44.444  26.054  28.862  1.00  0.00    -0.354 N 
ATOM     43  C   UNL A   1      40.417  27.621  28.752  1.00  0.00     0.074 A 
ATOM     44  C   UNL A   1      39.488  26.634  28.247  1.00  0.00     0.031 C 
ATOM     45  C   UNL A   1      46.050  24.530  28.549  1.00  0.00     0.029 A 
ATOM     46  C   UNL A   1      45.805  25.906  28.969  1.00  0.00     0.049 A 
ATOM     47  H   UNL A   1      43.972  26.887  29.092  1.00  0.00     0.167 HD
ATOM     48  C   UNL A   1      40.067  28.870  29.142  1.00  0.00     0.037 A 
ATOM     49  C   UNL A   1      46.750  26.783  29.356  1.00  0.00     0.037 A 
ATOM     50  C   UNL A   1      40.993  29.842  29.661  1.00  0.00     0.049 A 
ATOM     51  C   UNL A   1      46.337  28.168  29.772  1.00  0.00     0.074 A 
ATOM     52  C   UNL A   1      40.729  31.114  30.137  1.00  0.00     0.029 A 
ATOM     53  N   UNL A   1      42.363  29.651  29.766  1.00  0.00    -0.354 N 
ATOM     54  N   UNL A   1      45.138  28.695  29.816  1.00  0.00    -0.248 NA
ATOM     55  C   UNL A   1      47.410  29.079  30.198  1.00  0.00     0.031 C 
ATOM     56  C   UNL A   1      41.946  31.712  30.482  1.00  0.00     0.029 A 
ATOM     57  C   UNL A   1      42.961  30.791  30.276  1.00  0.00     0.049 A 
ATOM     58  H   UNL A   1      42.839  28.827  29.516  1.00  0.00     0.167 HD
ATOM     59  C   UNL A   1      45.306  29.986  30.303  1.00  0.00     0.074 A 
ATOM     60  C   UNL A   1      46.723  30.156  30.552  1.00  0.00     0.031 C 
ATOM     61  C   UNL A   1      44.372  30.943  30.526  1.00  0.00     0.037 A 
BRANCH  48  62
ATOM     62  C   UNL A   1      38.620  29.254  29.021  1.00  0.00     0.057 A 
ATOM     63  C   UNL A   1      38.070  29.696  27.810  1.00  0.00     0.134 A 
ATOM     64  C   UNL A   1      37.758  29.149  30.119  1.00  0.00     0.134 A 
ATOM     65  F   UNL A   1      38.842  29.831  26.721  1.00  0.00    -0.206 F 
ATOM     66  C   UNL A   1      36.723  30.047  27.703  1.00  0.00     0.040 A 
ATOM     67  C   UNL A   1      36.402  29.467  30.017  1.00  0.00     0.040 A 
ATOM     68  F   UNL A   1      38.215  28.725  31.308  1.00  0.00    -0.206 F 
ATOM     69  C   UNL A   1      35.883  29.925  28.809  1.00  0.00     0.006 A 
ENDBRANCH  48  62
BRANCH  49  70
ATOM     70  C   UNL A   1      48.176  26.373  29.389  1.00  0.00     0.057 A 
ATOM     71  C   UNL A   1      49.014  26.584  28.289  1.00  0.00     0.134 A 
ATOM     72  C   UNL A   1      48.734  25.755  30.515  1.00  0.00     0.134 A 
ATOM     73  F   UNL A   1      48.535  27.157  27.175  1.00  0.00    -0.206 F 
ATOM     74  C   UNL A   1      50.349  26.175  28.296  1.00  0.00     0.040 A 
ATOM     75  C   UNL A   1      50.074  25.365  30.547  1.00  0.00     0.040 A 
ATOM     76  F   UNL A   1      47.987  25.532  31.607  1.00  0.00    -0.206 F 
ATOM     77  C   UNL A   1      50.884  25.568  29.431  1.00  0.00     0.006 A 
ENDBRANCH  49  70
BRANCH  61  78
ATOM     78  C   UNL A   1      44.846  32.246  31.103  1.00  0.00     0.057 A 
ATOM     79  C   UNL A   1      45.214  33.326  30.293  1.00  0.00     0.134 A 
ATOM     80  C   UNL A   1      44.896  32.431  32.491  1.00  0.00     0.134 A 
ATOM     81  F   UNL A   1      45.200  33.211  28.956  1.00  0.00    -0.206 F 
ATOM     82  C   UNL A   1      45.638  34.538  30.843  1.00  0.00     0.040 A 
ATOM     83  C   UNL A   1      45.289  33.646  33.052  1.00  0.00     0.040 A 
ATOM     84  F   UNL A   1      44.548  31.438  33.324  1.00  0.00    -0.206 F 
ATOM     85  C   UNL A   1      45.668  34.702  32.226  1.00  0.00     0.006 A 
ENDBRANCH  61  78
ENDBRANCH  35  36
ENDBRANCH  27  30
ENDBRANCH  25  26
ENDBRANCH  24  25
ENDBRANCH  23  24
ENDBRANCH   1  23
TORSDOF 15
ENDMDL
MODEL 3
REMARK VINA RESULT:     -11.2      0.596      6.247
REMARK SMILES CC(C)[C@@H](C)[N@@H+]1[C@@H](C(=O)NCCCCCCNC(=O)c2ccc(-c3c4nc(c(-c5c(F)cccc5F)c5ccc([nH]5)c(-c5c(F)cccc5F)c5nc(c(-c6c(F)cccc6F)c6ccc3[nH]6)C=C5)C=C4)cc2)C[C@H]2CCCC[C@H]21
REMARK SMILES IDX 13 1 12 2 11 3 10 4 8 5 9 6 7 8 6 9 80 10 74 12 75 13 79 14
REMARK SMILES IDX 76 15 78 16 77 17 4 18 5 19 2 20 1 21 3 22 14 23 15 24 16 25
REMARK SMILES IDX 17 26 18 27 19 29 20 30 21 31 73 32 22 33 72 34 23 35 24 36
REMARK SMILES IDX 25 37 66 38 26 39 71 40 65 41 67 42 27 43 70 44 64 45 63 46
REMARK SMILES IDX 28 48 54 49 37 50 53 51 38 52 41 53 52 54 68 55 39 56 40 57
REMARK SMILES IDX 51 59 69 60 42 61 29 62 30 63 35 64 31 65 32 66 34 67 36 68
REMARK SMILES IDX 33 69 55 70 56 71 61 72 57 73 58 74 60 75 62 76 59 77 43 78
REMARK SMILES IDX 44 79 49 80 45 81 46 82 48 83 50 84 47 85
REMARK H PARENT 10 7 6 11 17 28 67 47 41 58
REMARK Flexibility Score: inf
ROOT
ATOM      1  C   UNL A   1      32.413  29.642  26.610  1.00  0.00     0.002 C 
ENDROOT
BRANCH   1   2
ATOM      2  C   UNL A   1      31.712  28.466  27.302  1.00  0.00     0.021 C 
BRANCH   2   3
ATOM      3  C   UNL A   1      31.275  27.384  26.316  1.00  0.00     0.116 C 
BRANCH   3   4
ATOM      4  N   UNL A   1      31.221  26.102  26.969  1.00  0.00    -0.351 N 
ATOM      5  C   UNL A   1      31.818  24.929  26.615  1.00  0.00     0.278 C 
ATOM      6  O   UNL A   1      31.482  23.938  27.273  1.00  0.00    -0.268 OA
ATOM      7  H   UNL A   1      30.675  26.066  27.786  1.00  0.00     0.163 HD
BRANCH   5   8
ATOM      8  C   UNL A   1      32.982  24.881  25.583  1.00  0.00     0.275 C 
ATOM      9  N   UNL A   1      32.545  24.538  24.180  1.00  0.00    -0.320 N 
ATOM     10  C   UNL A   1      32.923  23.108  24.004  1.00  0.00     0.188 C 
ATOM     11  H   UNL A   1      31.546  24.730  24.102  1.00  0.00     0.349 HD
ATOM     12  C   UNL A   1      34.019  23.820  25.996  1.00  0.00     0.085 C 
ATOM     13  C   UNL A   1      34.252  22.989  24.745  1.00  0.00     0.054 C 
ATOM     14  C   UNL A   1      31.832  22.166  24.546  1.00  0.00     0.065 C 
ATOM     15  C   UNL A   1      34.697  21.551  25.001  1.00  0.00     0.010 C 
ATOM     16  C   UNL A   1      32.335  20.730  24.667  1.00  0.00     0.006 C 
ATOM     17  C   UNL A   1      33.587  20.650  25.533  1.00  0.00     0.001 C 
BRANCH   9  18
ATOM     18  C   UNL A   1      33.123  25.377  23.066  1.00  0.00     0.184 C 
ATOM     19  C   UNL A   1      33.762  26.714  23.500  1.00  0.00     0.075 C 
BRANCH  18  20
ATOM     20  C   UNL A   1      32.032  25.638  21.953  1.00  0.00     0.041 C 
ATOM     21  C   UNL A   1      31.297  26.977  22.124  1.00  0.00     0.013 C 
ATOM     22  C   UNL A   1      32.591  25.584  20.526  1.00  0.00     0.013 C 
ENDBRANCH  18  20
ENDBRANCH   9  18
ENDBRANCH   5   8
ENDBRANCH   3   4
ENDBRANCH   2   3
ENDBRANCH   1   2
BRANCH   1  23
ATOM     23  C   UNL A   1      31.462  30.611  25.894  1.00  0.00     0.002 C 
BRANCH  23  24
ATOM     24  C   UNL A   1      31.340  31.986  26.556  1.00  0.00     0.021 C 
BRANCH  24  25
ATOM     25  C   UNL A   1      32.676  32.597  26.962  1.00  0.00     0.116 C 
BRANCH  25  26
ATOM     26  N   UNL A   1      32.509  33.941  27.498  1.00  0.00    -0.352 N 
ATOM     27  C   UNL A   1      33.121  34.528  28.572  1.00  0.00     0.251 C 
ATOM     28  H   UNL A   1      31.865  34.508  27.018  1.00  0.00     0.163 HD
ATOM     29  O   UNL A   1      32.690  35.587  29.028  1.00  0.00    -0.269 OA
BRANCH  27  30
ATOM     30  C   UNL A   1      34.294  33.882  29.190  1.00  0.00     0.039 A 
ATOM     31  C   UNL A   1      34.095  32.949  30.210  1.00  0.00     0.014 A 
ATOM     32  C   UNL A   1      35.588  34.207  28.771  1.00  0.00     0.014 A 
ATOM     33  C   UNL A   1      35.194  32.302  30.775  1.00  0.00     0.010 A 
ATOM     34  C   UNL A   1      36.674  33.505  29.280  1.00  0.00     0.010 A 
ATOM     35  C   UNL A   1      36.490  32.552  30.293  1.00  0.00    -0.014 A 
BRANCH  35  36
ATOM     36  C   UNL A   1      37.664  31.828  30.839  1.00  0.00     0.031 A 
ATOM     37  C   UNL A   1      38.198  32.175  32.201  1.00  0.00     0.074 A 
ATOM     38  C   UNL A   1      38.283  30.901  30.083  1.00  0.00     0.049 A 
ATOM     39  N   UNL A   1      39.244  31.695  32.824  1.00  0.00    -0.248 NA
ATOM     40  C   UNL A   1      37.478  33.215  32.950  1.00  0.00     0.031 C 
ATOM     41  C   UNL A   1      37.888  30.513  28.728  1.00  0.00     0.029 A 
ATOM     42  N   UNL A   1      39.383  30.123  30.344  1.00  0.00    -0.354 N 
ATOM     43  C   UNL A   1      39.313  32.383  34.029  1.00  0.00     0.074 A 
ATOM     44  C   UNL A   1      38.241  33.352  34.025  1.00  0.00     0.031 C 
ATOM     45  C   UNL A   1      38.716  29.552  28.288  1.00  0.00     0.029 A 
ATOM     46  C   UNL A   1      39.724  29.287  29.310  1.00  0.00     0.049 A 
ATOM     47  H   UNL A   1      39.880  30.161  31.193  1.00  0.00     0.167 HD
ATOM     48  C   UNL A   1      40.178  32.205  35.056  1.00  0.00     0.037 A 
ATOM     49  C   UNL A   1      40.740  28.411  29.195  1.00  0.00     0.037 A 
ATOM     50  C   UNL A   1      41.233  31.226  35.062  1.00  0.00     0.049 A 
ATOM     51  C   UNL A   1      41.694  28.242  30.345  1.00  0.00     0.074 A 
ATOM     52  C   UNL A   1      42.127  30.928  36.077  1.00  0.00     0.029 A 
ATOM     53  N   UNL A   1      41.540  30.388  34.000  1.00  0.00    -0.354 N 
ATOM     54  N   UNL A   1      41.705  28.849  31.506  1.00  0.00    -0.248 NA
ATOM     55  C   UNL A   1      42.776  27.261  30.169  1.00  0.00     0.031 C 
ATOM     56  C   UNL A   1      43.007  29.947  35.609  1.00  0.00     0.029 A 
ATOM     57  C   UNL A   1      42.625  29.591  34.325  1.00  0.00     0.049 A 
ATOM     58  H   UNL A   1      41.058  30.364  33.142  1.00  0.00     0.167 HD
ATOM     59  C   UNL A   1      42.771  28.303  32.212  1.00  0.00     0.074 A 
ATOM     60  C   UNL A   1      43.374  27.306  31.350  1.00  0.00     0.031 C 
ATOM     61  C   UNL A   1      43.210  28.598  33.460  1.00  0.00     0.037 A 
BRANCH  48  62
ATOM     62  C   UNL A   1      40.018  33.092  36.258  1.00  0.00     0.057 A 
ATOM     63  C   UNL A   1      40.730  34.291  36.394  1.00  0.00     0.134 A 
ATOM     64  C   UNL A   1      39.116  32.759  37.277  1.00  0.00     0.134 A 
ATOM     65  F   UNL A   1      41.618  34.665  35.460  1.00  0.00    -0.206 F 
ATOM     66  C   UNL A   1      40.572  35.113  37.512  1.00  0.00     0.040 A 
ATOM     67  C   UNL A   1      38.928  33.588  38.385  1.00  0.00     0.040 A 
ATOM     68  F   UNL A   1      38.396  31.629  37.209  1.00  0.00    -0.206 F 
ATOM     69  C   UNL A   1      39.663  34.764  38.508  1.00  0.00     0.006 A 
ENDBRANCH  48  62
BRANCH  49  70
ATOM     70  C   UNL A   1      40.894  27.610  27.955  1.00  0.00     0.057 A 
ATOM     71  C   UNL A   1      40.244  26.380  27.803  1.00  0.00     0.134 A 
ATOM     72  C   UNL A   1      41.701  28.048  26.896  1.00  0.00     0.134 A 
ATOM     73  F   UNL A   1      39.471  25.899  28.788  1.00  0.00    -0.206 F 
ATOM     74  C   UNL A   1      40.406  25.603  26.655  1.00  0.00     0.040 A 
ATOM     75  C   UNL A   1      41.851  27.294  25.731  1.00  0.00     0.040 A 
ATOM     76  F   UNL A   1      42.345  29.222  26.975  1.00  0.00    -0.206 F 
ATOM     77  C   UNL A   1      41.208  26.063  25.611  1.00  0.00     0.006 A 
ENDBRANCH  49  70
BRANCH  61  78
ATOM     78  C   UNL A   1      44.373  27.808  33.985  1.00  0.00     0.057 A 
ATOM     79  C   UNL A   1      44.203  26.582  34.640  1.00  0.00     0.134 A 
ATOM     80  C   UNL A   1      45.684  28.265  33.798  1.00  0.00     0.134 A 
ATOM     81  F   UNL A   1      42.973  26.095  34.863  1.00  0.00    -0.206 F 
ATOM     82  C   UNL A   1      45.295  25.850  35.111  1.00  0.00     0.040 A 
ATOM     83  C   UNL A   1      46.785  27.527  34.237  1.00  0.00     0.040 A 
ATOM     84  F   UNL A   1      45.919  29.428  33.170  1.00  0.00    -0.206 F 
ATOM     85  C   UNL A   1      46.590  26.319  34.902  1.00  0.00     0.006 A 
ENDBRANCH  61  78
ENDBRANCH  35  36
ENDBRANCH  27  30
ENDBRANCH  25  26
ENDBRANCH  24  25
ENDBRANCH  23  24
ENDBRANCH   1  23
TORSDOF 15
ENDMDL
