MODEL 1
REMARK VINA RESULT:     -11.6      0.000      0.000
REMARK SMILES O=C(NCCCCCCNC(=O)[C@@H]1CCCC[C@@H]1C(=O)Nc1cccc(C(F)(F)F)c1)c1ccc(-c2c3nc(c(-c4c(F)cccc4F)c4ccc([nH]4)c(-c4c(F)cccc4F)c4nc(c(-c5c(F)cccc5F)c5ccc2[nH]5)C=C4)C=C3)cc1
REMARK SMILES IDX 7 1 6 2 5 3 4 4 3 5 1 6 2 7 32 9 33 10 85 11 34 12 84 13
REMARK SMILES IDX 35 14 36 15 37 16 78 17 38 18 83 19 77 20 79 21 39 22 82 23
REMARK SMILES IDX 76 24 75 25 40 27 66 28 49 29 65 30 50 31 53 32 64 33 80 34
REMARK SMILES IDX 51 35 52 36 63 38 81 39 54 40 41 41 42 42 47 43 43 44 44 45
REMARK SMILES IDX 46 46 48 47 45 48 67 49 68 50 73 51 69 52 70 53 72 54 74 55
REMARK SMILES IDX 71 56 55 57 56 58 61 59 57 60 58 61 60 62 62 63 59 64 8 65
REMARK SMILES IDX 9 66 10 67 11 68 12 70 13 71 14 72 18 73 15 74 17 75 16 76
REMARK SMILES IDX 19 77 20 78 21 79 22 81 23 82 31 83 24 84 26 85 25 86 27 87
REMARK SMILES IDX 28 88 29 89 30 90
REMARK H PARENT 3 8 79 26 53 37 10 69 21 80
REMARK Flexibility Score: inf
ROOT
ATOM      1  C   UNL A   1      36.190  22.321  24.494  1.00  0.00     0.002 C 
ENDROOT
BRANCH   1   2
ATOM      2  C   UNL A   1      37.574  21.712  24.269  1.00  0.00     0.002 C 
BRANCH   2   3
ATOM      3  C   UNL A   1      37.758  20.267  24.708  1.00  0.00     0.021 C 
BRANCH   3   4
ATOM      4  C   UNL A   1      38.567  20.092  25.977  1.00  0.00     0.116 C 
BRANCH   4   5
ATOM      5  N   UNL A   1      39.724  19.227  25.805  1.00  0.00    -0.352 N 
ATOM      6  O   UNL A   1      41.940  18.756  25.722  1.00  0.00    -0.269 OA
ATOM      7  C   UNL A   1      41.046  19.543  26.008  1.00  0.00     0.251 C 
ATOM      8  H   UNL A   1      39.538  18.306  25.509  1.00  0.00     0.163 HD
BRANCH   7   9
ATOM      9  C   UNL A   1      41.369  20.877  26.550  1.00  0.00     0.039 A 
ATOM     10  C   UNL A   1      41.719  21.914  25.681  1.00  0.00     0.014 A 
ATOM     11  C   UNL A   1      41.385  21.069  27.933  1.00  0.00     0.014 A 
ATOM     12  C   UNL A   1      42.217  23.101  26.196  1.00  0.00     0.010 A 
ATOM     13  C   UNL A   1      41.794  22.300  28.449  1.00  0.00     0.010 A 
ATOM     14  C   UNL A   1      42.230  23.316  27.584  1.00  0.00    -0.014 A 
BRANCH  14  15
ATOM     15  C   UNL A   1      42.588  24.657  28.097  1.00  0.00     0.031 A 
ATOM     16  C   UNL A   1      41.545  25.704  28.356  1.00  0.00     0.074 A 
ATOM     17  C   UNL A   1      43.890  24.911  28.327  1.00  0.00     0.049 A 
ATOM     18  N   UNL A   1      41.707  26.935  28.766  1.00  0.00    -0.248 NA
ATOM     19  C   UNL A   1      40.143  25.327  28.119  1.00  0.00     0.031 C 
ATOM     20  C   UNL A   1      44.985  23.962  28.094  1.00  0.00     0.029 A 
ATOM     21  N   UNL A   1      44.519  26.027  28.810  1.00  0.00    -0.354 N 
ATOM     22  C   UNL A   1      40.436  27.492  28.807  1.00  0.00     0.074 A 
ATOM     23  C   UNL A   1      39.512  26.466  28.376  1.00  0.00     0.031 C 
ATOM     24  C   UNL A   1      46.142  24.523  28.468  1.00  0.00     0.029 A 
ATOM     25  C   UNL A   1      45.882  25.892  28.895  1.00  0.00     0.049 A 
ATOM     26  H   UNL A   1      44.039  26.847  29.072  1.00  0.00     0.167 HD
ATOM     27  C   UNL A   1      40.084  28.749  29.172  1.00  0.00     0.037 A 
ATOM     28  C   UNL A   1      46.827  26.782  29.242  1.00  0.00     0.037 A 
ATOM     29  C   UNL A   1      41.017  29.750  29.624  1.00  0.00     0.049 A 
ATOM     30  C   UNL A   1      46.406  28.167  29.621  1.00  0.00     0.074 A 
ATOM     31  C   UNL A   1      40.753  31.030  30.079  1.00  0.00     0.029 A 
ATOM     32  N   UNL A   1      42.394  29.585  29.669  1.00  0.00    -0.354 N 
ATOM     33  N   UNL A   1      45.197  28.669  29.692  1.00  0.00    -0.248 NA
ATOM     34  C   UNL A   1      47.477  29.115  29.952  1.00  0.00     0.031 C 
ATOM     35  C   UNL A   1      41.974  31.655  30.358  1.00  0.00     0.029 A 
ATOM     36  C   UNL A   1      42.995  30.752  30.114  1.00  0.00     0.049 A 
ATOM     37  H   UNL A   1      42.872  28.761  29.421  1.00  0.00     0.167 HD
ATOM     38  C   UNL A   1      45.359  29.990  30.077  1.00  0.00     0.074 A 
ATOM     39  C   UNL A   1      46.782  30.205  30.249  1.00  0.00     0.031 C 
ATOM     40  C   UNL A   1      44.415  30.943  30.265  1.00  0.00     0.037 A 
BRANCH  27  41
ATOM     41  C   UNL A   1      38.636  29.128  29.080  1.00  0.00     0.057 A 
ATOM     42  C   UNL A   1      37.778  29.060  30.184  1.00  0.00     0.134 A 
ATOM     43  C   UNL A   1      38.109  29.631  27.883  1.00  0.00     0.134 A 
ATOM     44  F   UNL A   1      38.215  28.579  31.356  1.00  0.00    -0.206 F 
ATOM     45  C   UNL A   1      36.445  29.471  30.098  1.00  0.00     0.040 A 
ATOM     46  C   UNL A   1      36.785  30.063  27.790  1.00  0.00     0.040 A 
ATOM     47  F   UNL A   1      38.880  29.728  26.788  1.00  0.00    -0.206 F 
ATOM     48  C   UNL A   1      35.948  29.982  28.900  1.00  0.00     0.006 A 
ENDBRANCH  27  41
BRANCH  28  49
ATOM     49  C   UNL A   1      48.254  26.385  29.206  1.00  0.00     0.057 A 
ATOM     50  C   UNL A   1      49.034  26.588  28.063  1.00  0.00     0.134 A 
ATOM     51  C   UNL A   1      48.882  25.828  30.328  1.00  0.00     0.134 A 
ATOM     52  F   UNL A   1      48.485  27.106  26.955  1.00  0.00    -0.206 F 
ATOM     53  C   UNL A   1      50.386  26.242  28.034  1.00  0.00     0.040 A 
ATOM     54  C   UNL A   1      50.238  25.503  30.321  1.00  0.00     0.040 A 
ATOM     55  F   UNL A   1      48.190  25.621  31.459  1.00  0.00    -0.206 F 
ATOM     56  C   UNL A   1      50.993  25.706  29.168  1.00  0.00     0.006 A 
ENDBRANCH  28  49
BRANCH  40  57
ATOM     57  C   UNL A   1      44.900  32.297  30.679  1.00  0.00     0.057 A 
ATOM     58  C   UNL A   1      45.138  32.608  32.024  1.00  0.00     0.134 A 
ATOM     59  C   UNL A   1      45.153  33.290  29.726  1.00  0.00     0.134 A 
ATOM     60  F   UNL A   1      44.895  31.704  32.983  1.00  0.00    -0.206 F 
ATOM     61  C   UNL A   1      45.595  33.868  32.407  1.00  0.00     0.040 A 
ATOM     62  C   UNL A   1      45.633  34.547  30.095  1.00  0.00     0.040 A 
ATOM     63  F   UNL A   1      44.948  33.051  28.421  1.00  0.00    -0.206 F 
ATOM     64  C   UNL A   1      45.850  34.839  31.440  1.00  0.00     0.006 A 
ENDBRANCH  40  57
ENDBRANCH  14  15
ENDBRANCH   7   9
ENDBRANCH   4   5
ENDBRANCH   3   4
ENDBRANCH   2   3
ENDBRANCH   1   2
BRANCH   1  65
ATOM     65  C   UNL A   1      35.555  22.972  23.260  1.00  0.00     0.021 C 
BRANCH  65  66
ATOM     66  C   UNL A   1      34.237  23.703  23.515  1.00  0.00     0.116 C 
BRANCH  66  67
ATOM     67  N   UNL A   1      34.305  24.567  24.680  1.00  0.00    -0.356 N 
ATOM     68  C   UNL A   1      33.490  25.592  25.060  1.00  0.00     0.223 C 
ATOM     69  H   UNL A   1      35.057  24.386  25.289  1.00  0.00     0.163 HD
ATOM     70  O   UNL A   1      33.781  26.208  26.083  1.00  0.00    -0.275 OA
BRANCH  68  71
ATOM     71  C   UNL A   1      32.289  25.951  24.199  1.00  0.00     0.091 C 
ATOM     72  C   UNL A   1      32.129  27.476  24.284  1.00  0.00     0.014 C 
ATOM     73  C   UNL A   1      30.997  25.166  24.522  1.00  0.00     0.091 C 
ATOM     74  C   UNL A   1      30.979  27.972  23.422  1.00  0.00     0.001 C 
ATOM     75  C   UNL A   1      29.793  25.765  23.749  1.00  0.00     0.014 C 
ATOM     76  C   UNL A   1      29.678  27.289  23.815  1.00  0.00     0.001 C 
BRANCH  73  77
ATOM     77  C   UNL A   1      30.642  25.037  26.001  1.00  0.00     0.228 C 
ATOM     78  O   UNL A   1      29.951  25.903  26.552  1.00  0.00    -0.274 OA
ATOM     79  N   UNL A   1      30.967  23.960  26.771  1.00  0.00    -0.326 N 
ATOM     80  H   UNL A   1      30.465  23.959  27.618  1.00  0.00     0.169 HD
BRANCH  79  81
ATOM     81  C   UNL A   1      31.826  22.849  26.683  1.00  0.00     0.041 A 
ATOM     82  C   UNL A   1      32.868  22.802  27.622  1.00  0.00     0.026 A 
ATOM     83  C   UNL A   1      31.801  21.873  25.694  1.00  0.00     0.039 A 
ATOM     84  C   UNL A   1      33.876  21.835  27.553  1.00  0.00     0.003 A 
ATOM     85  C   UNL A   1      32.838  20.926  25.581  1.00  0.00     0.058 A 
ATOM     86  C   UNL A   1      33.873  20.909  26.520  1.00  0.00     0.013 A 
BRANCH  85  87
ATOM     87  C   UNL A   1      32.916  20.059  24.357  1.00  0.00     0.416 C 
ATOM     88  F   UNL A   1      32.590  20.696  23.199  1.00  0.00    -0.166 F 
ATOM     89  F   UNL A   1      34.153  19.525  24.156  1.00  0.00    -0.166 F 
ATOM     90  F   UNL A   1      32.058  19.006  24.457  1.00  0.00    -0.166 F 
ENDBRANCH  85  87
ENDBRANCH  79  81
ENDBRANCH  73  77
ENDBRANCH  68  71
ENDBRANCH  66  67
ENDBRANCH  65  66
ENDBRANCH   1  65
TORSDOF 16
ENDMDL
MODEL 2
REMARK VINA RESULT:     -11.6      4.708      9.435
REMARK SMILES O=C(NCCCCCCNC(=O)[C@@H]1CCCC[C@@H]1C(=O)Nc1cccc(C(F)(F)F)c1)c1ccc(-c2c3nc(c(-c4c(F)cccc4F)c4ccc([nH]4)c(-c4c(F)cccc4F)c4nc(c(-c5c(F)cccc5F)c5ccc2[nH]5)C=C4)C=C3)cc1
REMARK SMILES IDX 7 1 6 2 5 3 4 4 3 5 1 6 2 7 32 9 33 10 85 11 34 12 84 13
REMARK SMILES IDX 35 14 36 15 37 16 78 17 38 18 83 19 77 20 79 21 39 22 82 23
REMARK SMILES IDX 76 24 75 25 40 27 66 28 49 29 65 30 50 31 53 32 64 33 80 34
REMARK SMILES IDX 51 35 52 36 63 38 81 39 54 40 41 41 42 42 47 43 43 44 44 45
REMARK SMILES IDX 46 46 48 47 45 48 67 49 68 50 73 51 69 52 70 53 72 54 74 55
REMARK SMILES IDX 71 56 55 57 56 58 61 59 57 60 58 61 60 62 62 63 59 64 8 65
REMARK SMILES IDX 9 66 10 67 11 68 12 70 13 71 14 72 18 73 15 74 17 75 16 76
REMARK SMILES IDX 19 77 20 78 21 79 22 81 23 82 31 83 24 84 26 85 25 86 27 87
REMARK SMILES IDX 28 88 29 89 30 90
REMARK H PARENT 3 8 79 26 53 37 10 69 21 80
REMARK Flexibility Score: inf
ROOT
ATOM      1  C   UNL A   1      33.927  30.411  27.339  1.00  0.00     0.002 C 
ENDROOT
BRANCH   1   2
ATOM      2  C   UNL A   1      32.404  30.466  27.218  1.00  0.00     0.002 C 
BRANCH   2   3
ATOM      3  C   UNL A   1      31.792  31.842  27.005  1.00  0.00     0.021 C 
BRANCH   3   4
ATOM      4  C   UNL A   1      32.799  32.961  26.833  1.00  0.00     0.116 C 
BRANCH   4   5
ATOM      5  N   UNL A   1      32.454  34.163  27.576  1.00  0.00    -0.352 N 
ATOM      6  O   UNL A   1      32.601  35.619  29.308  1.00  0.00    -0.269 OA
ATOM      7  C   UNL A   1      33.056  34.650  28.711  1.00  0.00     0.251 C 
ATOM      8  H   UNL A   1      31.701  34.691  27.223  1.00  0.00     0.163 HD
BRANCH   7   9
ATOM      9  C   UNL A   1      34.254  33.954  29.219  1.00  0.00     0.039 A 
ATOM     10  C   UNL A   1      34.112  32.916  30.145  1.00  0.00     0.014 A 
ATOM     11  C   UNL A   1      35.520  34.384  28.817  1.00  0.00     0.014 A 
ATOM     12  C   UNL A   1      35.237  32.402  30.773  1.00  0.00     0.010 A 
ATOM     13  C   UNL A   1      36.653  33.797  29.380  1.00  0.00     0.010 A 
ATOM     14  C   UNL A   1      36.518  32.815  30.374  1.00  0.00    -0.014 A 
BRANCH  14  15
ATOM     15  C   UNL A   1      37.700  32.116  30.926  1.00  0.00     0.031 A 
ATOM     16  C   UNL A   1      38.404  31.037  30.158  1.00  0.00     0.074 A 
ATOM     17  C   UNL A   1      38.128  32.482  32.149  1.00  0.00     0.049 A 
ATOM     18  N   UNL A   1      39.425  30.306  30.524  1.00  0.00    -0.248 NA
ATOM     19  C   UNL A   1      37.896  30.731  28.812  1.00  0.00     0.031 C 
ATOM     20  C   UNL A   1      37.503  33.513  32.984  1.00  0.00     0.029 A 
ATOM     21  N   UNL A   1      39.184  32.043  32.902  1.00  0.00    -0.354 N 
ATOM     22  C   UNL A   1      39.665  29.433  29.471  1.00  0.00     0.074 A 
ATOM     23  C   UNL A   1      38.679  29.721  28.452  1.00  0.00     0.031 C 
ATOM     24  C   UNL A   1      38.207  33.652  34.114  1.00  0.00     0.029 A 
ATOM     25  C   UNL A   1      39.284  32.671  34.118  1.00  0.00     0.049 A 
ATOM     26  H   UNL A   1      39.810  31.345  32.601  1.00  0.00     0.167 HD
ATOM     27  C   UNL A   1      40.623  28.480  29.375  1.00  0.00     0.037 A 
ATOM     28  C   UNL A   1      40.128  32.459  35.143  1.00  0.00     0.037 A 
ATOM     29  C   UNL A   1      41.613  28.225  30.391  1.00  0.00     0.049 A 
ATOM     30  C   UNL A   1      41.162  31.386  35.013  1.00  0.00     0.074 A 
ATOM     31  C   UNL A   1      42.667  27.328  30.361  1.00  0.00     0.029 A 
ATOM     32  N   UNL A   1      41.666  28.862  31.622  1.00  0.00    -0.354 N 
ATOM     33  N   UNL A   1      41.402  30.593  33.995  1.00  0.00    -0.248 NA
ATOM     34  C   UNL A   1      42.032  31.163  36.173  1.00  0.00     0.031 C 
ATOM     35  C   UNL A   1      43.330  27.392  31.592  1.00  0.00     0.029 A 
ATOM     36  C   UNL A   1      42.715  28.356  32.372  1.00  0.00     0.049 A 
ATOM     37  H   UNL A   1      41.049  29.570  31.917  1.00  0.00     0.167 HD
ATOM     38  C   UNL A   1      42.450  29.779  34.391  1.00  0.00     0.074 A 
ATOM     39  C   UNL A   1      42.818  30.190  35.731  1.00  0.00     0.031 C 
ATOM     40  C   UNL A   1      43.052  28.774  33.709  1.00  0.00     0.037 A 
BRANCH  27  41
ATOM     41  C   UNL A   1      40.641  27.623  28.145  1.00  0.00     0.057 A 
ATOM     42  C   UNL A   1      41.374  27.974  27.004  1.00  0.00     0.134 A 
ATOM     43  C   UNL A   1      39.969  26.393  28.127  1.00  0.00     0.134 A 
ATOM     44  F   UNL A   1      42.032  29.141  26.952  1.00  0.00    -0.206 F 
ATOM     45  C   UNL A   1      41.428  27.138  25.887  1.00  0.00     0.040 A 
ATOM     46  C   UNL A   1      40.032  25.541  27.023  1.00  0.00     0.040 A 
ATOM     47  F   UNL A   1      39.253  25.994  29.189  1.00  0.00    -0.206 F 
ATOM     48  C   UNL A   1      40.762  25.913  25.898  1.00  0.00     0.006 A 
ENDBRANCH  27  41
BRANCH  28  49
ATOM     49  C   UNL A   1      39.991  33.261  36.381  1.00  0.00     0.057 A 
ATOM     50  C   UNL A   1      39.140  32.858  37.415  1.00  0.00     0.134 A 
ATOM     51  C   UNL A   1      40.738  34.430  36.576  1.00  0.00     0.134 A 
ATOM     52  F   UNL A   1      38.391  31.754  37.281  1.00  0.00    -0.206 F 
ATOM     53  C   UNL A   1      39.029  33.595  38.595  1.00  0.00     0.040 A 
ATOM     54  C   UNL A   1      40.656  35.161  37.761  1.00  0.00     0.040 A 
ATOM     55  F   UNL A   1      41.581  34.862  35.626  1.00  0.00    -0.206 F 
ATOM     56  C   UNL A   1      39.795  34.745  38.773  1.00  0.00     0.006 A 
ENDBRANCH  28  49
BRANCH  40  57
ATOM     57  C   UNL A   1      44.167  28.062  34.407  1.00  0.00     0.057 A 
ATOM     58  C   UNL A   1      45.487  28.524  34.337  1.00  0.00     0.134 A 
ATOM     59  C   UNL A   1      43.917  26.918  35.173  1.00  0.00     0.134 A 
ATOM     60  F   UNL A   1      45.790  29.605  33.603  1.00  0.00    -0.206 F 
ATOM     61  C   UNL A   1      46.524  27.862  34.993  1.00  0.00     0.040 A 
ATOM     62  C   UNL A   1      44.942  26.259  35.853  1.00  0.00     0.040 A 
ATOM     63  F   UNL A   1      42.673  26.428  35.281  1.00  0.00    -0.206 F 
ATOM     64  C   UNL A   1      46.251  26.729  35.759  1.00  0.00     0.006 A 
ENDBRANCH  40  57
ENDBRANCH  14  15
ENDBRANCH   7   9
ENDBRANCH   4   5
ENDBRANCH   3   4
ENDBRANCH   2   3
ENDBRANCH   1   2
BRANCH   1  65
ATOM     65  C   UNL A   1      34.550  29.028  27.113  1.00  0.00     0.021 C 
BRANCH  65  66
ATOM     66  C   UNL A   1      33.565  27.927  26.718  1.00  0.00     0.116 C 
BRANCH  66  67
ATOM     67  N   UNL A   1      34.102  27.056  25.688  1.00  0.00    -0.356 N 
ATOM     68  C   UNL A   1      33.797  25.761  25.390  1.00  0.00     0.223 C 
ATOM     69  H   UNL A   1      34.793  27.462  25.117  1.00  0.00     0.163 HD
ATOM     70  O   UNL A   1      34.424  25.217  24.483  1.00  0.00    -0.275 OA
BRANCH  68  71
ATOM     71  C   UNL A   1      32.732  25.037  26.200  1.00  0.00     0.091 C 
ATOM     72  C   UNL A   1      33.221  23.592  26.374  1.00  0.00     0.014 C 
ATOM     73  C   UNL A   1      31.297  25.151  25.638  1.00  0.00     0.091 C 
ATOM     74  C   UNL A   1      32.258  22.768  27.214  1.00  0.00     0.001 C 
ATOM     75  C   UNL A   1      30.340  24.199  26.405  1.00  0.00     0.014 C 
ATOM     76  C   UNL A   1      30.867  22.776  26.602  1.00  0.00     0.001 C 
BRANCH  73  77
ATOM     77  C   UNL A   1      31.144  24.927  24.135  1.00  0.00     0.228 C 
ATOM     78  O   UNL A   1      31.386  23.818  23.645  1.00  0.00    -0.274 OA
ATOM     79  N   UNL A   1      30.662  25.864  23.272  1.00  0.00    -0.326 N 
ATOM     80  H   UNL A   1      30.429  25.466  22.402  1.00  0.00     0.169 HD
BRANCH  79  81
ATOM     81  C   UNL A   1      30.408  27.248  23.287  1.00  0.00     0.041 A 
ATOM     82  C   UNL A   1      31.434  28.057  23.801  1.00  0.00     0.026 A 
ATOM     83  C   UNL A   1      29.208  27.863  22.949  1.00  0.00     0.039 A 
ATOM     84  C   UNL A   1      31.255  29.428  24.009  1.00  0.00     0.003 A 
ATOM     85  C   UNL A   1      28.995  29.233  23.204  1.00  0.00     0.058 A 
ATOM     86  C   UNL A   1      30.028  30.013  23.730  1.00  0.00     0.013 A 
BRANCH  85  87
ATOM     87  C   UNL A   1      27.612  29.803  23.071  1.00  0.00     0.416 C 
ATOM     88  F   UNL A   1      26.615  28.916  23.339  1.00  0.00    -0.166 F 
ATOM     89  F   UNL A   1      27.392  30.871  23.887  1.00  0.00    -0.166 F 
ATOM     90  F   UNL A   1      27.391  30.240  21.801  1.00  0.00    -0.166 F 
ENDBRANCH  85  87
ENDBRANCH  79  81
ENDBRANCH  73  77
ENDBRANCH  68  71
ENDBRANCH  66  67
ENDBRANCH  65  66
ENDBRANCH   1  65
TORSDOF 16
ENDMDL
MODEL 3
REMARK VINA RESULT:     -11.6      1.195      2.157
REMARK SMILES O=C(NCCCCCCNC(=O)[C@@H]1CCCC[C@@H]1C(=O)Nc1cccc(C(F)(F)F)c1)c1ccc(-c2c3nc(c(-c4c(F)cccc4F)c4ccc([nH]4)c(-c4c(F)cccc4F)c4nc(c(-c5c(F)cccc5F)c5ccc2[nH]5)C=C4)C=C3)cc1
REMARK SMILES IDX 7 1 6 2 5 3 4 4 3 5 1 6 2 7 32 9 33 10 85 11 34 12 84 13
REMARK SMILES IDX 35 14 36 15 37 16 78 17 38 18 83 19 77 20 79 21 39 22 82 23
REMARK SMILES IDX 76 24 75 25 40 27 66 28 49 29 65 30 50 31 53 32 64 33 80 34
REMARK SMILES IDX 51 35 52 36 63 38 81 39 54 40 41 41 42 42 47 43 43 44 44 45
REMARK SMILES IDX 46 46 48 47 45 48 67 49 68 50 73 51 69 52 70 53 72 54 74 55
REMARK SMILES IDX 71 56 55 57 56 58 61 59 57 60 58 61 60 62 62 63 59 64 8 65
REMARK SMILES IDX 9 66 10 67 11 68 12 70 13 71 14 72 18 73 15 74 17 75 16 76
REMARK SMILES IDX 19 77 20 78 21 79 22 81 23 82 31 83 24 84 26 85 25 86 27 87
REMARK SMILES IDX 28 88 29 89 30 90
REMARK H PARENT 3 8 79 26 53 37 10 69 21 80
REMARK Flexibility Score: inf
ROOT
ATOM      1  C   UNL A   1      36.896  22.039  24.804  1.00  0.00     0.002 C 
ENDROOT
BRANCH   1   2
ATOM      2  C   UNL A   1      36.772  20.528  25.000  1.00  0.00     0.002 C 
BRANCH   2   3
ATOM      3  C   UNL A   1      38.041  19.713  24.801  1.00  0.00     0.021 C 
BRANCH   3   4
ATOM      4  C   UNL A   1      39.167  20.057  25.754  1.00  0.00     0.116 C 
BRANCH   4   5
ATOM      5  N   UNL A   1      40.203  19.036  25.810  1.00  0.00    -0.352 N 
ATOM      6  O   UNL A   1      42.335  18.282  25.968  1.00  0.00    -0.269 OA
ATOM      7  C   UNL A   1      41.543  19.213  26.056  1.00  0.00     0.251 C 
ATOM      8  H   UNL A   1      39.908  18.109  25.654  1.00  0.00     0.163 HD
BRANCH   7   9
ATOM      9  C   UNL A   1      42.017  20.569  26.398  1.00  0.00     0.039 A 
ATOM     10  C   UNL A   1      42.103  20.956  27.738  1.00  0.00     0.014 A 
ATOM     11  C   UNL A   1      42.311  21.471  25.374  1.00  0.00     0.014 A 
ATOM     12  C   UNL A   1      42.350  22.283  28.053  1.00  0.00     0.010 A 
ATOM     13  C   UNL A   1      42.655  22.784  25.697  1.00  0.00     0.010 A 
ATOM     14  C   UNL A   1      42.659  23.202  27.036  1.00  0.00    -0.014 A 
BRANCH  14  15
ATOM     15  C   UNL A   1      43.102  24.564  27.413  1.00  0.00     0.031 A 
ATOM     16  C   UNL A   1      42.130  25.604  27.882  1.00  0.00     0.074 A 
ATOM     17  C   UNL A   1      44.417  24.841  27.321  1.00  0.00     0.049 A 
ATOM     18  N   UNL A   1      42.359  26.850  28.207  1.00  0.00    -0.248 NA
ATOM     19  C   UNL A   1      40.719  25.203  27.994  1.00  0.00     0.031 C 
ATOM     20  C   UNL A   1      45.444  23.899  26.862  1.00  0.00     0.029 A 
ATOM     21  N   UNL A   1      45.119  25.979  27.611  1.00  0.00    -0.354 N 
ATOM     22  C   UNL A   1      41.123  27.392  28.533  1.00  0.00     0.074 A 
ATOM     23  C   UNL A   1      40.143  26.341  28.361  1.00  0.00     0.031 C 
ATOM     24  C   UNL A   1      46.645  24.486  26.936  1.00  0.00     0.029 A 
ATOM     25  C   UNL A   1      46.466  25.864  27.374  1.00  0.00     0.049 A 
ATOM     26  H   UNL A   1      44.699  26.801  27.955  1.00  0.00     0.167 HD
ATOM     27  C   UNL A   1      40.842  28.655  28.935  1.00  0.00     0.037 A 
ATOM     28  C   UNL A   1      47.449  26.777  27.463  1.00  0.00     0.037 A 
ATOM     29  C   UNL A   1      41.835  29.681  29.126  1.00  0.00     0.049 A 
ATOM     30  C   UNL A   1      47.102  28.168  27.892  1.00  0.00     0.074 A 
ATOM     31  C   UNL A   1      41.662  30.972  29.595  1.00  0.00     0.029 A 
ATOM     32  N   UNL A   1      43.187  29.536  28.849  1.00  0.00    -0.354 N 
ATOM     33  N   UNL A   1      45.934  28.656  28.234  1.00  0.00    -0.248 NA
ATOM     34  C   UNL A   1      48.202  29.139  27.934  1.00  0.00     0.031 C 
ATOM     35  C   UNL A   1      42.901  31.621  29.560  1.00  0.00     0.029 A 
ATOM     36  C   UNL A   1      43.853  30.723  29.107  1.00  0.00     0.049 A 
ATOM     37  H   UNL A   1      43.609  28.711  28.518  1.00  0.00     0.167 HD
ATOM     38  C   UNL A   1      46.157  29.991  28.532  1.00  0.00     0.074 A 
ATOM     39  C   UNL A   1      47.575  30.229  28.357  1.00  0.00     0.031 C 
ATOM     40  C   UNL A   1      45.264  30.937  28.912  1.00  0.00     0.037 A 
BRANCH  27  41
ATOM     41  C   UNL A   1      39.406  29.012  29.178  1.00  0.00     0.057 A 
ATOM     42  C   UNL A   1      38.574  29.484  28.156  1.00  0.00     0.134 A 
ATOM     43  C   UNL A   1      38.831  28.816  30.441  1.00  0.00     0.134 A 
ATOM     44  F   UNL A   1      39.064  29.703  26.927  1.00  0.00    -0.206 F 
ATOM     45  C   UNL A   1      37.223  29.759  28.384  1.00  0.00     0.040 A 
ATOM     46  C   UNL A   1      37.478  29.068  30.676  1.00  0.00     0.040 A 
ATOM     47  F   UNL A   1      39.572  28.361  31.463  1.00  0.00    -0.206 F 
ATOM     48  C   UNL A   1      36.670  29.542  29.646  1.00  0.00     0.006 A 
ENDBRANCH  27  41
BRANCH  28  49
ATOM     49  C   UNL A   1      48.835  26.397  27.102  1.00  0.00     0.057 A 
ATOM     50  C   UNL A   1      49.717  25.879  28.055  1.00  0.00     0.134 A 
ATOM     51  C   UNL A   1      49.298  26.509  25.784  1.00  0.00     0.134 A 
ATOM     52  F   UNL A   1      49.333  25.760  29.335  1.00  0.00    -0.206 F 
ATOM     53  C   UNL A   1      51.014  25.493  27.714  1.00  0.00     0.040 A 
ATOM     54  C   UNL A   1      50.583  26.102  25.424  1.00  0.00     0.040 A 
ATOM     55  F   UNL A   1      48.495  26.987  24.822  1.00  0.00    -0.206 F 
ATOM     56  C   UNL A   1      51.446  25.597  26.393  1.00  0.00     0.006 A 
ENDBRANCH  28  49
BRANCH  40  57
ATOM     57  C   UNL A   1      45.807  32.309  29.162  1.00  0.00     0.057 A 
ATOM     58  C   UNL A   1      45.839  33.278  28.152  1.00  0.00     0.134 A 
ATOM     59  C   UNL A   1      46.281  32.672  30.428  1.00  0.00     0.134 A 
ATOM     60  F   UNL A   1      45.416  32.983  26.914  1.00  0.00    -0.206 F 
ATOM     61  C   UNL A   1      46.339  34.558  28.389  1.00  0.00     0.040 A 
ATOM     62  C   UNL A   1      46.763  33.956  30.684  1.00  0.00     0.040 A 
ATOM     63  F   UNL A   1      46.273  31.788  31.438  1.00  0.00    -0.206 F 
ATOM     64  C   UNL A   1      46.798  34.901  29.660  1.00  0.00     0.006 A 
ENDBRANCH  40  57
ENDBRANCH  14  15
ENDBRANCH   7   9
ENDBRANCH   4   5
ENDBRANCH   3   4
ENDBRANCH   2   3
ENDBRANCH   1   2
BRANCH   1  65
ATOM     65  C   UNL A   1      36.298  22.578  23.499  1.00  0.00     0.021 C 
BRANCH  65  66
ATOM     66  C   UNL A   1      34.936  23.258  23.639  1.00  0.00     0.116 C 
BRANCH  66  67
ATOM     67  N   UNL A   1      34.907  24.206  24.738  1.00  0.00    -0.356 N 
ATOM     68  C   UNL A   1      34.203  25.365  24.876  1.00  0.00     0.223 C 
ATOM     69  H   UNL A   1      35.485  23.977  25.501  1.00  0.00     0.163 HD
ATOM     70  O   UNL A   1      34.378  26.025  25.898  1.00  0.00    -0.275 OA
BRANCH  68  71
ATOM     71  C   UNL A   1      33.266  25.810  23.763  1.00  0.00     0.091 C 
ATOM     72  C   UNL A   1      33.298  27.345  23.750  1.00  0.00     0.014 C 
ATOM     73  C   UNL A   1      31.842  25.212  23.832  1.00  0.00     0.091 C 
ATOM     74  C   UNL A   1      32.430  27.918  22.641  1.00  0.00     0.001 C 
ATOM     75  C   UNL A   1      30.917  25.900  22.794  1.00  0.00     0.014 C 
ATOM     76  C   UNL A   1      30.997  27.428  22.772  1.00  0.00     0.001 C 
BRANCH  73  77
ATOM     77  C   UNL A   1      31.173  25.229  25.204  1.00  0.00     0.228 C 
ATOM     78  O   UNL A   1      30.509  26.211  25.560  1.00  0.00    -0.274 OA
ATOM     79  N   UNL A   1      31.177  24.174  26.066  1.00  0.00    -0.326 N 
ATOM     80  H   UNL A   1      30.515  24.293  26.784  1.00  0.00     0.169 HD
BRANCH  79  81
ATOM     81  C   UNL A   1      31.873  22.959  26.207  1.00  0.00     0.041 A 
ATOM     82  C   UNL A   1      32.815  22.907  27.247  1.00  0.00     0.026 A 
ATOM     83  C   UNL A   1      31.792  21.866  25.352  1.00  0.00     0.039 A 
ATOM     84  C   UNL A   1      33.677  21.816  27.404  1.00  0.00     0.003 A 
ATOM     85  C   UNL A   1      32.690  20.785  25.466  1.00  0.00     0.058 A 
ATOM     86  C   UNL A   1      33.628  20.764  26.501  1.00  0.00     0.013 A 
BRANCH  85  87
ATOM     87  C   UNL A   1      32.745  19.754  24.375  1.00  0.00     0.416 C 
ATOM     88  F   UNL A   1      32.152  18.571  24.694  1.00  0.00    -0.166 F 
ATOM     89  F   UNL A   1      32.160  20.167  23.216  1.00  0.00    -0.166 F 
ATOM     90  F   UNL A   1      34.036  19.451  24.064  1.00  0.00    -0.166 F 
ENDBRANCH  85  87
ENDBRANCH  79  81
ENDBRANCH  73  77
ENDBRANCH  68  71
ENDBRANCH  66  67
ENDBRANCH  65  66
ENDBRANCH   1  65
TORSDOF 16
ENDMDL
