MODEL 1
REMARK VINA RESULT:     -11.5      0.000      0.000
REMARK SMILES O=C(NCCCCCCNC(=O)c1sccc1S(=O)(=O)Nc1ccc(Cn2cncn2)cc1)c1ccc(-c2c3nc(c(-c4c(F)cccc4F)c4ccc([nH]4)c(-c4c(F)cccc4F)c4nc(c(-c5c(F)cccc5F)c5ccc2[nH]5)C=C4)C=C3)cc1
REMARK SMILES IDX 8 1 7 2 6 3 5 4 4 5 3 6 1 7 2 8 34 10 35 11 87 12 36 13
REMARK SMILES IDX 86 14 37 15 38 16 39 17 80 18 40 19 85 20 79 21 81 22 41 23
REMARK SMILES IDX 84 24 78 25 77 26 42 28 68 29 51 30 67 31 52 32 55 33 66 34
REMARK SMILES IDX 82 35 53 36 54 37 65 39 83 40 56 41 43 42 44 43 49 44 45 45
REMARK SMILES IDX 46 46 48 47 50 48 47 49 69 50 70 51 75 52 71 53 72 54 74 55
REMARK SMILES IDX 76 56 73 57 57 58 58 59 63 60 59 61 60 62 62 63 64 64 61 65
REMARK SMILES IDX 9 66 10 67 11 68 12 70 13 71 14 72 17 73 15 74 16 75 18 76
REMARK SMILES IDX 19 77 20 78 21 79 22 81 23 82 33 83 24 84 32 85 25 86 26 87
REMARK SMILES IDX 27 88 28 89 31 90 29 91 30 92
REMARK H PARENT 3 9 81 27 55 38 10 69 21 80
REMARK Flexibility Score: inf
ROOT
ATOM      1  C   UNL A   1      34.067  27.914  26.132  1.00  0.00     0.021 C 
ENDROOT
BRANCH   1   2
ATOM      2  C   UNL A   1      33.060  28.505  27.132  1.00  0.00     0.002 C 
BRANCH   2   3
ATOM      3  C   UNL A   1      33.069  30.033  27.250  1.00  0.00     0.002 C 
BRANCH   3   4
ATOM      4  C   UNL A   1      34.440  30.672  27.487  1.00  0.00     0.021 C 
BRANCH   4   5
ATOM      5  C   UNL A   1      34.396  32.112  27.998  1.00  0.00     0.116 C 
BRANCH   5   6
ATOM      6  N   UNL A   1      34.255  32.225  29.432  1.00  0.00    -0.352 N 
ATOM      7  O   UNL A   1      34.665  32.330  31.599  1.00  0.00    -0.269 OA
ATOM      8  C   UNL A   1      35.085  31.993  30.490  1.00  0.00     0.251 C 
ATOM      9  H   UNL A   1      33.364  32.539  29.706  1.00  0.00     0.163 HD
BRANCH   8  10
ATOM     10  C   UNL A   1      36.399  31.303  30.400  1.00  0.00     0.039 A 
ATOM     11  C   UNL A   1      37.643  31.924  30.274  1.00  0.00     0.014 A 
ATOM     12  C   UNL A   1      36.346  29.897  30.436  1.00  0.00     0.014 A 
ATOM     13  C   UNL A   1      38.794  31.162  30.101  1.00  0.00     0.010 A 
ATOM     14  C   UNL A   1      37.493  29.132  30.280  1.00  0.00     0.010 A 
ATOM     15  C   UNL A   1      38.712  29.768  30.084  1.00  0.00    -0.014 A 
BRANCH  15  16
ATOM     16  C   UNL A   1      39.957  29.009  30.051  1.00  0.00     0.031 A 
ATOM     17  C   UNL A   1      40.593  28.826  31.387  1.00  0.00     0.074 A 
ATOM     18  C   UNL A   1      40.421  28.384  28.951  1.00  0.00     0.049 A 
ATOM     19  N   UNL A   1      41.751  29.241  31.784  1.00  0.00    -0.248 NA
ATOM     20  C   UNL A   1      39.787  28.202  32.451  1.00  0.00     0.031 C 
ATOM     21  C   UNL A   1      39.755  28.218  27.658  1.00  0.00     0.029 A 
ATOM     22  N   UNL A   1      41.569  27.666  28.796  1.00  0.00    -0.354 N 
ATOM     23  C   UNL A   1      41.901  28.774  33.090  1.00  0.00     0.074 A 
ATOM     24  C   UNL A   1      40.613  28.274  33.494  1.00  0.00     0.031 C 
ATOM     25  C   UNL A   1      40.402  27.269  26.942  1.00  0.00     0.029 A 
ATOM     26  C   UNL A   1      41.594  26.858  27.666  1.00  0.00     0.049 A 
ATOM     27  H   UNL A   1      42.319  27.715  29.433  1.00  0.00     0.167 HD
ATOM     28  C   UNL A   1      43.128  28.636  33.665  1.00  0.00     0.037 A 
ATOM     29  C   UNL A   1      42.495  25.883  27.385  1.00  0.00     0.037 A 
ATOM     30  C   UNL A   1      44.128  29.385  32.952  1.00  0.00     0.049 A 
ATOM     31  C   UNL A   1      43.690  26.114  28.232  1.00  0.00     0.074 A 
ATOM     32  C   UNL A   1      44.331  30.719  32.665  1.00  0.00     0.029 A 
ATOM     33  N   UNL A   1      44.960  28.691  32.111  1.00  0.00    -0.354 N 
ATOM     34  N   UNL A   1      44.513  27.111  28.077  1.00  0.00    -0.248 NA
ATOM     35  C   UNL A   1      43.728  25.471  29.538  1.00  0.00     0.031 C 
ATOM     36  C   UNL A   1      44.889  30.731  31.353  1.00  0.00     0.029 A 
ATOM     37  C   UNL A   1      45.045  29.406  30.947  1.00  0.00     0.049 A 
ATOM     38  H   UNL A   1      45.412  27.839  32.308  1.00  0.00     0.167 HD
ATOM     39  C   UNL A   1      44.837  27.502  29.365  1.00  0.00     0.074 A 
ATOM     40  C   UNL A   1      44.402  26.400  30.220  1.00  0.00     0.031 C 
ATOM     41  C   UNL A   1      45.165  28.798  29.645  1.00  0.00     0.037 A 
BRANCH  28  42
ATOM     42  C   UNL A   1      43.501  27.538  34.629  1.00  0.00     0.057 A 
ATOM     43  C   UNL A   1      43.487  26.200  34.186  1.00  0.00     0.134 A 
ATOM     44  C   UNL A   1      43.560  27.704  36.028  1.00  0.00     0.134 A 
ATOM     45  F   UNL A   1      43.421  25.909  32.878  1.00  0.00    -0.206 F 
ATOM     46  C   UNL A   1      43.444  25.117  35.072  1.00  0.00     0.040 A 
ATOM     47  C   UNL A   1      43.570  26.627  36.918  1.00  0.00     0.040 A 
ATOM     48  F   UNL A   1      43.502  28.907  36.609  1.00  0.00    -0.206 F 
ATOM     49  C   UNL A   1      43.475  25.329  36.444  1.00  0.00     0.006 A 
ENDBRANCH  28  42
BRANCH  29  50
ATOM     50  C   UNL A   1      42.293  24.601  26.668  1.00  0.00     0.057 A 
ATOM     51  C   UNL A   1      43.049  24.278  25.529  1.00  0.00     0.134 A 
ATOM     52  C   UNL A   1      41.568  23.545  27.244  1.00  0.00     0.134 A 
ATOM     53  F   UNL A   1      43.810  25.206  24.930  1.00  0.00    -0.206 F 
ATOM     54  C   UNL A   1      43.100  22.977  25.011  1.00  0.00     0.040 A 
ATOM     55  C   UNL A   1      41.605  22.243  26.733  1.00  0.00     0.040 A 
ATOM     56  F   UNL A   1      40.872  23.720  28.377  1.00  0.00    -0.206 F 
ATOM     57  C   UNL A   1      42.386  21.951  25.622  1.00  0.00     0.006 A 
ENDBRANCH  29  50
BRANCH  41  58
ATOM     58  C   UNL A   1      45.432  29.721  28.490  1.00  0.00     0.057 A 
ATOM     59  C   UNL A   1      44.442  30.467  27.830  1.00  0.00     0.134 A 
ATOM     60  C   UNL A   1      46.760  29.977  28.134  1.00  0.00     0.134 A 
ATOM     61  F   UNL A   1      43.151  30.366  28.170  1.00  0.00    -0.206 F 
ATOM     62  C   UNL A   1      44.762  31.392  26.832  1.00  0.00     0.040 A 
ATOM     63  C   UNL A   1      47.095  30.924  27.165  1.00  0.00     0.040 A 
ATOM     64  F   UNL A   1      47.762  29.341  28.763  1.00  0.00    -0.206 F 
ATOM     65  C   UNL A   1      46.093  31.628  26.503  1.00  0.00     0.006 A 
ENDBRANCH  41  58
ENDBRANCH  15  16
ENDBRANCH   8  10
ENDBRANCH   5   6
ENDBRANCH   4   5
ENDBRANCH   3   4
ENDBRANCH   2   3
ENDBRANCH   1   2
BRANCH   1  66
ATOM     66  C   UNL A   1      33.940  26.409  25.945  1.00  0.00     0.116 C 
BRANCH  66  67
ATOM     67  N   UNL A   1      33.934  26.083  24.539  1.00  0.00    -0.351 N 
ATOM     68  C   UNL A   1      34.208  24.902  23.913  1.00  0.00     0.262 C 
ATOM     69  H   UNL A   1      33.697  26.827  23.940  1.00  0.00     0.163 HD
ATOM     70  O   UNL A   1      34.383  24.961  22.693  1.00  0.00    -0.268 OA
BRANCH  68  71
ATOM     71  C   UNL A   1      34.361  23.692  24.683  1.00  0.00     0.112 A 
ATOM     72  S   UNL A   1      35.967  23.448  25.290  1.00  0.00    -0.137 S 
ATOM     73  C   UNL A   1      33.533  22.636  25.032  1.00  0.00     0.111 A 
ATOM     74  C   UNL A   1      35.530  22.035  26.124  1.00  0.00     0.067 A 
ATOM     75  C   UNL A   1      34.213  21.717  25.915  1.00  0.00     0.035 A 
BRANCH  73  76
ATOM     76  S   UNL A   1      31.883  22.276  24.617  1.00  0.00     0.263 S 
ATOM     77  O   UNL A   1      31.939  22.162  23.173  1.00  0.00    -0.201 OA
ATOM     78  O   UNL A   1      31.614  21.109  25.432  1.00  0.00    -0.201 OA
BRANCH  76  79
ATOM     79  N   UNL A   1      30.654  23.330  24.971  1.00  0.00    -0.280 N 
ATOM     80  H   UNL A   1      29.962  23.013  25.595  1.00  0.00     0.180 HD
BRANCH  79  81
ATOM     81  C   UNL A   1      30.503  24.633  24.463  1.00  0.00     0.049 A 
ATOM     82  C   UNL A   1      30.278  25.634  25.410  1.00  0.00     0.027 A 
ATOM     83  C   UNL A   1      30.654  24.964  23.124  1.00  0.00     0.027 A 
ATOM     84  C   UNL A   1      30.455  26.969  25.069  1.00  0.00     0.008 A 
ATOM     85  C   UNL A   1      30.801  26.309  22.771  1.00  0.00     0.008 A 
ATOM     86  C   UNL A   1      30.792  27.313  23.755  1.00  0.00    -0.026 A 
BRANCH  86  87
ATOM     87  C   UNL A   1      31.278  28.705  23.428  1.00  0.00     0.181 C 
BRANCH  87  88
ATOM     88  N   UNL A   1      30.218  29.556  22.934  1.00  0.00    -0.249 N 
ATOM     89  C   UNL A   1      29.482  30.462  23.636  1.00  0.00     0.220 A 
ATOM     90  N   UNL A   1      29.896  29.583  21.627  1.00  0.00    -0.160 NA
ATOM     91  N   UNL A   1      28.642  31.065  22.828  1.00  0.00    -0.224 NA
ATOM     92  C   UNL A   1      28.927  30.501  21.617  1.00  0.00     0.246 A 
ENDBRANCH  87  88
ENDBRANCH  86  87
ENDBRANCH  79  81
ENDBRANCH  76  79
ENDBRANCH  73  76
ENDBRANCH  68  71
ENDBRANCH  66  67
ENDBRANCH   1  66
TORSDOF 18
ENDMDL
MODEL 2
REMARK VINA RESULT:     -11.3      3.075      8.421
REMARK SMILES O=C(NCCCCCCNC(=O)c1sccc1S(=O)(=O)Nc1ccc(Cn2cncn2)cc1)c1ccc(-c2c3nc(c(-c4c(F)cccc4F)c4ccc([nH]4)c(-c4c(F)cccc4F)c4nc(c(-c5c(F)cccc5F)c5ccc2[nH]5)C=C4)C=C3)cc1
REMARK SMILES IDX 8 1 7 2 6 3 5 4 4 5 3 6 1 7 2 8 34 10 35 11 87 12 36 13
REMARK SMILES IDX 86 14 37 15 38 16 39 17 80 18 40 19 85 20 79 21 81 22 41 23
REMARK SMILES IDX 84 24 78 25 77 26 42 28 68 29 51 30 67 31 52 32 55 33 66 34
REMARK SMILES IDX 82 35 53 36 54 37 65 39 83 40 56 41 43 42 44 43 49 44 45 45
REMARK SMILES IDX 46 46 48 47 50 48 47 49 69 50 70 51 75 52 71 53 72 54 74 55
REMARK SMILES IDX 76 56 73 57 57 58 58 59 63 60 59 61 60 62 62 63 64 64 61 65
REMARK SMILES IDX 9 66 10 67 11 68 12 70 13 71 14 72 17 73 15 74 16 75 18 76
REMARK SMILES IDX 19 77 20 78 21 79 22 81 23 82 33 83 24 84 32 85 25 86 26 87
REMARK SMILES IDX 27 88 28 89 31 90 29 91 30 92
REMARK H PARENT 3 9 81 27 55 38 10 69 21 80
REMARK Flexibility Score: inf
ROOT
ATOM      1  C   UNL A   1      36.496  23.716  24.905  1.00  0.00     0.021 C 
ENDROOT
BRANCH   1   2
ATOM      2  C   UNL A   1      36.784  22.282  24.430  1.00  0.00     0.002 C 
BRANCH   2   3
ATOM      3  C   UNL A   1      37.780  21.493  25.285  1.00  0.00     0.002 C 
BRANCH   3   4
ATOM      4  C   UNL A   1      38.773  22.333  26.093  1.00  0.00     0.021 C 
BRANCH   4   5
ATOM      5  C   UNL A   1      40.045  21.597  26.512  1.00  0.00     0.116 C 
BRANCH   5   6
ATOM      6  N   UNL A   1      41.196  21.896  25.693  1.00  0.00    -0.352 N 
ATOM      7  O   UNL A   1      43.036  22.802  24.874  1.00  0.00    -0.269 OA
ATOM      8  C   UNL A   1      42.067  22.944  25.623  1.00  0.00     0.251 C 
ATOM      9  H   UNL A   1      41.398  21.186  25.042  1.00  0.00     0.163 HD
BRANCH   8  10
ATOM     10  C   UNL A   1      41.881  24.246  26.315  1.00  0.00     0.039 A 
ATOM     11  C   UNL A   1      41.150  25.334  25.834  1.00  0.00     0.014 A 
ATOM     12  C   UNL A   1      42.524  24.364  27.562  1.00  0.00     0.014 A 
ATOM     13  C   UNL A   1      41.132  26.535  26.534  1.00  0.00     0.010 A 
ATOM     14  C   UNL A   1      42.496  25.555  28.274  1.00  0.00     0.010 A 
ATOM     15  C   UNL A   1      41.822  26.648  27.742  1.00  0.00    -0.014 A 
BRANCH  15  16
ATOM     16  C   UNL A   1      41.655  27.873  28.516  1.00  0.00     0.031 A 
ATOM     17  C   UNL A   1      42.732  28.881  28.297  1.00  0.00     0.074 A 
ATOM     18  C   UNL A   1      40.555  28.154  29.242  1.00  0.00     0.049 A 
ATOM     19  N   UNL A   1      43.568  29.358  29.161  1.00  0.00    -0.248 NA
ATOM     20  C   UNL A   1      42.984  29.326  26.916  1.00  0.00     0.031 C 
ATOM     21  C   UNL A   1      39.299  27.406  29.303  1.00  0.00     0.029 A 
ATOM     22  N   UNL A   1      40.296  29.248  30.012  1.00  0.00    -0.354 N 
ATOM     23  C   UNL A   1      44.334  30.301  28.475  1.00  0.00     0.074 A 
ATOM     24  C   UNL A   1      44.033  30.133  27.079  1.00  0.00     0.031 C 
ATOM     25  C   UNL A   1      38.348  28.178  29.879  1.00  0.00     0.029 A 
ATOM     26  C   UNL A   1      38.956  29.414  30.341  1.00  0.00     0.049 A 
ATOM     27  H   UNL A   1      40.999  29.869  30.310  1.00  0.00     0.167 HD
ATOM     28  C   UNL A   1      44.997  31.296  29.129  1.00  0.00     0.037 A 
ATOM     29  C   UNL A   1      38.387  30.515  30.894  1.00  0.00     0.037 A 
ATOM     30  C   UNL A   1      45.136  31.001  30.529  1.00  0.00     0.049 A 
ATOM     31  C   UNL A   1      39.470  31.326  31.502  1.00  0.00     0.074 A 
ATOM     32  C   UNL A   1      45.752  30.008  31.264  1.00  0.00     0.029 A 
ATOM     33  N   UNL A   1      44.285  31.635  31.398  1.00  0.00    -0.354 N 
ATOM     34  N   UNL A   1      40.140  30.972  32.561  1.00  0.00    -0.248 NA
ATOM     35  C   UNL A   1      40.104  32.340  30.671  1.00  0.00     0.031 C 
ATOM     36  C   UNL A   1      44.887  29.784  32.375  1.00  0.00     0.029 A 
ATOM     37  C   UNL A   1      43.832  30.691  32.280  1.00  0.00     0.049 A 
ATOM     38  H   UNL A   1      44.046  32.590  31.390  1.00  0.00     0.167 HD
ATOM     39  C   UNL A   1      41.442  31.366  32.299  1.00  0.00     0.074 A 
ATOM     40  C   UNL A   1      41.342  32.285  31.167  1.00  0.00     0.031 C 
ATOM     41  C   UNL A   1      42.501  30.693  32.836  1.00  0.00     0.037 A 
BRANCH  28  42
ATOM     42  C   UNL A   1      45.183  32.693  28.592  1.00  0.00     0.057 A 
ATOM     43  C   UNL A   1      44.049  33.494  28.353  1.00  0.00     0.134 A 
ATOM     44  C   UNL A   1      46.379  33.161  28.011  1.00  0.00     0.134 A 
ATOM     45  F   UNL A   1      42.848  33.152  28.843  1.00  0.00    -0.206 F 
ATOM     46  C   UNL A   1      44.088  34.622  27.525  1.00  0.00     0.040 A 
ATOM     47  C   UNL A   1      46.438  34.315  27.225  1.00  0.00     0.040 A 
ATOM     48  F   UNL A   1      47.526  32.475  28.081  1.00  0.00    -0.206 F 
ATOM     49  C   UNL A   1      45.285  35.031  26.949  1.00  0.00     0.006 A 
ENDBRANCH  28  42
BRANCH  29  50
ATOM     50  C   UNL A   1      37.030  31.073  30.683  1.00  0.00     0.057 A 
ATOM     51  C   UNL A   1      36.188  31.370  31.766  1.00  0.00     0.134 A 
ATOM     52  C   UNL A   1      36.639  31.597  29.439  1.00  0.00     0.134 A 
ATOM     53  F   UNL A   1      36.497  30.952  33.003  1.00  0.00    -0.206 F 
ATOM     54  C   UNL A   1      35.041  32.163  31.626  1.00  0.00     0.040 A 
ATOM     55  C   UNL A   1      35.492  32.385  29.284  1.00  0.00     0.040 A 
ATOM     56  F   UNL A   1      37.405  31.441  28.350  1.00  0.00    -0.206 F 
ATOM     57  C   UNL A   1      34.697  32.684  30.382  1.00  0.00     0.006 A 
ENDBRANCH  29  50
BRANCH  41  58
ATOM     58  C   UNL A   1      42.223  29.697  33.926  1.00  0.00     0.057 A 
ATOM     59  C   UNL A   1      41.891  28.352  33.700  1.00  0.00     0.134 A 
ATOM     60  C   UNL A   1      42.448  30.080  35.252  1.00  0.00     0.134 A 
ATOM     61  F   UNL A   1      41.754  27.867  32.460  1.00  0.00    -0.206 F 
ATOM     62  C   UNL A   1      41.748  27.444  34.754  1.00  0.00     0.040 A 
ATOM     63  C   UNL A   1      42.344  29.174  36.309  1.00  0.00     0.040 A 
ATOM     64  F   UNL A   1      42.824  31.337  35.538  1.00  0.00    -0.206 F 
ATOM     65  C   UNL A   1      41.983  27.853  36.062  1.00  0.00     0.006 A 
ENDBRANCH  41  58
ENDBRANCH  15  16
ENDBRANCH   8  10
ENDBRANCH   5   6
ENDBRANCH   4   5
ENDBRANCH   3   4
ENDBRANCH   2   3
ENDBRANCH   1   2
BRANCH   1  66
ATOM     66  C   UNL A   1      35.024  23.993  25.174  1.00  0.00     0.116 C 
BRANCH  66  67
ATOM     67  N   UNL A   1      34.263  23.853  23.955  1.00  0.00    -0.351 N 
ATOM     68  C   UNL A   1      32.992  24.255  23.666  1.00  0.00     0.262 C 
ATOM     69  H   UNL A   1      34.734  23.398  23.220  1.00  0.00     0.163 HD
ATOM     70  O   UNL A   1      32.493  23.784  22.641  1.00  0.00    -0.268 OA
BRANCH  68  71
ATOM     71  C   UNL A   1      32.278  25.114  24.579  1.00  0.00     0.112 A 
ATOM     72  S   UNL A   1      32.395  26.800  24.191  1.00  0.00    -0.137 S 
ATOM     73  C   UNL A   1      31.539  24.922  25.737  1.00  0.00     0.111 A 
ATOM     74  C   UNL A   1      31.360  27.252  25.457  1.00  0.00     0.067 A 
ATOM     75  C   UNL A   1      30.968  26.166  26.197  1.00  0.00     0.035 A 
BRANCH  73  76
ATOM     76  S   UNL A   1      31.189  23.490  26.659  1.00  0.00     0.263 S 
ATOM     77  O   UNL A   1      32.313  23.422  27.573  1.00  0.00    -0.201 OA
ATOM     78  O   UNL A   1      29.858  23.770  27.159  1.00  0.00    -0.201 OA
BRANCH  76  79
ATOM     79  N   UNL A   1      31.064  22.005  25.935  1.00  0.00    -0.280 N 
ATOM     80  H   UNL A   1      30.171  21.593  25.916  1.00  0.00     0.180 HD
BRANCH  79  81
ATOM     81  C   UNL A   1      32.112  21.276  25.345  1.00  0.00     0.049 A 
ATOM     82  C   UNL A   1      33.237  21.067  26.145  1.00  0.00     0.027 A 
ATOM     83  C   UNL A   1      32.039  20.700  24.084  1.00  0.00     0.027 A 
ATOM     84  C   UNL A   1      34.165  20.092  25.803  1.00  0.00     0.008 A 
ATOM     85  C   UNL A   1      32.990  19.741  23.722  1.00  0.00     0.008 A 
ATOM     86  C   UNL A   1      34.008  19.367  24.617  1.00  0.00    -0.026 A 
BRANCH  86  87
ATOM     87  C   UNL A   1      34.818  18.116  24.370  1.00  0.00     0.181 C 
BRANCH  87  88
ATOM     88  N   UNL A   1      34.137  16.922  24.818  1.00  0.00    -0.249 N 
ATOM     89  C   UNL A   1      34.683  15.703  25.086  1.00  0.00     0.220 A 
ATOM     90  N   UNL A   1      32.821  16.933  25.103  1.00  0.00    -0.160 NA
ATOM     91  N   UNL A   1      33.746  14.885  25.505  1.00  0.00    -0.224 NA
ATOM     92  C   UNL A   1      32.630  15.674  25.501  1.00  0.00     0.246 A 
ENDBRANCH  87  88
ENDBRANCH  86  87
ENDBRANCH  79  81
ENDBRANCH  76  79
ENDBRANCH  73  76
ENDBRANCH  68  71
ENDBRANCH  66  67
ENDBRANCH   1  66
TORSDOF 18
ENDMDL
MODEL 3
REMARK VINA RESULT:     -11.3      2.071      4.378
REMARK SMILES O=C(NCCCCCCNC(=O)c1sccc1S(=O)(=O)Nc1ccc(Cn2cncn2)cc1)c1ccc(-c2c3nc(c(-c4c(F)cccc4F)c4ccc([nH]4)c(-c4c(F)cccc4F)c4nc(c(-c5c(F)cccc5F)c5ccc2[nH]5)C=C4)C=C3)cc1
REMARK SMILES IDX 8 1 7 2 6 3 5 4 4 5 3 6 1 7 2 8 34 10 35 11 87 12 36 13
REMARK SMILES IDX 86 14 37 15 38 16 39 17 80 18 40 19 85 20 79 21 81 22 41 23
REMARK SMILES IDX 84 24 78 25 77 26 42 28 68 29 51 30 67 31 52 32 55 33 66 34
REMARK SMILES IDX 82 35 53 36 54 37 65 39 83 40 56 41 43 42 44 43 49 44 45 45
REMARK SMILES IDX 46 46 48 47 50 48 47 49 69 50 70 51 75 52 71 53 72 54 74 55
REMARK SMILES IDX 76 56 73 57 57 58 58 59 63 60 59 61 60 62 62 63 64 64 61 65
REMARK SMILES IDX 9 66 10 67 11 68 12 70 13 71 14 72 17 73 15 74 16 75 18 76
REMARK SMILES IDX 19 77 20 78 21 79 22 81 23 82 33 83 24 84 32 85 25 86 26 87
REMARK SMILES IDX 27 88 28 89 31 90 29 91 30 92
REMARK H PARENT 3 9 81 27 55 38 10 69 21 80
REMARK Flexibility Score: inf
ROOT
ATOM      1  C   UNL A   1      34.073  29.426  27.362  1.00  0.00     0.021 C 
ENDROOT
BRANCH   1   2
ATOM      2  C   UNL A   1      35.519  29.874  27.627  1.00  0.00     0.002 C 
BRANCH   2   3
ATOM      3  C   UNL A   1      35.712  31.379  27.841  1.00  0.00     0.002 C 
BRANCH   3   4
ATOM      4  C   UNL A   1      34.440  32.175  28.149  1.00  0.00     0.021 C 
BRANCH   4   5
ATOM      5  C   UNL A   1      34.621  33.307  29.158  1.00  0.00     0.116 C 
BRANCH   5   6
ATOM      6  N   UNL A   1      34.367  32.923  30.528  1.00  0.00    -0.352 N 
ATOM      7  O   UNL A   1      34.604  32.250  32.618  1.00  0.00    -0.269 OA
ATOM      8  C   UNL A   1      35.104  32.299  31.492  1.00  0.00     0.251 C 
ATOM      9  H   UNL A   1      33.464  33.165  30.833  1.00  0.00     0.163 HD
BRANCH   8  10
ATOM     10  C   UNL A   1      36.406  31.621  31.256  1.00  0.00     0.039 A 
ATOM     11  C   UNL A   1      37.629  32.253  31.026  1.00  0.00     0.014 A 
ATOM     12  C   UNL A   1      36.363  30.214  31.259  1.00  0.00     0.014 A 
ATOM     13  C   UNL A   1      38.761  31.504  30.721  1.00  0.00     0.010 A 
ATOM     14  C   UNL A   1      37.492  29.461  30.972  1.00  0.00     0.010 A 
ATOM     15  C   UNL A   1      38.684  30.111  30.675  1.00  0.00    -0.014 A 
BRANCH  15  16
ATOM     16  C   UNL A   1      39.922  29.361  30.500  1.00  0.00     0.031 A 
ATOM     17  C   UNL A   1      40.707  29.181  31.756  1.00  0.00     0.074 A 
ATOM     18  C   UNL A   1      40.265  28.740  29.354  1.00  0.00     0.049 A 
ATOM     19  N   UNL A   1      41.899  29.605  32.021  1.00  0.00    -0.248 NA
ATOM     20  C   UNL A   1      40.031  28.551  32.903  1.00  0.00     0.031 C 
ATOM     21  C   UNL A   1      39.458  28.569  28.145  1.00  0.00     0.029 A 
ATOM     22  N   UNL A   1      41.393  28.031  29.070  1.00  0.00    -0.354 N 
ATOM     23  C   UNL A   1      42.199  29.139  33.301  1.00  0.00     0.074 A 
ATOM     24  C   UNL A   1      40.969  28.629  33.846  1.00  0.00     0.031 C 
ATOM     25  C   UNL A   1      40.027  27.626  27.359  1.00  0.00     0.029 A 
ATOM     26  C   UNL A   1      41.296  27.224  27.943  1.00  0.00     0.049 A 
ATOM     27  H   UNL A   1      42.210  28.085  29.618  1.00  0.00     0.167 HD
ATOM     28  C   UNL A   1      43.484  29.011  33.733  1.00  0.00     0.037 A 
ATOM     29  C   UNL A   1      42.167  26.256  27.561  1.00  0.00     0.037 A 
ATOM     30  C   UNL A   1      44.391  29.767  32.913  1.00  0.00     0.049 A 
ATOM     31  C   UNL A   1      43.449  26.496  28.268  1.00  0.00     0.074 A 
ATOM     32  C   UNL A   1      44.550  31.104  32.606  1.00  0.00     0.029 A 
ATOM     33  N   UNL A   1      45.129  29.080  31.982  1.00  0.00    -0.354 N 
ATOM     34  N   UNL A   1      44.241  27.499  28.022  1.00  0.00    -0.248 NA
ATOM     35  C   UNL A   1      43.638  25.852  29.560  1.00  0.00     0.031 C 
ATOM     36  C   UNL A   1      44.957  31.120  31.240  1.00  0.00     0.029 A 
ATOM     37  C   UNL A   1      45.076  29.796  30.817  1.00  0.00     0.049 A 
ATOM     38  H   UNL A   1      45.606  28.231  32.126  1.00  0.00     0.167 HD
ATOM     39  C   UNL A   1      44.706  27.892  29.266  1.00  0.00     0.074 A 
ATOM     40  C   UNL A   1      44.378  26.786  30.163  1.00  0.00     0.031 C 
ATOM     41  C   UNL A   1      45.053  29.190  29.509  1.00  0.00     0.037 A 
BRANCH  28  42
ATOM     42  C   UNL A   1      43.972  27.914  34.648  1.00  0.00     0.057 A 
ATOM     43  C   UNL A   1      44.665  28.260  35.824  1.00  0.00     0.134 A 
ATOM     44  C   UNL A   1      44.070  26.560  34.271  1.00  0.00     0.134 A 
ATOM     45  F   UNL A   1      44.659  29.520  36.283  1.00  0.00    -0.206 F 
ATOM     46  C   UNL A   1      45.466  27.346  36.519  1.00  0.00     0.040 A 
ATOM     47  C   UNL A   1      44.826  25.628  34.988  1.00  0.00     0.040 A 
ATOM     48  F   UNL A   1      43.534  26.090  33.139  1.00  0.00    -0.206 F 
ATOM     49  C   UNL A   1      45.557  26.026  36.095  1.00  0.00     0.006 A 
ENDBRANCH  28  42
BRANCH  29  50
ATOM     50  C   UNL A   1      41.896  24.973  26.869  1.00  0.00     0.057 A 
ATOM     51  C   UNL A   1      42.746  24.497  25.858  1.00  0.00     0.134 A 
ATOM     52  C   UNL A   1      40.967  24.049  27.377  1.00  0.00     0.134 A 
ATOM     53  F   UNL A   1      43.695  25.289  25.337  1.00  0.00    -0.206 F 
ATOM     54  C   UNL A   1      42.694  23.174  25.400  1.00  0.00     0.040 A 
ATOM     55  C   UNL A   1      40.901  22.726  26.924  1.00  0.00     0.040 A 
ATOM     56  F   UNL A   1      40.157  24.369  28.396  1.00  0.00    -0.206 F 
ATOM     57  C   UNL A   1      41.776  22.280  25.942  1.00  0.00     0.006 A 
ENDBRANCH  29  50
BRANCH  41  58
ATOM     58  C   UNL A   1      45.181  30.116  28.333  1.00  0.00     0.057 A 
ATOM     59  C   UNL A   1      44.120  30.863  27.797  1.00  0.00     0.134 A 
ATOM     60  C   UNL A   1      46.457  30.373  27.822  1.00  0.00     0.134 A 
ATOM     61  F   UNL A   1      42.878  30.761  28.287  1.00  0.00    -0.206 F 
ATOM     62  C   UNL A   1      44.319  31.790  26.770  1.00  0.00     0.040 A 
ATOM     63  C   UNL A   1      46.674  31.322  26.822  1.00  0.00     0.040 A 
ATOM     64  F   UNL A   1      47.527  29.736  28.326  1.00  0.00    -0.206 F 
ATOM     65  C   UNL A   1      45.601  32.027  26.285  1.00  0.00     0.006 A 
ENDBRANCH  41  58
ENDBRANCH  15  16
ENDBRANCH   8  10
ENDBRANCH   5   6
ENDBRANCH   4   5
ENDBRANCH   3   4
ENDBRANCH   2   3
ENDBRANCH   1   2
BRANCH   1  66
ATOM     66  C   UNL A   1      33.949  28.337  26.305  1.00  0.00     0.116 C 
BRANCH  66  67
ATOM     67  N   UNL A   1      32.853  27.455  26.630  1.00  0.00    -0.351 N 
ATOM     68  C   UNL A   1      31.761  27.106  25.890  1.00  0.00     0.262 C 
ATOM     69  H   UNL A   1      32.902  27.041  27.522  1.00  0.00     0.163 HD
ATOM     70  O   UNL A   1      30.850  26.541  26.499  1.00  0.00    -0.268 OA
BRANCH  68  71
ATOM     71  C   UNL A   1      31.682  27.474  24.497  1.00  0.00     0.112 A 
ATOM     72  S   UNL A   1      30.609  28.800  24.184  1.00  0.00    -0.137 S 
ATOM     73  C   UNL A   1      32.234  26.994  23.319  1.00  0.00     0.111 A 
ATOM     74  C   UNL A   1      30.986  28.827  22.529  1.00  0.00     0.067 A 
ATOM     75  C   UNL A   1      31.865  27.827  22.198  1.00  0.00     0.035 A 
BRANCH  73  76
ATOM     76  S   UNL A   1      33.268  25.632  22.999  1.00  0.00     0.263 S 
ATOM     77  O   UNL A   1      33.819  25.955  21.698  1.00  0.00    -0.201 OA
ATOM     78  O   UNL A   1      34.121  25.619  24.170  1.00  0.00    -0.201 OA
BRANCH  76  79
ATOM     79  N   UNL A   1      32.663  24.093  22.900  1.00  0.00    -0.280 N 
ATOM     80  H   UNL A   1      32.063  23.898  22.145  1.00  0.00     0.180 HD
BRANCH  79  81
ATOM     81  C   UNL A   1      32.925  23.037  23.791  1.00  0.00     0.049 A 
ATOM     82  C   UNL A   1      31.840  22.597  24.551  1.00  0.00     0.027 A 
ATOM     83  C   UNL A   1      34.145  22.381  23.876  1.00  0.00     0.027 A 
ATOM     84  C   UNL A   1      31.892  21.367  25.194  1.00  0.00     0.008 A 
ATOM     85  C   UNL A   1      34.210  21.157  24.548  1.00  0.00     0.008 A 
ATOM     86  C   UNL A   1      33.061  20.599  25.136  1.00  0.00    -0.026 A 
BRANCH  86  87
ATOM     87  C   UNL A   1      33.049  19.150  25.562  1.00  0.00     0.181 C 
BRANCH  87  88
ATOM     88  N   UNL A   1      33.253  18.248  24.450  1.00  0.00    -0.249 N 
ATOM     89  C   UNL A   1      32.553  18.193  23.284  1.00  0.00     0.220 A 
ATOM     90  N   UNL A   1      34.276  17.373  24.439  1.00  0.00    -0.160 NA
ATOM     91  N   UNL A   1      33.063  17.265  22.509  1.00  0.00    -0.224 NA
ATOM     92  C   UNL A   1      34.108  16.792  23.249  1.00  0.00     0.246 A 
ENDBRANCH  87  88
ENDBRANCH  86  87
ENDBRANCH  79  81
ENDBRANCH  76  79
ENDBRANCH  73  76
ENDBRANCH  68  71
ENDBRANCH  66  67
ENDBRANCH   1  66
TORSDOF 18
ENDMDL
