MODEL 1
REMARK VINA RESULT:     -11.3      0.000      0.000
REMARK SMILES CC(C)[C@@](C)(CC(=O)N[C@H]1CCCC1(C)C)C(=O)NCCCCCCNC(=O)c1ccc(-c2c3nc(c(-c4c(F)cccc4F)c4ccc([nH]4)c(-c4c(F)cccc4F)c4nc(c(-c5c(F)cccc5F)c5ccc2[nH]5)C=C4)C=C3)cc1
REMARK SMILES IDX 22 1 21 2 20 3 19 4 17 5 18 6 4 8 5 9 2 10 1 11 3 12 6 13
REMARK SMILES IDX 7 14 8 15 9 16 10 18 11 19 14 20 12 21 13 22 15 23 16 24
REMARK SMILES IDX 23 25 24 26 25 27 26 28 27 29 28 31 29 32 30 33 82 34 31 35
REMARK SMILES IDX 81 36 32 37 33 38 34 39 75 40 35 41 80 42 74 43 76 44 36 45
REMARK SMILES IDX 79 46 73 47 72 48 37 50 63 51 46 52 62 53 47 54 50 55 61 56
REMARK SMILES IDX 77 57 48 58 49 59 60 61 78 62 51 63 38 64 39 65 44 66 40 67
REMARK SMILES IDX 41 68 43 69 45 70 42 71 64 72 65 73 70 74 66 75 67 76 69 77
REMARK SMILES IDX 71 78 68 79 52 80 53 81 58 82 54 83 55 84 57 85 59 86 56 87
REMARK H PARENT 19 7 9 17 26 30 76 49 50 60
REMARK Flexibility Score: inf
ROOT
ATOM      1  C   UNL A   1      37.095  21.872  24.421  1.00  0.00     0.002 C 
ENDROOT
BRANCH   1   2
ATOM      2  C   UNL A   1      37.416  22.991  25.434  1.00  0.00     0.021 C 
BRANCH   2   3
ATOM      3  C   UNL A   1      36.270  23.954  25.748  1.00  0.00     0.116 C 
BRANCH   3   4
ATOM      4  N   UNL A   1      35.466  24.155  24.574  1.00  0.00    -0.356 N 
ATOM      5  C   UNL A   1      34.343  23.578  24.114  1.00  0.00     0.226 C 
ATOM      6  O   UNL A   1      34.265  23.612  22.880  1.00  0.00    -0.274 OA
ATOM      7  H   UNL A   1      35.808  24.865  23.985  1.00  0.00     0.163 HD
BRANCH   5   8
ATOM      8  C   UNL A   1      33.151  23.170  25.013  1.00  0.00     0.057 C 
ATOM      9  C   UNL A   1      31.935  23.471  24.081  1.00  0.00     0.022 C 
BRANCH   8  10
ATOM     10  C   UNL A   1      33.332  21.641  25.307  1.00  0.00    -0.002 C 
ATOM     11  C   UNL A   1      33.696  21.257  26.743  1.00  0.00     0.008 C 
ATOM     12  C   UNL A   1      32.176  20.749  24.793  1.00  0.00     0.008 C 
ENDBRANCH   8  10
BRANCH   8  13
ATOM     13  C   UNL A   1      32.890  23.953  26.356  1.00  0.00     0.116 C 
BRANCH  13  14
ATOM     14  C   UNL A   1      31.464  24.381  26.705  1.00  0.00     0.221 C 
ATOM     15  O   UNL A   1      30.732  23.547  27.258  1.00  0.00    -0.275 OA
ATOM     16  N   UNL A   1      30.888  25.594  26.493  1.00  0.00    -0.353 N 
ATOM     17  H   UNL A   1      29.913  25.507  26.610  1.00  0.00     0.163 HD
BRANCH  16  18
ATOM     18  C   UNL A   1      31.206  27.006  26.149  1.00  0.00     0.087 C 
ATOM     19  C   UNL A   1      32.519  27.489  26.761  1.00  0.00     0.025 C 
ATOM     20  C   UNL A   1      31.284  27.454  24.661  1.00  0.00    -0.015 C 
ATOM     21  C   UNL A   1      33.531  27.499  25.616  1.00  0.00     0.003 C 
ATOM     22  C   UNL A   1      32.752  27.150  24.342  1.00  0.00     0.008 C 
ATOM     23  C   UNL A   1      30.236  26.814  23.740  1.00  0.00     0.013 C 
ATOM     24  C   UNL A   1      31.101  28.983  24.481  1.00  0.00     0.013 C 
ENDBRANCH  16  18
ENDBRANCH  13  14
ENDBRANCH   8  13
ENDBRANCH   5   8
ENDBRANCH   3   4
ENDBRANCH   2   3
ENDBRANCH   1   2
BRANCH   1  25
ATOM     25  C   UNL A   1      36.819  20.466  24.972  1.00  0.00     0.002 C 
BRANCH  25  26
ATOM     26  C   UNL A   1      38.007  19.513  24.981  1.00  0.00     0.021 C 
BRANCH  26  27
ATOM     27  C   UNL A   1      39.181  20.004  25.805  1.00  0.00     0.116 C 
BRANCH  27  28
ATOM     28  N   UNL A   1      40.256  19.029  25.853  1.00  0.00    -0.352 N 
ATOM     29  C   UNL A   1      41.587  19.248  26.071  1.00  0.00     0.251 C 
ATOM     30  H   UNL A   1      39.993  18.091  25.711  1.00  0.00     0.163 HD
ATOM     31  O   UNL A   1      42.412  18.351  25.885  1.00  0.00    -0.269 OA
BRANCH  29  32
ATOM     32  C   UNL A   1      42.031  20.583  26.509  1.00  0.00     0.039 A 
ATOM     33  C   UNL A   1      42.352  21.538  25.545  1.00  0.00     0.014 A 
ATOM     34  C   UNL A   1      42.104  20.893  27.872  1.00  0.00     0.014 A 
ATOM     35  C   UNL A   1      42.713  22.820  25.948  1.00  0.00     0.010 A 
ATOM     36  C   UNL A   1      42.380  22.196  28.270  1.00  0.00     0.010 A 
ATOM     37  C   UNL A   1      42.709  23.164  27.312  1.00  0.00    -0.014 A 
BRANCH  37  38
ATOM     38  C   UNL A   1      43.081  24.531  27.741  1.00  0.00     0.031 A 
ATOM     39  C   UNL A   1      44.525  24.947  27.755  1.00  0.00     0.074 A 
ATOM     40  C   UNL A   1      42.119  25.387  28.131  1.00  0.00     0.049 A 
ATOM     41  N   UNL A   1      45.047  26.104  28.070  1.00  0.00    -0.248 NA
ATOM     42  C   UNL A   1      45.518  23.921  27.390  1.00  0.00     0.031 C 
ATOM     43  C   UNL A   1      40.691  25.072  28.223  1.00  0.00     0.029 A 
ATOM     44  N   UNL A   1      42.194  26.700  28.517  1.00  0.00    -0.354 N 
ATOM     45  C   UNL A   1      46.421  25.946  27.937  1.00  0.00     0.074 A 
ATOM     46  C   UNL A   1      46.658  24.565  27.582  1.00  0.00     0.031 C 
ATOM     47  C   UNL A   1      40.022  26.171  28.609  1.00  0.00     0.029 A 
ATOM     48  C   UNL A   1      40.974  27.259  28.810  1.00  0.00     0.049 A 
ATOM     49  H   UNL A   1      43.043  27.195  28.580  1.00  0.00     0.167 HD
ATOM     50  C   UNL A   1      47.394  26.878  28.064  1.00  0.00     0.037 A 
ATOM     51  C   UNL A   1      40.662  28.511  29.190  1.00  0.00     0.037 A 
ATOM     52  C   UNL A   1      47.151  28.256  28.399  1.00  0.00     0.049 A 
ATOM     53  C   UNL A   1      41.760  29.532  29.301  1.00  0.00     0.074 A 
ATOM     54  C   UNL A   1      48.061  29.289  28.520  1.00  0.00     0.029 A 
ATOM     55  N   UNL A   1      45.898  28.791  28.662  1.00  0.00    -0.354 N 
ATOM     56  N   UNL A   1      43.048  29.385  29.107  1.00  0.00    -0.248 NA
ATOM     57  C   UNL A   1      41.358  30.897  29.668  1.00  0.00     0.031 C 
ATOM     58  C   UNL A   1      47.364  30.444  28.886  1.00  0.00     0.029 A 
ATOM     59  C   UNL A   1      46.014  30.139  28.954  1.00  0.00     0.049 A 
ATOM     60  H   UNL A   1      45.053  28.286  28.643  1.00  0.00     0.167 HD
ATOM     61  C   UNL A   1      43.609  30.639  29.310  1.00  0.00     0.074 A 
ATOM     62  C   UNL A   1      42.516  31.540  29.616  1.00  0.00     0.031 C 
ATOM     63  C   UNL A   1      44.910  31.013  29.257  1.00  0.00     0.037 A 
BRANCH  50  64
ATOM     64  C   UNL A   1      48.806  26.439  27.812  1.00  0.00     0.057 A 
ATOM     65  C   UNL A   1      49.628  25.982  28.852  1.00  0.00     0.134 A 
ATOM     66  C   UNL A   1      49.341  26.439  26.518  1.00  0.00     0.134 A 
ATOM     67  F   UNL A   1      49.180  25.972  30.117  1.00  0.00    -0.206 F 
ATOM     68  C   UNL A   1      50.937  25.559  28.617  1.00  0.00     0.040 A 
ATOM     69  C   UNL A   1      50.641  25.996  26.268  1.00  0.00     0.040 A 
ATOM     70  F   UNL A   1      48.609  26.863  25.478  1.00  0.00    -0.206 F 
ATOM     71  C   UNL A   1      51.444  25.557  27.319  1.00  0.00     0.006 A 
ENDBRANCH  50  64
BRANCH  51  72
ATOM     72  C   UNL A   1      39.250  28.878  29.460  1.00  0.00     0.057 A 
ATOM     73  C   UNL A   1      38.682  28.695  30.727  1.00  0.00     0.134 A 
ATOM     74  C   UNL A   1      38.431  29.406  28.456  1.00  0.00     0.134 A 
ATOM     75  F   UNL A   1      39.412  28.178  31.726  1.00  0.00    -0.206 F 
ATOM     76  C   UNL A   1      37.342  28.998  30.978  1.00  0.00     0.040 A 
ATOM     77  C   UNL A   1      37.097  29.739  28.700  1.00  0.00     0.040 A 
ATOM     78  F   UNL A   1      38.919  29.617  27.225  1.00  0.00    -0.206 F 
ATOM     79  C   UNL A   1      36.547  29.525  29.962  1.00  0.00     0.006 A 
ENDBRANCH  51  72
BRANCH  63  80
ATOM     80  C   UNL A   1      45.211  32.458  29.520  1.00  0.00     0.057 A 
ATOM     81  C   UNL A   1      45.512  32.924  30.806  1.00  0.00     0.134 A 
ATOM     82  C   UNL A   1      45.214  33.389  28.474  1.00  0.00     0.134 A 
ATOM     83  F   UNL A   1      45.513  32.083  31.852  1.00  0.00    -0.206 F 
ATOM     84  C   UNL A   1      45.778  34.273  31.047  1.00  0.00     0.040 A 
ATOM     85  C   UNL A   1      45.504  34.735  28.699  1.00  0.00     0.040 A 
ATOM     86  F   UNL A   1      44.943  33.005  27.219  1.00  0.00    -0.206 F 
ATOM     87  C   UNL A   1      45.778  35.182  29.991  1.00  0.00     0.006 A 
ENDBRANCH  63  80
ENDBRANCH  37  38
ENDBRANCH  29  32
ENDBRANCH  27  28
ENDBRANCH  26  27
ENDBRANCH  25  26
ENDBRANCH   1  25
TORSDOF 17
ENDMDL
MODEL 2
REMARK VINA RESULT:     -11.2      4.548      9.812
REMARK SMILES CC(C)[C@@](C)(CC(=O)N[C@H]1CCCC1(C)C)C(=O)NCCCCCCNC(=O)c1ccc(-c2c3nc(c(-c4c(F)cccc4F)c4ccc([nH]4)c(-c4c(F)cccc4F)c4nc(c(-c5c(F)cccc5F)c5ccc2[nH]5)C=C4)C=C3)cc1
REMARK SMILES IDX 22 1 21 2 20 3 19 4 17 5 18 6 4 8 5 9 2 10 1 11 3 12 6 13
REMARK SMILES IDX 7 14 8 15 9 16 10 18 11 19 14 20 12 21 13 22 15 23 16 24
REMARK SMILES IDX 23 25 24 26 25 27 26 28 27 29 28 31 29 32 30 33 82 34 31 35
REMARK SMILES IDX 81 36 32 37 33 38 34 39 75 40 35 41 80 42 74 43 76 44 36 45
REMARK SMILES IDX 79 46 73 47 72 48 37 50 63 51 46 52 62 53 47 54 50 55 61 56
REMARK SMILES IDX 77 57 48 58 49 59 60 61 78 62 51 63 38 64 39 65 44 66 40 67
REMARK SMILES IDX 41 68 43 69 45 70 42 71 64 72 65 73 70 74 66 75 67 76 69 77
REMARK SMILES IDX 71 78 68 79 52 80 53 81 58 82 54 83 55 84 57 85 59 86 56 87
REMARK H PARENT 19 7 9 17 26 30 76 49 50 60
REMARK Flexibility Score: inf
ROOT
ATOM      1  C   UNL A   1      32.268  29.924  27.043  1.00  0.00     0.002 C 
ENDROOT
BRANCH   1   2
ATOM      2  C   UNL A   1      31.747  28.506  27.359  1.00  0.00     0.021 C 
BRANCH   2   3
ATOM      3  C   UNL A   1      32.596  27.350  26.830  1.00  0.00     0.116 C 
BRANCH   3   4
ATOM      4  N   UNL A   1      31.796  26.159  26.740  1.00  0.00    -0.356 N 
ATOM      5  C   UNL A   1      30.865  25.735  25.868  1.00  0.00     0.226 C 
ATOM      6  O   UNL A   1      30.041  24.974  26.389  1.00  0.00    -0.274 OA
ATOM      7  H   UNL A   1      31.967  25.519  27.469  1.00  0.00     0.163 HD
BRANCH   5   8
ATOM      8  C   UNL A   1      30.963  25.935  24.337  1.00  0.00     0.057 C 
ATOM      9  C   UNL A   1      30.408  24.576  23.804  1.00  0.00     0.022 C 
BRANCH   8  10
ATOM     10  C   UNL A   1      30.031  27.150  23.999  1.00  0.00    -0.002 C 
ATOM     11  C   UNL A   1      30.524  28.111  22.913  1.00  0.00     0.008 C 
ATOM     12  C   UNL A   1      28.553  26.771  23.743  1.00  0.00     0.008 C 
ENDBRANCH   8  10
BRANCH   8  13
ATOM     13  C   UNL A   1      32.376  26.134  23.669  1.00  0.00     0.116 C 
BRANCH  13  14
ATOM     14  C   UNL A   1      32.775  25.247  22.488  1.00  0.00     0.221 C 
ATOM     15  O   UNL A   1      32.460  25.627  21.351  1.00  0.00    -0.275 OA
ATOM     16  N   UNL A   1      33.460  24.074  22.528  1.00  0.00    -0.353 N 
ATOM     17  H   UNL A   1      33.373  23.625  21.655  1.00  0.00     0.163 HD
BRANCH  16  18
ATOM     18  C   UNL A   1      34.295  23.226  23.421  1.00  0.00     0.087 C 
ATOM     19  C   UNL A   1      35.170  24.041  24.372  1.00  0.00     0.025 C 
ATOM     20  C   UNL A   1      33.634  22.149  24.328  1.00  0.00    -0.015 C 
ATOM     21  C   UNL A   1      34.491  23.949  25.738  1.00  0.00     0.003 C 
ATOM     22  C   UNL A   1      33.316  22.977  25.578  1.00  0.00     0.008 C 
ATOM     23  C   UNL A   1      32.459  21.399  23.686  1.00  0.00     0.013 C 
ATOM     24  C   UNL A   1      34.625  21.043  24.773  1.00  0.00     0.013 C 
ENDBRANCH  16  18
ENDBRANCH  13  14
ENDBRANCH   8  13
ENDBRANCH   5   8
ENDBRANCH   3   4
ENDBRANCH   2   3
ENDBRANCH   1   2
BRANCH   1  25
ATOM     25  C   UNL A   1      31.434  30.797  26.095  1.00  0.00     0.002 C 
BRANCH  25  26
ATOM     26  C   UNL A   1      31.288  32.258  26.498  1.00  0.00     0.021 C 
BRANCH  26  27
ATOM     27  C   UNL A   1      32.503  32.825  27.204  1.00  0.00     0.116 C 
BRANCH  27  28
ATOM     28  N   UNL A   1      32.293  34.197  27.632  1.00  0.00    -0.352 N 
ATOM     29  C   UNL A   1      32.975  34.900  28.584  1.00  0.00     0.251 C 
ATOM     30  H   UNL A   1      31.566  34.682  27.178  1.00  0.00     0.163 HD
ATOM     31  O   UNL A   1      32.558  35.990  28.983  1.00  0.00    -0.269 OA
BRANCH  29  32
ATOM     32  C   UNL A   1      34.209  34.328  29.149  1.00  0.00     0.039 A 
ATOM     33  C   UNL A   1      34.116  33.481  30.254  1.00  0.00     0.014 A 
ATOM     34  C   UNL A   1      35.452  34.610  28.570  1.00  0.00     0.014 A 
ATOM     35  C   UNL A   1      35.271  32.888  30.758  1.00  0.00     0.010 A 
ATOM     36  C   UNL A   1      36.589  33.950  29.019  1.00  0.00     0.010 A 
ATOM     37  C   UNL A   1      36.511  33.101  30.130  1.00  0.00    -0.014 A 
BRANCH  37  38
ATOM     38  C   UNL A   1      37.737  32.460  30.658  1.00  0.00     0.031 A 
ATOM     39  C   UNL A   1      38.380  32.987  31.910  1.00  0.00     0.074 A 
ATOM     40  C   UNL A   1      38.274  31.417  29.998  1.00  0.00     0.049 A 
ATOM     41  N   UNL A   1      39.438  32.545  32.541  1.00  0.00    -0.248 NA
ATOM     42  C   UNL A   1      37.772  34.181  32.520  1.00  0.00     0.031 C 
ATOM     43  C   UNL A   1      37.775  30.864  28.737  1.00  0.00     0.029 A 
ATOM     44  N   UNL A   1      39.355  30.631  30.301  1.00  0.00    -0.354 N 
ATOM     45  C   UNL A   1      39.615  33.402  33.621  1.00  0.00     0.074 A 
ATOM     46  C   UNL A   1      38.603  34.429  33.520  1.00  0.00     0.031 C 
ATOM     47  C   UNL A   1      38.530  29.808  28.391  1.00  0.00     0.029 A 
ATOM     48  C   UNL A   1      39.575  29.624  29.392  1.00  0.00     0.049 A 
ATOM     49  H   UNL A   1      39.921  30.774  31.093  1.00  0.00     0.167 HD
ATOM     50  C   UNL A   1      40.519  33.318  34.625  1.00  0.00     0.037 A 
ATOM     51  C   UNL A   1      40.511  28.658  29.378  1.00  0.00     0.037 A 
ATOM     52  C   UNL A   1      41.512  32.283  34.730  1.00  0.00     0.049 A 
ATOM     53  C   UNL A   1      41.488  28.574  30.517  1.00  0.00     0.074 A 
ATOM     54  C   UNL A   1      42.453  32.086  35.724  1.00  0.00     0.029 A 
ATOM     55  N   UNL A   1      41.686  31.265  33.805  1.00  0.00    -0.354 N 
ATOM     56  N   UNL A   1      41.602  29.351  31.566  1.00  0.00    -0.248 NA
ATOM     57  C   UNL A   1      42.456  27.469  30.478  1.00  0.00     0.031 C 
ATOM     58  C   UNL A   1      43.218  30.966  35.385  1.00  0.00     0.029 A 
ATOM     59  C   UNL A   1      42.727  30.441  34.200  1.00  0.00     0.049 A 
ATOM     60  H   UNL A   1      41.149  31.145  32.988  1.00  0.00     0.167 HD
ATOM     61  C   UNL A   1      42.640  28.822  32.321  1.00  0.00     0.074 A 
ATOM     62  C   UNL A   1      43.104  27.640  31.622  1.00  0.00     0.031 C 
ATOM     63  C   UNL A   1      43.169  29.273  33.484  1.00  0.00     0.037 A 
BRANCH  50  64
ATOM     64  C   UNL A   1      40.452  34.361  35.701  1.00  0.00     0.057 A 
ATOM     65  C   UNL A   1      41.135  35.580  35.583  1.00  0.00     0.134 A 
ATOM     66  C   UNL A   1      39.675  34.164  36.849  1.00  0.00     0.134 A 
ATOM     67  F   UNL A   1      41.909  35.824  34.515  1.00  0.00    -0.206 F 
ATOM     68  C   UNL A   1      41.062  36.558  36.576  1.00  0.00     0.040 A 
ATOM     69  C   UNL A   1      39.575  35.145  37.838  1.00  0.00     0.040 A 
ATOM     70  F   UNL A   1      38.996  33.021  37.024  1.00  0.00    -0.206 F 
ATOM     71  C   UNL A   1      40.273  36.344  37.704  1.00  0.00     0.006 A 
ENDBRANCH  50  64
BRANCH  51  72
ATOM     72  C   UNL A   1      40.550  27.674  28.267  1.00  0.00     0.057 A 
ATOM     73  C   UNL A   1      41.257  27.939  27.087  1.00  0.00     0.134 A 
ATOM     74  C   UNL A   1      39.870  26.454  28.352  1.00  0.00     0.134 A 
ATOM     75  F   UNL A   1      41.915  29.097  26.941  1.00  0.00    -0.206 F 
ATOM     76  C   UNL A   1      41.263  27.037  26.022  1.00  0.00     0.040 A 
ATOM     77  C   UNL A   1      39.890  25.532  27.304  1.00  0.00     0.040 A 
ATOM     78  F   UNL A   1      39.185  26.136  29.460  1.00  0.00    -0.206 F 
ATOM     79  C   UNL A   1      40.580  25.828  26.131  1.00  0.00     0.006 A 
ENDBRANCH  51  72
BRANCH  63  80
ATOM     80  C   UNL A   1      44.294  28.474  34.072  1.00  0.00     0.057 A 
ATOM     81  C   UNL A   1      45.633  28.763  33.779  1.00  0.00     0.134 A 
ATOM     82  C   UNL A   1      44.035  27.416  34.951  1.00  0.00     0.134 A 
ATOM     83  F   UNL A   1      45.945  29.758  32.933  1.00  0.00    -0.206 F 
ATOM     84  C   UNL A   1      46.675  28.008  34.317  1.00  0.00     0.040 A 
ATOM     85  C   UNL A   1      45.071  26.670  35.516  1.00  0.00     0.040 A 
ATOM     86  F   UNL A   1      42.776  27.094  35.279  1.00  0.00    -0.206 F 
ATOM     87  C   UNL A   1      46.395  26.960  35.192  1.00  0.00     0.006 A 
ENDBRANCH  63  80
ENDBRANCH  37  38
ENDBRANCH  29  32
ENDBRANCH  27  28
ENDBRANCH  26  27
ENDBRANCH  25  26
ENDBRANCH   1  25
TORSDOF 17
ENDMDL
MODEL 3
REMARK VINA RESULT:     -11.1      0.938      6.166
REMARK SMILES CC(C)[C@@](C)(CC(=O)N[C@H]1CCCC1(C)C)C(=O)NCCCCCCNC(=O)c1ccc(-c2c3nc(c(-c4c(F)cccc4F)c4ccc([nH]4)c(-c4c(F)cccc4F)c4nc(c(-c5c(F)cccc5F)c5ccc2[nH]5)C=C4)C=C3)cc1
REMARK SMILES IDX 22 1 21 2 20 3 19 4 17 5 18 6 4 8 5 9 2 10 1 11 3 12 6 13
REMARK SMILES IDX 7 14 8 15 9 16 10 18 11 19 14 20 12 21 13 22 15 23 16 24
REMARK SMILES IDX 23 25 24 26 25 27 26 28 27 29 28 31 29 32 30 33 82 34 31 35
REMARK SMILES IDX 81 36 32 37 33 38 34 39 75 40 35 41 80 42 74 43 76 44 36 45
REMARK SMILES IDX 79 46 73 47 72 48 37 50 63 51 46 52 62 53 47 54 50 55 61 56
REMARK SMILES IDX 77 57 48 58 49 59 60 61 78 62 51 63 38 64 39 65 44 66 40 67
REMARK SMILES IDX 41 68 43 69 45 70 42 71 64 72 65 73 70 74 66 75 67 76 69 77
REMARK SMILES IDX 71 78 68 79 52 80 53 81 58 82 54 83 55 84 57 85 59 86 56 87
REMARK H PARENT 19 7 9 17 26 30 76 49 50 60
REMARK Flexibility Score: inf
ROOT
ATOM      1  C   UNL A   1      36.924  22.017  24.191  1.00  0.00     0.002 C 
ENDROOT
BRANCH   1   2
ATOM      2  C   UNL A   1      37.283  23.287  24.990  1.00  0.00     0.021 C 
BRANCH   2   3
ATOM      3  C   UNL A   1      36.103  24.060  25.578  1.00  0.00     0.116 C 
BRANCH   3   4
ATOM      4  N   UNL A   1      35.178  24.408  24.535  1.00  0.00    -0.356 N 
ATOM      5  C   UNL A   1      34.031  23.861  24.097  1.00  0.00     0.226 C 
ATOM      6  O   UNL A   1      33.827  24.085  22.898  1.00  0.00    -0.274 OA
ATOM      7  H   UNL A   1      35.438  25.217  24.037  1.00  0.00     0.163 HD
BRANCH   5   8
ATOM      8  C   UNL A   1      32.950  23.264  25.029  1.00  0.00     0.057 C 
ATOM      9  C   UNL A   1      31.660  23.431  24.164  1.00  0.00     0.022 C 
BRANCH   8  10
ATOM     10  C   UNL A   1      33.347  21.763  25.249  1.00  0.00    -0.002 C 
ATOM     11  C   UNL A   1      33.592  21.324  26.695  1.00  0.00     0.008 C 
ATOM     12  C   UNL A   1      32.427  20.746  24.532  1.00  0.00     0.008 C 
ENDBRANCH   8  10
BRANCH   8  13
ATOM     13  C   UNL A   1      32.652  23.954  26.414  1.00  0.00     0.116 C 
BRANCH  13  14
ATOM     14  C   UNL A   1      31.228  24.416  26.728  1.00  0.00     0.221 C 
ATOM     15  O   UNL A   1      30.444  23.581  27.202  1.00  0.00    -0.275 OA
ATOM     16  N   UNL A   1      30.705  25.659  26.560  1.00  0.00    -0.353 N 
ATOM     17  H   UNL A   1      29.724  25.603  26.632  1.00  0.00     0.163 HD
BRANCH  16  18
ATOM     18  C   UNL A   1      31.087  27.075  26.310  1.00  0.00     0.087 C 
ATOM     19  C   UNL A   1      32.282  27.529  27.146  1.00  0.00     0.025 C 
ATOM     20  C   UNL A   1      31.417  27.557  24.867  1.00  0.00    -0.015 C 
ATOM     21  C   UNL A   1      33.472  27.554  26.188  1.00  0.00     0.003 C 
ATOM     22  C   UNL A   1      32.916  27.244  24.792  1.00  0.00     0.008 C 
ATOM     23  C   UNL A   1      30.535  26.951  23.768  1.00  0.00     0.013 C 
ATOM     24  C   UNL A   1      31.279  29.092  24.697  1.00  0.00     0.013 C 
ENDBRANCH  16  18
ENDBRANCH  13  14
ENDBRANCH   8  13
ENDBRANCH   5   8
ENDBRANCH   3   4
ENDBRANCH   2   3
ENDBRANCH   1   2
BRANCH   1  25
ATOM     25  C   UNL A   1      36.808  20.695  24.963  1.00  0.00     0.002 C 
BRANCH  25  26
ATOM     26  C   UNL A   1      38.032  19.791  24.915  1.00  0.00     0.021 C 
BRANCH  26  27
ATOM     27  C   UNL A   1      39.201  20.296  25.737  1.00  0.00     0.116 C 
BRANCH  27  28
ATOM     28  N   UNL A   1      40.248  19.297  25.864  1.00  0.00    -0.352 N 
ATOM     29  C   UNL A   1      41.563  19.486  26.180  1.00  0.00     0.251 C 
ATOM     30  H   UNL A   1      39.975  18.365  25.702  1.00  0.00     0.163 HD
ATOM     31  O   UNL A   1      42.380  18.571  26.056  1.00  0.00    -0.269 OA
BRANCH  29  32
ATOM     32  C   UNL A   1      42.003  20.812  26.651  1.00  0.00     0.039 A 
ATOM     33  C   UNL A   1      42.307  21.795  25.710  1.00  0.00     0.014 A 
ATOM     34  C   UNL A   1      42.090  21.084  28.021  1.00  0.00     0.014 A 
ATOM     35  C   UNL A   1      42.664  23.069  26.146  1.00  0.00     0.010 A 
ATOM     36  C   UNL A   1      42.362  22.377  28.452  1.00  0.00     0.010 A 
ATOM     37  C   UNL A   1      42.673  23.374  27.518  1.00  0.00    -0.014 A 
BRANCH  37  38
ATOM     38  C   UNL A   1      43.041  24.731  27.982  1.00  0.00     0.031 A 
ATOM     39  C   UNL A   1      41.975  25.769  28.189  1.00  0.00     0.074 A 
ATOM     40  C   UNL A   1      44.336  25.027  28.199  1.00  0.00     0.049 A 
ATOM     41  N   UNL A   1      42.094  27.000  28.616  1.00  0.00    -0.248 NA
ATOM     42  C   UNL A   1      40.594  25.383  27.849  1.00  0.00     0.031 C 
ATOM     43  C   UNL A   1      45.463  24.121  27.967  1.00  0.00     0.029 A 
ATOM     44  N   UNL A   1      44.923  26.172  28.671  1.00  0.00    -0.354 N 
ATOM     45  C   UNL A   1      40.810  27.529  28.600  1.00  0.00     0.074 A 
ATOM     46  C   UNL A   1      39.937  26.514  28.056  1.00  0.00     0.031 C 
ATOM     47  C   UNL A   1      46.603  24.734  28.326  1.00  0.00     0.029 A 
ATOM     48  C   UNL A   1      46.288  26.080  28.794  1.00  0.00     0.049 A 
ATOM     49  H   UNL A   1      44.415  26.983  28.899  1.00  0.00     0.167 HD
ATOM     50  C   UNL A   1      40.391  28.741  29.034  1.00  0.00     0.037 A 
ATOM     51  C   UNL A   1      47.181  26.981  29.243  1.00  0.00     0.037 A 
ATOM     52  C   UNL A   1      41.261  29.741  29.592  1.00  0.00     0.049 A 
ATOM     53  C   UNL A   1      46.687  28.310  29.740  1.00  0.00     0.074 A 
ATOM     54  C   UNL A   1      40.935  30.988  30.093  1.00  0.00     0.029 A 
ATOM     55  N   UNL A   1      42.634  29.601  29.726  1.00  0.00    -0.354 N 
ATOM     56  N   UNL A   1      45.460  28.773  29.782  1.00  0.00    -0.248 NA
ATOM     57  C   UNL A   1      47.698  29.236  30.268  1.00  0.00     0.031 C 
ATOM     58  C   UNL A   1      42.115  31.616  30.502  1.00  0.00     0.029 A 
ATOM     59  C   UNL A   1      43.171  30.744  30.294  1.00  0.00     0.049 A 
ATOM     60  H   UNL A   1      43.150  28.807  29.458  1.00  0.00     0.167 HD
ATOM     61  C   UNL A   1      45.549  30.034  30.355  1.00  0.00     0.074 A 
ATOM     62  C   UNL A   1      46.946  30.252  30.670  1.00  0.00     0.031 C 
ATOM     63  C   UNL A   1      44.566  30.936  30.594  1.00  0.00     0.037 A 
BRANCH  50  64
ATOM     64  C   UNL A   1      38.923  29.035  28.945  1.00  0.00     0.057 A 
ATOM     65  C   UNL A   1      38.081  28.908  30.058  1.00  0.00     0.134 A 
ATOM     66  C   UNL A   1      38.348  29.481  27.748  1.00  0.00     0.134 A 
ATOM     67  F   UNL A   1      38.566  28.470  31.230  1.00  0.00    -0.206 F 
ATOM     68  C   UNL A   1      36.717  29.196  29.980  1.00  0.00     0.040 A 
ATOM     69  C   UNL A   1      36.991  29.795  27.664  1.00  0.00     0.040 A 
ATOM     70  F   UNL A   1      39.097  29.625  26.645  1.00  0.00    -0.206 F 
ATOM     71  C   UNL A   1      36.171  29.649  28.781  1.00  0.00     0.006 A 
ENDBRANCH  50  64
BRANCH  51  72
ATOM     72  C   UNL A   1      48.627  26.646  29.274  1.00  0.00     0.057 A 
ATOM     73  C   UNL A   1      49.195  25.981  30.367  1.00  0.00     0.134 A 
ATOM     74  C   UNL A   1      49.476  26.994  28.218  1.00  0.00     0.134 A 
ATOM     75  F   UNL A   1      48.434  25.634  31.416  1.00  0.00    -0.206 F 
ATOM     76  C   UNL A   1      50.561  25.699  30.422  1.00  0.00     0.040 A 
ATOM     77  C   UNL A   1      50.839  26.695  28.248  1.00  0.00     0.040 A 
ATOM     78  F   UNL A   1      48.991  27.622  27.137  1.00  0.00    -0.206 F 
ATOM     79  C   UNL A   1      51.387  26.054  29.357  1.00  0.00     0.006 A 
ENDBRANCH  51  72
BRANCH  63  80
ATOM     80  C   UNL A   1      44.974  32.227  31.239  1.00  0.00     0.057 A 
ATOM     81  C   UNL A   1      45.334  33.347  30.479  1.00  0.00     0.134 A 
ATOM     82  C   UNL A   1      44.991  32.355  32.633  1.00  0.00     0.134 A 
ATOM     83  F   UNL A   1      45.350  33.283  29.138  1.00  0.00    -0.206 F 
ATOM     84  C   UNL A   1      45.726  34.542  31.085  1.00  0.00     0.040 A 
ATOM     85  C   UNL A   1      45.356  33.553  33.249  1.00  0.00     0.040 A 
ATOM     86  F   UNL A   1      44.648  31.322  33.417  1.00  0.00    -0.206 F 
ATOM     87  C   UNL A   1      45.734  34.647  32.474  1.00  0.00     0.006 A 
ENDBRANCH  63  80
ENDBRANCH  37  38
ENDBRANCH  29  32
ENDBRANCH  27  28
ENDBRANCH  26  27
ENDBRANCH  25  26
ENDBRANCH   1  25
TORSDOF 17
ENDMDL
