MODEL 1
REMARK VINA RESULT:     -12.3      0.000      0.000
REMARK SMILES Cc1ccccc1CSc1cccc(C(=O)NCCCCCCNC(=O)c2ccc(-c3c4nc(c(-c5c(F)cccc5F)c5ccc([nH]5)c(-c5c(F)cccc5F)c5nc(c(-c6c(F)cccc6F)c6ccc3[nH]6)C=C5)C=C4)cc2)n1
REMARK SMILES IDX 20 1 19 2 18 3 17 4 15 5 16 6 14 8 10 9 11 10 81 11 12 12
REMARK SMILES IDX 13 13 9 14 8 15 7 16 1 17 2 18 3 19 4 20 6 21 5 22 21 23
REMARK SMILES IDX 22 24 23 25 24 26 25 27 26 29 27 30 28 31 80 32 29 33 79 34
REMARK SMILES IDX 30 35 31 36 32 37 73 38 33 39 78 40 72 41 74 42 34 43 77 44
REMARK SMILES IDX 71 45 70 46 35 48 61 49 44 50 60 51 45 52 48 53 59 54 75 55
REMARK SMILES IDX 46 56 47 57 58 59 76 60 49 61 36 62 37 63 42 64 38 65 39 66
REMARK SMILES IDX 41 67 43 68 40 69 62 70 63 71 68 72 64 73 65 74 67 75 69 76
REMARK SMILES IDX 66 77 50 78 51 79 56 80 52 81 53 82 55 83 57 84 54 85
REMARK H PARENT 17 7 24 28 74 47 48 58
REMARK Flexibility Score: inf
ROOT
ATOM      1  C   UNL A   1      31.064  29.455  24.504  1.00  0.00     0.002 C 
ENDROOT
BRANCH   1   2
ATOM      2  C   UNL A   1      31.090  29.168  22.992  1.00  0.00     0.021 C 
BRANCH   2   3
ATOM      3  C   UNL A   1      30.665  27.749  22.597  1.00  0.00     0.116 C 
BRANCH   3   4
ATOM      4  N   UNL A   1      31.717  27.093  21.855  1.00  0.00    -0.351 N 
ATOM      5  C   UNL A   1      32.705  26.193  22.167  1.00  0.00     0.269 C 
ATOM      6  O   UNL A   1      33.406  25.851  21.212  1.00  0.00    -0.268 OA
ATOM      7  H   UNL A   1      31.729  27.353  20.906  1.00  0.00     0.163 HD
BRANCH   5   8
ATOM      8  C   UNL A   1      32.960  25.615  23.536  1.00  0.00     0.129 A 
ATOM      9  C   UNL A   1      32.601  23.748  24.892  1.00  0.00     0.097 A 
ATOM     10  C   UNL A   1      33.307  24.318  25.938  1.00  0.00     0.035 A 
ATOM     11  N   UNL A   1      32.407  24.386  23.724  1.00  0.00    -0.236 NA
ATOM     12  C   UNL A   1      33.890  25.565  25.742  1.00  0.00     0.005 A 
ATOM     13  C   UNL A   1      33.742  26.212  24.515  1.00  0.00     0.034 A 
BRANCH   9  14
ATOM     14  S   UNL A   1      31.889  22.128  25.097  1.00  0.00    -0.102 SA
BRANCH  14  15
ATOM     15  C   UNL A   1      32.487  21.306  23.573  1.00  0.00     0.112 C 
BRANCH  15  16
ATOM     16  C   UNL A   1      33.035  19.904  23.750  1.00  0.00    -0.035 A 
ATOM     17  C   UNL A   1      35.024  20.690  25.188  1.00  0.00     0.044 C 
ATOM     18  C   UNL A   1      34.197  19.632  24.507  1.00  0.00    -0.047 A 
ATOM     19  C   UNL A   1      34.687  18.313  24.561  1.00  0.00     0.004 A 
ATOM     20  C   UNL A   1      34.024  17.267  23.923  1.00  0.00     0.000 A 
ATOM     21  C   UNL A   1      32.352  18.821  23.158  1.00  0.00     0.005 A 
ATOM     22  C   UNL A   1      32.847  17.520  23.233  1.00  0.00     0.000 A 
ENDBRANCH  15  16
ENDBRANCH  14  15
ENDBRANCH   9  14
ENDBRANCH   5   8
ENDBRANCH   3   4
ENDBRANCH   2   3
ENDBRANCH   1   2
BRANCH   1  23
ATOM     23  C   UNL A   1      32.425  29.632  25.199  1.00  0.00     0.002 C 
BRANCH  23  24
ATOM     24  C   UNL A   1      32.423  30.442  26.498  1.00  0.00     0.021 C 
BRANCH  24  25
ATOM     25  C   UNL A   1      33.541  30.075  27.467  1.00  0.00     0.116 C 
BRANCH  25  26
ATOM     26  N   UNL A   1      34.108  31.221  28.172  1.00  0.00    -0.352 N 
ATOM     27  C   UNL A   1      35.357  31.341  28.760  1.00  0.00     0.251 C 
ATOM     28  H   UNL A   1      33.527  32.013  28.237  1.00  0.00     0.163 HD
ATOM     29  O   UNL A   1      35.713  32.385  29.280  1.00  0.00    -0.269 OA
BRANCH  27  30
ATOM     30  C   UNL A   1      36.303  30.209  28.626  1.00  0.00     0.039 A 
ATOM     31  C   UNL A   1      36.529  29.419  29.757  1.00  0.00     0.014 A 
ATOM     32  C   UNL A   1      37.128  30.112  27.508  1.00  0.00     0.014 A 
ATOM     33  C   UNL A   1      37.733  28.734  29.869  1.00  0.00     0.010 A 
ATOM     34  C   UNL A   1      38.358  29.501  27.649  1.00  0.00     0.010 A 
ATOM     35  C   UNL A   1      38.689  28.889  28.864  1.00  0.00    -0.014 A 
BRANCH  35  36
ATOM     36  C   UNL A   1      40.096  28.573  29.068  1.00  0.00     0.031 A 
ATOM     37  C   UNL A   1      40.642  27.274  28.632  1.00  0.00     0.074 A 
ATOM     38  C   UNL A   1      40.903  29.495  29.639  1.00  0.00     0.049 A 
ATOM     39  N   UNL A   1      41.740  26.765  29.078  1.00  0.00    -0.248 NA
ATOM     40  C   UNL A   1      39.929  26.392  27.716  1.00  0.00     0.031 C 
ATOM     41  C   UNL A   1      42.361  29.483  29.710  1.00  0.00     0.029 A 
ATOM     42  N   UNL A   1      40.520  30.533  30.501  1.00  0.00    -0.354 N 
ATOM     43  C   UNL A   1      42.028  25.660  28.313  1.00  0.00     0.074 A 
ATOM     44  C   UNL A   1      40.810  25.393  27.594  1.00  0.00     0.031 C 
ATOM     45  C   UNL A   1      42.748  30.232  30.754  1.00  0.00     0.029 A 
ATOM     46  C   UNL A   1      41.547  30.626  31.469  1.00  0.00     0.049 A 
ATOM     47  H   UNL A   1      39.706  31.083  30.446  1.00  0.00     0.167 HD
ATOM     48  C   UNL A   1      43.316  25.208  28.283  1.00  0.00     0.037 A 
ATOM     49  C   UNL A   1      41.307  30.385  32.789  1.00  0.00     0.037 A 
ATOM     50  C   UNL A   1      44.092  25.798  29.381  1.00  0.00     0.049 A 
ATOM     51  C   UNL A   1      42.138  29.267  33.374  1.00  0.00     0.074 A 
ATOM     52  C   UNL A   1      45.054  26.794  29.445  1.00  0.00     0.029 A 
ATOM     53  N   UNL A   1      43.710  25.540  30.696  1.00  0.00    -0.354 N 
ATOM     54  N   UNL A   1      42.773  28.379  32.659  1.00  0.00    -0.248 NA
ATOM     55  C   UNL A   1      42.290  29.036  34.809  1.00  0.00     0.031 C 
ATOM     56  C   UNL A   1      45.180  27.195  30.802  1.00  0.00     0.029 A 
ATOM     57  C   UNL A   1      44.322  26.420  31.565  1.00  0.00     0.049 A 
ATOM     58  H   UNL A   1      43.087  24.828  30.967  1.00  0.00     0.167 HD
ATOM     59  C   UNL A   1      43.363  27.460  33.486  1.00  0.00     0.074 A 
ATOM     60  C   UNL A   1      43.060  27.933  34.823  1.00  0.00     0.031 C 
ATOM     61  C   UNL A   1      44.033  26.375  32.994  1.00  0.00     0.037 A 
BRANCH  48  62
ATOM     62  C   UNL A   1      43.952  24.445  27.126  1.00  0.00     0.057 A 
ATOM     63  C   UNL A   1      44.819  23.359  27.385  1.00  0.00     0.134 A 
ATOM     64  C   UNL A   1      43.877  24.781  25.758  1.00  0.00     0.134 A 
ATOM     65  F   UNL A   1      44.985  22.870  28.621  1.00  0.00    -0.206 F 
ATOM     66  C   UNL A   1      45.585  22.725  26.392  1.00  0.00     0.040 A 
ATOM     67  C   UNL A   1      44.622  24.145  24.755  1.00  0.00     0.040 A 
ATOM     68  F   UNL A   1      43.093  25.753  25.291  1.00  0.00    -0.206 F 
ATOM     69  C   UNL A   1      45.498  23.125  25.069  1.00  0.00     0.006 A 
ENDBRANCH  48  62
BRANCH  49  70
ATOM     70  C   UNL A   1      39.927  30.736  33.214  1.00  0.00     0.057 A 
ATOM     71  C   UNL A   1      39.587  32.096  33.343  1.00  0.00     0.134 A 
ATOM     72  C   UNL A   1      38.874  29.822  33.140  1.00  0.00     0.134 A 
ATOM     73  F   UNL A   1      40.552  33.027  33.419  1.00  0.00    -0.206 F 
ATOM     74  C   UNL A   1      38.263  32.536  33.283  1.00  0.00     0.040 A 
ATOM     75  C   UNL A   1      37.541  30.251  33.094  1.00  0.00     0.040 A 
ATOM     76  F   UNL A   1      39.115  28.512  32.993  1.00  0.00    -0.206 F 
ATOM     77  C   UNL A   1      37.235  31.612  33.125  1.00  0.00     0.006 A 
ENDBRANCH  49  70
BRANCH  61  78
ATOM     78  C   UNL A   1      44.531  25.202  33.805  1.00  0.00     0.057 A 
ATOM     79  C   UNL A   1      45.884  24.861  33.959  1.00  0.00     0.134 A 
ATOM     80  C   UNL A   1      43.633  24.450  34.595  1.00  0.00     0.134 A 
ATOM     81  F   UNL A   1      46.857  25.560  33.360  1.00  0.00    -0.206 F 
ATOM     82  C   UNL A   1      46.306  23.813  34.790  1.00  0.00     0.040 A 
ATOM     83  C   UNL A   1      44.047  23.438  35.467  1.00  0.00     0.040 A 
ATOM     84  F   UNL A   1      42.311  24.681  34.569  1.00  0.00    -0.206 F 
ATOM     85  C   UNL A   1      45.389  23.105  35.557  1.00  0.00     0.006 A 
ENDBRANCH  61  78
ENDBRANCH  35  36
ENDBRANCH  27  30
ENDBRANCH  25  26
ENDBRANCH  24  25
ENDBRANCH  23  24
ENDBRANCH   1  23
TORSDOF 16
ENDMDL
MODEL 2
REMARK VINA RESULT:     -12.1      1.435      2.137
REMARK SMILES Cc1ccccc1CSc1cccc(C(=O)NCCCCCCNC(=O)c2ccc(-c3c4nc(c(-c5c(F)cccc5F)c5ccc([nH]5)c(-c5c(F)cccc5F)c5nc(c(-c6c(F)cccc6F)c6ccc3[nH]6)C=C5)C=C4)cc2)n1
REMARK SMILES IDX 20 1 19 2 18 3 17 4 15 5 16 6 14 8 10 9 11 10 81 11 12 12
REMARK SMILES IDX 13 13 9 14 8 15 7 16 1 17 2 18 3 19 4 20 6 21 5 22 21 23
REMARK SMILES IDX 22 24 23 25 24 26 25 27 26 29 27 30 28 31 80 32 29 33 79 34
REMARK SMILES IDX 30 35 31 36 32 37 73 38 33 39 78 40 72 41 74 42 34 43 77 44
REMARK SMILES IDX 71 45 70 46 35 48 61 49 44 50 60 51 45 52 48 53 59 54 75 55
REMARK SMILES IDX 46 56 47 57 58 59 76 60 49 61 36 62 37 63 42 64 38 65 39 66
REMARK SMILES IDX 41 67 43 68 40 69 62 70 63 71 68 72 64 73 65 74 67 75 69 76
REMARK SMILES IDX 66 77 50 78 51 79 56 80 52 81 53 82 55 83 57 84 54 85
REMARK H PARENT 17 7 24 28 74 47 48 58
REMARK Flexibility Score: inf
ROOT
ATOM      1  C   UNL A   1      33.244  29.340  24.852  1.00  0.00     0.002 C 
ENDROOT
BRANCH   1   2
ATOM      2  C   UNL A   1      32.963  28.647  23.507  1.00  0.00     0.021 C 
BRANCH   2   3
ATOM      3  C   UNL A   1      34.077  27.716  23.016  1.00  0.00     0.116 C 
BRANCH   3   4
ATOM      4  N   UNL A   1      33.694  27.076  21.779  1.00  0.00    -0.351 N 
ATOM      5  C   UNL A   1      32.895  26.011  21.447  1.00  0.00     0.269 C 
ATOM      6  O   UNL A   1      32.806  25.795  20.237  1.00  0.00    -0.268 OA
ATOM      7  H   UNL A   1      34.100  27.503  20.990  1.00  0.00     0.163 HD
BRANCH   5   8
ATOM      8  C   UNL A   1      32.145  25.142  22.426  1.00  0.00     0.129 A 
ATOM      9  C   UNL A   1      32.099  23.030  23.421  1.00  0.00     0.097 A 
ATOM     10  C   UNL A   1      30.985  23.363  24.175  1.00  0.00     0.035 A 
ATOM     11  N   UNL A   1      32.656  23.887  22.546  1.00  0.00    -0.236 NA
ATOM     12  C   UNL A   1      30.474  24.651  24.068  1.00  0.00     0.005 A 
ATOM     13  C   UNL A   1      31.078  25.566  23.205  1.00  0.00     0.034 A 
BRANCH   9  14
ATOM     14  S   UNL A   1      32.807  21.404  23.577  1.00  0.00    -0.102 SA
BRANCH  14  15
ATOM     15  C   UNL A   1      33.489  21.500  25.275  1.00  0.00     0.112 C 
BRANCH  15  16
ATOM     16  C   UNL A   1      34.913  22.005  25.388  1.00  0.00    -0.035 A 
ATOM     17  C   UNL A   1      34.185  24.425  25.895  1.00  0.00     0.044 C 
ATOM     18  C   UNL A   1      35.221  23.352  25.687  1.00  0.00    -0.047 A 
ATOM     19  C   UNL A   1      36.568  23.761  25.697  1.00  0.00     0.004 A 
ATOM     20  C   UNL A   1      37.602  22.857  25.466  1.00  0.00     0.000 A 
ATOM     21  C   UNL A   1      35.979  21.097  25.210  1.00  0.00     0.005 A 
ATOM     22  C   UNL A   1      37.307  21.521  25.237  1.00  0.00     0.000 A 
ENDBRANCH  15  16
ENDBRANCH  14  15
ENDBRANCH   9  14
ENDBRANCH   5   8
ENDBRANCH   3   4
ENDBRANCH   2   3
ENDBRANCH   1   2
BRANCH   1  23
ATOM     23  C   UNL A   1      32.042  29.989  25.561  1.00  0.00     0.002 C 
BRANCH  23  24
ATOM     24  C   UNL A   1      32.334  30.682  26.895  1.00  0.00     0.021 C 
BRANCH  24  25
ATOM     25  C   UNL A   1      33.634  30.243  27.558  1.00  0.00     0.116 C 
BRANCH  25  26
ATOM     26  N   UNL A   1      34.250  31.276  28.386  1.00  0.00    -0.352 N 
ATOM     27  C   UNL A   1      35.482  31.253  29.022  1.00  0.00     0.251 C 
ATOM     28  H   UNL A   1      33.721  32.097  28.509  1.00  0.00     0.163 HD
ATOM     29  O   UNL A   1      35.886  32.216  29.649  1.00  0.00    -0.269 OA
BRANCH  27  30
ATOM     30  C   UNL A   1      36.355  30.076  28.808  1.00  0.00     0.039 A 
ATOM     31  C   UNL A   1      36.682  29.304  29.927  1.00  0.00     0.014 A 
ATOM     32  C   UNL A   1      37.032  29.913  27.602  1.00  0.00     0.014 A 
ATOM     33  C   UNL A   1      37.860  28.567  29.913  1.00  0.00     0.010 A 
ATOM     34  C   UNL A   1      38.243  29.249  27.613  1.00  0.00     0.010 A 
ATOM     35  C   UNL A   1      38.692  28.654  28.797  1.00  0.00    -0.014 A 
BRANCH  35  36
ATOM     36  C   UNL A   1      40.099  28.277  28.840  1.00  0.00     0.031 A 
ATOM     37  C   UNL A   1      40.531  26.942  28.388  1.00  0.00     0.074 A 
ATOM     38  C   UNL A   1      41.009  29.178  29.275  1.00  0.00     0.049 A 
ATOM     39  N   UNL A   1      41.652  26.395  28.715  1.00  0.00    -0.248 NA
ATOM     40  C   UNL A   1      39.673  26.066  27.598  1.00  0.00     0.031 C 
ATOM     41  C   UNL A   1      42.464  29.099  29.168  1.00  0.00     0.029 A 
ATOM     42  N   UNL A   1      40.781  30.259  30.139  1.00  0.00    -0.354 N 
ATOM     43  C   UNL A   1      41.797  25.254  27.961  1.00  0.00     0.074 A 
ATOM     44  C   UNL A   1      40.488  25.024  27.406  1.00  0.00     0.031 C 
ATOM     45  C   UNL A   1      43.008  29.860  30.129  1.00  0.00     0.029 A 
ATOM     46  C   UNL A   1      41.922  30.333  30.970  1.00  0.00     0.049 A 
ATOM     47  H   UNL A   1      39.990  30.844  30.163  1.00  0.00     0.167 HD
ATOM     48  C   UNL A   1      43.051  24.742  27.791  1.00  0.00     0.037 A 
ATOM     49  C   UNL A   1      41.836  30.143  32.318  1.00  0.00     0.037 A 
ATOM     50  C   UNL A   1      43.980  25.328  28.764  1.00  0.00     0.049 A 
ATOM     51  C   UNL A   1      42.684  29.006  32.837  1.00  0.00     0.074 A 
ATOM     52  C   UNL A   1      44.984  26.279  28.674  1.00  0.00     0.029 A 
ATOM     53  N   UNL A   1      43.752  25.129  30.125  1.00  0.00    -0.354 N 
ATOM     54  N   UNL A   1      43.187  28.068  32.083  1.00  0.00    -0.248 NA
ATOM     55  C   UNL A   1      43.002  28.813  34.251  1.00  0.00     0.031 C 
ATOM     56  C   UNL A   1      45.294  26.715  29.991  1.00  0.00     0.029 A 
ATOM     57  C   UNL A   1      44.505  26.005  30.880  1.00  0.00     0.049 A 
ATOM     58  H   UNL A   1      43.138  24.455  30.495  1.00  0.00     0.167 HD
ATOM     59  C   UNL A   1      43.835  27.147  32.865  1.00  0.00     0.074 A 
ATOM     60  C   UNL A   1      43.719  27.675  34.211  1.00  0.00     0.031 C 
ATOM     61  C   UNL A   1      44.391  26.018  32.334  1.00  0.00     0.037 A 
BRANCH  48  62
ATOM     62  C   UNL A   1      43.506  23.914  26.594  1.00  0.00     0.057 A 
ATOM     63  C   UNL A   1      43.350  22.510  26.603  1.00  0.00     0.134 A 
ATOM     64  C   UNL A   1      44.213  24.387  25.469  1.00  0.00     0.134 A 
ATOM     65  F   UNL A   1      42.667  21.884  27.571  1.00  0.00    -0.206 F 
ATOM     66  C   UNL A   1      43.906  21.662  25.630  1.00  0.00     0.040 A 
ATOM     67  C   UNL A   1      44.758  23.554  24.481  1.00  0.00     0.040 A 
ATOM     68  F   UNL A   1      44.444  25.681  25.246  1.00  0.00    -0.206 F 
ATOM     69  C   UNL A   1      44.624  22.182  24.567  1.00  0.00     0.006 A 
ENDBRANCH  48  62
BRANCH  49  70
ATOM     70  C   UNL A   1      40.536  30.572  32.894  1.00  0.00     0.057 A 
ATOM     71  C   UNL A   1      40.264  31.950  32.994  1.00  0.00     0.134 A 
ATOM     72  C   UNL A   1      39.449  29.701  33.002  1.00  0.00     0.134 A 
ATOM     73  F   UNL A   1      41.263  32.842  32.899  1.00  0.00    -0.206 F 
ATOM     74  C   UNL A   1      38.959  32.442  33.078  1.00  0.00     0.040 A 
ATOM     75  C   UNL A   1      38.138  30.183  33.102  1.00  0.00     0.040 A 
ATOM     76  F   UNL A   1      39.623  28.376  32.894  1.00  0.00    -0.206 F 
ATOM     77  C   UNL A   1      37.888  31.556  33.100  1.00  0.00     0.006 A 
ENDBRANCH  49  70
BRANCH  61  78
ATOM     78  C   UNL A   1      44.935  24.848  33.120  1.00  0.00     0.057 A 
ATOM     79  C   UNL A   1      44.351  23.573  33.153  1.00  0.00     0.134 A 
ATOM     80  C   UNL A   1      46.186  24.947  33.771  1.00  0.00     0.134 A 
ATOM     81  F   UNL A   1      43.222  23.301  32.485  1.00  0.00    -0.206 F 
ATOM     82  C   UNL A   1      44.937  22.493  33.830  1.00  0.00     0.040 A 
ATOM     83  C   UNL A   1      46.805  23.865  34.403  1.00  0.00     0.040 A 
ATOM     84  F   UNL A   1      46.873  26.100  33.801  1.00  0.00    -0.206 F 
ATOM     85  C   UNL A   1      46.174  22.632  34.447  1.00  0.00     0.006 A 
ENDBRANCH  61  78
ENDBRANCH  35  36
ENDBRANCH  27  30
ENDBRANCH  25  26
ENDBRANCH  24  25
ENDBRANCH  23  24
ENDBRANCH   1  23
TORSDOF 16
ENDMDL
MODEL 3
REMARK VINA RESULT:     -12.1      2.445      3.800
REMARK SMILES Cc1ccccc1CSc1cccc(C(=O)NCCCCCCNC(=O)c2ccc(-c3c4nc(c(-c5c(F)cccc5F)c5ccc([nH]5)c(-c5c(F)cccc5F)c5nc(c(-c6c(F)cccc6F)c6ccc3[nH]6)C=C5)C=C4)cc2)n1
REMARK SMILES IDX 20 1 19 2 18 3 17 4 15 5 16 6 14 8 10 9 11 10 81 11 12 12
REMARK SMILES IDX 13 13 9 14 8 15 7 16 1 17 2 18 3 19 4 20 6 21 5 22 21 23
REMARK SMILES IDX 22 24 23 25 24 26 25 27 26 29 27 30 28 31 80 32 29 33 79 34
REMARK SMILES IDX 30 35 31 36 32 37 73 38 33 39 78 40 72 41 74 42 34 43 77 44
REMARK SMILES IDX 71 45 70 46 35 48 61 49 44 50 60 51 45 52 48 53 59 54 75 55
REMARK SMILES IDX 46 56 47 57 58 59 76 60 49 61 36 62 37 63 42 64 38 65 39 66
REMARK SMILES IDX 41 67 43 68 40 69 62 70 63 71 68 72 64 73 65 74 67 75 69 76
REMARK SMILES IDX 66 77 50 78 51 79 56 80 52 81 53 82 55 83 57 84 54 85
REMARK H PARENT 17 7 24 28 74 47 48 58
REMARK Flexibility Score: inf
ROOT
ATOM      1  C   UNL A   1      31.825  28.578  27.299  1.00  0.00     0.002 C 
ENDROOT
BRANCH   1   2
ATOM      2  C   UNL A   1      32.091  27.257  26.556  1.00  0.00     0.021 C 
BRANCH   2   3
ATOM      3  C   UNL A   1      30.885  26.684  25.804  1.00  0.00     0.116 C 
BRANCH   3   4
ATOM      4  N   UNL A   1      30.347  25.541  26.505  1.00  0.00    -0.351 N 
ATOM      5  C   UNL A   1      30.487  24.181  26.389  1.00  0.00     0.269 C 
ATOM      6  O   UNL A   1      29.856  23.529  27.224  1.00  0.00    -0.268 OA
ATOM      7  H   UNL A   1      29.738  25.798  27.234  1.00  0.00     0.163 HD
BRANCH   5   8
ATOM      8  C   UNL A   1      31.336  23.474  25.364  1.00  0.00     0.129 A 
ATOM      9  C   UNL A   1      33.267  22.194  25.073  1.00  0.00     0.097 A 
ATOM     10  C   UNL A   1      33.042  22.085  23.711  1.00  0.00     0.035 A 
ATOM     11  N   UNL A   1      32.450  22.892  25.882  1.00  0.00    -0.236 NA
ATOM     12  C   UNL A   1      31.893  22.662  23.181  1.00  0.00     0.005 A 
ATOM     13  C   UNL A   1      31.010  23.341  24.022  1.00  0.00     0.034 A 
BRANCH   9  14
ATOM     14  S   UNL A   1      34.703  21.419  25.787  1.00  0.00    -0.102 SA
BRANCH  14  15
ATOM     15  C   UNL A   1      36.023  22.127  24.732  1.00  0.00     0.112 C 
BRANCH  15  16
ATOM     16  C   UNL A   1      37.334  22.430  25.429  1.00  0.00    -0.035 A 
ATOM     17  C   UNL A   1      38.302  20.086  24.977  1.00  0.00     0.044 C 
ATOM     18  C   UNL A   1      38.381  21.486  25.524  1.00  0.00    -0.047 A 
ATOM     19  C   UNL A   1      39.538  21.817  26.255  1.00  0.00     0.004 A 
ATOM     20  C   UNL A   1      39.690  23.069  26.844  1.00  0.00     0.000 A 
ATOM     21  C   UNL A   1      37.532  23.711  25.988  1.00  0.00     0.005 A 
ATOM     22  C   UNL A   1      38.692  24.022  26.698  1.00  0.00     0.000 A 
ENDBRANCH  15  16
ENDBRANCH  14  15
ENDBRANCH   9  14
ENDBRANCH   5   8
ENDBRANCH   3   4
ENDBRANCH   2   3
ENDBRANCH   1   2
BRANCH   1  23
ATOM     23  C   UNL A   1      32.751  29.760  26.964  1.00  0.00     0.002 C 
BRANCH  23  24
ATOM     24  C   UNL A   1      34.248  29.534  27.190  1.00  0.00     0.021 C 
BRANCH  24  25
ATOM     25  C   UNL A   1      34.941  30.651  27.963  1.00  0.00     0.116 C 
BRANCH  25  26
ATOM     26  N   UNL A   1      34.060  31.764  28.303  1.00  0.00    -0.352 N 
ATOM     27  C   UNL A   1      34.280  32.797  29.201  1.00  0.00     0.251 C 
ATOM     28  H   UNL A   1      33.195  31.785  27.834  1.00  0.00     0.163 HD
ATOM     29  O   UNL A   1      33.463  33.689  29.350  1.00  0.00    -0.269 OA
BRANCH  27  30
ATOM     30  C   UNL A   1      35.595  32.862  29.880  1.00  0.00     0.039 A 
ATOM     31  C   UNL A   1      36.624  33.549  29.230  1.00  0.00     0.014 A 
ATOM     32  C   UNL A   1      35.860  32.045  30.977  1.00  0.00     0.014 A 
ATOM     33  C   UNL A   1      37.942  33.207  29.508  1.00  0.00     0.010 A 
ATOM     34  C   UNL A   1      37.163  31.643  31.197  1.00  0.00     0.010 A 
ATOM     35  C   UNL A   1      38.189  32.162  30.400  1.00  0.00    -0.014 A 
BRANCH  35  36
ATOM     36  C   UNL A   1      39.464  31.459  30.446  1.00  0.00     0.031 A 
ATOM     37  C   UNL A   1      39.623  30.153  29.782  1.00  0.00     0.074 A 
ATOM     38  C   UNL A   1      40.510  32.032  31.085  1.00  0.00     0.049 A 
ATOM     39  N   UNL A   1      40.557  29.308  30.061  1.00  0.00    -0.248 NA
ATOM     40  C   UNL A   1      38.667  29.650  28.802  1.00  0.00     0.031 C 
ATOM     41  C   UNL A   1      41.912  31.627  31.040  1.00  0.00     0.029 A 
ATOM     42  N   UNL A   1      40.452  32.978  32.118  1.00  0.00    -0.354 N 
ATOM     43  C   UNL A   1      40.509  28.306  29.120  1.00  0.00     0.074 A 
ATOM     44  C   UNL A   1      39.240  28.490  28.465  1.00  0.00     0.031 C 
ATOM     45  C   UNL A   1      42.522  32.067  32.151  1.00  0.00     0.029 A 
ATOM     46  C   UNL A   1      41.498  32.640  33.007  1.00  0.00     0.049 A 
ATOM     47  H   UNL A   1      39.815  33.723  32.208  1.00  0.00     0.167 HD
ATOM     48  C   UNL A   1      41.625  27.545  28.924  1.00  0.00     0.037 A 
ATOM     49  C   UNL A   1      41.247  32.256  34.291  1.00  0.00     0.037 A 
ATOM     50  C   UNL A   1      42.569  27.724  30.035  1.00  0.00     0.049 A 
ATOM     51  C   UNL A   1      41.764  30.880  34.637  1.00  0.00     0.074 A 
ATOM     52  C   UNL A   1      43.766  28.408  30.172  1.00  0.00     0.029 A 
ATOM     53  N   UNL A   1      42.176  27.362  31.323  1.00  0.00    -0.354 N 
ATOM     54  N   UNL A   1      42.110  29.987  33.752  1.00  0.00    -0.248 NA
ATOM     55  C   UNL A   1      41.897  30.385  36.007  1.00  0.00     0.031 C 
ATOM     56  C   UNL A   1      44.042  28.535  31.560  1.00  0.00     0.029 A 
ATOM     57  C   UNL A   1      43.034  27.896  32.263  1.00  0.00     0.049 A 
ATOM     58  H   UNL A   1      41.394  26.803  31.531  1.00  0.00     0.167 HD
ATOM     59  C   UNL A   1      42.458  28.821  34.385  1.00  0.00     0.074 A 
ATOM     60  C   UNL A   1      42.339  29.132  35.797  1.00  0.00     0.031 C 
ATOM     61  C   UNL A   1      42.792  27.696  33.687  1.00  0.00     0.037 A 
BRANCH  48  62
ATOM     62  C   UNL A   1      41.991  26.842  27.622  1.00  0.00     0.057 A 
ATOM     63  C   UNL A   1      42.334  25.471  27.628  1.00  0.00     0.134 A 
ATOM     64  C   UNL A   1      42.159  27.450  26.360  1.00  0.00     0.134 A 
ATOM     65  F   UNL A   1      42.198  24.717  28.727  1.00  0.00    -0.206 F 
ATOM     66  C   UNL A   1      42.858  24.798  26.511  1.00  0.00     0.040 A 
ATOM     67  C   UNL A   1      42.664  26.786  25.232  1.00  0.00     0.040 A 
ATOM     68  F   UNL A   1      41.863  28.729  26.124  1.00  0.00    -0.206 F 
ATOM     69  C   UNL A   1      43.036  25.458  25.307  1.00  0.00     0.006 A 
ENDBRANCH  48  62
BRANCH  49  70
ATOM     70  C   UNL A   1      40.029  32.882  34.868  1.00  0.00     0.057 A 
ATOM     71  C   UNL A   1      38.827  32.148  34.865  1.00  0.00     0.134 A 
ATOM     72  C   UNL A   1      40.096  33.986  35.721  1.00  0.00     0.134 A 
ATOM     73  F   UNL A   1      38.697  31.075  34.068  1.00  0.00    -0.206 F 
ATOM     74  C   UNL A   1      37.786  32.429  35.752  1.00  0.00     0.040 A 
ATOM     75  C   UNL A   1      39.051  34.287  36.604  1.00  0.00     0.040 A 
ATOM     76  F   UNL A   1      41.213  34.722  35.798  1.00  0.00    -0.206 F 
ATOM     77  C   UNL A   1      37.911  33.485  36.649  1.00  0.00     0.006 A 
ENDBRANCH  49  70
BRANCH  61  78
ATOM     78  C   UNL A   1      42.982  26.317  34.274  1.00  0.00     0.057 A 
ATOM     79  C   UNL A   1      41.995  25.611  34.980  1.00  0.00     0.134 A 
ATOM     80  C   UNL A   1      44.160  25.585  34.005  1.00  0.00     0.134 A 
ATOM     81  F   UNL A   1      40.785  26.137  35.210  1.00  0.00    -0.206 F 
ATOM     82  C   UNL A   1      42.188  24.298  35.434  1.00  0.00     0.040 A 
ATOM     83  C   UNL A   1      44.343  24.258  34.407  1.00  0.00     0.040 A 
ATOM     84  F   UNL A   1      45.180  26.122  33.318  1.00  0.00    -0.206 F 
ATOM     85  C   UNL A   1      43.359  23.612  35.138  1.00  0.00     0.006 A 
ENDBRANCH  61  78
ENDBRANCH  35  36
ENDBRANCH  27  30
ENDBRANCH  25  26
ENDBRANCH  24  25
ENDBRANCH  23  24
ENDBRANCH   1  23
TORSDOF 16
ENDMDL
