MODEL 1
REMARK VINA RESULT:     -10.8      0.000      0.000
REMARK SMILES C[C@H](CC(=O)NCCCCCCNC(=O)c1ccc(-c2c3nc(c(-c4c(F)cccc4F)c4ccc([nH]4)c(-c4c(F)cccc4F)c4nc(c(-c5c(F)cccc5F)c5ccc2[nH]5)C=C4)C=C3)cc1)NC(=O)[C@H]1Cc2ccccc2O1
REMARK SMILES IDX 9 1 8 2 7 3 6 4 4 5 5 6 3 8 2 9 1 10 70 11 71 12 72 14 73 15
REMARK SMILES IDX 74 16 81 17 75 18 80 19 76 20 79 21 77 22 78 23 10 24 11 25
REMARK SMILES IDX 12 26 13 27 14 28 15 30 16 31 17 32 69 33 18 34 68 35 19 36
REMARK SMILES IDX 20 37 21 38 62 39 22 40 67 41 61 42 63 43 23 44 66 45 60 46
REMARK SMILES IDX 59 47 24 49 50 50 33 51 49 52 34 53 37 54 48 55 64 56 35 57
REMARK SMILES IDX 36 58 47 60 65 61 38 62 25 63 26 64 31 65 27 66 28 67 30 68
REMARK SMILES IDX 32 69 29 70 51 71 52 72 57 73 53 74 54 75 56 76 58 77 55 78
REMARK SMILES IDX 39 79 40 80 45 81 41 82 42 83 44 84 46 85 43 86
REMARK H PARENT 6 7 70 13 13 29 63 48 37 59
REMARK Flexibility Score: inf
ROOT
ATOM      1  C   UNL A   1      38.391  22.406  25.809  1.00  0.00     0.002 C 
ENDROOT
BRANCH   1   2
ATOM      2  C   UNL A   1      37.595  23.701  25.965  1.00  0.00     0.021 C 
BRANCH   2   3
ATOM      3  C   UNL A   1      36.095  23.588  25.693  1.00  0.00     0.116 C 
BRANCH   3   4
ATOM      4  N   UNL A   1      35.396  23.005  26.825  1.00  0.00    -0.356 N 
ATOM      5  C   UNL A   1      34.553  21.936  26.888  1.00  0.00     0.222 C 
ATOM      6  O   UNL A   1      34.058  21.649  27.979  1.00  0.00    -0.275 OA
ATOM      7  H   UNL A   1      35.558  23.454  27.687  1.00  0.00     0.163 HD
BRANCH   5   8
ATOM      8  C   UNL A   1      34.221  21.121  25.648  1.00  0.00     0.124 C 
BRANCH   8   9
ATOM      9  C   UNL A   1      32.859  21.456  25.015  1.00  0.00     0.088 C 
ATOM     10  C   UNL A   1      32.274  20.281  24.228  1.00  0.00     0.031 C 
BRANCH   9  11
ATOM     11  N   UNL A   1      31.909  21.907  26.023  1.00  0.00    -0.350 N 
ATOM     12  C   UNL A   1      31.469  23.115  26.446  1.00  0.00     0.261 C 
ATOM     13  H   UNL A   1      31.490  21.160  26.509  1.00  0.00     0.163 HD
ATOM     14  O   UNL A   1      30.821  23.092  27.505  1.00  0.00    -0.271 OA
BRANCH  12  15
ATOM     15  C   UNL A   1      31.583  24.442  25.706  1.00  0.00     0.266 C 
ATOM     16  C   UNL A   1      30.592  25.602  25.825  1.00  0.00     0.095 C 
ATOM     17  O   UNL A   1      32.920  24.894  26.052  1.00  0.00    -0.480 OA
ATOM     18  C   UNL A   1      31.549  26.737  25.895  1.00  0.00    -0.002 A 
ATOM     19  C   UNL A   1      32.839  26.251  26.022  1.00  0.00     0.123 A 
ATOM     20  C   UNL A   1      31.323  28.102  25.860  1.00  0.00     0.008 A 
ATOM     21  C   UNL A   1      33.942  27.073  26.114  1.00  0.00     0.047 A 
ATOM     22  C   UNL A   1      32.427  28.959  25.947  1.00  0.00     0.001 A 
ATOM     23  C   UNL A   1      33.730  28.448  26.073  1.00  0.00     0.004 A 
ENDBRANCH  12  15
ENDBRANCH   9  11
ENDBRANCH   8   9
ENDBRANCH   5   8
ENDBRANCH   3   4
ENDBRANCH   2   3
ENDBRANCH   1   2
BRANCH   1  24
ATOM     24  C   UNL A   1      37.799  21.395  24.821  1.00  0.00     0.002 C 
BRANCH  24  25
ATOM     25  C   UNL A   1      38.352  19.967  24.909  1.00  0.00     0.021 C 
BRANCH  25  26
ATOM     26  C   UNL A   1      39.137  19.637  26.177  1.00  0.00     0.116 C 
BRANCH  26  27
ATOM     27  N   UNL A   1      40.410  19.000  25.886  1.00  0.00    -0.352 N 
ATOM     28  C   UNL A   1      41.678  19.525  25.894  1.00  0.00     0.251 C 
ATOM     29  H   UNL A   1      40.356  18.047  25.648  1.00  0.00     0.163 HD
ATOM     30  O   UNL A   1      42.615  18.873  25.442  1.00  0.00    -0.269 OA
BRANCH  28  31
ATOM     31  C   UNL A   1      41.925  20.883  26.428  1.00  0.00     0.039 A 
ATOM     32  C   UNL A   1      41.832  21.088  27.808  1.00  0.00     0.014 A 
ATOM     33  C   UNL A   1      42.201  21.958  25.579  1.00  0.00     0.014 A 
ATOM     34  C   UNL A   1      42.060  22.359  28.341  1.00  0.00     0.010 A 
ATOM     35  C   UNL A   1      42.486  23.214  26.115  1.00  0.00     0.010 A 
ATOM     36  C   UNL A   1      42.410  23.427  27.500  1.00  0.00    -0.014 A 
BRANCH  36  37
ATOM     37  C   UNL A   1      42.678  24.780  28.051  1.00  0.00     0.031 A 
ATOM     38  C   UNL A   1      44.066  25.154  28.492  1.00  0.00     0.074 A 
ATOM     39  C   UNL A   1      41.665  25.655  28.206  1.00  0.00     0.049 A 
ATOM     40  N   UNL A   1      44.486  26.257  29.058  1.00  0.00    -0.248 NA
ATOM     41  C   UNL A   1      45.117  24.145  28.289  1.00  0.00     0.031 C 
ATOM     42  C   UNL A   1      40.268  25.403  27.848  1.00  0.00     0.029 A 
ATOM     43  N   UNL A   1      41.655  26.930  28.712  1.00  0.00    -0.354 N 
ATOM     44  C   UNL A   1      45.843  26.068  29.295  1.00  0.00     0.074 A 
ATOM     45  C   UNL A   1      46.165  24.730  28.850  1.00  0.00     0.031 C 
ATOM     46  C   UNL A   1      39.540  26.495  28.131  1.00  0.00     0.029 A 
ATOM     47  C   UNL A   1      40.411  27.510  28.716  1.00  0.00     0.049 A 
ATOM     48  H   UNL A   1      42.463  27.385  29.042  1.00  0.00     0.167 HD
ATOM     49  C   UNL A   1      46.742  26.936  29.816  1.00  0.00     0.037 A 
ATOM     50  C   UNL A   1      40.017  28.723  29.146  1.00  0.00     0.037 A 
ATOM     51  C   UNL A   1      46.427  28.276  30.236  1.00  0.00     0.049 A 
ATOM     52  C   UNL A   1      41.033  29.670  29.720  1.00  0.00     0.074 A 
ATOM     53  C   UNL A   1      47.277  29.248  30.735  1.00  0.00     0.029 A 
ATOM     54  N   UNL A   1      45.157  28.835  30.204  1.00  0.00    -0.354 N 
ATOM     55  N   UNL A   1      42.321  29.497  29.892  1.00  0.00    -0.248 NA
ATOM     56  C   UNL A   1      40.541  30.986  30.156  1.00  0.00     0.031 C 
ATOM     57  C   UNL A   1      46.518  30.384  31.033  1.00  0.00     0.029 A 
ATOM     58  C   UNL A   1      45.201  30.134  30.684  1.00  0.00     0.049 A 
ATOM     59  H   UNL A   1      44.346  28.376  29.887  1.00  0.00     0.167 HD
ATOM     60  C   UNL A   1      42.798  30.687  30.423  1.00  0.00     0.074 A 
ATOM     61  C   UNL A   1      41.662  31.579  30.541  1.00  0.00     0.031 C 
ATOM     62  C   UNL A   1      44.063  31.013  30.781  1.00  0.00     0.037 A 
BRANCH  49  63
ATOM     63  C   UNL A   1      48.156  26.458  29.959  1.00  0.00     0.057 A 
ATOM     64  C   UNL A   1      48.595  25.791  31.110  1.00  0.00     0.134 A 
ATOM     65  C   UNL A   1      49.084  26.648  28.927  1.00  0.00     0.134 A 
ATOM     66  F   UNL A   1      47.759  25.588  32.139  1.00  0.00    -0.206 F 
ATOM     67  C   UNL A   1      49.915  25.355  31.242  1.00  0.00     0.040 A 
ATOM     68  C   UNL A   1      50.400  26.194  29.038  1.00  0.00     0.040 A 
ATOM     69  F   UNL A   1      48.727  27.272  27.795  1.00  0.00    -0.206 F 
ATOM     70  C   UNL A   1      50.820  25.552  30.201  1.00  0.00     0.006 A 
ENDBRANCH  49  63
BRANCH  50  71
ATOM     71  C   UNL A   1      38.595  29.128  29.020  1.00  0.00     0.057 A 
ATOM     72  C   UNL A   1      38.082  29.580  27.799  1.00  0.00     0.134 A 
ATOM     73  C   UNL A   1      37.718  29.075  30.110  1.00  0.00     0.134 A 
ATOM     74  F   UNL A   1      38.881  29.671  26.725  1.00  0.00    -0.206 F 
ATOM     75  C   UNL A   1      36.752  29.981  27.668  1.00  0.00     0.040 A 
ATOM     76  C   UNL A   1      36.379  29.452  29.988  1.00  0.00     0.040 A 
ATOM     77  F   UNL A   1      38.147  28.644  31.305  1.00  0.00    -0.206 F 
ATOM     78  C   UNL A   1      35.895  29.913  28.765  1.00  0.00     0.006 A 
ENDBRANCH  50  71
BRANCH  62  79
ATOM     79  C   UNL A   1      44.296  32.403  31.292  1.00  0.00     0.057 A 
ATOM     80  C   UNL A   1      44.587  33.468  30.431  1.00  0.00     0.134 A 
ATOM     81  C   UNL A   1      44.191  32.684  32.660  1.00  0.00     0.134 A 
ATOM     82  F   UNL A   1      44.714  33.260  29.112  1.00  0.00    -0.206 F 
ATOM     83  C   UNL A   1      44.786  34.762  30.915  1.00  0.00     0.040 A 
ATOM     84  C   UNL A   1      44.365  33.977  33.153  1.00  0.00     0.040 A 
ATOM     85  F   UNL A   1      43.907  31.709  33.537  1.00  0.00    -0.206 F 
ATOM     86  C   UNL A   1      44.669  35.020  32.281  1.00  0.00     0.006 A 
ENDBRANCH  62  79
ENDBRANCH  36  37
ENDBRANCH  28  31
ENDBRANCH  26  27
ENDBRANCH  25  26
ENDBRANCH  24  25
ENDBRANCH   1  24
TORSDOF 16
ENDMDL
MODEL 2
REMARK VINA RESULT:     -10.4      3.747      7.181
REMARK SMILES C[C@H](CC(=O)NCCCCCCNC(=O)c1ccc(-c2c3nc(c(-c4c(F)cccc4F)c4ccc([nH]4)c(-c4c(F)cccc4F)c4nc(c(-c5c(F)cccc5F)c5ccc2[nH]5)C=C4)C=C3)cc1)NC(=O)[C@H]1Cc2ccccc2O1
REMARK SMILES IDX 9 1 8 2 7 3 6 4 4 5 5 6 3 8 2 9 1 10 70 11 71 12 72 14 73 15
REMARK SMILES IDX 74 16 81 17 75 18 80 19 76 20 79 21 77 22 78 23 10 24 11 25
REMARK SMILES IDX 12 26 13 27 14 28 15 30 16 31 17 32 69 33 18 34 68 35 19 36
REMARK SMILES IDX 20 37 21 38 62 39 22 40 67 41 61 42 63 43 23 44 66 45 60 46
REMARK SMILES IDX 59 47 24 49 50 50 33 51 49 52 34 53 37 54 48 55 64 56 35 57
REMARK SMILES IDX 36 58 47 60 65 61 38 62 25 63 26 64 31 65 27 66 28 67 30 68
REMARK SMILES IDX 32 69 29 70 51 71 52 72 57 73 53 74 54 75 56 76 58 77 55 78
REMARK SMILES IDX 39 79 40 80 45 81 41 82 42 83 44 84 46 85 43 86
REMARK H PARENT 6 7 70 13 13 29 63 48 37 59
REMARK Flexibility Score: inf
ROOT
ATOM      1  C   UNL A   1      42.226  19.394  26.020  1.00  0.00     0.002 C 
ENDROOT
BRANCH   1   2
ATOM      2  C   UNL A   1      43.342  18.365  25.839  1.00  0.00     0.021 C 
BRANCH   2   3
ATOM      3  C   UNL A   1      44.582  18.865  25.098  1.00  0.00     0.116 C 
BRANCH   3   4
ATOM      4  N   UNL A   1      44.280  20.034  24.291  1.00  0.00    -0.356 N 
ATOM      5  C   UNL A   1      44.611  21.344  24.475  1.00  0.00     0.222 C 
ATOM      6  O   UNL A   1      44.208  22.166  23.650  1.00  0.00    -0.275 OA
ATOM      7  H   UNL A   1      43.750  19.852  23.482  1.00  0.00     0.163 HD
BRANCH   5   8
ATOM      8  C   UNL A   1      45.449  21.785  25.664  1.00  0.00     0.124 C 
BRANCH   8   9
ATOM      9  C   UNL A   1      45.133  23.204  26.170  1.00  0.00     0.088 C 
ATOM     10  C   UNL A   1      45.363  23.354  27.674  1.00  0.00     0.031 C 
BRANCH   9  11
ATOM     11  N   UNL A   1      45.905  24.203  25.443  1.00  0.00    -0.350 N 
ATOM     12  C   UNL A   1      45.939  25.556  25.426  1.00  0.00     0.261 C 
ATOM     13  H   UNL A   1      46.552  23.801  24.819  1.00  0.00     0.163 HD
ATOM     14  O   UNL A   1      46.579  26.050  24.484  1.00  0.00    -0.271 OA
BRANCH  12  15
ATOM     15  C   UNL A   1      45.387  26.499  26.489  1.00  0.00     0.266 C 
ATOM     16  C   UNL A   1      46.139  27.696  27.076  1.00  0.00     0.095 C 
ATOM     17  O   UNL A   1      44.128  26.939  25.912  1.00  0.00    -0.480 OA
ATOM     18  C   UNL A   1      45.039  28.695  27.090  1.00  0.00    -0.002 A 
ATOM     19  C   UNL A   1      43.943  28.189  26.414  1.00  0.00     0.123 A 
ATOM     20  C   UNL A   1      44.988  29.962  27.644  1.00  0.00     0.008 A 
ATOM     21  C   UNL A   1      42.768  28.896  26.259  1.00  0.00     0.047 A 
ATOM     22  C   UNL A   1      43.805  30.699  27.505  1.00  0.00     0.001 A 
ATOM     23  C   UNL A   1      42.701  30.168  26.817  1.00  0.00     0.004 A 
ENDBRANCH  12  15
ENDBRANCH   9  11
ENDBRANCH   8   9
ENDBRANCH   5   8
ENDBRANCH   3   4
ENDBRANCH   2   3
ENDBRANCH   1   2
BRANCH   1  24
ATOM     24  C   UNL A   1      42.055  19.921  27.448  1.00  0.00     0.002 C 
BRANCH  24  25
ATOM     25  C   UNL A   1      41.551  21.364  27.576  1.00  0.00     0.021 C 
BRANCH  25  26
ATOM     26  C   UNL A   1      41.438  22.145  26.267  1.00  0.00     0.116 C 
BRANCH  26  27
ATOM     27  N   UNL A   1      40.064  22.242  25.803  1.00  0.00    -0.352 N 
ATOM     28  C   UNL A   1      39.104  23.179  26.091  1.00  0.00     0.251 C 
ATOM     29  H   UNL A   1      39.779  21.530  25.188  1.00  0.00     0.163 HD
ATOM     30  O   UNL A   1      37.941  22.993  25.745  1.00  0.00    -0.269 OA
BRANCH  28  31
ATOM     31  C   UNL A   1      39.454  24.410  26.835  1.00  0.00     0.039 A 
ATOM     32  C   UNL A   1      39.054  24.523  28.170  1.00  0.00     0.014 A 
ATOM     33  C   UNL A   1      40.130  25.465  26.216  1.00  0.00     0.014 A 
ATOM     34  C   UNL A   1      39.372  25.673  28.898  1.00  0.00     0.010 A 
ATOM     35  C   UNL A   1      40.497  26.587  26.958  1.00  0.00     0.010 A 
ATOM     36  C   UNL A   1      40.114  26.705  28.303  1.00  0.00    -0.014 A 
BRANCH  36  37
ATOM     37  C   UNL A   1      40.480  27.925  29.067  1.00  0.00     0.031 A 
ATOM     38  C   UNL A   1      41.833  28.034  29.713  1.00  0.00     0.074 A 
ATOM     39  C   UNL A   1      39.577  28.913  29.226  1.00  0.00     0.049 A 
ATOM     40  N   UNL A   1      42.313  28.985  30.474  1.00  0.00    -0.248 NA
ATOM     41  C   UNL A   1      42.762  26.915  29.490  1.00  0.00     0.031 C 
ATOM     42  C   UNL A   1      38.219  28.915  28.679  1.00  0.00     0.029 A 
ATOM     43  N   UNL A   1      39.665  30.103  29.904  1.00  0.00    -0.354 N 
ATOM     44  C   UNL A   1      43.590  28.571  30.835  1.00  0.00     0.074 A 
ATOM     45  C   UNL A   1      43.792  27.266  30.245  1.00  0.00     0.031 C 
ATOM     46  C   UNL A   1      37.608  30.058  29.028  1.00  0.00     0.029 A 
ATOM     47  C   UNL A   1      38.517  30.854  29.848  1.00  0.00     0.049 A 
ATOM     48  H   UNL A   1      40.474  30.390  30.385  1.00  0.00     0.167 HD
ATOM     49  C   UNL A   1      44.517  29.227  31.574  1.00  0.00     0.037 A 
ATOM     50  C   UNL A   1      38.230  32.049  30.397  1.00  0.00     0.037 A 
ATOM     51  C   UNL A   1      44.325  30.536  32.141  1.00  0.00     0.049 A 
ATOM     52  C   UNL A   1      39.275  32.758  31.212  1.00  0.00     0.074 A 
ATOM     53  C   UNL A   1      45.220  31.302  32.867  1.00  0.00     0.029 A 
ATOM     54  N   UNL A   1      43.154  31.274  32.043  1.00  0.00    -0.354 N 
ATOM     55  N   UNL A   1      40.495  32.378  31.504  1.00  0.00    -0.248 NA
ATOM     56  C   UNL A   1      38.904  34.067  31.770  1.00  0.00     0.031 C 
ATOM     57  C   UNL A   1      44.581  32.492  33.233  1.00  0.00     0.029 A 
ATOM     58  C   UNL A   1      43.302  32.482  32.704  1.00  0.00     0.049 A 
ATOM     59  H   UNL A   1      42.340  30.981  31.573  1.00  0.00     0.167 HD
ATOM     60  C   UNL A   1      41.047  33.410  32.250  1.00  0.00     0.074 A 
ATOM     61  C   UNL A   1      40.031  34.436  32.362  1.00  0.00     0.031 C 
ATOM     62  C   UNL A   1      42.285  33.499  32.793  1.00  0.00     0.037 A 
BRANCH  49  63
ATOM     63  C   UNL A   1      45.825  28.532  31.809  1.00  0.00     0.057 A 
ATOM     64  C   UNL A   1      46.950  28.793  31.014  1.00  0.00     0.134 A 
ATOM     65  C   UNL A   1      45.970  27.608  32.851  1.00  0.00     0.134 A 
ATOM     66  F   UNL A   1      46.874  29.658  29.992  1.00  0.00    -0.206 F 
ATOM     67  C   UNL A   1      48.163  28.137  31.230  1.00  0.00     0.040 A 
ATOM     68  C   UNL A   1      47.186  26.965  33.092  1.00  0.00     0.040 A 
ATOM     69  F   UNL A   1      44.935  27.318  33.653  1.00  0.00    -0.206 F 
ATOM     70  C   UNL A   1      48.284  27.224  32.275  1.00  0.00     0.006 A 
ENDBRANCH  49  63
BRANCH  50  71
ATOM     71  C   UNL A   1      36.903  32.669  30.167  1.00  0.00     0.057 A 
ATOM     72  C   UNL A   1      35.820  32.379  31.005  1.00  0.00     0.134 A 
ATOM     73  C   UNL A   1      36.682  33.561  29.111  1.00  0.00     0.134 A 
ATOM     74  F   UNL A   1      35.966  31.516  32.022  1.00  0.00    -0.206 F 
ATOM     75  C   UNL A   1      34.560  32.941  30.793  1.00  0.00     0.040 A 
ATOM     76  C   UNL A   1      35.433  34.146  28.900  1.00  0.00     0.040 A 
ATOM     77  F   UNL A   1      37.682  33.884  28.277  1.00  0.00    -0.206 F 
ATOM     78  C   UNL A   1      34.366  33.831  29.738  1.00  0.00     0.006 A 
ENDBRANCH  50  71
BRANCH  62  79
ATOM     79  C   UNL A   1      42.626  34.767  33.519  1.00  0.00     0.057 A 
ATOM     80  C   UNL A   1      42.437  34.902  34.899  1.00  0.00     0.134 A 
ATOM     81  C   UNL A   1      43.182  35.852  32.829  1.00  0.00     0.134 A 
ATOM     82  F   UNL A   1      41.895  33.903  35.612  1.00  0.00    -0.206 F 
ATOM     83  C   UNL A   1      42.773  36.081  35.567  1.00  0.00     0.040 A 
ATOM     84  C   UNL A   1      43.542  37.027  33.490  1.00  0.00     0.040 A 
ATOM     85  F   UNL A   1      43.395  35.783  31.507  1.00  0.00    -0.206 F 
ATOM     86  C   UNL A   1      43.333  37.145  34.862  1.00  0.00     0.006 A 
ENDBRANCH  62  79
ENDBRANCH  36  37
ENDBRANCH  28  31
ENDBRANCH  26  27
ENDBRANCH  25  26
ENDBRANCH  24  25
ENDBRANCH   1  24
TORSDOF 16
ENDMDL
MODEL 3
REMARK VINA RESULT:     -10.4      2.676      7.808
REMARK SMILES C[C@H](CC(=O)NCCCCCCNC(=O)c1ccc(-c2c3nc(c(-c4c(F)cccc4F)c4ccc([nH]4)c(-c4c(F)cccc4F)c4nc(c(-c5c(F)cccc5F)c5ccc2[nH]5)C=C4)C=C3)cc1)NC(=O)[C@H]1Cc2ccccc2O1
REMARK SMILES IDX 9 1 8 2 7 3 6 4 4 5 5 6 3 8 2 9 1 10 70 11 71 12 72 14 73 15
REMARK SMILES IDX 74 16 81 17 75 18 80 19 76 20 79 21 77 22 78 23 10 24 11 25
REMARK SMILES IDX 12 26 13 27 14 28 15 30 16 31 17 32 69 33 18 34 68 35 19 36
REMARK SMILES IDX 20 37 21 38 62 39 22 40 67 41 61 42 63 43 23 44 66 45 60 46
REMARK SMILES IDX 59 47 24 49 50 50 33 51 49 52 34 53 37 54 48 55 64 56 35 57
REMARK SMILES IDX 36 58 47 60 65 61 38 62 25 63 26 64 31 65 27 66 28 67 30 68
REMARK SMILES IDX 32 69 29 70 51 71 52 72 57 73 53 74 54 75 56 76 58 77 55 78
REMARK SMILES IDX 39 79 40 80 45 81 41 82 42 83 44 84 46 85 43 86
REMARK H PARENT 6 7 70 13 13 29 63 48 37 59
REMARK Flexibility Score: inf
ROOT
ATOM      1  C   UNL A   1      31.170  27.642  25.238  1.00  0.00     0.002 C 
ENDROOT
BRANCH   1   2
ATOM      2  C   UNL A   1      30.409  26.317  25.281  1.00  0.00     0.021 C 
BRANCH   2   3
ATOM      3  C   UNL A   1      31.259  25.064  25.078  1.00  0.00     0.116 C 
BRANCH   3   4
ATOM      4  N   UNL A   1      31.662  24.489  26.350  1.00  0.00    -0.356 N 
ATOM      5  C   UNL A   1      31.850  23.188  26.710  1.00  0.00     0.222 C 
ATOM      6  O   UNL A   1      32.173  22.948  27.876  1.00  0.00    -0.275 OA
ATOM      7  H   UNL A   1      31.825  25.143  27.066  1.00  0.00     0.163 HD
BRANCH   5   8
ATOM      8  C   UNL A   1      31.663  22.057  25.711  1.00  0.00     0.124 C 
BRANCH   8   9
ATOM      9  C   UNL A   1      32.961  21.599  25.022  1.00  0.00     0.088 C 
ATOM     10  C   UNL A   1      33.109  20.077  25.006  1.00  0.00     0.031 C 
BRANCH   9  11
ATOM     11  N   UNL A   1      33.050  22.126  23.667  1.00  0.00    -0.350 N 
ATOM     12  C   UNL A   1      33.875  22.991  23.032  1.00  0.00     0.261 C 
ATOM     13  H   UNL A   1      32.346  21.771  23.076  1.00  0.00     0.163 HD
ATOM     14  O   UNL A   1      33.476  23.370  21.919  1.00  0.00    -0.271 OA
BRANCH  12  15
ATOM     15  C   UNL A   1      35.263  23.432  23.483  1.00  0.00     0.266 C 
ATOM     16  C   UNL A   1      35.551  24.320  24.695  1.00  0.00     0.095 C 
ATOM     17  O   UNL A   1      35.979  22.173  23.609  1.00  0.00    -0.480 OA
ATOM     18  C   UNL A   1      36.724  23.600  25.255  1.00  0.00    -0.002 A 
ATOM     19  C   UNL A   1      36.896  22.401  24.586  1.00  0.00     0.123 A 
ATOM     20  C   UNL A   1      37.584  23.952  26.280  1.00  0.00     0.008 A 
ATOM     21  C   UNL A   1      37.907  21.513  24.891  1.00  0.00     0.047 A 
ATOM     22  C   UNL A   1      38.623  23.070  26.606  1.00  0.00     0.001 A 
ATOM     23  C   UNL A   1      38.784  21.858  25.915  1.00  0.00     0.004 A 
ENDBRANCH  12  15
ENDBRANCH   9  11
ENDBRANCH   8   9
ENDBRANCH   5   8
ENDBRANCH   3   4
ENDBRANCH   2   3
ENDBRANCH   1   2
BRANCH   1  24
ATOM     24  C   UNL A   1      31.678  28.143  26.594  1.00  0.00     0.002 C 
BRANCH  24  25
ATOM     25  C   UNL A   1      33.184  27.995  26.844  1.00  0.00     0.021 C 
BRANCH  25  26
ATOM     26  C   UNL A   1      34.073  29.042  26.175  1.00  0.00     0.116 C 
BRANCH  26  27
ATOM     27  N   UNL A   1      33.889  30.365  26.746  1.00  0.00    -0.352 N 
ATOM     28  C   UNL A   1      34.588  30.996  27.745  1.00  0.00     0.251 C 
ATOM     29  H   UNL A   1      33.153  30.890  26.357  1.00  0.00     0.163 HD
ATOM     30  O   UNL A   1      34.168  32.049  28.216  1.00  0.00    -0.269 OA
BRANCH  28  31
ATOM     31  C   UNL A   1      35.839  30.408  28.273  1.00  0.00     0.039 A 
ATOM     32  C   UNL A   1      37.029  30.620  27.570  1.00  0.00     0.014 A 
ATOM     33  C   UNL A   1      35.839  29.614  29.423  1.00  0.00     0.014 A 
ATOM     34  C   UNL A   1      38.225  30.078  28.045  1.00  0.00     0.010 A 
ATOM     35  C   UNL A   1      37.041  29.122  29.929  1.00  0.00     0.010 A 
ATOM     36  C   UNL A   1      38.244  29.341  29.241  1.00  0.00    -0.014 A 
BRANCH  36  37
ATOM     37  C   UNL A   1      39.510  28.775  29.772  1.00  0.00     0.031 A 
ATOM     38  C   UNL A   1      40.162  29.389  30.980  1.00  0.00     0.074 A 
ATOM     39  C   UNL A   1      40.103  27.745  29.138  1.00  0.00     0.049 A 
ATOM     40  N   UNL A   1      41.298  29.082  31.554  1.00  0.00    -0.248 NA
ATOM     41  C   UNL A   1      39.450  30.509  31.616  1.00  0.00     0.031 C 
ATOM     42  C   UNL A   1      39.590  27.083  27.938  1.00  0.00     0.029 A 
ATOM     43  N   UNL A   1      41.272  27.081  29.413  1.00  0.00    -0.354 N 
ATOM     44  C   UNL A   1      41.447  29.981  32.603  1.00  0.00     0.074 A 
ATOM     45  C   UNL A   1      40.306  30.870  32.561  1.00  0.00     0.031 C 
ATOM     46  C   UNL A   1      40.432  26.096  27.589  1.00  0.00     0.029 A 
ATOM     47  C   UNL A   1      41.556  26.076  28.521  1.00  0.00     0.049 A 
ATOM     48  H   UNL A   1      41.851  27.304  30.176  1.00  0.00     0.167 HD
ATOM     49  C   UNL A   1      42.433  30.047  33.529  1.00  0.00     0.037 A 
ATOM     50  C   UNL A   1      42.605  25.235  28.461  1.00  0.00     0.037 A 
ATOM     51  C   UNL A   1      43.555  29.148  33.587  1.00  0.00     0.049 A 
ATOM     52  C   UNL A   1      43.687  25.328  29.501  1.00  0.00     0.074 A 
ATOM     53  C   UNL A   1      44.582  29.106  34.513  1.00  0.00     0.029 A 
ATOM     54  N   UNL A   1      43.795  28.128  32.677  1.00  0.00    -0.354 N 
ATOM     55  N   UNL A   1      43.790  26.150  30.516  1.00  0.00    -0.248 NA
ATOM     56  C   UNL A   1      44.797  24.370  29.389  1.00  0.00     0.031 C 
ATOM     57  C   UNL A   1      45.460  28.080  34.148  1.00  0.00     0.029 A 
ATOM     58  C   UNL A   1      44.960  27.459  33.016  1.00  0.00     0.049 A 
ATOM     59  H   UNL A   1      43.223  27.913  31.906  1.00  0.00     0.167 HD
ATOM     60  C   UNL A   1      44.954  25.790  31.182  1.00  0.00     0.074 A 
ATOM     61  C   UNL A   1      45.521  24.671  30.458  1.00  0.00     0.031 C 
ATOM     62  C   UNL A   1      45.503  26.337  32.292  1.00  0.00     0.037 A 
BRANCH  49  63
ATOM     63  C   UNL A   1      42.336  31.134  34.559  1.00  0.00     0.057 A 
ATOM     64  C   UNL A   1      41.672  30.937  35.777  1.00  0.00     0.134 A 
ATOM     65  C   UNL A   1      42.928  32.384  34.339  1.00  0.00     0.134 A 
ATOM     66  F   UNL A   1      41.074  29.766  36.043  1.00  0.00    -0.206 F 
ATOM     67  C   UNL A   1      41.577  31.954  36.729  1.00  0.00     0.040 A 
ATOM     68  C   UNL A   1      42.860  33.400  35.295  1.00  0.00     0.040 A 
ATOM     69  F   UNL A   1      43.584  32.637  33.197  1.00  0.00    -0.206 F 
ATOM     70  C   UNL A   1      42.176  33.188  36.490  1.00  0.00     0.006 A 
ENDBRANCH  49  63
BRANCH  50  71
ATOM     71  C   UNL A   1      42.670  24.207  27.394  1.00  0.00     0.057 A 
ATOM     72  C   UNL A   1      43.177  24.518  26.127  1.00  0.00     0.134 A 
ATOM     73  C   UNL A   1      42.228  22.897  27.610  1.00  0.00     0.134 A 
ATOM     74  F   UNL A   1      43.598  25.763  25.857  1.00  0.00    -0.206 F 
ATOM     75  C   UNL A   1      43.230  23.567  25.107  1.00  0.00     0.040 A 
ATOM     76  C   UNL A   1      42.294  21.930  26.605  1.00  0.00     0.040 A 
ATOM     77  F   UNL A   1      41.737  22.535  28.804  1.00  0.00    -0.206 F 
ATOM     78  C   UNL A   1      42.790  22.267  25.347  1.00  0.00     0.006 A 
ENDBRANCH  50  71
BRANCH  62  79
ATOM     79  C   UNL A   1      46.757  25.707  32.819  1.00  0.00     0.057 A 
ATOM     80  C   UNL A   1      48.026  26.107  32.384  1.00  0.00     0.134 A 
ATOM     81  C   UNL A   1      46.692  24.710  33.801  1.00  0.00     0.134 A 
ATOM     82  F   UNL A   1      48.153  27.048  31.435  1.00  0.00    -0.206 F 
ATOM     83  C   UNL A   1      49.188  25.525  32.892  1.00  0.00     0.040 A 
ATOM     84  C   UNL A   1      47.847  24.135  34.333  1.00  0.00     0.040 A 
ATOM     85  F   UNL A   1      45.507  24.286  34.265  1.00  0.00    -0.206 F 
ATOM     86  C   UNL A   1      49.100  24.539  33.875  1.00  0.00     0.006 A 
ENDBRANCH  62  79
ENDBRANCH  36  37
ENDBRANCH  28  31
ENDBRANCH  26  27
ENDBRANCH  25  26
ENDBRANCH  24  25
ENDBRANCH   1  24
TORSDOF 16
ENDMDL
