MODEL 1
REMARK VINA RESULT:     -12.7      0.000      0.000
REMARK SMILES Cc1c(-c2nn(-c3ccccc3)cc2/C=N/O)nnn1-c1ccc(C(=O)NCCCCCCNC(=O)c2ccc(-c3c4nc(c(-c5c(F)cccc5F)c5ccc([nH]5)c(-c5c(F)cccc5F)c5nc(c(-c6c(F)cccc6F)c6ccc3[nH]6)C=C5)C=C4)cc2)cc1
REMARK SMILES IDX 29 1 28 2 27 3 25 4 26 5 24 7 21 8 22 9 92 10 23 11 91 12
REMARK SMILES IDX 20 13 1 14 2 15 3 16 18 17 19 18 4 19 5 20 14 21 6 22 13 23
REMARK SMILES IDX 15 24 16 25 17 26 7 28 8 29 12 30 9 31 11 32 10 33 30 34
REMARK SMILES IDX 31 35 32 36 33 37 34 38 35 39 36 41 37 42 38 43 90 44 39 45
REMARK SMILES IDX 89 46 40 47 41 48 42 49 83 50 43 51 88 52 82 53 84 54 44 55
REMARK SMILES IDX 87 56 81 57 80 58 45 60 71 61 54 62 70 63 55 64 58 65 69 66
REMARK SMILES IDX 85 67 56 68 57 69 68 71 86 72 59 73 46 74 47 75 52 76 48 77
REMARK SMILES IDX 49 78 51 79 53 80 50 81 72 82 73 83 78 84 74 85 75 86 77 87
REMARK SMILES IDX 79 88 76 89 60 90 61 91 66 92 62 93 63 94 65 95 67 96 64 97
REMARK H PARENT 27 6 17 27 34 40 84 59 58 70
REMARK Flexibility Score: inf
ROOT
ATOM      1  C   UNL A   1      31.332  30.436  25.065  1.00  0.00     0.021 C 
ENDROOT
BRANCH   1   2
ATOM      2  C   UNL A   1      30.102  31.283  24.729  1.00  0.00     0.116 C 
BRANCH   2   3
ATOM      3  N   UNL A   1      29.539  30.863  23.461  1.00  0.00    -0.352 N 
ATOM      4  C   UNL A   1      29.706  29.761  22.664  1.00  0.00     0.251 C 
ATOM      5  O   UNL A   1      29.075  29.743  21.606  1.00  0.00    -0.269 OA
ATOM      6  H   UNL A   1      28.897  31.512  23.092  1.00  0.00     0.163 HD
BRANCH   4   7
ATOM      7  C   UNL A   1      30.535  28.575  23.028  1.00  0.00     0.039 A 
ATOM      8  C   UNL A   1      31.957  26.349  23.984  1.00  0.00     0.067 A 
ATOM      9  C   UNL A   1      30.582  26.426  24.198  1.00  0.00     0.029 A 
ATOM     10  C   UNL A   1      32.609  27.322  23.219  1.00  0.00     0.029 A 
ATOM     11  C   UNL A   1      29.888  27.556  23.753  1.00  0.00     0.016 A 
ATOM     12  C   UNL A   1      31.881  28.398  22.697  1.00  0.00     0.016 A 
BRANCH   8  13
ATOM     13  N   UNL A   1      32.685  25.263  24.510  1.00  0.00    -0.217 N 
ATOM     14  C   UNL A   1      33.550  24.150  22.387  1.00  0.00     0.069 C 
ATOM     15  C   UNL A   1      33.261  24.203  23.839  1.00  0.00     0.071 A 
ATOM     16  C   UNL A   1      33.591  23.333  24.858  1.00  0.00     0.137 A 
ATOM     17  N   UNL A   1      33.348  23.910  26.069  1.00  0.00    -0.128 NA
ATOM     18  N   UNL A   1      32.869  25.130  25.844  1.00  0.00    -0.061 NA
BRANCH  16  19
ATOM     19  C   UNL A   1      34.191  22.010  24.741  1.00  0.00     0.124 A 
ATOM     20  N   UNL A   1      33.452  20.898  24.648  1.00  0.00    -0.165 NA
ATOM     21  C   UNL A   1      35.578  21.738  24.800  1.00  0.00     0.044 A 
ATOM     22  N   UNL A   1      34.347  19.893  24.761  1.00  0.00    -0.240 N 
ATOM     23  C   UNL A   1      35.637  20.359  24.870  1.00  0.00     0.125 A 
BRANCH  21  24
ATOM     24  C   UNL A   1      36.725  22.610  24.803  1.00  0.00     0.166 C 
ATOM     25  N   UNL A   1      37.324  22.893  25.911  1.00  0.00    -0.097 NA
BRANCH  25  26
ATOM     26  O   UNL A   1      38.369  23.791  25.658  1.00  0.00    -0.411 OA
ATOM     27  H   UNL A   1      38.178  24.675  25.416  1.00  0.00     0.330 HD
ENDBRANCH  25  26
ENDBRANCH  21  24
BRANCH  22  28
ATOM     28  C   UNL A   1      33.925  18.546  24.789  1.00  0.00     0.065 A 
ATOM     29  C   UNL A   1      32.900  18.168  25.665  1.00  0.00     0.028 A 
ATOM     30  C   UNL A   1      34.531  17.599  23.955  1.00  0.00     0.028 A 
ATOM     31  C   UNL A   1      32.456  16.847  25.678  1.00  0.00     0.002 A 
ATOM     32  C   UNL A   1      34.119  16.266  24.019  1.00  0.00     0.002 A 
ATOM     33  C   UNL A   1      33.074  15.895  24.865  1.00  0.00     0.000 A 
ENDBRANCH  22  28
ENDBRANCH  16  19
ENDBRANCH   8  13
ENDBRANCH   4   7
ENDBRANCH   2   3
ENDBRANCH   1   2
BRANCH   1  34
ATOM     34  C   UNL A   1      31.537  30.227  26.573  1.00  0.00     0.002 C 
BRANCH  34  35
ATOM     35  C   UNL A   1      32.438  29.043  26.961  1.00  0.00     0.002 C 
BRANCH  35  36
ATOM     36  C   UNL A   1      33.825  29.017  26.302  1.00  0.00     0.021 C 
BRANCH  36  37
ATOM     37  C   UNL A   1      34.959  28.803  27.294  1.00  0.00     0.116 C 
BRANCH  37  38
ATOM     38  N   UNL A   1      35.171  29.981  28.132  1.00  0.00    -0.352 N 
ATOM     39  C   UNL A   1      36.237  30.256  28.956  1.00  0.00     0.251 C 
ATOM     40  H   UNL A   1      34.463  30.664  28.103  1.00  0.00     0.163 HD
ATOM     41  O   UNL A   1      36.144  31.079  29.864  1.00  0.00    -0.269 OA
BRANCH  39  42
ATOM     42  C   UNL A   1      37.499  29.539  28.736  1.00  0.00     0.039 A 
ATOM     43  C   UNL A   1      38.296  29.826  27.626  1.00  0.00     0.014 A 
ATOM     44  C   UNL A   1      37.897  28.603  29.689  1.00  0.00     0.014 A 
ATOM     45  C   UNL A   1      39.547  29.228  27.523  1.00  0.00     0.010 A 
ATOM     46  C   UNL A   1      39.174  28.096  29.643  1.00  0.00     0.010 A 
ATOM     47  C   UNL A   1      39.995  28.382  28.550  1.00  0.00    -0.014 A 
BRANCH  47  48
ATOM     48  C   UNL A   1      41.390  27.936  28.573  1.00  0.00     0.031 A 
ATOM     49  C   UNL A   1      41.649  26.679  27.809  1.00  0.00     0.074 A 
ATOM     50  C   UNL A   1      42.398  28.727  29.004  1.00  0.00     0.049 A 
ATOM     51  N   UNL A   1      42.144  25.566  28.242  1.00  0.00    -0.248 NA
ATOM     52  C   UNL A   1      41.200  26.616  26.406  1.00  0.00     0.031 C 
ATOM     53  C   UNL A   1      42.291  30.118  29.464  1.00  0.00     0.029 A 
ATOM     54  N   UNL A   1      43.746  28.519  28.988  1.00  0.00    -0.354 N 
ATOM     55  C   UNL A   1      42.270  24.740  27.123  1.00  0.00     0.074 A 
ATOM     56  C   UNL A   1      41.516  25.363  26.071  1.00  0.00     0.031 C 
ATOM     57  C   UNL A   1      43.508  30.700  29.427  1.00  0.00     0.029 A 
ATOM     58  C   UNL A   1      44.496  29.683  29.121  1.00  0.00     0.049 A 
ATOM     59  H   UNL A   1      44.152  27.626  28.891  1.00  0.00     0.167 HD
ATOM     60  C   UNL A   1      43.222  23.767  27.077  1.00  0.00     0.037 A 
ATOM     61  C   UNL A   1      45.833  29.822  28.970  1.00  0.00     0.037 A 
ATOM     62  C   UNL A   1      43.750  23.509  28.391  1.00  0.00     0.049 A 
ATOM     63  C   UNL A   1      46.446  28.485  29.113  1.00  0.00     0.074 A 
ATOM     64  C   UNL A   1      43.313  22.925  29.557  1.00  0.00     0.029 A 
ATOM     65  N   UNL A   1      44.857  24.254  28.695  1.00  0.00    -0.354 N 
ATOM     66  N   UNL A   1      46.463  27.813  30.229  1.00  0.00    -0.248 NA
ATOM     67  C   UNL A   1      46.775  27.720  27.917  1.00  0.00     0.031 C 
ATOM     68  C   UNL A   1      44.055  23.548  30.606  1.00  0.00     0.029 A 
ATOM     69  C   UNL A   1      44.943  24.464  30.042  1.00  0.00     0.049 A 
ATOM     70  H   UNL A   1      45.503  24.592  28.034  1.00  0.00     0.167 HD
ATOM     71  C   UNL A   1      46.362  26.494  29.834  1.00  0.00     0.074 A 
ATOM     72  C   UNL A   1      46.754  26.487  28.430  1.00  0.00     0.031 C 
ATOM     73  C   UNL A   1      45.659  25.597  30.584  1.00  0.00     0.037 A 
BRANCH  60  74
ATOM     74  C   UNL A   1      44.054  23.427  25.849  1.00  0.00     0.057 A 
ATOM     75  C   UNL A   1      44.176  22.072  25.469  1.00  0.00     0.134 A 
ATOM     76  C   UNL A   1      44.999  24.290  25.258  1.00  0.00     0.134 A 
ATOM     77  F   UNL A   1      43.343  21.143  25.960  1.00  0.00    -0.206 F 
ATOM     78  C   UNL A   1      45.216  21.606  24.653  1.00  0.00     0.040 A 
ATOM     79  C   UNL A   1      46.011  23.841  24.403  1.00  0.00     0.040 A 
ATOM     80  F   UNL A   1      45.067  25.593  25.552  1.00  0.00    -0.206 F 
ATOM     81  C   UNL A   1      46.146  22.491  24.127  1.00  0.00     0.006 A 
ENDBRANCH  60  74
BRANCH  61  82
ATOM     82  C   UNL A   1      46.607  31.000  28.518  1.00  0.00     0.057 A 
ATOM     83  C   UNL A   1      47.653  31.523  29.291  1.00  0.00     0.134 A 
ATOM     84  C   UNL A   1      46.516  31.473  27.198  1.00  0.00     0.134 A 
ATOM     85  F   UNL A   1      47.840  31.109  30.553  1.00  0.00    -0.206 F 
ATOM     86  C   UNL A   1      48.577  32.438  28.772  1.00  0.00     0.040 A 
ATOM     87  C   UNL A   1      47.428  32.391  26.668  1.00  0.00     0.040 A 
ATOM     88  F   UNL A   1      45.593  30.989  26.354  1.00  0.00    -0.206 F 
ATOM     89  C   UNL A   1      48.474  32.865  27.450  1.00  0.00     0.006 A 
ENDBRANCH  61  82
BRANCH  73  90
ATOM     90  C   UNL A   1      45.454  25.921  32.031  1.00  0.00     0.057 A 
ATOM     91  C   UNL A   1      46.409  25.724  33.038  1.00  0.00     0.134 A 
ATOM     92  C   UNL A   1      44.259  26.547  32.402  1.00  0.00     0.134 A 
ATOM     93  F   UNL A   1      47.613  25.209  32.762  1.00  0.00    -0.206 F 
ATOM     94  C   UNL A   1      46.164  26.096  34.363  1.00  0.00     0.040 A 
ATOM     95  C   UNL A   1      44.016  26.956  33.712  1.00  0.00     0.040 A 
ATOM     96  F   UNL A   1      43.318  26.807  31.479  1.00  0.00    -0.206 F 
ATOM     97  C   UNL A   1      44.967  26.720  34.702  1.00  0.00     0.006 A 
ENDBRANCH  73  90
ENDBRANCH  47  48
ENDBRANCH  39  42
ENDBRANCH  37  38
ENDBRANCH  36  37
ENDBRANCH  35  36
ENDBRANCH  34  35
ENDBRANCH   1  34
TORSDOF 18
ENDMDL
MODEL 2
REMARK VINA RESULT:     -12.1      1.720      2.503
REMARK SMILES Cc1c(-c2nn(-c3ccccc3)cc2/C=N/O)nnn1-c1ccc(C(=O)NCCCCCCNC(=O)c2ccc(-c3c4nc(c(-c5c(F)cccc5F)c5ccc([nH]5)c(-c5c(F)cccc5F)c5nc(c(-c6c(F)cccc6F)c6ccc3[nH]6)C=C5)C=C4)cc2)cc1
REMARK SMILES IDX 29 1 28 2 27 3 25 4 26 5 24 7 21 8 22 9 92 10 23 11 91 12
REMARK SMILES IDX 20 13 1 14 2 15 3 16 18 17 19 18 4 19 5 20 14 21 6 22 13 23
REMARK SMILES IDX 15 24 16 25 17 26 7 28 8 29 12 30 9 31 11 32 10 33 30 34
REMARK SMILES IDX 31 35 32 36 33 37 34 38 35 39 36 41 37 42 38 43 90 44 39 45
REMARK SMILES IDX 89 46 40 47 41 48 42 49 83 50 43 51 88 52 82 53 84 54 44 55
REMARK SMILES IDX 87 56 81 57 80 58 45 60 71 61 54 62 70 63 55 64 58 65 69 66
REMARK SMILES IDX 85 67 56 68 57 69 68 71 86 72 59 73 46 74 47 75 52 76 48 77
REMARK SMILES IDX 49 78 51 79 53 80 50 81 72 82 73 83 78 84 74 85 75 86 77 87
REMARK SMILES IDX 79 88 76 89 60 90 61 91 66 92 62 93 63 94 65 95 67 96 64 97
REMARK H PARENT 27 6 17 27 34 40 84 59 58 70
REMARK Flexibility Score: inf
ROOT
ATOM      1  C   UNL A   1      31.204  30.333  24.991  1.00  0.00     0.021 C 
ENDROOT
BRANCH   1   2
ATOM      2  C   UNL A   1      30.086  31.367  24.828  1.00  0.00     0.116 C 
BRANCH   2   3
ATOM      3  N   UNL A   1      29.451  31.212  23.534  1.00  0.00    -0.352 N 
ATOM      4  C   UNL A   1      29.580  30.307  22.513  1.00  0.00     0.251 C 
ATOM      5  O   UNL A   1      28.886  30.499  21.512  1.00  0.00    -0.269 OA
ATOM      6  H   UNL A   1      28.782  31.909  23.348  1.00  0.00     0.163 HD
BRANCH   4   7
ATOM      7  C   UNL A   1      30.442  29.090  22.567  1.00  0.00     0.039 A 
ATOM      8  C   UNL A   1      31.908  26.720  22.921  1.00  0.00     0.067 A 
ATOM      9  C   UNL A   1      30.520  26.691  23.043  1.00  0.00     0.029 A 
ATOM     10  C   UNL A   1      32.558  27.896  22.533  1.00  0.00     0.029 A 
ATOM     11  C   UNL A   1      29.801  27.883  22.904  1.00  0.00     0.016 A 
ATOM     12  C   UNL A   1      31.813  29.059  22.302  1.00  0.00     0.016 A 
BRANCH   8  13
ATOM     13  N   UNL A   1      32.653  25.547  23.153  1.00  0.00    -0.217 N 
ATOM     14  C   UNL A   1      32.422  25.285  25.678  1.00  0.00     0.069 C 
ATOM     15  C   UNL A   1      33.022  24.982  24.357  1.00  0.00     0.071 A 
ATOM     16  C   UNL A   1      33.944  24.027  23.982  1.00  0.00     0.137 A 
ATOM     17  N   UNL A   1      34.009  23.941  22.623  1.00  0.00    -0.128 NA
ATOM     18  N   UNL A   1      33.149  24.822  22.123  1.00  0.00    -0.061 NA
BRANCH  16  19
ATOM     19  C   UNL A   1      34.714  23.142  24.848  1.00  0.00     0.124 A 
ATOM     20  N   UNL A   1      36.049  23.082  24.799  1.00  0.00    -0.165 NA
ATOM     21  C   UNL A   1      34.160  22.204  25.752  1.00  0.00     0.044 A 
ATOM     22  N   UNL A   1      36.365  22.029  25.584  1.00  0.00    -0.240 N 
ATOM     23  C   UNL A   1      35.252  21.464  26.163  1.00  0.00     0.125 A 
BRANCH  21  24
ATOM     24  C   UNL A   1      32.805  21.986  26.193  1.00  0.00     0.166 C 
ATOM     25  N   UNL A   1      31.888  21.669  25.341  1.00  0.00    -0.097 NA
BRANCH  25  26
ATOM     26  O   UNL A   1      30.658  21.561  26.002  1.00  0.00    -0.411 OA
ATOM     27  H   UNL A   1      30.268  20.719  26.131  1.00  0.00     0.330 HD
ENDBRANCH  25  26
ENDBRANCH  21  24
BRANCH  22  28
ATOM     28  C   UNL A   1      37.703  21.600  25.718  1.00  0.00     0.065 A 
ATOM     29  C   UNL A   1      38.048  20.302  25.323  1.00  0.00     0.028 A 
ATOM     30  C   UNL A   1      38.671  22.461  26.248  1.00  0.00     0.028 A 
ATOM     31  C   UNL A   1      39.372  19.879  25.423  1.00  0.00     0.002 A 
ATOM     32  C   UNL A   1      39.983  22.007  26.400  1.00  0.00     0.002 A 
ATOM     33  C   UNL A   1      40.336  20.726  25.974  1.00  0.00     0.000 A 
ENDBRANCH  22  28
ENDBRANCH  16  19
ENDBRANCH   8  13
ENDBRANCH   4   7
ENDBRANCH   2   3
ENDBRANCH   1   2
BRANCH   1  34
ATOM     34  C   UNL A   1      31.771  30.269  26.418  1.00  0.00     0.002 C 
BRANCH  34  35
ATOM     35  C   UNL A   1      32.477  28.954  26.790  1.00  0.00     0.002 C 
BRANCH  35  36
ATOM     36  C   UNL A   1      33.780  28.660  26.033  1.00  0.00     0.021 C 
BRANCH  36  37
ATOM     37  C   UNL A   1      35.012  28.673  26.927  1.00  0.00     0.116 C 
BRANCH  37  38
ATOM     38  N   UNL A   1      35.280  30.008  27.456  1.00  0.00    -0.352 N 
ATOM     39  C   UNL A   1      36.382  30.439  28.157  1.00  0.00     0.251 C 
ATOM     40  H   UNL A   1      34.585  30.685  27.289  1.00  0.00     0.163 HD
ATOM     41  O   UNL A   1      36.341  31.455  28.847  1.00  0.00    -0.269 OA
BRANCH  39  42
ATOM     42  C   UNL A   1      37.619  29.653  28.072  1.00  0.00     0.039 A 
ATOM     43  C   UNL A   1      38.454  29.760  26.957  1.00  0.00     0.014 A 
ATOM     44  C   UNL A   1      37.957  28.840  29.152  1.00  0.00     0.014 A 
ATOM     45  C   UNL A   1      39.684  29.109  26.973  1.00  0.00     0.010 A 
ATOM     46  C   UNL A   1      39.214  28.286  29.211  1.00  0.00     0.010 A 
ATOM     47  C   UNL A   1      40.072  28.393  28.116  1.00  0.00    -0.014 A 
BRANCH  47  48
ATOM     48  C   UNL A   1      41.447  27.904  28.240  1.00  0.00     0.031 A 
ATOM     49  C   UNL A   1      41.711  26.616  27.531  1.00  0.00     0.074 A 
ATOM     50  C   UNL A   1      42.452  28.676  28.709  1.00  0.00     0.049 A 
ATOM     51  N   UNL A   1      42.141  25.503  28.026  1.00  0.00    -0.248 NA
ATOM     52  C   UNL A   1      41.348  26.524  26.104  1.00  0.00     0.031 C 
ATOM     53  C   UNL A   1      42.364  30.084  29.120  1.00  0.00     0.029 A 
ATOM     54  N   UNL A   1      43.791  28.426  28.785  1.00  0.00    -0.354 N 
ATOM     55  C   UNL A   1      42.308  24.639  26.942  1.00  0.00     0.074 A 
ATOM     56  C   UNL A   1      41.642  25.251  25.827  1.00  0.00     0.031 C 
ATOM     57  C   UNL A   1      43.599  30.626  29.143  1.00  0.00     0.029 A 
ATOM     58  C   UNL A   1      44.570  29.569  28.930  1.00  0.00     0.049 A 
ATOM     59  H   UNL A   1      44.172  27.518  28.740  1.00  0.00     0.167 HD
ATOM     60  C   UNL A   1      43.229  23.635  26.984  1.00  0.00     0.037 A 
ATOM     61  C   UNL A   1      45.918  29.662  28.859  1.00  0.00     0.037 A 
ATOM     62  C   UNL A   1      43.665  23.402  28.336  1.00  0.00     0.049 A 
ATOM     63  C   UNL A   1      46.475  28.311  29.080  1.00  0.00     0.074 A 
ATOM     64  C   UNL A   1      43.138  22.869  29.489  1.00  0.00     0.029 A 
ATOM     65  N   UNL A   1      44.775  24.121  28.688  1.00  0.00    -0.354 N 
ATOM     66  N   UNL A   1      46.401  27.674  30.214  1.00  0.00    -0.248 NA
ATOM     67  C   UNL A   1      46.852  27.499  27.930  1.00  0.00     0.031 C 
ATOM     68  C   UNL A   1      43.833  23.500  30.563  1.00  0.00     0.029 A 
ATOM     69  C   UNL A   1      44.784  24.370  30.030  1.00  0.00     0.049 A 
ATOM     70  H   UNL A   1      45.472  24.418  28.058  1.00  0.00     0.167 HD
ATOM     71  C   UNL A   1      46.280  26.347  29.852  1.00  0.00     0.074 A 
ATOM     72  C   UNL A   1      46.759  26.284  28.477  1.00  0.00     0.031 C 
ATOM     73  C   UNL A   1      45.503  25.497  30.583  1.00  0.00     0.037 A 
BRANCH  60  74
ATOM     74  C   UNL A   1      44.122  23.230  25.821  1.00  0.00     0.057 A 
ATOM     75  C   UNL A   1      44.325  21.856  25.571  1.00  0.00     0.134 A 
ATOM     76  C   UNL A   1      45.047  24.086  25.188  1.00  0.00     0.134 A 
ATOM     77  F   UNL A   1      43.519  20.932  26.115  1.00  0.00    -0.206 F 
ATOM     78  C   UNL A   1      45.417  21.373  24.836  1.00  0.00     0.040 A 
ATOM     79  C   UNL A   1      46.112  23.615  24.412  1.00  0.00     0.040 A 
ATOM     80  F   UNL A   1      45.040  25.411  25.364  1.00  0.00    -0.206 F 
ATOM     81  C   UNL A   1      46.323  22.255  24.264  1.00  0.00     0.006 A 
ENDBRANCH  60  74
BRANCH  61  82
ATOM     82  C   UNL A   1      46.757  30.800  28.423  1.00  0.00     0.057 A 
ATOM     83  C   UNL A   1      46.842  31.165  27.073  1.00  0.00     0.134 A 
ATOM     84  C   UNL A   1      47.279  31.720  29.348  1.00  0.00     0.134 A 
ATOM     85  F   UNL A   1      46.342  30.366  26.118  1.00  0.00    -0.206 F 
ATOM     86  C   UNL A   1      47.384  32.390  26.666  1.00  0.00     0.040 A 
ATOM     87  C   UNL A   1      47.829  32.944  28.956  1.00  0.00     0.040 A 
ATOM     88  F   UNL A   1      47.189  31.499  30.668  1.00  0.00    -0.206 F 
ATOM     89  C   UNL A   1      47.868  33.291  27.610  1.00  0.00     0.006 A 
ENDBRANCH  61  82
BRANCH  73  90
ATOM     90  C   UNL A   1      45.220  25.872  32.004  1.00  0.00     0.057 A 
ATOM     91  C   UNL A   1      46.082  25.631  33.082  1.00  0.00     0.134 A 
ATOM     92  C   UNL A   1      44.052  26.595  32.273  1.00  0.00     0.134 A 
ATOM     93  F   UNL A   1      47.260  25.020  32.906  1.00  0.00    -0.206 F 
ATOM     94  C   UNL A   1      45.772  26.054  34.378  1.00  0.00     0.040 A 
ATOM     95  C   UNL A   1      43.748  27.054  33.553  1.00  0.00     0.040 A 
ATOM     96  F   UNL A   1      43.203  26.900  31.278  1.00  0.00    -0.206 F 
ATOM     97  C   UNL A   1      44.604  26.773  34.615  1.00  0.00     0.006 A 
ENDBRANCH  73  90
ENDBRANCH  47  48
ENDBRANCH  39  42
ENDBRANCH  37  38
ENDBRANCH  36  37
ENDBRANCH  35  36
ENDBRANCH  34  35
ENDBRANCH   1  34
TORSDOF 18
ENDMDL
MODEL 3
REMARK VINA RESULT:     -11.6      5.000     11.152
REMARK SMILES Cc1c(-c2nn(-c3ccccc3)cc2/C=N/O)nnn1-c1ccc(C(=O)NCCCCCCNC(=O)c2ccc(-c3c4nc(c(-c5c(F)cccc5F)c5ccc([nH]5)c(-c5c(F)cccc5F)c5nc(c(-c6c(F)cccc6F)c6ccc3[nH]6)C=C5)C=C4)cc2)cc1
REMARK SMILES IDX 29 1 28 2 27 3 25 4 26 5 24 7 21 8 22 9 92 10 23 11 91 12
REMARK SMILES IDX 20 13 1 14 2 15 3 16 18 17 19 18 4 19 5 20 14 21 6 22 13 23
REMARK SMILES IDX 15 24 16 25 17 26 7 28 8 29 12 30 9 31 11 32 10 33 30 34
REMARK SMILES IDX 31 35 32 36 33 37 34 38 35 39 36 41 37 42 38 43 90 44 39 45
REMARK SMILES IDX 89 46 40 47 41 48 42 49 83 50 43 51 88 52 82 53 84 54 44 55
REMARK SMILES IDX 87 56 81 57 80 58 45 60 71 61 54 62 70 63 55 64 58 65 69 66
REMARK SMILES IDX 85 67 56 68 57 69 68 71 86 72 59 73 46 74 47 75 52 76 48 77
REMARK SMILES IDX 49 78 51 79 53 80 50 81 72 82 73 83 78 84 74 85 75 86 77 87
REMARK SMILES IDX 79 88 76 89 60 90 61 91 66 92 62 93 63 94 65 95 67 96 64 97
REMARK H PARENT 27 6 17 27 34 40 84 59 58 70
REMARK Flexibility Score: inf
ROOT
ATOM      1  C   UNL A   1      45.153  31.561  28.694  1.00  0.00     0.021 C 
ENDROOT
BRANCH   1   2
ATOM      2  C   UNL A   1      45.726  30.162  28.450  1.00  0.00     0.116 C 
BRANCH   2   3
ATOM      3  N   UNL A   1      46.329  29.653  29.667  1.00  0.00    -0.352 N 
ATOM      4  C   UNL A   1      46.120  28.541  30.440  1.00  0.00     0.251 C 
ATOM      5  O   UNL A   1      46.811  28.435  31.455  1.00  0.00    -0.269 OA
ATOM      6  H   UNL A   1      47.044  30.234  30.013  1.00  0.00     0.163 HD
BRANCH   4   7
ATOM      7  C   UNL A   1      45.174  27.439  30.095  1.00  0.00     0.039 A 
ATOM      8  C   UNL A   1      43.578  25.304  29.210  1.00  0.00     0.067 A 
ATOM      9  C   UNL A   1      44.960  25.143  29.276  1.00  0.00     0.029 A 
ATOM     10  C   UNL A   1      42.981  26.483  29.669  1.00  0.00     0.029 A 
ATOM     11  C   UNL A   1      45.751  26.224  29.680  1.00  0.00     0.016 A 
ATOM     12  C   UNL A   1      43.780  27.520  30.163  1.00  0.00     0.016 A 
BRANCH   8  13
ATOM     13  N   UNL A   1      42.777  24.256  28.714  1.00  0.00    -0.217 N 
ATOM     14  C   UNL A   1      42.146  25.141  26.408  1.00  0.00     0.069 C 
ATOM     15  C   UNL A   1      42.017  24.221  27.562  1.00  0.00     0.071 A 
ATOM     16  C   UNL A   1      41.256  23.082  27.728  1.00  0.00     0.137 A 
ATOM     17  N   UNL A   1      41.647  22.411  28.848  1.00  0.00    -0.128 NA
ATOM     18  N   UNL A   1      42.640  23.099  29.402  1.00  0.00    -0.061 NA
BRANCH  16  19
ATOM     19  C   UNL A   1      40.225  22.561  26.837  1.00  0.00     0.124 A 
ATOM     20  N   UNL A   1      39.203  23.314  26.414  1.00  0.00    -0.165 NA
ATOM     21  C   UNL A   1      40.130  21.219  26.399  1.00  0.00     0.044 A 
ATOM     22  N   UNL A   1      38.380  22.440  25.795  1.00  0.00    -0.240 N 
ATOM     23  C   UNL A   1      38.897  21.165  25.779  1.00  0.00     0.125 A 
BRANCH  21  24
ATOM     24  C   UNL A   1      41.036  20.105  26.527  1.00  0.00     0.166 C 
ATOM     25  N   UNL A   1      41.057  19.179  25.626  1.00  0.00    -0.097 NA
BRANCH  25  26
ATOM     26  O   UNL A   1      41.977  18.192  25.999  1.00  0.00    -0.411 OA
ATOM     27  H   UNL A   1      42.092  17.432  25.463  1.00  0.00     0.330 HD
ENDBRANCH  25  26
ENDBRANCH  21  24
BRANCH  22  28
ATOM     28  C   UNL A   1      37.135  22.859  25.278  1.00  0.00     0.065 A 
ATOM     29  C   UNL A   1      36.465  23.927  25.887  1.00  0.00     0.028 A 
ATOM     30  C   UNL A   1      36.574  22.207  24.173  1.00  0.00     0.028 A 
ATOM     31  C   UNL A   1      35.249  24.366  25.366  1.00  0.00     0.002 A 
ATOM     32  C   UNL A   1      35.328  22.618  23.695  1.00  0.00     0.002 A 
ATOM     33  C   UNL A   1      34.675  23.704  24.279  1.00  0.00     0.000 A 
ENDBRANCH  22  28
ENDBRANCH  16  19
ENDBRANCH   8  13
ENDBRANCH   4   7
ENDBRANCH   2   3
ENDBRANCH   1   2
BRANCH   1  34
ATOM     34  C   UNL A   1      43.876  31.846  27.888  1.00  0.00     0.002 C 
BRANCH  34  35
ATOM     35  C   UNL A   1      44.085  32.100  26.386  1.00  0.00     0.002 C 
BRANCH  35  36
ATOM     36  C   UNL A   1      45.094  33.203  26.031  1.00  0.00     0.021 C 
BRANCH  36  37
ATOM     37  C   UNL A   1      44.440  34.463  25.483  1.00  0.00     0.116 C 
BRANCH  37  38
ATOM     38  N   UNL A   1      45.160  35.666  25.894  1.00  0.00    -0.352 N 
ATOM     39  C   UNL A   1      44.835  36.550  26.896  1.00  0.00     0.251 C 
ATOM     40  H   UNL A   1      45.981  35.870  25.390  1.00  0.00     0.163 HD
ATOM     41  O   UNL A   1      45.298  37.688  26.916  1.00  0.00    -0.269 OA
BRANCH  39  42
ATOM     42  C   UNL A   1      43.913  36.109  27.950  1.00  0.00     0.039 A 
ATOM     43  C   UNL A   1      42.542  36.355  27.845  1.00  0.00     0.014 A 
ATOM     44  C   UNL A   1      44.439  35.400  29.028  1.00  0.00     0.014 A 
ATOM     45  C   UNL A   1      41.685  35.804  28.791  1.00  0.00     0.010 A 
ATOM     46  C   UNL A   1      43.584  34.767  29.900  1.00  0.00     0.010 A 
ATOM     47  C   UNL A   1      42.209  34.986  29.804  1.00  0.00    -0.014 A 
BRANCH  47  48
ATOM     48  C   UNL A   1      41.306  34.213  30.660  1.00  0.00     0.031 A 
ATOM     49  C   UNL A   1      41.781  34.043  32.066  1.00  0.00     0.074 A 
ATOM     50  C   UNL A   1      40.037  33.920  30.298  1.00  0.00     0.049 A 
ATOM     51  N   UNL A   1      42.004  32.945  32.709  1.00  0.00    -0.248 NA
ATOM     52  C   UNL A   1      42.158  35.253  32.820  1.00  0.00     0.031 C 
ATOM     53  C   UNL A   1      39.354  34.336  29.065  1.00  0.00     0.029 A 
ATOM     54  N   UNL A   1      39.037  33.319  31.006  1.00  0.00    -0.354 N 
ATOM     55  C   UNL A   1      42.340  33.323  34.010  1.00  0.00     0.074 A 
ATOM     56  C   UNL A   1      42.593  34.736  33.971  1.00  0.00     0.031 C 
ATOM     57  C   UNL A   1      38.020  34.214  29.225  1.00  0.00     0.029 A 
ATOM     58  C   UNL A   1      37.766  33.546  30.488  1.00  0.00     0.049 A 
ATOM     59  H   UNL A   1      39.200  32.775  31.811  1.00  0.00     0.167 HD
ATOM     60  C   UNL A   1      42.097  32.493  35.063  1.00  0.00     0.037 A 
ATOM     61  C   UNL A   1      36.578  33.235  31.056  1.00  0.00     0.037 A 
ATOM     62  C   UNL A   1      41.832  31.154  34.605  1.00  0.00     0.049 A 
ATOM     63  C   UNL A   1      36.824  32.196  32.078  1.00  0.00     0.074 A 
ATOM     64  C   UNL A   1      42.545  30.119  34.047  1.00  0.00     0.029 A 
ATOM     65  N   UNL A   1      40.505  30.896  34.395  1.00  0.00    -0.354 N 
ATOM     66  N   UNL A   1      37.211  30.983  31.799  1.00  0.00    -0.248 NA
ATOM     67  C   UNL A   1      36.957  32.589  33.475  1.00  0.00     0.031 C 
ATOM     68  C   UNL A   1      41.604  29.364  33.284  1.00  0.00     0.029 A 
ATOM     69  C   UNL A   1      40.344  29.943  33.431  1.00  0.00     0.049 A 
ATOM     70  H   UNL A   1      39.767  31.338  34.874  1.00  0.00     0.167 HD
ATOM     71  C   UNL A   1      38.027  30.634  32.857  1.00  0.00     0.074 A 
ATOM     72  C   UNL A   1      37.676  31.559  33.928  1.00  0.00     0.031 C 
ATOM     73  C   UNL A   1      39.127  29.853  32.655  1.00  0.00     0.037 A 
BRANCH  60  74
ATOM     74  C   UNL A   1      41.575  32.944  36.419  1.00  0.00     0.057 A 
ATOM     75  C   UNL A   1      42.288  32.568  37.578  1.00  0.00     0.134 A 
ATOM     76  C   UNL A   1      40.263  33.401  36.659  1.00  0.00     0.134 A 
ATOM     77  F   UNL A   1      43.547  32.111  37.493  1.00  0.00    -0.206 F 
ATOM     78  C   UNL A   1      41.706  32.552  38.853  1.00  0.00     0.040 A 
ATOM     79  C   UNL A   1      39.689  33.435  37.935  1.00  0.00     0.040 A 
ATOM     80  F   UNL A   1      39.426  33.740  35.672  1.00  0.00    -0.206 F 
ATOM     81  C   UNL A   1      40.397  32.974  39.032  1.00  0.00     0.006 A 
ENDBRANCH  60  74
BRANCH  61  82
ATOM     82  C   UNL A   1      35.268  33.907  30.915  1.00  0.00     0.057 A 
ATOM     83  C   UNL A   1      34.885  34.944  31.777  1.00  0.00     0.134 A 
ATOM     84  C   UNL A   1      34.477  33.733  29.767  1.00  0.00     0.134 A 
ATOM     85  F   UNL A   1      35.598  35.208  32.882  1.00  0.00    -0.206 F 
ATOM     86  C   UNL A   1      33.799  35.782  31.498  1.00  0.00     0.040 A 
ATOM     87  C   UNL A   1      33.385  34.558  29.478  1.00  0.00     0.040 A 
ATOM     88  F   UNL A   1      34.793  32.813  28.843  1.00  0.00    -0.206 F 
ATOM     89  C   UNL A   1      33.052  35.599  30.337  1.00  0.00     0.006 A 
ENDBRANCH  61  82
BRANCH  73  90
ATOM     90  C   UNL A   1      39.144  28.991  31.432  1.00  0.00     0.057 A 
ATOM     91  C   UNL A   1      39.654  29.379  30.186  1.00  0.00     0.134 A 
ATOM     92  C   UNL A   1      38.703  27.668  31.554  1.00  0.00     0.134 A 
ATOM     93  F   UNL A   1      40.173  30.598  29.997  1.00  0.00    -0.206 F 
ATOM     94  C   UNL A   1      39.681  28.501  29.099  1.00  0.00     0.040 A 
ATOM     95  C   UNL A   1      38.759  26.771  30.489  1.00  0.00     0.040 A 
ATOM     96  F   UNL A   1      38.245  27.215  32.733  1.00  0.00    -0.206 F 
ATOM     97  C   UNL A   1      39.238  27.190  29.250  1.00  0.00     0.006 A 
ENDBRANCH  73  90
ENDBRANCH  47  48
ENDBRANCH  39  42
ENDBRANCH  37  38
ENDBRANCH  36  37
ENDBRANCH  35  36
ENDBRANCH  34  35
ENDBRANCH   1  34
TORSDOF 18
ENDMDL
