MODEL 1
REMARK VINA RESULT:     -11.3      0.000      0.000
REMARK SMILES Cc1ccc(F)c(-c2ncccc2C(=O)NCCCCCCNC(=O)c2ccc(-c3c4nc(c(-c5c(F)cccc5F)c5ccc([nH]5)c(-c5c(F)cccc5F)c5nc(c(-c6c(F)cccc6F)c6ccc3[nH]6)C=C5)C=C4)cc2)c1
REMARK SMILES IDX 20 1 19 2 18 3 17 4 16 5 14 6 15 7 13 9 8 10 9 11 10 12
REMARK SMILES IDX 12 13 11 14 7 15 1 16 2 17 3 18 80 19 4 20 5 21 6 22 21 23
REMARK SMILES IDX 22 24 23 25 24 26 25 28 26 29 27 30 79 31 28 32 78 33 29 34
REMARK SMILES IDX 30 35 31 36 72 37 32 38 77 39 71 40 73 41 33 42 76 43 70 44
REMARK SMILES IDX 69 45 34 47 60 48 43 49 59 50 44 51 47 52 58 53 74 54 45 55
REMARK SMILES IDX 46 56 57 58 75 59 48 60 35 61 36 62 41 63 37 64 38 65 40 66
REMARK SMILES IDX 42 67 39 68 61 69 62 70 67 71 63 72 64 73 66 74 68 75 65 76
REMARK SMILES IDX 49 77 50 78 55 79 51 80 52 81 54 82 56 83 53 84
REMARK H PARENT 16 8 23 27 73 46 47 57
REMARK Flexibility Score: inf
ROOT
ATOM      1  C   UNL A   1      36.031  20.238  25.205  1.00  0.00     0.002 C 
ENDROOT
BRANCH   1   2
ATOM      2  C   UNL A   1      34.801  19.402  24.825  1.00  0.00     0.002 C 
BRANCH   2   3
ATOM      3  C   UNL A   1      33.652  20.186  24.169  1.00  0.00     0.021 C 
BRANCH   3   4
ATOM      4  C   UNL A   1      32.444  20.376  25.084  1.00  0.00     0.116 C 
BRANCH   4   5
ATOM      5  N   UNL A   1      32.836  21.030  26.314  1.00  0.00    -0.352 N 
ATOM      6  C   UNL A   1      32.805  22.291  26.842  1.00  0.00     0.253 C 
ATOM      7  O   UNL A   1      33.276  22.335  27.981  1.00  0.00    -0.269 OA
ATOM      8  H   UNL A   1      33.236  20.389  26.945  1.00  0.00     0.163 HD
BRANCH   6   9
ATOM      9  C   UNL A   1      32.235  23.523  26.198  1.00  0.00     0.066 A 
ATOM     10  C   UNL A   1      33.031  24.313  25.338  1.00  0.00     0.086 A 
ATOM     11  N   UNL A   1      32.613  25.515  24.831  1.00  0.00    -0.255 NA
ATOM     12  C   UNL A   1      31.388  25.956  25.157  1.00  0.00     0.112 A 
ATOM     13  C   UNL A   1      30.932  23.989  26.417  1.00  0.00     0.018 A 
ATOM     14  C   UNL A   1      30.509  25.223  25.920  1.00  0.00     0.021 A 
BRANCH  10  15
ATOM     15  C   UNL A   1      34.340  23.922  24.796  1.00  0.00     0.037 A 
ATOM     16  C   UNL A   1      38.007  23.926  25.884  1.00  0.00     0.044 C 
ATOM     17  C   UNL A   1      36.770  23.712  25.063  1.00  0.00    -0.050 A 
ATOM     18  C   UNL A   1      36.866  23.234  23.752  1.00  0.00     0.006 A 
ATOM     19  C   UNL A   1      35.505  24.020  25.585  1.00  0.00     0.016 A 
ATOM     20  C   UNL A   1      35.720  23.092  22.970  1.00  0.00     0.040 A 
ATOM     21  C   UNL A   1      34.475  23.442  23.490  1.00  0.00     0.132 A 
ATOM     22  F   UNL A   1      33.400  23.330  22.693  1.00  0.00    -0.206 F 
ENDBRANCH  10  15
ENDBRANCH   6   9
ENDBRANCH   4   5
ENDBRANCH   3   4
ENDBRANCH   2   3
ENDBRANCH   1   2
BRANCH   1  23
ATOM     23  C   UNL A   1      37.374  19.655  24.761  1.00  0.00     0.021 C 
BRANCH  23  24
ATOM     24  C   UNL A   1      38.585  20.298  25.425  1.00  0.00     0.116 C 
BRANCH  24  25
ATOM     25  N   UNL A   1      39.658  19.341  25.634  1.00  0.00    -0.352 N 
ATOM     26  C   UNL A   1      40.949  19.564  26.041  1.00  0.00     0.251 C 
ATOM     27  H   UNL A   1      39.425  18.400  25.459  1.00  0.00     0.163 HD
ATOM     28  O   UNL A   1      41.788  18.673  25.959  1.00  0.00    -0.269 OA
BRANCH  26  29
ATOM     29  C   UNL A   1      41.330  20.891  26.569  1.00  0.00     0.039 A 
ATOM     30  C   UNL A   1      41.233  21.128  27.942  1.00  0.00     0.014 A 
ATOM     31  C   UNL A   1      41.765  21.902  25.707  1.00  0.00     0.014 A 
ATOM     32  C   UNL A   1      41.617  22.366  28.458  1.00  0.00     0.010 A 
ATOM     33  C   UNL A   1      42.215  23.110  26.231  1.00  0.00     0.010 A 
ATOM     34  C   UNL A   1      42.136  23.358  27.609  1.00  0.00    -0.014 A 
BRANCH  34  35
ATOM     35  C   UNL A   1      42.580  24.672  28.139  1.00  0.00     0.031 A 
ATOM     36  C   UNL A   1      41.574  25.764  28.375  1.00  0.00     0.074 A 
ATOM     37  C   UNL A   1      43.890  24.900  28.349  1.00  0.00     0.049 A 
ATOM     38  N   UNL A   1      41.769  27.001  28.753  1.00  0.00    -0.248 NA
ATOM     39  C   UNL A   1      40.162  25.428  28.126  1.00  0.00     0.031 C 
ATOM     40  C   UNL A   1      44.966  23.933  28.122  1.00  0.00     0.029 A 
ATOM     41  N   UNL A   1      44.541  26.024  28.791  1.00  0.00    -0.354 N 
ATOM     42  C   UNL A   1      40.513  27.593  28.774  1.00  0.00     0.074 A 
ATOM     43  C   UNL A   1      39.569  26.596  28.318  1.00  0.00     0.031 C 
ATOM     44  C   UNL A   1      46.140  24.499  28.446  1.00  0.00     0.029 A 
ATOM     45  C   UNL A   1      45.905  25.877  28.865  1.00  0.00     0.049 A 
ATOM     46  H   UNL A   1      44.075  26.857  29.031  1.00  0.00     0.167 HD
ATOM     47  C   UNL A   1      40.172  28.845  29.160  1.00  0.00     0.037 A 
ATOM     48  C   UNL A   1      46.858  26.757  29.226  1.00  0.00     0.037 A 
ATOM     49  C   UNL A   1      41.111  29.826  29.638  1.00  0.00     0.049 A 
ATOM     50  C   UNL A   1      46.455  28.146  29.640  1.00  0.00     0.074 A 
ATOM     51  C   UNL A   1      40.861  31.106  30.100  1.00  0.00     0.029 A 
ATOM     52  N   UNL A   1      42.482  29.633  29.715  1.00  0.00    -0.354 N 
ATOM     53  N   UNL A   1      45.257  28.674  29.708  1.00  0.00    -0.248 NA
ATOM     54  C   UNL A   1      47.537  29.060  30.033  1.00  0.00     0.031 C 
ATOM     55  C   UNL A   1      42.086  31.702  30.419  1.00  0.00     0.029 A 
ATOM     56  C   UNL A   1      43.094  30.776  30.201  1.00  0.00     0.049 A 
ATOM     57  H   UNL A   1      42.952  28.805  29.463  1.00  0.00     0.167 HD
ATOM     58  C   UNL A   1      45.437  29.968  30.181  1.00  0.00     0.074 A 
ATOM     59  C   UNL A   1      46.860  30.140  30.393  1.00  0.00     0.031 C 
ATOM     60  C   UNL A   1      44.510  30.926  30.420  1.00  0.00     0.037 A 
BRANCH  47  61
ATOM     61  C   UNL A   1      38.722  29.222  29.086  1.00  0.00     0.057 A 
ATOM     62  C   UNL A   1      38.132  29.659  27.893  1.00  0.00     0.134 A 
ATOM     63  C   UNL A   1      37.896  29.119  30.214  1.00  0.00     0.134 A 
ATOM     64  F   UNL A   1      38.869  29.792  26.780  1.00  0.00    -0.206 F 
ATOM     65  C   UNL A   1      36.782  30.006  27.828  1.00  0.00     0.040 A 
ATOM     66  C   UNL A   1      36.538  29.435  30.154  1.00  0.00     0.040 A 
ATOM     67  F   UNL A   1      38.394  28.702  31.388  1.00  0.00    -0.206 F 
ATOM     68  C   UNL A   1      35.978  29.887  28.961  1.00  0.00     0.006 A 
ENDBRANCH  47  61
BRANCH  48  69
ATOM     69  C   UNL A   1      48.285  26.349  29.235  1.00  0.00     0.057 A 
ATOM     70  C   UNL A   1      49.079  26.480  28.091  1.00  0.00     0.134 A 
ATOM     71  C   UNL A   1      48.886  25.809  30.379  1.00  0.00     0.134 A 
ATOM     72  F   UNL A   1      48.555  26.975  26.959  1.00  0.00    -0.206 F 
ATOM     73  C   UNL A   1      50.413  26.070  28.074  1.00  0.00     0.040 A 
ATOM     74  C   UNL A   1      50.226  25.416  30.384  1.00  0.00     0.040 A 
ATOM     75  F   UNL A   1      48.181  25.663  31.511  1.00  0.00    -0.206 F 
ATOM     76  C   UNL A   1      50.990  25.539  29.225  1.00  0.00     0.006 A 
ENDBRANCH  48  69
BRANCH  60  77
ATOM     77  C   UNL A   1      44.997  32.230  30.978  1.00  0.00     0.057 A 
ATOM     78  C   UNL A   1      45.380  33.294  30.152  1.00  0.00     0.134 A 
ATOM     79  C   UNL A   1      45.044  32.437  32.363  1.00  0.00     0.134 A 
ATOM     80  F   UNL A   1      45.369  33.155  28.817  1.00  0.00    -0.206 F 
ATOM     81  C   UNL A   1      45.812  34.510  30.682  1.00  0.00     0.040 A 
ATOM     82  C   UNL A   1      45.450  33.656  32.905  1.00  0.00     0.040 A 
ATOM     83  F   UNL A   1      44.683  31.461  33.210  1.00  0.00    -0.206 F 
ATOM     84  C   UNL A   1      45.840  34.695  32.064  1.00  0.00     0.006 A 
ENDBRANCH  60  77
ENDBRANCH  34  35
ENDBRANCH  26  29
ENDBRANCH  24  25
ENDBRANCH  23  24
ENDBRANCH   1  23
TORSDOF 14
ENDMDL
MODEL 2
REMARK VINA RESULT:     -11.2      4.649      8.765
REMARK SMILES Cc1ccc(F)c(-c2ncccc2C(=O)NCCCCCCNC(=O)c2ccc(-c3c4nc(c(-c5c(F)cccc5F)c5ccc([nH]5)c(-c5c(F)cccc5F)c5nc(c(-c6c(F)cccc6F)c6ccc3[nH]6)C=C5)C=C4)cc2)c1
REMARK SMILES IDX 20 1 19 2 18 3 17 4 16 5 14 6 15 7 13 9 8 10 9 11 10 12
REMARK SMILES IDX 12 13 11 14 7 15 1 16 2 17 3 18 80 19 4 20 5 21 6 22 21 23
REMARK SMILES IDX 22 24 23 25 24 26 25 28 26 29 27 30 79 31 28 32 78 33 29 34
REMARK SMILES IDX 30 35 31 36 72 37 32 38 77 39 71 40 73 41 33 42 76 43 70 44
REMARK SMILES IDX 69 45 34 47 60 48 43 49 59 50 44 51 47 52 58 53 74 54 45 55
REMARK SMILES IDX 46 56 57 58 75 59 48 60 35 61 36 62 41 63 37 64 38 65 40 66
REMARK SMILES IDX 42 67 39 68 61 69 62 70 67 71 63 72 64 73 66 74 68 75 65 76
REMARK SMILES IDX 49 77 50 78 55 79 51 80 52 81 54 82 56 83 53 84
REMARK H PARENT 16 8 23 27 73 46 47 57
REMARK Flexibility Score: inf
ROOT
ATOM      1  C   UNL A   1      30.654  31.622  25.377  1.00  0.00     0.002 C 
ENDROOT
BRANCH   1   2
ATOM      2  C   UNL A   1      30.995  30.273  24.729  1.00  0.00     0.002 C 
BRANCH   2   3
ATOM      3  C   UNL A   1      30.032  29.816  23.620  1.00  0.00     0.021 C 
BRANCH   3   4
ATOM      4  C   UNL A   1      30.503  28.563  22.883  1.00  0.00     0.116 C 
BRANCH   4   5
ATOM      5  N   UNL A   1      31.902  28.675  22.533  1.00  0.00    -0.352 N 
ATOM      6  C   UNL A   1      33.008  27.870  22.519  1.00  0.00     0.253 C 
ATOM      7  O   UNL A   1      34.012  28.459  22.113  1.00  0.00    -0.269 OA
ATOM      8  H   UNL A   1      32.118  29.582  22.218  1.00  0.00     0.163 HD
BRANCH   6   9
ATOM      9  C   UNL A   1      33.067  26.416  22.892  1.00  0.00     0.066 A 
ATOM     10  C   UNL A   1      33.111  26.027  24.249  1.00  0.00     0.086 A 
ATOM     11  N   UNL A   1      33.301  24.730  24.647  1.00  0.00    -0.255 NA
ATOM     12  C   UNL A   1      33.442  23.785  23.704  1.00  0.00     0.112 A 
ATOM     13  C   UNL A   1      33.118  25.372  21.959  1.00  0.00     0.018 A 
ATOM     14  C   UNL A   1      33.333  24.051  22.359  1.00  0.00     0.021 A 
BRANCH  10  15
ATOM     15  C   UNL A   1      32.861  26.913  25.394  1.00  0.00     0.037 A 
ATOM     16  C   UNL A   1      34.771  29.456  27.519  1.00  0.00     0.044 C 
ATOM     17  C   UNL A   1      33.659  28.603  26.983  1.00  0.00    -0.050 A 
ATOM     18  C   UNL A   1      32.418  28.576  27.627  1.00  0.00     0.006 A 
ATOM     19  C   UNL A   1      33.860  27.797  25.853  1.00  0.00     0.016 A 
ATOM     20  C   UNL A   1      31.405  27.739  27.163  1.00  0.00     0.040 A 
ATOM     21  C   UNL A   1      31.633  26.912  26.063  1.00  0.00     0.132 A 
ATOM     22  F   UNL A   1      30.646  26.090  25.672  1.00  0.00    -0.206 F 
ENDBRANCH  10  15
ENDBRANCH   6   9
ENDBRANCH   4   5
ENDBRANCH   3   4
ENDBRANCH   2   3
ENDBRANCH   1   2
BRANCH   1  23
ATOM     23  C   UNL A   1      31.194  31.814  26.796  1.00  0.00     0.021 C 
BRANCH  23  24
ATOM     24  C   UNL A   1      32.576  32.454  26.858  1.00  0.00     0.116 C 
BRANCH  24  25
ATOM     25  N   UNL A   1      32.512  33.831  27.319  1.00  0.00    -0.352 N 
ATOM     26  C   UNL A   1      33.196  34.432  28.344  1.00  0.00     0.251 C 
ATOM     27  H   UNL A   1      31.891  34.414  26.824  1.00  0.00     0.163 HD
ATOM     28  O   UNL A   1      32.868  35.545  28.741  1.00  0.00    -0.269 OA
BRANCH  26  29
ATOM     29  C   UNL A   1      34.327  33.725  28.982  1.00  0.00     0.039 A 
ATOM     30  C   UNL A   1      34.061  32.648  29.831  1.00  0.00     0.014 A 
ATOM     31  C   UNL A   1      35.644  34.135  28.754  1.00  0.00     0.014 A 
ATOM     32  C   UNL A   1      35.120  31.952  30.417  1.00  0.00     0.010 A 
ATOM     33  C   UNL A   1      36.699  33.398  29.281  1.00  0.00     0.010 A 
ATOM     34  C   UNL A   1      36.448  32.306  30.126  1.00  0.00    -0.014 A 
BRANCH  34  35
ATOM     35  C   UNL A   1      37.590  31.562  30.713  1.00  0.00     0.031 A 
ATOM     36  C   UNL A   1      37.998  31.815  32.137  1.00  0.00     0.074 A 
ATOM     37  C   UNL A   1      38.295  30.707  29.948  1.00  0.00     0.049 A 
ATOM     38  N   UNL A   1      39.013  31.331  32.806  1.00  0.00    -0.248 NA
ATOM     39  C   UNL A   1      37.169  32.759  32.904  1.00  0.00     0.031 C 
ATOM     40  C   UNL A   1      38.022  30.405  28.541  1.00  0.00     0.029 A 
ATOM     41  N   UNL A   1      39.396  29.943  30.244  1.00  0.00    -0.354 N 
ATOM     42  C   UNL A   1      38.953  31.921  34.063  1.00  0.00     0.074 A 
ATOM     43  C   UNL A   1      37.836  32.839  34.046  1.00  0.00     0.031 C 
ATOM     44  C   UNL A   1      38.918  29.504  28.104  1.00  0.00     0.029 A 
ATOM     45  C   UNL A   1      39.849  29.196  29.184  1.00  0.00     0.049 A 
ATOM     46  H   UNL A   1      39.821  29.932  31.132  1.00  0.00     0.167 HD
ATOM     47  C   UNL A   1      39.743  31.700  35.140  1.00  0.00     0.037 A 
ATOM     48  C   UNL A   1      40.901  28.361  29.093  1.00  0.00     0.037 A 
ATOM     49  C   UNL A   1      40.838  30.766  35.161  1.00  0.00     0.049 A 
ATOM     50  C   UNL A   1      41.771  28.142  30.301  1.00  0.00     0.074 A 
ATOM     51  C   UNL A   1      41.668  30.433  36.217  1.00  0.00     0.029 A 
ATOM     52  N   UNL A   1      41.255  30.015  34.072  1.00  0.00    -0.354 N 
ATOM     53  N   UNL A   1      41.669  28.664  31.499  1.00  0.00    -0.248 NA
ATOM     54  C   UNL A   1      42.898  27.212  30.145  1.00  0.00     0.031 C 
ATOM     55  C   UNL A   1      42.612  29.510  35.756  1.00  0.00     0.029 A 
ATOM     56  C   UNL A   1      42.341  29.233  34.426  1.00  0.00     0.049 A 
ATOM     57  H   UNL A   1      40.840  30.035  33.180  1.00  0.00     0.167 HD
ATOM     58  C   UNL A   1      42.696  28.103  32.247  1.00  0.00     0.074 A 
ATOM     59  C   UNL A   1      43.402  27.193  31.370  1.00  0.00     0.031 C 
ATOM     60  C   UNL A   1      43.023  28.321  33.544  1.00  0.00     0.037 A 
BRANCH  47  61
ATOM     61  C   UNL A   1      39.445  32.479  36.388  1.00  0.00     0.057 A 
ATOM     62  C   UNL A   1      38.491  32.046  37.318  1.00  0.00     0.134 A 
ATOM     63  C   UNL A   1      40.140  33.660  36.679  1.00  0.00     0.134 A 
ATOM     64  F   UNL A   1      37.780  30.930  37.094  1.00  0.00    -0.206 F 
ATOM     65  C   UNL A   1      38.219  32.772  38.479  1.00  0.00     0.040 A 
ATOM     66  C   UNL A   1      39.897  34.380  37.850  1.00  0.00     0.040 A 
ATOM     67  F   UNL A   1      41.071  34.129  35.834  1.00  0.00    -0.206 F 
ATOM     68  C   UNL A   1      38.929  33.940  38.751  1.00  0.00     0.006 A 
ENDBRANCH  47  61
BRANCH  48  69
ATOM     69  C   UNL A   1      41.182  27.651  27.820  1.00  0.00     0.057 A 
ATOM     70  C   UNL A   1      41.945  28.252  26.813  1.00  0.00     0.134 A 
ATOM     71  C   UNL A   1      40.688  26.364  27.573  1.00  0.00     0.134 A 
ATOM     72  F   UNL A   1      42.432  29.491  26.983  1.00  0.00    -0.206 F 
ATOM     73  C   UNL A   1      42.190  27.611  25.598  1.00  0.00     0.040 A 
ATOM     74  C   UNL A   1      40.944  25.701  26.372  1.00  0.00     0.040 A 
ATOM     75  F   UNL A   1      39.955  25.730  28.501  1.00  0.00    -0.206 F 
ATOM     76  C   UNL A   1      41.690  26.329  25.377  1.00  0.00     0.006 A 
ENDBRANCH  48  69
BRANCH  60  77
ATOM     77  C   UNL A   1      44.168  27.531  34.105  1.00  0.00     0.057 A 
ATOM     78  C   UNL A   1      45.482  28.017  34.093  1.00  0.00     0.134 A 
ATOM     79  C   UNL A   1      43.945  26.283  34.703  1.00  0.00     0.134 A 
ATOM     80  F   UNL A   1      45.763  29.199  33.523  1.00  0.00    -0.206 F 
ATOM     81  C   UNL A   1      46.536  27.282  34.636  1.00  0.00     0.040 A 
ATOM     82  C   UNL A   1      44.987  25.551  35.273  1.00  0.00     0.040 A 
ATOM     83  F   UNL A   1      42.709  25.764  34.755  1.00  0.00    -0.206 F 
ATOM     84  C   UNL A   1      46.287  26.047  35.236  1.00  0.00     0.006 A 
ENDBRANCH  60  77
ENDBRANCH  34  35
ENDBRANCH  26  29
ENDBRANCH  24  25
ENDBRANCH  23  24
ENDBRANCH   1  23
TORSDOF 14
ENDMDL
MODEL 3
REMARK VINA RESULT:     -11.1      4.026      9.484
REMARK SMILES Cc1ccc(F)c(-c2ncccc2C(=O)NCCCCCCNC(=O)c2ccc(-c3c4nc(c(-c5c(F)cccc5F)c5ccc([nH]5)c(-c5c(F)cccc5F)c5nc(c(-c6c(F)cccc6F)c6ccc3[nH]6)C=C5)C=C4)cc2)c1
REMARK SMILES IDX 20 1 19 2 18 3 17 4 16 5 14 6 15 7 13 9 8 10 9 11 10 12
REMARK SMILES IDX 12 13 11 14 7 15 1 16 2 17 3 18 80 19 4 20 5 21 6 22 21 23
REMARK SMILES IDX 22 24 23 25 24 26 25 28 26 29 27 30 79 31 28 32 78 33 29 34
REMARK SMILES IDX 30 35 31 36 72 37 32 38 77 39 71 40 73 41 33 42 76 43 70 44
REMARK SMILES IDX 69 45 34 47 60 48 43 49 59 50 44 51 47 52 58 53 74 54 45 55
REMARK SMILES IDX 46 56 57 58 75 59 48 60 35 61 36 62 41 63 37 64 38 65 40 66
REMARK SMILES IDX 42 67 39 68 61 69 62 70 67 71 63 72 64 73 66 74 68 75 65 76
REMARK SMILES IDX 49 77 50 78 55 79 51 80 52 81 54 82 56 83 53 84
REMARK H PARENT 16 8 23 27 73 46 47 57
REMARK Flexibility Score: inf
ROOT
ATOM      1  C   UNL A   1      46.384  20.095  24.623  1.00  0.00     0.002 C 
ENDROOT
BRANCH   1   2
ATOM      2  C   UNL A   1      46.071  21.554  24.262  1.00  0.00     0.002 C 
BRANCH   2   3
ATOM      3  C   UNL A   1      45.939  22.512  25.457  1.00  0.00     0.021 C 
BRANCH   3   4
ATOM      4  C   UNL A   1      46.097  23.984  25.077  1.00  0.00     0.116 C 
BRANCH   4   5
ATOM      5  N   UNL A   1      47.231  24.567  25.759  1.00  0.00    -0.352 N 
ATOM      6  C   UNL A   1      48.146  25.558  25.534  1.00  0.00     0.253 C 
ATOM      7  O   UNL A   1      48.948  25.677  26.464  1.00  0.00    -0.269 OA
ATOM      8  H   UNL A   1      47.388  24.128  26.627  1.00  0.00     0.163 HD
BRANCH   6   9
ATOM      9  C   UNL A   1      48.208  26.472  24.344  1.00  0.00     0.066 A 
ATOM     10  C   UNL A   1      47.185  27.421  24.118  1.00  0.00     0.086 A 
ATOM     11  N   UNL A   1      47.115  28.185  22.983  1.00  0.00    -0.255 NA
ATOM     12  C   UNL A   1      48.068  28.033  22.049  1.00  0.00     0.112 A 
ATOM     13  C   UNL A   1      49.224  26.434  23.380  1.00  0.00     0.018 A 
ATOM     14  C   UNL A   1      49.147  27.196  22.213  1.00  0.00     0.021 A 
BRANCH  10  15
ATOM     15  C   UNL A   1      46.140  27.789  25.083  1.00  0.00     0.037 A 
ATOM     16  C   UNL A   1      42.361  27.376  25.510  1.00  0.00     0.044 C 
ATOM     17  C   UNL A   1      43.788  27.754  25.780  1.00  0.00    -0.050 A 
ATOM     18  C   UNL A   1      44.113  28.535  26.893  1.00  0.00     0.006 A 
ATOM     19  C   UNL A   1      44.809  27.359  24.903  1.00  0.00     0.016 A 
ATOM     20  C   UNL A   1      45.430  28.935  27.110  1.00  0.00     0.040 A 
ATOM     21  C   UNL A   1      46.427  28.570  26.207  1.00  0.00     0.132 A 
ATOM     22  F   UNL A   1      47.677  29.009  26.428  1.00  0.00    -0.206 F 
ENDBRANCH  10  15
ENDBRANCH   6   9
ENDBRANCH   4   5
ENDBRANCH   3   4
ENDBRANCH   2   3
ENDBRANCH   1   2
BRANCH   1  23
ATOM     23  C   UNL A   1      45.182  19.149  24.597  1.00  0.00     0.021 C 
BRANCH  23  24
ATOM     24  C   UNL A   1      44.309  19.211  25.844  1.00  0.00     0.116 C 
BRANCH  24  25
ATOM     25  N   UNL A   1      42.911  18.959  25.538  1.00  0.00    -0.352 N 
ATOM     26  C   UNL A   1      41.802  19.681  25.900  1.00  0.00     0.251 C 
ATOM     27  H   UNL A   1      42.735  18.158  24.993  1.00  0.00     0.163 HD
ATOM     28  O   UNL A   1      40.679  19.214  25.743  1.00  0.00    -0.269 OA
BRANCH  26  29
ATOM     29  C   UNL A   1      41.967  21.023  26.497  1.00  0.00     0.039 A 
ATOM     30  C   UNL A   1      41.809  21.177  27.876  1.00  0.00     0.014 A 
ATOM     31  C   UNL A   1      42.259  22.129  25.692  1.00  0.00     0.014 A 
ATOM     32  C   UNL A   1      41.990  22.433  28.457  1.00  0.00     0.010 A 
ATOM     33  C   UNL A   1      42.509  23.365  26.281  1.00  0.00     0.010 A 
ATOM     34  C   UNL A   1      42.368  23.532  27.666  1.00  0.00    -0.014 A 
BRANCH  34  35
ATOM     35  C   UNL A   1      42.596  24.870  28.266  1.00  0.00     0.031 A 
ATOM     36  C   UNL A   1      43.951  25.226  28.811  1.00  0.00     0.074 A 
ATOM     37  C   UNL A   1      41.572  25.737  28.375  1.00  0.00     0.049 A 
ATOM     38  N   UNL A   1      44.330  26.307  29.444  1.00  0.00    -0.248 NA
ATOM     39  C   UNL A   1      45.015  24.224  28.645  1.00  0.00     0.031 C 
ATOM     40  C   UNL A   1      40.202  25.493  27.918  1.00  0.00     0.029 A 
ATOM     41  N   UNL A   1      41.522  26.997  28.916  1.00  0.00    -0.354 N 
ATOM     42  C   UNL A   1      45.667  26.107  29.764  1.00  0.00     0.074 A 
ATOM     43  C   UNL A   1      46.019  24.782  29.303  1.00  0.00     0.031 C 
ATOM     44  C   UNL A   1      39.453  26.577  28.180  1.00  0.00     0.029 A 
ATOM     45  C   UNL A   1      40.277  27.574  28.855  1.00  0.00     0.049 A 
ATOM     46  H   UNL A   1      42.305  27.445  29.310  1.00  0.00     0.167 HD
ATOM     47  C   UNL A   1      46.530  26.960  30.365  1.00  0.00     0.037 A 
ATOM     48  C   UNL A   1      39.849  28.770  29.299  1.00  0.00     0.037 A 
ATOM     49  C   UNL A   1      46.184  28.288  30.799  1.00  0.00     0.049 A 
ATOM     50  C   UNL A   1      40.824  29.695  29.975  1.00  0.00     0.074 A 
ATOM     51  C   UNL A   1      46.998  29.248  31.373  1.00  0.00     0.029 A 
ATOM     52  N   UNL A   1      44.916  28.842  30.704  1.00  0.00    -0.354 N 
ATOM     53  N   UNL A   1      42.099  29.516  30.220  1.00  0.00    -0.248 NA
ATOM     54  C   UNL A   1      40.302  30.991  30.429  1.00  0.00     0.031 C 
ATOM     55  C   UNL A   1      46.213  30.370  31.662  1.00  0.00     0.029 A 
ATOM     56  C   UNL A   1      44.921  30.125  31.225  1.00  0.00     0.049 A 
ATOM     57  H   UNL A   1      44.128  28.392  30.321  1.00  0.00     0.167 HD
ATOM     58  C   UNL A   1      42.539  30.685  30.827  1.00  0.00     0.074 A 
ATOM     59  C   UNL A   1      41.395  31.571  30.902  1.00  0.00     0.031 C 
ATOM     60  C   UNL A   1      43.777  30.999  31.279  1.00  0.00     0.037 A 
BRANCH  47  61
ATOM     61  C   UNL A   1      47.936  26.482  30.583  1.00  0.00     0.057 A 
ATOM     62  C   UNL A   1      48.978  26.834  29.715  1.00  0.00     0.134 A 
ATOM     63  C   UNL A   1      48.259  25.686  31.689  1.00  0.00     0.134 A 
ATOM     64  F   UNL A   1      48.734  27.584  28.629  1.00  0.00    -0.206 F 
ATOM     65  C   UNL A   1      50.285  26.390  29.923  1.00  0.00     0.040 A 
ATOM     66  C   UNL A   1      49.568  25.259  31.923  1.00  0.00     0.040 A 
ATOM     67  F   UNL A   1      47.311  25.316  32.563  1.00  0.00    -0.206 F 
ATOM     68  C   UNL A   1      50.584  25.605  31.035  1.00  0.00     0.006 A 
ENDBRANCH  47  61
BRANCH  48  69
ATOM     69  C   UNL A   1      38.434  29.176  29.102  1.00  0.00     0.057 A 
ATOM     70  C   UNL A   1      37.983  29.637  27.860  1.00  0.00     0.134 A 
ATOM     71  C   UNL A   1      37.504  29.125  30.148  1.00  0.00     0.134 A 
ATOM     72  F   UNL A   1      38.832  29.725  26.825  1.00  0.00    -0.206 F 
ATOM     73  C   UNL A   1      36.666  30.054  27.668  1.00  0.00     0.040 A 
ATOM     74  C   UNL A   1      36.176  29.516  29.964  1.00  0.00     0.040 A 
ATOM     75  F   UNL A   1      37.871  28.687  31.361  1.00  0.00    -0.206 F 
ATOM     76  C   UNL A   1      35.757  29.990  28.723  1.00  0.00     0.006 A 
ENDBRANCH  48  69
BRANCH  60  77
ATOM     77  C   UNL A   1      43.971  32.369  31.856  1.00  0.00     0.057 A 
ATOM     78  C   UNL A   1      44.320  33.467  31.059  1.00  0.00     0.134 A 
ATOM     79  C   UNL A   1      43.766  32.601  33.223  1.00  0.00     0.134 A 
ATOM     80  F   UNL A   1      44.543  33.309  29.746  1.00  0.00    -0.206 F 
ATOM     81  C   UNL A   1      44.479  34.742  31.604  1.00  0.00     0.040 A 
ATOM     82  C   UNL A   1      43.896  33.875  33.774  1.00  0.00     0.040 A 
ATOM     83  F   UNL A   1      43.422  31.594  34.040  1.00  0.00    -0.206 F 
ATOM     84  C   UNL A   1      44.258  34.950  32.966  1.00  0.00     0.006 A 
ENDBRANCH  60  77
ENDBRANCH  34  35
ENDBRANCH  26  29
ENDBRANCH  24  25
ENDBRANCH  23  24
ENDBRANCH   1  23
TORSDOF 14
ENDMDL
