MODEL 1
REMARK VINA RESULT:     -11.9      0.000      0.000
REMARK SMILES CC1(C)CSC[C@H](Nc2cc(C(=O)NCCCCCCNC(=O)c3ccc(-c4c5nc(c(-c6c(F)cccc6F)c6ccc([nH]6)c(-c6c(F)cccc6F)c6nc(c(-c7c(F)cccc7F)c7ccc4[nH]7)C=C6)C=C5)cc3)ccc2F)C1
REMARK SMILES IDX 17 1 16 2 15 3 14 4 12 5 13 6 11 8 9 9 10 10 80 11 79 12
REMARK SMILES IDX 81 13 78 14 8 15 7 17 1 18 2 19 3 20 4 21 82 22 5 23 6 24
REMARK SMILES IDX 18 25 19 26 20 27 21 28 22 29 23 31 24 32 25 33 77 34 26 35
REMARK SMILES IDX 76 36 27 37 28 38 29 39 70 40 30 41 75 42 69 43 71 44 31 45
REMARK SMILES IDX 74 46 68 47 67 48 32 50 58 51 41 52 57 53 42 54 45 55 56 56
REMARK SMILES IDX 72 57 43 58 44 59 55 61 73 62 46 63 33 64 34 65 39 66 35 67
REMARK SMILES IDX 36 68 38 69 40 70 37 71 59 72 60 73 65 74 61 75 62 76 64 77
REMARK SMILES IDX 66 78 63 79 47 80 48 81 53 82 49 83 50 84 52 85 54 86 51 87
REMARK H PARENT 14 7 8 16 21 30 71 49 45 60
REMARK Flexibility Score: inf
ROOT
ATOM      1  C   UNL A   1      32.268  29.951  27.041  1.00  0.00     0.002 C 
ENDROOT
BRANCH   1   2
ATOM      2  C   UNL A   1      33.718  29.694  26.604  1.00  0.00     0.021 C 
BRANCH   2   3
ATOM      3  C   UNL A   1      33.905  28.359  25.882  1.00  0.00     0.116 C 
BRANCH   3   4
ATOM      4  N   UNL A   1      34.128  28.583  24.470  1.00  0.00    -0.352 N 
ATOM      5  C   UNL A   1      33.317  28.556  23.370  1.00  0.00     0.251 C 
ATOM      6  O   UNL A   1      33.859  28.768  22.284  1.00  0.00    -0.269 OA
ATOM      7  H   UNL A   1      35.064  28.799  24.255  1.00  0.00     0.163 HD
BRANCH   5   8
ATOM      8  C   UNL A   1      31.838  28.344  23.403  1.00  0.00     0.042 A 
ATOM      9  C   UNL A   1      30.068  26.699  23.868  1.00  0.00     0.071 A 
ATOM     10  C   UNL A   1      31.416  27.078  23.857  1.00  0.00     0.042 A 
ATOM     11  C   UNL A   1      29.127  27.639  23.429  1.00  0.00     0.146 A 
ATOM     12  C   UNL A   1      29.510  28.910  23.016  1.00  0.00     0.042 A 
ATOM     13  F   UNL A   1      27.819  27.338  23.407  1.00  0.00    -0.205 F 
ATOM     14  C   UNL A   1      30.861  29.268  23.020  1.00  0.00     0.017 A 
BRANCH   9  15
ATOM     15  N   UNL A   1      29.754  25.367  24.155  1.00  0.00    -0.379 N 
ATOM     16  H   UNL A   1      28.825  25.041  24.134  1.00  0.00     0.160 HD
BRANCH  15  17
ATOM     17  C   UNL A   1      30.872  24.477  24.488  1.00  0.00     0.089 C 
ATOM     18  C   UNL A   1      33.486  23.235  23.371  1.00  0.00     0.012 C 
ATOM     19  C   UNL A   1      32.188  22.438  23.620  1.00  0.00    -0.024 C 
ATOM     20  C   UNL A   1      32.119  21.320  22.559  1.00  0.00     0.012 C 
ATOM     21  C   UNL A   1      32.202  21.769  25.012  1.00  0.00     0.076 C 
ATOM     22  C   UNL A   1      30.948  23.351  23.447  1.00  0.00     0.033 C 
ATOM     23  S   UNL A   1      32.120  22.909  26.427  1.00  0.00    -0.159 SA
ATOM     24  C   UNL A   1      30.694  23.905  25.905  1.00  0.00     0.094 C 
ENDBRANCH  15  17
ENDBRANCH   9  15
ENDBRANCH   5   8
ENDBRANCH   3   4
ENDBRANCH   2   3
ENDBRANCH   1   2
BRANCH   1  25
ATOM     25  C   UNL A   1      31.454  30.844  26.094  1.00  0.00     0.002 C 
BRANCH  25  26
ATOM     26  C   UNL A   1      31.320  32.303  26.538  1.00  0.00     0.021 C 
BRANCH  26  27
ATOM     27  C   UNL A   1      32.557  32.865  27.231  1.00  0.00     0.116 C 
BRANCH  27  28
ATOM     28  N   UNL A   1      32.378  34.260  27.596  1.00  0.00    -0.352 N 
ATOM     29  C   UNL A   1      32.983  34.984  28.592  1.00  0.00     0.251 C 
ATOM     30  H   UNL A   1      31.729  34.759  27.049  1.00  0.00     0.163 HD
ATOM     31  O   UNL A   1      32.541  36.081  28.914  1.00  0.00    -0.269 OA
BRANCH  29  32
ATOM     32  C   UNL A   1      34.167  34.436  29.287  1.00  0.00     0.039 A 
ATOM     33  C   UNL A   1      33.995  33.810  30.523  1.00  0.00     0.014 A 
ATOM     34  C   UNL A   1      35.445  34.568  28.735  1.00  0.00     0.014 A 
ATOM     35  C   UNL A   1      35.101  33.273  31.187  1.00  0.00     0.010 A 
ATOM     36  C   UNL A   1      36.536  33.976  29.366  1.00  0.00     0.010 A 
ATOM     37  C   UNL A   1      36.375  33.328  30.600  1.00  0.00    -0.014 A 
BRANCH  37  38
ATOM     38  C   UNL A   1      37.553  32.716  31.264  1.00  0.00     0.031 A 
ATOM     39  C   UNL A   1      38.229  31.521  30.652  1.00  0.00     0.074 A 
ATOM     40  C   UNL A   1      37.976  33.203  32.447  1.00  0.00     0.049 A 
ATOM     41  N   UNL A   1      39.216  30.802  31.123  1.00  0.00    -0.248 NA
ATOM     42  C   UNL A   1      37.718  31.058  29.351  1.00  0.00     0.031 C 
ATOM     43  C   UNL A   1      37.378  34.334  33.159  1.00  0.00     0.029 A 
ATOM     44  N   UNL A   1      39.004  32.803  33.265  1.00  0.00    -0.354 N 
ATOM     45  C   UNL A   1      39.433  29.799  30.187  1.00  0.00     0.074 A 
ATOM     46  C   UNL A   1      38.451  29.974  29.140  1.00  0.00     0.031 C 
ATOM     47  C   UNL A   1      38.058  34.547  34.297  1.00  0.00     0.029 A 
ATOM     48  C   UNL A   1      39.116  33.547  34.415  1.00  0.00     0.049 A 
ATOM     49  H   UNL A   1      39.604  32.053  33.048  1.00  0.00     0.167 HD
ATOM     50  C   UNL A   1      40.384  28.835  30.191  1.00  0.00     0.037 A 
ATOM     51  C   UNL A   1      39.967  33.432  35.452  1.00  0.00     0.037 A 
ATOM     52  C   UNL A   1      41.385  28.689  31.213  1.00  0.00     0.049 A 
ATOM     53  C   UNL A   1      41.013  32.352  35.427  1.00  0.00     0.074 A 
ATOM     54  C   UNL A   1      42.425  27.778  31.270  1.00  0.00     0.029 A 
ATOM     55  N   UNL A   1      41.476  29.476  32.349  1.00  0.00    -0.354 N 
ATOM     56  N   UNL A   1      41.239  31.444  34.508  1.00  0.00    -0.248 NA
ATOM     57  C   UNL A   1      41.926  32.279  36.577  1.00  0.00     0.031 C 
ATOM     58  C   UNL A   1      43.124  27.988  32.460  1.00  0.00     0.029 A 
ATOM     59  C   UNL A   1      42.547  29.061  33.122  1.00  0.00     0.049 A 
ATOM     60  H   UNL A   1      40.872  30.220  32.573  1.00  0.00     0.167 HD
ATOM     61  C   UNL A   1      42.330  30.712  34.957  1.00  0.00     0.074 A 
ATOM     62  C   UNL A   1      42.732  31.288  36.222  1.00  0.00     0.031 C 
ATOM     63  C   UNL A   1      42.943  29.655  34.372  1.00  0.00     0.037 A 
BRANCH  50  64
ATOM     64  C   UNL A   1      40.415  27.868  29.045  1.00  0.00     0.057 A 
ATOM     65  C   UNL A   1      41.154  28.152  27.890  1.00  0.00     0.134 A 
ATOM     66  C   UNL A   1      39.625  26.713  29.042  1.00  0.00     0.134 A 
ATOM     67  F   UNL A   1      41.925  29.247  27.827  1.00  0.00    -0.206 F 
ATOM     68  C   UNL A   1      41.088  27.332  26.763  1.00  0.00     0.040 A 
ATOM     69  C   UNL A   1      39.568  25.872  27.929  1.00  0.00     0.040 A 
ATOM     70  F   UNL A   1      38.901  26.381  30.122  1.00  0.00    -0.206 F 
ATOM     71  C   UNL A   1      40.291  26.189  26.780  1.00  0.00     0.006 A 
ENDBRANCH  50  64
BRANCH  51  72
ATOM     72  C   UNL A   1      39.876  34.374  36.595  1.00  0.00     0.057 A 
ATOM     73  C   UNL A   1      39.156  34.053  37.753  1.00  0.00     0.134 A 
ATOM     74  C   UNL A   1      40.512  35.620  36.557  1.00  0.00     0.134 A 
ATOM     75  F   UNL A   1      38.518  32.878  37.850  1.00  0.00    -0.206 F 
ATOM     76  C   UNL A   1      39.066  34.940  38.828  1.00  0.00     0.040 A 
ATOM     77  C   UNL A   1      40.451  36.506  37.634  1.00  0.00     0.040 A 
ATOM     78  F   UNL A   1      41.233  35.978  35.483  1.00  0.00    -0.206 F 
ATOM     79  C   UNL A   1      39.721  36.168  38.772  1.00  0.00     0.006 A 
ENDBRANCH  51  72
BRANCH  63  80
ATOM     80  C   UNL A   1      44.129  29.063  35.071  1.00  0.00     0.057 A 
ATOM     81  C   UNL A   1      45.426  29.496  34.764  1.00  0.00     0.134 A 
ATOM     82  C   UNL A   1      43.996  28.006  35.979  1.00  0.00     0.134 A 
ATOM     83  F   UNL A   1      45.622  30.496  33.892  1.00  0.00    -0.206 F 
ATOM     84  C   UNL A   1      46.549  28.886  35.325  1.00  0.00     0.040 A 
ATOM     85  C   UNL A   1      45.111  27.406  36.565  1.00  0.00     0.040 A 
ATOM     86  F   UNL A   1      42.780  27.552  36.320  1.00  0.00    -0.206 F 
ATOM     87  C   UNL A   1      46.392  27.839  36.230  1.00  0.00     0.006 A 
ENDBRANCH  63  80
ENDBRANCH  37  38
ENDBRANCH  29  32
ENDBRANCH  27  28
ENDBRANCH  26  27
ENDBRANCH  25  26
ENDBRANCH   1  25
TORSDOF 15
ENDMDL
MODEL 2
REMARK VINA RESULT:     -11.8      5.305     10.142
REMARK SMILES CC1(C)CSC[C@H](Nc2cc(C(=O)NCCCCCCNC(=O)c3ccc(-c4c5nc(c(-c6c(F)cccc6F)c6ccc([nH]6)c(-c6c(F)cccc6F)c6nc(c(-c7c(F)cccc7F)c7ccc4[nH]7)C=C6)C=C5)cc3)ccc2F)C1
REMARK SMILES IDX 17 1 16 2 15 3 14 4 12 5 13 6 11 8 9 9 10 10 80 11 79 12
REMARK SMILES IDX 81 13 78 14 8 15 7 17 1 18 2 19 3 20 4 21 82 22 5 23 6 24
REMARK SMILES IDX 18 25 19 26 20 27 21 28 22 29 23 31 24 32 25 33 77 34 26 35
REMARK SMILES IDX 76 36 27 37 28 38 29 39 70 40 30 41 75 42 69 43 71 44 31 45
REMARK SMILES IDX 74 46 68 47 67 48 32 50 58 51 41 52 57 53 42 54 45 55 56 56
REMARK SMILES IDX 72 57 43 58 44 59 55 61 73 62 46 63 33 64 34 65 39 66 35 67
REMARK SMILES IDX 36 68 38 69 40 70 37 71 59 72 60 73 65 74 61 75 62 76 64 77
REMARK SMILES IDX 66 78 63 79 47 80 48 81 53 82 49 83 50 84 52 85 54 86 51 87
REMARK H PARENT 14 7 8 16 21 30 71 49 45 60
REMARK Flexibility Score: inf
ROOT
ATOM      1  C   UNL A   1      37.142  21.667  24.527  1.00  0.00     0.002 C 
ENDROOT
BRANCH   1   2
ATOM      2  C   UNL A   1      37.280  22.662  25.689  1.00  0.00     0.021 C 
BRANCH   2   3
ATOM      3  C   UNL A   1      36.038  23.532  25.891  1.00  0.00     0.116 C 
BRANCH   3   4
ATOM      4  N   UNL A   1      35.149  22.916  26.853  1.00  0.00    -0.352 N 
ATOM      5  C   UNL A   1      34.036  22.131  26.742  1.00  0.00     0.251 C 
ATOM      6  O   UNL A   1      33.491  21.801  27.798  1.00  0.00    -0.269 OA
ATOM      7  H   UNL A   1      35.399  23.104  27.787  1.00  0.00     0.163 HD
BRANCH   5   8
ATOM      8  C   UNL A   1      33.479  21.612  25.456  1.00  0.00     0.042 A 
ATOM      9  C   UNL A   1      32.654  22.266  23.233  1.00  0.00     0.071 A 
ATOM     10  C   UNL A   1      33.248  22.583  24.461  1.00  0.00     0.042 A 
ATOM     11  C   UNL A   1      32.309  20.928  23.005  1.00  0.00     0.146 A 
ATOM     12  C   UNL A   1      32.564  19.943  23.952  1.00  0.00     0.042 A 
ATOM     13  F   UNL A   1      31.730  20.557  21.853  1.00  0.00    -0.205 F 
ATOM     14  C   UNL A   1      33.164  20.281  25.168  1.00  0.00     0.017 A 
BRANCH   9  15
ATOM     15  N   UNL A   1      32.292  23.313  22.379  1.00  0.00    -0.379 N 
ATOM     16  H   UNL A   1      32.152  23.168  21.416  1.00  0.00     0.160 HD
BRANCH  15  17
ATOM     17  C   UNL A   1      32.127  24.639  22.986  1.00  0.00     0.089 C 
ATOM     18  C   UNL A   1      30.899  26.134  25.412  1.00  0.00     0.012 C 
ATOM     19  C   UNL A   1      30.353  26.229  23.971  1.00  0.00    -0.024 C 
ATOM     20  C   UNL A   1      28.825  26.422  24.065  1.00  0.00     0.012 C 
ATOM     21  C   UNL A   1      30.940  27.451  23.230  1.00  0.00     0.076 C 
ATOM     22  C   UNL A   1      30.631  24.916  23.196  1.00  0.00     0.033 C 
ATOM     23  S   UNL A   1      32.719  27.362  22.863  1.00  0.00    -0.159 SA
ATOM     24  C   UNL A   1      32.765  25.717  22.094  1.00  0.00     0.094 C 
ENDBRANCH  15  17
ENDBRANCH   9  15
ENDBRANCH   5   8
ENDBRANCH   3   4
ENDBRANCH   2   3
ENDBRANCH   1   2
BRANCH   1  25
ATOM     25  C   UNL A   1      36.920  20.207  24.947  1.00  0.00     0.002 C 
BRANCH  25  26
ATOM     26  C   UNL A   1      38.179  19.336  24.952  1.00  0.00     0.021 C 
BRANCH  26  27
ATOM     27  C   UNL A   1      39.329  19.901  25.781  1.00  0.00     0.116 C 
BRANCH  27  28
ATOM     28  N   UNL A   1      40.435  18.962  25.869  1.00  0.00    -0.352 N 
ATOM     29  C   UNL A   1      41.769  19.205  26.076  1.00  0.00     0.251 C 
ATOM     30  H   UNL A   1      40.192  18.013  25.767  1.00  0.00     0.163 HD
ATOM     31  O   UNL A   1      42.595  18.321  25.884  1.00  0.00    -0.269 OA
BRANCH  29  32
ATOM     32  C   UNL A   1      42.214  20.542  26.523  1.00  0.00     0.039 A 
ATOM     33  C   UNL A   1      42.772  21.417  25.588  1.00  0.00     0.014 A 
ATOM     34  C   UNL A   1      42.110  20.919  27.866  1.00  0.00     0.014 A 
ATOM     35  C   UNL A   1      43.183  22.689  25.990  1.00  0.00     0.010 A 
ATOM     36  C   UNL A   1      42.461  22.209  28.253  1.00  0.00     0.010 A 
ATOM     37  C   UNL A   1      43.006  23.105  27.320  1.00  0.00    -0.014 A 
BRANCH  37  38
ATOM     38  C   UNL A   1      43.388  24.472  27.754  1.00  0.00     0.031 A 
ATOM     39  C   UNL A   1      42.326  25.490  28.064  1.00  0.00     0.074 A 
ATOM     40  C   UNL A   1      44.691  24.810  27.815  1.00  0.00     0.049 A 
ATOM     41  N   UNL A   1      42.463  26.753  28.378  1.00  0.00    -0.248 NA
ATOM     42  C   UNL A   1      40.926  25.039  27.991  1.00  0.00     0.031 C 
ATOM     43  C   UNL A   1      45.811  23.921  27.501  1.00  0.00     0.029 A 
ATOM     44  N   UNL A   1      45.293  25.997  28.151  1.00  0.00    -0.354 N 
ATOM     45  C   UNL A   1      41.173  27.247  28.526  1.00  0.00     0.074 A 
ATOM     46  C   UNL A   1      40.265  26.163  28.228  1.00  0.00     0.031 C 
ATOM     47  C   UNL A   1      46.963  24.587  27.676  1.00  0.00     0.029 A 
ATOM     48  C   UNL A   1      46.666  25.959  28.077  1.00  0.00     0.049 A 
ATOM     49  H   UNL A   1      44.790  26.799  28.419  1.00  0.00     0.167 HD
ATOM     50  C   UNL A   1      40.786  28.489  28.901  1.00  0.00     0.037 A 
ATOM     51  C   UNL A   1      47.580  26.923  28.297  1.00  0.00     0.037 A 
ATOM     52  C   UNL A   1      41.692  29.554  29.237  1.00  0.00     0.049 A 
ATOM     53  C   UNL A   1      47.118  28.292  28.714  1.00  0.00     0.074 A 
ATOM     54  C   UNL A   1      41.389  30.828  29.685  1.00  0.00     0.029 A 
ATOM     55  N   UNL A   1      43.073  29.468  29.170  1.00  0.00    -0.354 N 
ATOM     56  N   UNL A   1      45.896  28.728  28.901  1.00  0.00    -0.248 NA
ATOM     57  C   UNL A   1      48.159  29.302  28.956  1.00  0.00     0.031 C 
ATOM     58  C   UNL A   1      42.587  31.526  29.853  1.00  0.00     0.029 A 
ATOM     59  C   UNL A   1      43.636  30.673  29.553  1.00  0.00     0.049 A 
ATOM     60  H   UNL A   1      43.578  28.670  28.892  1.00  0.00     0.167 HD
ATOM     61  C   UNL A   1      46.022  30.051  29.304  1.00  0.00     0.074 A 
ATOM     62  C   UNL A   1      47.439  30.344  29.350  1.00  0.00     0.031 C 
ATOM     63  C   UNL A   1      45.050  30.944  29.608  1.00  0.00     0.037 A 
BRANCH  50  64
ATOM     64  C   UNL A   1      39.316  28.772  28.999  1.00  0.00     0.057 A 
ATOM     65  C   UNL A   1      38.621  29.323  27.915  1.00  0.00     0.134 A 
ATOM     66  C   UNL A   1      38.617  28.605  30.200  1.00  0.00     0.134 A 
ATOM     67  F   UNL A   1      39.236  29.516  26.739  1.00  0.00    -0.206 F 
ATOM     68  C   UNL A   1      37.288  29.719  28.030  1.00  0.00     0.040 A 
ATOM     69  C   UNL A   1      37.277  28.975  30.320  1.00  0.00     0.040 A 
ATOM     70  F   UNL A   1      39.224  28.072  31.272  1.00  0.00    -0.206 F 
ATOM     71  C   UNL A   1      36.613  29.547  29.237  1.00  0.00     0.006 A 
ENDBRANCH  50  64
BRANCH  51  72
ATOM     72  C   UNL A   1      49.026  26.624  28.142  1.00  0.00     0.057 A 
ATOM     73  C   UNL A   1      49.664  26.721  26.900  1.00  0.00     0.134 A 
ATOM     74  C   UNL A   1      49.805  26.235  29.238  1.00  0.00     0.134 A 
ATOM     75  F   UNL A   1      48.972  27.081  25.809  1.00  0.00    -0.206 F 
ATOM     76  C   UNL A   1      51.023  26.435  26.751  1.00  0.00     0.040 A 
ATOM     77  C   UNL A   1      51.169  25.972  29.109  1.00  0.00     0.040 A 
ATOM     78  F   UNL A   1      49.255  26.143  30.458  1.00  0.00    -0.206 F 
ATOM     79  C   UNL A   1      51.780  26.066  27.860  1.00  0.00     0.006 A 
ENDBRANCH  51  72
BRANCH  63  80
ATOM     80  C   UNL A   1      45.472  32.314  30.043  1.00  0.00     0.057 A 
ATOM     81  C   UNL A   1      45.668  32.601  31.401  1.00  0.00     0.134 A 
ATOM     82  C   UNL A   1      45.598  33.369  29.131  1.00  0.00     0.134 A 
ATOM     83  F   UNL A   1      45.549  31.637  32.325  1.00  0.00    -0.206 F 
ATOM     84  C   UNL A   1      45.958  33.895  31.837  1.00  0.00     0.040 A 
ATOM     85  C   UNL A   1      45.913  34.661  29.554  1.00  0.00     0.040 A 
ATOM     86  F   UNL A   1      45.431  33.155  27.818  1.00  0.00    -0.206 F 
ATOM     87  C   UNL A   1      46.083  34.928  30.911  1.00  0.00     0.006 A 
ENDBRANCH  63  80
ENDBRANCH  37  38
ENDBRANCH  29  32
ENDBRANCH  27  28
ENDBRANCH  26  27
ENDBRANCH  25  26
ENDBRANCH   1  25
TORSDOF 15
ENDMDL
MODEL 3
REMARK VINA RESULT:     -11.8      1.569      6.331
REMARK SMILES CC1(C)CSC[C@H](Nc2cc(C(=O)NCCCCCCNC(=O)c3ccc(-c4c5nc(c(-c6c(F)cccc6F)c6ccc([nH]6)c(-c6c(F)cccc6F)c6nc(c(-c7c(F)cccc7F)c7ccc4[nH]7)C=C6)C=C5)cc3)ccc2F)C1
REMARK SMILES IDX 17 1 16 2 15 3 14 4 12 5 13 6 11 8 9 9 10 10 80 11 79 12
REMARK SMILES IDX 81 13 78 14 8 15 7 17 1 18 2 19 3 20 4 21 82 22 5 23 6 24
REMARK SMILES IDX 18 25 19 26 20 27 21 28 22 29 23 31 24 32 25 33 77 34 26 35
REMARK SMILES IDX 76 36 27 37 28 38 29 39 70 40 30 41 75 42 69 43 71 44 31 45
REMARK SMILES IDX 74 46 68 47 67 48 32 50 58 51 41 52 57 53 42 54 45 55 56 56
REMARK SMILES IDX 72 57 43 58 44 59 55 61 73 62 46 63 33 64 34 65 39 66 35 67
REMARK SMILES IDX 36 68 38 69 40 70 37 71 59 72 60 73 65 74 61 75 62 76 64 77
REMARK SMILES IDX 66 78 63 79 47 80 48 81 53 82 49 83 50 84 52 85 54 86 51 87
REMARK H PARENT 14 7 8 16 21 30 71 49 45 60
REMARK Flexibility Score: inf
ROOT
ATOM      1  C   UNL A   1      32.058  29.735  26.981  1.00  0.00     0.002 C 
ENDROOT
BRANCH   1   2
ATOM      2  C   UNL A   1      33.574  29.512  26.878  1.00  0.00     0.021 C 
BRANCH   2   3
ATOM      3  C   UNL A   1      33.948  28.223  26.143  1.00  0.00     0.116 C 
BRANCH   3   4
ATOM      4  N   UNL A   1      34.203  28.502  24.746  1.00  0.00    -0.352 N 
ATOM      5  C   UNL A   1      33.433  28.450  23.617  1.00  0.00     0.251 C 
ATOM      6  O   UNL A   1      33.997  28.731  22.558  1.00  0.00    -0.269 OA
ATOM      7  H   UNL A   1      35.128  28.790  24.572  1.00  0.00     0.163 HD
BRANCH   5   8
ATOM      8  C   UNL A   1      31.973  28.134  23.590  1.00  0.00     0.042 A 
ATOM      9  C   UNL A   1      30.285  26.450  24.197  1.00  0.00     0.071 A 
ATOM     10  C   UNL A   1      31.603  26.924  24.211  1.00  0.00     0.042 A 
ATOM     11  C   UNL A   1      29.320  27.238  23.558  1.00  0.00     0.146 A 
ATOM     12  C   UNL A   1      29.648  28.456  22.975  1.00  0.00     0.042 A 
ATOM     13  F   UNL A   1      28.039  26.839  23.501  1.00  0.00    -0.205 F 
ATOM     14  C   UNL A   1      30.969  28.912  23.007  1.00  0.00     0.017 A 
BRANCH   9  15
ATOM     15  N   UNL A   1      30.038  25.157  24.670  1.00  0.00    -0.379 N 
ATOM     16  H   UNL A   1      29.143  24.882  24.972  1.00  0.00     0.160 HD
BRANCH  15  17
ATOM     17  C   UNL A   1      31.175  24.230  24.695  1.00  0.00     0.089 C 
ATOM     18  C   UNL A   1      33.530  23.129  23.001  1.00  0.00     0.012 C 
ATOM     19  C   UNL A   1      32.274  22.311  23.371  1.00  0.00    -0.024 C 
ATOM     20  C   UNL A   1      31.998  21.334  22.210  1.00  0.00     0.012 C 
ATOM     21  C   UNL A   1      32.509  21.474  24.648  1.00  0.00     0.076 C 
ATOM     22  C   UNL A   1      31.045  23.242  23.527  1.00  0.00     0.033 C 
ATOM     23  S   UNL A   1      32.697  22.430  26.184  1.00  0.00    -0.159 SA
ATOM     24  C   UNL A   1      31.227  23.487  26.040  1.00  0.00     0.094 C 
ENDBRANCH  15  17
ENDBRANCH   9  15
ENDBRANCH   5   8
ENDBRANCH   3   4
ENDBRANCH   2   3
ENDBRANCH   1   2
BRANCH   1  25
ATOM     25  C   UNL A   1      31.502  30.840  26.073  1.00  0.00     0.002 C 
BRANCH  25  26
ATOM     26  C   UNL A   1      31.357  32.212  26.738  1.00  0.00     0.021 C 
BRANCH  26  27
ATOM     27  C   UNL A   1      32.682  32.882  27.088  1.00  0.00     0.116 C 
BRANCH  27  28
ATOM     28  N   UNL A   1      32.475  34.149  27.772  1.00  0.00    -0.352 N 
ATOM     29  C   UNL A   1      33.151  34.682  28.840  1.00  0.00     0.251 C 
ATOM     30  H   UNL A   1      31.745  34.705  27.416  1.00  0.00     0.163 HD
ATOM     31  O   UNL A   1      32.694  35.648  29.440  1.00  0.00    -0.269 OA
BRANCH  29  32
ATOM     32  C   UNL A   1      34.431  34.084  29.275  1.00  0.00     0.039 A 
ATOM     33  C   UNL A   1      34.444  33.261  30.403  1.00  0.00     0.014 A 
ATOM     34  C   UNL A   1      35.619  34.361  28.591  1.00  0.00     0.014 A 
ATOM     35  C   UNL A   1      35.642  32.676  30.820  1.00  0.00     0.010 A 
ATOM     36  C   UNL A   1      36.800  33.727  28.969  1.00  0.00     0.010 A 
ATOM     37  C   UNL A   1      36.823  32.883  30.089  1.00  0.00    -0.014 A 
BRANCH  37  38
ATOM     38  C   UNL A   1      38.095  32.227  30.485  1.00  0.00     0.031 A 
ATOM     39  C   UNL A   1      39.017  32.897  31.464  1.00  0.00     0.074 A 
ATOM     40  C   UNL A   1      38.443  31.055  29.918  1.00  0.00     0.049 A 
ATOM     41  N   UNL A   1      40.204  32.521  31.868  1.00  0.00    -0.248 NA
ATOM     42  C   UNL A   1      38.559  34.168  32.052  1.00  0.00     0.031 C 
ATOM     43  C   UNL A   1      37.649  30.327  28.926  1.00  0.00     0.029 A 
ATOM     44  N   UNL A   1      39.559  30.275  30.087  1.00  0.00    -0.354 N 
ATOM     45  C   UNL A   1      40.637  33.510  32.742  1.00  0.00     0.074 A 
ATOM     46  C   UNL A   1      39.607  34.524  32.781  1.00  0.00     0.031 C 
ATOM     47  C   UNL A   1      38.294  29.199  28.588  1.00  0.00     0.029 A 
ATOM     48  C   UNL A   1      39.563  29.141  29.308  1.00  0.00     0.049 A 
ATOM     49  H   UNL A   1      40.289  30.505  30.706  1.00  0.00     0.167 HD
ATOM     50  C   UNL A   1      41.780  33.553  33.465  1.00  0.00     0.037 A 
ATOM     51  C   UNL A   1      40.488  28.172  29.181  1.00  0.00     0.037 A 
ATOM     52  C   UNL A   1      42.784  32.522  33.456  1.00  0.00     0.049 A 
ATOM     53  C   UNL A   1      41.748  28.246  29.999  1.00  0.00     0.074 A 
ATOM     54  C   UNL A   1      43.948  32.453  34.201  1.00  0.00     0.029 A 
ATOM     55  N   UNL A   1      42.740  31.382  32.670  1.00  0.00    -0.354 N 
ATOM     56  N   UNL A   1      42.118  29.162  30.861  1.00  0.00    -0.248 NA
ATOM     57  C   UNL A   1      42.718  27.153  29.832  1.00  0.00     0.031 C 
ATOM     58  C   UNL A   1      44.628  31.288  33.839  1.00  0.00     0.029 A 
ATOM     59  C   UNL A   1      43.865  30.610  32.902  1.00  0.00     0.049 A 
ATOM     60  H   UNL A   1      42.017  31.155  32.042  1.00  0.00     0.167 HD
ATOM     61  C   UNL A   1      43.347  28.745  31.355  1.00  0.00     0.074 A 
ATOM     62  C   UNL A   1      43.655  27.487  30.709  1.00  0.00     0.031 C 
ATOM     63  C   UNL A   1      44.149  29.352  32.262  1.00  0.00     0.037 A 
BRANCH  50  64
ATOM     64  C   UNL A   1      42.011  34.738  34.354  1.00  0.00     0.057 A 
ATOM     65  C   UNL A   1      42.680  35.872  33.875  1.00  0.00     0.134 A 
ATOM     66  C   UNL A   1      41.674  34.710  35.712  1.00  0.00     0.134 A 
ATOM     67  F   UNL A   1      43.038  35.957  32.585  1.00  0.00    -0.206 F 
ATOM     68  C   UNL A   1      43.023  36.927  34.721  1.00  0.00     0.040 A 
ATOM     69  C   UNL A   1      41.992  35.770  36.564  1.00  0.00     0.040 A 
ATOM     70  F   UNL A   1      41.024  33.657  36.230  1.00  0.00    -0.206 F 
ATOM     71  C   UNL A   1      42.681  36.876  36.071  1.00  0.00     0.006 A 
ENDBRANCH  50  64
BRANCH  51  72
ATOM     72  C   UNL A   1      40.252  27.037  28.253  1.00  0.00     0.057 A 
ATOM     73  C   UNL A   1      40.829  27.003  26.978  1.00  0.00     0.134 A 
ATOM     74  C   UNL A   1      39.443  25.957  28.624  1.00  0.00     0.134 A 
ATOM     75  F   UNL A   1      41.608  28.011  26.559  1.00  0.00    -0.206 F 
ATOM     76  C   UNL A   1      40.603  25.939  26.101  1.00  0.00     0.040 A 
ATOM     77  C   UNL A   1      39.230  24.875  27.768  1.00  0.00     0.040 A 
ATOM     78  F   UNL A   1      38.878  25.923  29.840  1.00  0.00    -0.206 F 
ATOM     79  C   UNL A   1      39.807  24.868  26.500  1.00  0.00     0.006 A 
ENDBRANCH  51  72
BRANCH  63  80
ATOM     80  C   UNL A   1      45.425  28.661  32.638  1.00  0.00     0.057 A 
ATOM     81  C   UNL A   1      45.462  27.776  33.724  1.00  0.00     0.134 A 
ATOM     82  C   UNL A   1      46.631  28.937  31.984  1.00  0.00     0.134 A 
ATOM     83  F   UNL A   1      44.342  27.479  34.400  1.00  0.00    -0.206 F 
ATOM     84  C   UNL A   1      46.659  27.203  34.156  1.00  0.00     0.040 A 
ATOM     85  C   UNL A   1      47.830  28.351  32.391  1.00  0.00     0.040 A 
ATOM     86  F   UNL A   1      46.659  29.769  30.932  1.00  0.00    -0.206 F 
ATOM     87  C   UNL A   1      47.847  27.489  33.487  1.00  0.00     0.006 A 
ENDBRANCH  63  80
ENDBRANCH  37  38
ENDBRANCH  29  32
ENDBRANCH  27  28
ENDBRANCH  26  27
ENDBRANCH  25  26
ENDBRANCH   1  25
TORSDOF 15
ENDMDL
