MODEL 1
REMARK VINA RESULT:     -11.5      0.000      0.000
REMARK SMILES CCCc1c(C(=O)NCCCCCCNC(=O)c2ccc(-c3c4nc(c(-c5c(F)cccc5F)c5ccc([nH]5)c(-c5c(F)cccc5F)c5nc(c(-c6c(F)cccc6F)c6ccc3[nH]6)C=C5)C=C4)cc2)nnn1-c1ccccc1[N+](=O)[O-]
REMARK SMILES IDX 11 1 10 2 9 3 8 4 6 5 7 6 5 8 4 9 74 10 72 11 73 12 3 13
REMARK SMILES IDX 2 14 1 15 75 16 76 17 80 18 77 19 79 20 78 21 81 22 82 23
REMARK SMILES IDX 83 24 12 25 13 26 14 27 15 28 16 29 17 31 18 32 19 33 71 34
REMARK SMILES IDX 20 35 70 36 21 37 22 38 23 39 64 40 24 41 69 42 63 43 65 44
REMARK SMILES IDX 25 45 68 46 62 47 61 48 26 50 52 51 35 52 51 53 36 54 39 55
REMARK SMILES IDX 50 56 66 57 37 58 38 59 49 61 67 62 40 63 27 64 28 65 33 66
REMARK SMILES IDX 29 67 30 68 32 69 34 70 31 71 53 72 54 73 59 74 55 75 56 76
REMARK SMILES IDX 58 77 60 78 57 79 41 80 42 81 47 82 43 83 44 84 46 85 48 86
REMARK SMILES IDX 45 87
REMARK H PARENT 8 7 15 30 65 49 39 60
REMARK Flexibility Score: inf
ROOT
ATOM      1  C   UNL A   1      40.298  20.225  25.996  1.00  0.00     0.002 C 
ENDROOT
BRANCH   1   2
ATOM      2  C   UNL A   1      39.669  21.588  26.262  1.00  0.00     0.021 C 
BRANCH   2   3
ATOM      3  C   UNL A   1      38.400  21.941  25.508  1.00  0.00     0.116 C 
BRANCH   3   4
ATOM      4  N   UNL A   1      37.481  20.894  25.191  1.00  0.00    -0.351 N 
ATOM      5  C   UNL A   1      36.099  20.906  25.192  1.00  0.00     0.273 C 
ATOM      6  O   UNL A   1      35.582  19.833  24.864  1.00  0.00    -0.267 OA
ATOM      7  H   UNL A   1      37.892  20.038  24.933  1.00  0.00     0.163 HD
BRANCH   5   8
ATOM      8  C   UNL A   1      35.245  22.053  25.592  1.00  0.00     0.174 A 
ATOM      9  C   UNL A   1      34.578  23.122  24.946  1.00  0.00     0.078 A 
ATOM     10  N   UNL A   1      33.866  23.713  25.993  1.00  0.00    -0.210 N 
ATOM     11  N   UNL A   1      35.022  22.175  26.951  1.00  0.00    -0.124 NA
ATOM     12  N   UNL A   1      34.301  23.251  27.177  1.00  0.00    -0.061 NA
BRANCH   9  13
ATOM     13  C   UNL A   1      34.680  23.615  23.527  1.00  0.00     0.059 C 
BRANCH  13  14
ATOM     14  C   UNL A   1      33.590  23.580  22.473  1.00  0.00     0.003 C 
ATOM     15  C   UNL A   1      32.613  22.419  22.597  1.00  0.00     0.004 C 
ENDBRANCH  13  14
ENDBRANCH   9  13
BRANCH  10  16
ATOM     16  C   UNL A   1      32.969  24.796  25.999  1.00  0.00     0.144 A 
ATOM     17  C   UNL A   1      33.521  26.083  25.879  1.00  0.00     0.036 A 
ATOM     18  C   UNL A   1      31.578  24.640  26.081  1.00  0.00     0.294 A 
ATOM     19  C   UNL A   1      32.684  27.185  25.698  1.00  0.00     0.003 A 
ATOM     20  C   UNL A   1      30.742  25.753  25.883  1.00  0.00     0.088 A 
ATOM     21  C   UNL A   1      31.300  27.016  25.668  1.00  0.00     0.007 A 
BRANCH  18  22
ATOM     22  N   UNL A   1      30.945  23.360  26.423  1.00  0.00     0.065 N 
ATOM     23  O   UNL A   1      30.570  22.643  25.484  1.00  0.00    -0.258 OA
ATOM     24  O   UNL A   1      30.834  23.065  27.617  1.00  0.00    -0.258 OA
ENDBRANCH  18  22
ENDBRANCH  10  16
ENDBRANCH   5   8
ENDBRANCH   3   4
ENDBRANCH   2   3
ENDBRANCH   1   2
BRANCH   1  25
ATOM     25  C   UNL A   1      41.691  19.943  26.575  1.00  0.00     0.002 C 
BRANCH  25  26
ATOM     26  C   UNL A   1      42.379  18.617  26.228  1.00  0.00     0.021 C 
BRANCH  26  27
ATOM     27  C   UNL A   1      43.898  18.661  26.146  1.00  0.00     0.116 C 
BRANCH  27  28
ATOM     28  N   UNL A   1      44.411  18.583  24.784  1.00  0.00    -0.352 N 
ATOM     29  C   UNL A   1      44.623  19.624  23.897  1.00  0.00     0.251 C 
ATOM     30  H   UNL A   1      44.635  17.682  24.457  1.00  0.00     0.163 HD
ATOM     31  O   UNL A   1      44.721  19.429  22.701  1.00  0.00    -0.269 OA
BRANCH  29  32
ATOM     32  C   UNL A   1      44.714  20.993  24.440  1.00  0.00     0.039 A 
ATOM     33  C   UNL A   1      43.744  21.950  24.132  1.00  0.00     0.014 A 
ATOM     34  C   UNL A   1      45.759  21.286  25.310  1.00  0.00     0.014 A 
ATOM     35  C   UNL A   1      43.779  23.177  24.791  1.00  0.00     0.010 A 
ATOM     36  C   UNL A   1      45.718  22.443  26.051  1.00  0.00     0.010 A 
ATOM     37  C   UNL A   1      44.750  23.409  25.778  1.00  0.00    -0.014 A 
BRANCH  37  38
ATOM     38  C   UNL A   1      44.662  24.594  26.636  1.00  0.00     0.031 A 
ATOM     39  C   UNL A   1      45.811  25.537  26.513  1.00  0.00     0.074 A 
ATOM     40  C   UNL A   1      43.534  24.948  27.292  1.00  0.00     0.049 A 
ATOM     41  N   UNL A   1      46.645  25.899  27.432  1.00  0.00    -0.248 NA
ATOM     42  C   UNL A   1      46.141  26.066  25.177  1.00  0.00     0.031 C 
ATOM     43  C   UNL A   1      42.227  24.280  27.231  1.00  0.00     0.029 A 
ATOM     44  N   UNL A   1      43.271  26.051  28.055  1.00  0.00    -0.354 N 
ATOM     45  C   UNL A   1      47.466  26.865  26.848  1.00  0.00     0.074 A 
ATOM     46  C   UNL A   1      47.231  26.795  25.432  1.00  0.00     0.031 C 
ATOM     47  C   UNL A   1      41.271  25.109  27.699  1.00  0.00     0.029 A 
ATOM     48  C   UNL A   1      41.916  26.275  28.272  1.00  0.00     0.049 A 
ATOM     49  H   UNL A   1      43.976  26.634  28.419  1.00  0.00     0.167 HD
ATOM     50  C   UNL A   1      48.046  27.834  27.610  1.00  0.00     0.037 A 
ATOM     51  C   UNL A   1      41.337  27.335  28.881  1.00  0.00     0.037 A 
ATOM     52  C   UNL A   1      47.975  27.492  29.007  1.00  0.00     0.049 A 
ATOM     53  C   UNL A   1      42.354  27.986  29.730  1.00  0.00     0.074 A 
ATOM     54  C   UNL A   1      48.604  26.625  29.871  1.00  0.00     0.029 A 
ATOM     55  N   UNL A   1      46.821  27.910  29.611  1.00  0.00    -0.354 N 
ATOM     56  N   UNL A   1      42.871  27.429  30.789  1.00  0.00    -0.248 NA
ATOM     57  C   UNL A   1      43.067  29.157  29.230  1.00  0.00     0.031 C 
ATOM     58  C   UNL A   1      47.683  26.394  30.937  1.00  0.00     0.029 A 
ATOM     59  C   UNL A   1      46.536  27.151  30.711  1.00  0.00     0.049 A 
ATOM     60  H   UNL A   1      46.269  28.661  29.296  1.00  0.00     0.167 HD
ATOM     61  C   UNL A   1      44.172  27.889  30.813  1.00  0.00     0.074 A 
ATOM     62  C   UNL A   1      44.175  29.077  29.971  1.00  0.00     0.031 C 
ATOM     63  C   UNL A   1      45.188  27.079  31.228  1.00  0.00     0.037 A 
BRANCH  50  64
ATOM     64  C   UNL A   1      48.205  29.289  27.200  1.00  0.00     0.057 A 
ATOM     65  C   UNL A   1      49.447  29.922  27.417  1.00  0.00     0.134 A 
ATOM     66  C   UNL A   1      47.134  30.166  26.940  1.00  0.00     0.134 A 
ATOM     67  F   UNL A   1      50.551  29.204  27.678  1.00  0.00    -0.206 F 
ATOM     68  C   UNL A   1      49.588  31.315  27.466  1.00  0.00     0.040 A 
ATOM     69  C   UNL A   1      47.273  31.559  26.940  1.00  0.00     0.040 A 
ATOM     70  F   UNL A   1      45.876  29.739  26.777  1.00  0.00    -0.206 F 
ATOM     71  C   UNL A   1      48.495  32.140  27.239  1.00  0.00     0.006 A 
ENDBRANCH  50  64
BRANCH  51  72
ATOM     72  C   UNL A   1      39.997  27.916  28.661  1.00  0.00     0.057 A 
ATOM     73  C   UNL A   1      39.025  27.921  29.668  1.00  0.00     0.134 A 
ATOM     74  C   UNL A   1      39.733  28.715  27.536  1.00  0.00     0.134 A 
ATOM     75  F   UNL A   1      39.205  27.213  30.792  1.00  0.00    -0.206 F 
ATOM     76  C   UNL A   1      37.864  28.699  29.574  1.00  0.00     0.040 A 
ATOM     77  C   UNL A   1      38.578  29.494  27.427  1.00  0.00     0.040 A 
ATOM     78  F   UNL A   1      40.633  28.830  26.546  1.00  0.00    -0.206 F 
ATOM     79  C   UNL A   1      37.644  29.499  28.456  1.00  0.00     0.006 A 
ENDBRANCH  51  72
BRANCH  63  80
ATOM     80  C   UNL A   1      44.836  25.935  32.126  1.00  0.00     0.057 A 
ATOM     81  C   UNL A   1      44.584  26.049  33.499  1.00  0.00     0.134 A 
ATOM     82  C   UNL A   1      44.674  24.670  31.551  1.00  0.00     0.134 A 
ATOM     83  F   UNL A   1      44.639  27.233  34.120  1.00  0.00    -0.206 F 
ATOM     84  C   UNL A   1      44.229  24.941  34.273  1.00  0.00     0.040 A 
ATOM     85  C   UNL A   1      44.285  23.563  32.305  1.00  0.00     0.040 A 
ATOM     86  F   UNL A   1      44.858  24.499  30.232  1.00  0.00    -0.206 F 
ATOM     87  C   UNL A   1      44.073  23.694  33.674  1.00  0.00     0.006 A 
ENDBRANCH  63  80
ENDBRANCH  37  38
ENDBRANCH  29  32
ENDBRANCH  27  28
ENDBRANCH  26  27
ENDBRANCH  25  26
ENDBRANCH   1  25
TORSDOF 17
ENDMDL
MODEL 2
REMARK VINA RESULT:     -11.3      1.937      2.603
REMARK SMILES CCCc1c(C(=O)NCCCCCCNC(=O)c2ccc(-c3c4nc(c(-c5c(F)cccc5F)c5ccc([nH]5)c(-c5c(F)cccc5F)c5nc(c(-c6c(F)cccc6F)c6ccc3[nH]6)C=C5)C=C4)cc2)nnn1-c1ccccc1[N+](=O)[O-]
REMARK SMILES IDX 11 1 10 2 9 3 8 4 6 5 7 6 5 8 4 9 74 10 72 11 73 12 3 13
REMARK SMILES IDX 2 14 1 15 75 16 76 17 80 18 77 19 79 20 78 21 81 22 82 23
REMARK SMILES IDX 83 24 12 25 13 26 14 27 15 28 16 29 17 31 18 32 19 33 71 34
REMARK SMILES IDX 20 35 70 36 21 37 22 38 23 39 64 40 24 41 69 42 63 43 65 44
REMARK SMILES IDX 25 45 68 46 62 47 61 48 26 50 52 51 35 52 51 53 36 54 39 55
REMARK SMILES IDX 50 56 66 57 37 58 38 59 49 61 67 62 40 63 27 64 28 65 33 66
REMARK SMILES IDX 29 67 30 68 32 69 34 70 31 71 53 72 54 73 59 74 55 75 56 76
REMARK SMILES IDX 58 77 60 78 57 79 41 80 42 81 47 82 43 83 44 84 46 85 48 86
REMARK SMILES IDX 45 87
REMARK H PARENT 8 7 15 30 65 49 39 60
REMARK Flexibility Score: inf
ROOT
ATOM      1  C   UNL A   1      39.117  22.068  26.004  1.00  0.00     0.002 C 
ENDROOT
BRANCH   1   2
ATOM      2  C   UNL A   1      38.488  23.407  26.371  1.00  0.00     0.021 C 
BRANCH   2   3
ATOM      3  C   UNL A   1      36.995  23.571  26.156  1.00  0.00     0.116 C 
BRANCH   3   4
ATOM      4  N   UNL A   1      36.186  22.396  26.063  1.00  0.00    -0.351 N 
ATOM      5  C   UNL A   1      34.836  22.276  25.794  1.00  0.00     0.273 C 
ATOM      6  O   UNL A   1      34.422  21.112  25.777  1.00  0.00    -0.267 OA
ATOM      7  H   UNL A   1      36.660  21.546  26.211  1.00  0.00     0.163 HD
BRANCH   5   8
ATOM      8  C   UNL A   1      33.892  23.404  25.587  1.00  0.00     0.174 A 
ATOM      9  C   UNL A   1      33.421  24.172  24.495  1.00  0.00     0.078 A 
ATOM     10  N   UNL A   1      32.440  24.972  25.086  1.00  0.00    -0.210 N 
ATOM     11  N   UNL A   1      33.300  23.895  26.735  1.00  0.00    -0.124 NA
ATOM     12  N   UNL A   1      32.533  24.917  26.425  1.00  0.00    -0.061 NA
BRANCH   9  13
ATOM     13  C   UNL A   1      33.909  24.238  23.071  1.00  0.00     0.059 C 
BRANCH  13  14
ATOM     14  C   UNL A   1      33.060  24.158  21.816  1.00  0.00     0.003 C 
ATOM     15  C   UNL A   1      32.735  25.499  21.173  1.00  0.00     0.004 C 
ENDBRANCH  13  14
ENDBRANCH   9  13
BRANCH  10  16
ATOM     16  C   UNL A   1      31.566  25.920  24.526  1.00  0.00     0.144 A 
ATOM     17  C   UNL A   1      30.291  25.466  24.143  1.00  0.00     0.036 A 
ATOM     18  C   UNL A   1      31.896  27.273  24.373  1.00  0.00     0.294 A 
ATOM     19  C   UNL A   1      29.315  26.382  23.750  1.00  0.00     0.003 A 
ATOM     20  C   UNL A   1      30.903  28.192  23.990  1.00  0.00     0.088 A 
ATOM     21  C   UNL A   1      29.611  27.744  23.705  1.00  0.00     0.007 A 
BRANCH  18  22
ATOM     22  N   UNL A   1      33.265  27.777  24.545  1.00  0.00     0.065 N 
ATOM     23  O   UNL A   1      33.580  28.193  25.668  1.00  0.00    -0.258 OA
ATOM     24  O   UNL A   1      34.025  27.745  23.570  1.00  0.00    -0.258 OA
ENDBRANCH  18  22
ENDBRANCH  10  16
ENDBRANCH   5   8
ENDBRANCH   3   4
ENDBRANCH   2   3
ENDBRANCH   1   2
BRANCH   1  25
ATOM     25  C   UNL A   1      40.234  21.520  26.904  1.00  0.00     0.002 C 
BRANCH  25  26
ATOM     26  C   UNL A   1      40.888  20.182  26.536  1.00  0.00     0.021 C 
BRANCH  26  27
ATOM     27  C   UNL A   1      42.292  19.961  27.077  1.00  0.00     0.116 C 
BRANCH  27  28
ATOM     28  N   UNL A   1      43.272  19.647  26.045  1.00  0.00    -0.352 N 
ATOM     29  C   UNL A   1      43.926  20.529  25.201  1.00  0.00     0.251 C 
ATOM     30  H   UNL A   1      43.497  18.695  25.936  1.00  0.00     0.163 HD
ATOM     31  O   UNL A   1      44.448  20.151  24.169  1.00  0.00    -0.269 OA
BRANCH  29  32
ATOM     32  C   UNL A   1      43.963  21.954  25.578  1.00  0.00     0.039 A 
ATOM     33  C   UNL A   1      43.060  22.864  25.023  1.00  0.00     0.014 A 
ATOM     34  C   UNL A   1      44.883  22.356  26.541  1.00  0.00     0.014 A 
ATOM     35  C   UNL A   1      43.023  24.164  25.523  1.00  0.00     0.010 A 
ATOM     36  C   UNL A   1      44.758  23.596  27.121  1.00  0.00     0.010 A 
ATOM     37  C   UNL A   1      43.852  24.519  26.599  1.00  0.00    -0.014 A 
BRANCH  37  38
ATOM     38  C   UNL A   1      43.665  25.801  27.283  1.00  0.00     0.031 A 
ATOM     39  C   UNL A   1      44.656  26.854  26.913  1.00  0.00     0.074 A 
ATOM     40  C   UNL A   1      42.554  26.105  27.992  1.00  0.00     0.049 A 
ATOM     41  N   UNL A   1      45.500  27.457  27.682  1.00  0.00    -0.248 NA
ATOM     42  C   UNL A   1      44.800  27.207  25.489  1.00  0.00     0.031 C 
ATOM     43  C   UNL A   1      41.355  25.274  28.157  1.00  0.00     0.029 A 
ATOM     44  N   UNL A   1      42.199  27.270  28.612  1.00  0.00    -0.354 N 
ATOM     45  C   UNL A   1      46.126  28.419  26.888  1.00  0.00     0.074 A 
ATOM     46  C   UNL A   1      45.792  28.100  25.527  1.00  0.00     0.031 C 
ATOM     47  C   UNL A   1      40.331  26.035  28.595  1.00  0.00     0.029 A 
ATOM     48  C   UNL A   1      40.847  27.349  28.928  1.00  0.00     0.049 A 
ATOM     49  H   UNL A   1      42.841  27.988  28.816  1.00  0.00     0.167 HD
ATOM     50  C   UNL A   1      46.622  29.560  27.441  1.00  0.00     0.037 A 
ATOM     51  C   UNL A   1      40.174  28.408  29.434  1.00  0.00     0.037 A 
ATOM     52  C   UNL A   1      46.711  29.433  28.873  1.00  0.00     0.049 A 
ATOM     53  C   UNL A   1      41.153  29.308  30.075  1.00  0.00     0.074 A 
ATOM     54  C   UNL A   1      47.523  28.798  29.784  1.00  0.00     0.029 A 
ATOM     55  N   UNL A   1      45.561  29.788  29.524  1.00  0.00    -0.354 N 
ATOM     56  N   UNL A   1      41.826  28.992  31.146  1.00  0.00    -0.248 NA
ATOM     57  C   UNL A   1      41.650  30.468  29.345  1.00  0.00     0.031 C 
ATOM     58  C   UNL A   1      46.733  28.620  30.959  1.00  0.00     0.029 A 
ATOM     59  C   UNL A   1      45.476  29.179  30.743  1.00  0.00     0.049 A 
ATOM     60  H   UNL A   1      44.885  30.404  29.161  1.00  0.00     0.167 HD
ATOM     61  C   UNL A   1      43.046  29.614  30.974  1.00  0.00     0.074 A 
ATOM     62  C   UNL A   1      42.814  30.648  29.975  1.00  0.00     0.031 C 
ATOM     63  C   UNL A   1      44.196  29.016  31.397  1.00  0.00     0.037 A 
BRANCH  50  64
ATOM     64  C   UNL A   1      46.540  30.943  26.814  1.00  0.00     0.057 A 
ATOM     65  C   UNL A   1      47.693  31.754  26.811  1.00  0.00     0.134 A 
ATOM     66  C   UNL A   1      45.338  31.625  26.543  1.00  0.00     0.134 A 
ATOM     67  F   UNL A   1      48.906  31.232  27.057  1.00  0.00    -0.206 F 
ATOM     68  C   UNL A   1      47.640  33.145  26.645  1.00  0.00     0.040 A 
ATOM     69  C   UNL A   1      45.279  33.007  26.329  1.00  0.00     0.040 A 
ATOM     70  F   UNL A   1      44.144  31.022  26.571  1.00  0.00    -0.206 F 
ATOM     71  C   UNL A   1      46.426  33.778  26.415  1.00  0.00     0.006 A 
ENDBRANCH  50  64
BRANCH  51  72
ATOM     72  C   UNL A   1      38.752  28.771  29.268  1.00  0.00     0.057 A 
ATOM     73  C   UNL A   1      37.868  28.791  30.354  1.00  0.00     0.134 A 
ATOM     74  C   UNL A   1      38.292  29.360  28.078  1.00  0.00     0.134 A 
ATOM     75  F   UNL A   1      38.232  28.281  31.538  1.00  0.00    -0.206 F 
ATOM     76  C   UNL A   1      36.604  29.389  30.270  1.00  0.00     0.040 A 
ATOM     77  C   UNL A   1      37.032  29.957  27.979  1.00  0.00     0.040 A 
ATOM     78  F   UNL A   1      39.088  29.450  27.001  1.00  0.00    -0.206 F 
ATOM     79  C   UNL A   1      36.188  29.987  29.083  1.00  0.00     0.006 A 
ENDBRANCH  51  72
BRANCH  63  80
ATOM     80  C   UNL A   1      44.083  27.989  32.480  1.00  0.00     0.057 A 
ATOM     81  C   UNL A   1      44.003  26.608  32.263  1.00  0.00     0.134 A 
ATOM     82  C   UNL A   1      44.131  28.423  33.809  1.00  0.00     0.134 A 
ATOM     83  F   UNL A   1      44.029  26.096  31.026  1.00  0.00    -0.206 F 
ATOM     84  C   UNL A   1      43.931  25.701  33.324  1.00  0.00     0.040 A 
ATOM     85  C   UNL A   1      44.096  27.527  34.878  1.00  0.00     0.040 A 
ATOM     86  F   UNL A   1      44.250  29.731  34.089  1.00  0.00    -0.206 F 
ATOM     87  C   UNL A   1      43.983  26.162  34.637  1.00  0.00     0.006 A 
ENDBRANCH  63  80
ENDBRANCH  37  38
ENDBRANCH  29  32
ENDBRANCH  27  28
ENDBRANCH  26  27
ENDBRANCH  25  26
ENDBRANCH   1  25
TORSDOF 17
ENDMDL
MODEL 3
REMARK VINA RESULT:     -11.2      2.593      7.636
REMARK SMILES CCCc1c(C(=O)NCCCCCCNC(=O)c2ccc(-c3c4nc(c(-c5c(F)cccc5F)c5ccc([nH]5)c(-c5c(F)cccc5F)c5nc(c(-c6c(F)cccc6F)c6ccc3[nH]6)C=C5)C=C4)cc2)nnn1-c1ccccc1[N+](=O)[O-]
REMARK SMILES IDX 11 1 10 2 9 3 8 4 6 5 7 6 5 8 4 9 74 10 72 11 73 12 3 13
REMARK SMILES IDX 2 14 1 15 75 16 76 17 80 18 77 19 79 20 78 21 81 22 82 23
REMARK SMILES IDX 83 24 12 25 13 26 14 27 15 28 16 29 17 31 18 32 19 33 71 34
REMARK SMILES IDX 20 35 70 36 21 37 22 38 23 39 64 40 24 41 69 42 63 43 65 44
REMARK SMILES IDX 25 45 68 46 62 47 61 48 26 50 52 51 35 52 51 53 36 54 39 55
REMARK SMILES IDX 50 56 66 57 37 58 38 59 49 61 67 62 40 63 27 64 28 65 33 66
REMARK SMILES IDX 29 67 30 68 32 69 34 70 31 71 53 72 54 73 59 74 55 75 56 76
REMARK SMILES IDX 58 77 60 78 57 79 41 80 42 81 47 82 43 83 44 84 46 85 48 86
REMARK SMILES IDX 45 87
REMARK H PARENT 8 7 15 30 65 49 39 60
REMARK Flexibility Score: inf
ROOT
ATOM      1  C   UNL A   1      31.898  27.549  26.920  1.00  0.00     0.002 C 
ENDROOT
BRANCH   1   2
ATOM      2  C   UNL A   1      30.733  26.949  26.141  1.00  0.00     0.021 C 
BRANCH   2   3
ATOM      3  C   UNL A   1      30.917  26.731  24.650  1.00  0.00     0.116 C 
BRANCH   3   4
ATOM      4  N   UNL A   1      32.074  27.281  24.017  1.00  0.00    -0.351 N 
ATOM      5  C   UNL A   1      33.183  26.640  23.499  1.00  0.00     0.273 C 
ATOM      6  O   UNL A   1      34.025  27.399  23.007  1.00  0.00    -0.267 OA
ATOM      7  H   UNL A   1      32.083  28.263  23.938  1.00  0.00     0.163 HD
BRANCH   5   8
ATOM      8  C   UNL A   1      33.434  25.177  23.542  1.00  0.00     0.174 A 
ATOM      9  C   UNL A   1      33.412  24.151  24.517  1.00  0.00     0.078 A 
ATOM     10  N   UNL A   1      33.636  23.002  23.755  1.00  0.00    -0.210 N 
ATOM     11  N   UNL A   1      33.816  24.610  22.341  1.00  0.00    -0.124 NA
ATOM     12  N   UNL A   1      34.057  23.330  22.522  1.00  0.00    -0.061 NA
BRANCH   9  13
ATOM     13  C   UNL A   1      33.308  24.238  26.017  1.00  0.00     0.059 C 
BRANCH  13  14
ATOM     14  C   UNL A   1      32.203  23.666  26.885  1.00  0.00     0.003 C 
ATOM     15  C   UNL A   1      30.940  23.267  26.137  1.00  0.00     0.004 C 
ENDBRANCH  13  14
ENDBRANCH   9  13
BRANCH  10  16
ATOM     16  C   UNL A   1      33.683  21.647  24.126  1.00  0.00     0.144 A 
ATOM     17  C   UNL A   1      32.503  20.899  23.965  1.00  0.00     0.036 A 
ATOM     18  C   UNL A   1      34.843  21.020  24.603  1.00  0.00     0.294 A 
ATOM     19  C   UNL A   1      32.526  19.515  24.142  1.00  0.00     0.003 A 
ATOM     20  C   UNL A   1      34.862  19.624  24.765  1.00  0.00     0.088 A 
ATOM     21  C   UNL A   1      33.709  18.876  24.509  1.00  0.00     0.007 A 
BRANCH  18  22
ATOM     22  N   UNL A   1      36.040  21.772  25.000  1.00  0.00     0.065 N 
ATOM     23  O   UNL A   1      36.133  22.106  26.189  1.00  0.00    -0.258 OA
ATOM     24  O   UNL A   1      36.890  22.014  24.136  1.00  0.00    -0.258 OA
ENDBRANCH  18  22
ENDBRANCH  10  16
ENDBRANCH   5   8
ENDBRANCH   3   4
ENDBRANCH   2   3
ENDBRANCH   1   2
BRANCH   1  25
ATOM     25  C   UNL A   1      32.214  29.038  26.720  1.00  0.00     0.002 C 
BRANCH  25  26
ATOM     26  C   UNL A   1      33.648  29.446  26.361  1.00  0.00     0.021 C 
BRANCH  26  27
ATOM     27  C   UNL A   1      34.711  29.107  27.396  1.00  0.00     0.116 C 
BRANCH  27  28
ATOM     28  N   UNL A   1      34.949  30.175  28.359  1.00  0.00    -0.352 N 
ATOM     29  C   UNL A   1      36.037  30.331  29.200  1.00  0.00     0.251 C 
ATOM     30  H   UNL A   1      34.253  30.869  28.417  1.00  0.00     0.163 HD
ATOM     31  O   UNL A   1      35.982  31.042  30.185  1.00  0.00    -0.269 OA
BRANCH  29  32
ATOM     32  C   UNL A   1      37.275  29.596  28.879  1.00  0.00     0.039 A 
ATOM     33  C   UNL A   1      38.011  29.901  27.732  1.00  0.00     0.014 A 
ATOM     34  C   UNL A   1      37.719  28.631  29.779  1.00  0.00     0.014 A 
ATOM     35  C   UNL A   1      39.253  29.297  27.550  1.00  0.00     0.010 A 
ATOM     36  C   UNL A   1      38.996  28.135  29.665  1.00  0.00     0.010 A 
ATOM     37  C   UNL A   1      39.760  28.438  28.538  1.00  0.00    -0.014 A 
BRANCH  37  38
ATOM     38  C   UNL A   1      41.150  27.978  28.474  1.00  0.00     0.031 A 
ATOM     39  C   UNL A   1      41.350  26.703  27.725  1.00  0.00     0.074 A 
ATOM     40  C   UNL A   1      42.201  28.752  28.829  1.00  0.00     0.049 A 
ATOM     41  N   UNL A   1      41.823  25.586  28.169  1.00  0.00    -0.248 NA
ATOM     42  C   UNL A   1      40.865  26.627  26.335  1.00  0.00     0.031 C 
ATOM     43  C   UNL A   1      42.160  30.152  29.271  1.00  0.00     0.029 A 
ATOM     44  N   UNL A   1      43.542  28.501  28.752  1.00  0.00    -0.354 N 
ATOM     45  C   UNL A   1      41.902  24.735  27.065  1.00  0.00     0.074 A 
ATOM     46  C   UNL A   1      41.141  25.359  26.017  1.00  0.00     0.031 C 
ATOM     47  C   UNL A   1      43.391  30.695  29.175  1.00  0.00     0.029 A 
ATOM     48  C   UNL A   1      44.334  29.639  28.858  1.00  0.00     0.049 A 
ATOM     49  H   UNL A   1      43.914  27.598  28.632  1.00  0.00     0.167 HD
ATOM     50  C   UNL A   1      42.830  23.739  27.023  1.00  0.00     0.037 A 
ATOM     51  C   UNL A   1      45.675  29.734  28.705  1.00  0.00     0.037 A 
ATOM     52  C   UNL A   1      43.390  23.511  28.329  1.00  0.00     0.049 A 
ATOM     53  C   UNL A   1      46.254  28.391  28.904  1.00  0.00     0.074 A 
ATOM     54  C   UNL A   1      43.002  22.916  29.508  1.00  0.00     0.029 A 
ATOM     55  N   UNL A   1      44.468  24.306  28.606  1.00  0.00    -0.354 N 
ATOM     56  N   UNL A   1      46.246  27.767  30.048  1.00  0.00    -0.248 NA
ATOM     57  C   UNL A   1      46.571  27.566  27.744  1.00  0.00     0.031 C 
ATOM     58  C   UNL A   1      43.774  23.536  30.536  1.00  0.00     0.029 A 
ATOM     59  C   UNL A   1      44.633  24.465  29.953  1.00  0.00     0.049 A 
ATOM     60  H   UNL A   1      45.051  24.710  27.923  1.00  0.00     0.167 HD
ATOM     61  C   UNL A   1      46.115  26.436  29.706  1.00  0.00     0.074 A 
ATOM     62  C   UNL A   1      46.517  26.357  28.309  1.00  0.00     0.031 C 
ATOM     63  C   UNL A   1      45.373  25.591  30.477  1.00  0.00     0.037 A 
BRANCH  50  64
ATOM     64  C   UNL A   1      43.614  23.327  25.787  1.00  0.00     0.057 A 
ATOM     65  C   UNL A   1      43.698  21.957  25.464  1.00  0.00     0.134 A 
ATOM     66  C   UNL A   1      44.550  24.148  25.127  1.00  0.00     0.134 A 
ATOM     67  F   UNL A   1      42.867  21.064  26.024  1.00  0.00    -0.206 F 
ATOM     68  C   UNL A   1      44.694  21.437  24.625  1.00  0.00     0.040 A 
ATOM     69  C   UNL A   1      45.519  23.644  24.251  1.00  0.00     0.040 A 
ATOM     70  F   UNL A   1      44.654  25.460  25.366  1.00  0.00    -0.206 F 
ATOM     71  C   UNL A   1      45.617  22.282  24.025  1.00  0.00     0.006 A 
ENDBRANCH  50  64
BRANCH  51  72
ATOM     72  C   UNL A   1      46.479  30.886  28.248  1.00  0.00     0.057 A 
ATOM     73  C   UNL A   1      46.495  31.284  26.906  1.00  0.00     0.134 A 
ATOM     74  C   UNL A   1      47.045  31.781  29.171  1.00  0.00     0.134 A 
ATOM     75  F   UNL A   1      45.950  30.509  25.959  1.00  0.00    -0.206 F 
ATOM     76  C   UNL A   1      47.022  32.518  26.505  1.00  0.00     0.040 A 
ATOM     77  C   UNL A   1      47.578  33.015  28.784  1.00  0.00     0.040 A 
ATOM     78  F   UNL A   1      47.020  31.522  30.487  1.00  0.00    -0.206 F 
ATOM     79  C   UNL A   1      47.554  33.394  27.448  1.00  0.00     0.006 A 
ENDBRANCH  51  72
BRANCH  63  80
ATOM     80  C   UNL A   1      45.164  25.967  31.910  1.00  0.00     0.057 A 
ATOM     81  C   UNL A   1      46.102  25.764  32.931  1.00  0.00     0.134 A 
ATOM     82  C   UNL A   1      43.983  26.633  32.253  1.00  0.00     0.134 A 
ATOM     83  F   UNL A   1      47.291  25.205  32.681  1.00  0.00    -0.206 F 
ATOM     84  C   UNL A   1      45.854  26.170  34.246  1.00  0.00     0.040 A 
ATOM     85  C   UNL A   1      43.738  27.074  33.554  1.00  0.00     0.040 A 
ATOM     86  F   UNL A   1      43.060  26.898  31.316  1.00  0.00    -0.206 F 
ATOM     87  C   UNL A   1      44.670  26.832  34.558  1.00  0.00     0.006 A 
ENDBRANCH  63  80
ENDBRANCH  37  38
ENDBRANCH  29  32
ENDBRANCH  27  28
ENDBRANCH  26  27
ENDBRANCH  25  26
ENDBRANCH   1  25
TORSDOF 17
ENDMDL
