MODEL 1
REMARK VINA RESULT:     -12.3      0.000      0.000
REMARK SMILES O=C(NCCCCCCNC(=O)[C@@H]1[C@@H](C(=O)Nc2nc(-c3ccc(F)cc3)cs2)[C@H]2C=C[C@@H]1O2)c1ccc(-c2c3nc(c(-c4c(F)cccc4F)c4ccc([nH]4)c(-c4c(F)cccc4F)c4nc(c(-c5c(F)cccc5F)c5ccc2[nH]5)C=C4)C=C3)cc1
REMARK SMILES IDX 7 1 6 2 5 3 4 4 3 5 1 6 2 7 35 9 36 10 88 11 37 12 87 13
REMARK SMILES IDX 38 14 39 15 40 16 81 17 41 18 86 19 80 20 82 21 42 22 85 23
REMARK SMILES IDX 79 24 78 25 43 27 69 28 52 29 68 30 53 31 56 32 67 33 83 34
REMARK SMILES IDX 54 35 55 36 66 38 84 39 57 40 44 41 45 42 50 43 46 44 47 45
REMARK SMILES IDX 49 46 51 47 48 48 70 49 71 50 76 51 72 52 73 53 75 54 77 55
REMARK SMILES IDX 74 56 58 57 59 58 64 59 60 60 61 61 63 62 65 63 62 64 8 65
REMARK SMILES IDX 9 66 10 67 11 68 12 70 13 71 14 72 33 73 30 74 32 75 34 76
REMARK SMILES IDX 31 77 15 78 16 79 17 80 18 82 19 83 29 84 20 85 28 86 21 87
REMARK SMILES IDX 22 88 27 89 23 90 26 91 24 92 25 93
REMARK H PARENT 3 8 82 26 56 37 10 69 17 81
REMARK Flexibility Score: inf
ROOT
ATOM      1  C   UNL A   1      32.214  29.988  27.245  1.00  0.00     0.002 C 
ENDROOT
BRANCH   1   2
ATOM      2  C   UNL A   1      31.463  30.839  26.217  1.00  0.00     0.002 C 
BRANCH   2   3
ATOM      3  C   UNL A   1      31.386  32.330  26.544  1.00  0.00     0.021 C 
BRANCH   3   4
ATOM      4  C   UNL A   1      32.694  32.936  27.030  1.00  0.00     0.116 C 
BRANCH   4   5
ATOM      5  N   UNL A   1      32.503  34.236  27.653  1.00  0.00    -0.352 N 
ATOM      6  O   UNL A   1      32.737  35.812  29.255  1.00  0.00    -0.269 OA
ATOM      7  C   UNL A   1      33.137  34.768  28.748  1.00  0.00     0.251 C 
ATOM      8  H   UNL A   1      31.825  34.814  27.232  1.00  0.00     0.163 HD
BRANCH   7   9
ATOM      9  C   UNL A   1      34.298  34.062  29.327  1.00  0.00     0.039 A 
ATOM     10  C   UNL A   1      35.598  34.492  29.051  1.00  0.00     0.014 A 
ATOM     11  C   UNL A   1      34.081  32.958  30.157  1.00  0.00     0.014 A 
ATOM     12  C   UNL A   1      36.680  33.744  29.493  1.00  0.00     0.010 A 
ATOM     13  C   UNL A   1      35.173  32.259  30.675  1.00  0.00     0.010 A 
ATOM     14  C   UNL A   1      36.481  32.633  30.331  1.00  0.00    -0.014 A 
BRANCH  14  15
ATOM     15  C   UNL A   1      37.658  31.939  30.907  1.00  0.00     0.031 A 
ATOM     16  C   UNL A   1      38.161  32.260  32.283  1.00  0.00     0.074 A 
ATOM     17  C   UNL A   1      38.269  30.998  30.162  1.00  0.00     0.049 A 
ATOM     18  N   UNL A   1      39.179  31.743  32.925  1.00  0.00    -0.248 NA
ATOM     19  C   UNL A   1      37.439  33.295  33.037  1.00  0.00     0.031 C 
ATOM     20  C   UNL A   1      37.873  30.615  28.804  1.00  0.00     0.029 A 
ATOM     21  N   UNL A   1      39.338  30.186  30.438  1.00  0.00    -0.354 N 
ATOM     22  C   UNL A   1      39.233  32.401  34.146  1.00  0.00     0.074 A 
ATOM     23  C   UNL A   1      38.158  33.371  34.150  1.00  0.00     0.031 C 
ATOM     24  C   UNL A   1      38.658  29.615  28.383  1.00  0.00     0.029 A 
ATOM     25  C   UNL A   1      39.655  29.333  29.410  1.00  0.00     0.049 A 
ATOM     26  H   UNL A   1      39.830  30.211  31.290  1.00  0.00     0.167 HD
ATOM     27  C   UNL A   1      40.100  32.205  35.168  1.00  0.00     0.037 A 
ATOM     28  C   UNL A   1      40.651  28.436  29.290  1.00  0.00     0.037 A 
ATOM     29  C   UNL A   1      41.155  31.223  35.158  1.00  0.00     0.049 A 
ATOM     30  C   UNL A   1      41.612  28.258  30.425  1.00  0.00     0.074 A 
ATOM     31  C   UNL A   1      42.048  30.912  36.169  1.00  0.00     0.029 A 
ATOM     32  N   UNL A   1      41.467  30.403  34.084  1.00  0.00    -0.354 N 
ATOM     33  N   UNL A   1      41.628  28.859  31.590  1.00  0.00    -0.248 NA
ATOM     34  C   UNL A   1      42.696  27.287  30.232  1.00  0.00     0.031 C 
ATOM     35  C   UNL A   1      42.936  29.946  35.687  1.00  0.00     0.029 A 
ATOM     36  C   UNL A   1      42.561  29.611  34.396  1.00  0.00     0.049 A 
ATOM     37  H   UNL A   1      40.984  30.386  33.226  1.00  0.00     0.167 HD
ATOM     38  C   UNL A   1      42.714  28.335  32.274  1.00  0.00     0.074 A 
ATOM     39  C   UNL A   1      43.323  27.352  31.399  1.00  0.00     0.031 C 
ATOM     40  C   UNL A   1      43.164  28.642  33.515  1.00  0.00     0.037 A 
BRANCH  27  41
ATOM     41  C   UNL A   1      39.964  33.075  36.385  1.00  0.00     0.057 A 
ATOM     42  C   UNL A   1      39.027  32.764  37.379  1.00  0.00     0.134 A 
ATOM     43  C   UNL A   1      40.698  34.258  36.537  1.00  0.00     0.134 A 
ATOM     44  F   UNL A   1      38.285  31.651  37.290  1.00  0.00    -0.206 F 
ATOM     45  C   UNL A   1      38.815  33.605  38.474  1.00  0.00     0.040 A 
ATOM     46  C   UNL A   1      40.513  35.095  37.640  1.00  0.00     0.040 A 
ATOM     47  F   UNL A   1      41.618  34.612  35.626  1.00  0.00    -0.206 F 
ATOM     48  C   UNL A   1      39.562  34.774  38.607  1.00  0.00     0.006 A 
ENDBRANCH  27  41
BRANCH  28  49
ATOM     49  C   UNL A   1      40.767  27.652  28.036  1.00  0.00     0.057 A 
ATOM     50  C   UNL A   1      40.190  26.381  27.917  1.00  0.00     0.134 A 
ATOM     51  C   UNL A   1      41.522  28.122  26.957  1.00  0.00     0.134 A 
ATOM     52  F   UNL A   1      39.465  25.870  28.924  1.00  0.00    -0.206 F 
ATOM     53  C   UNL A   1      40.387  25.591  26.785  1.00  0.00     0.040 A 
ATOM     54  C   UNL A   1      41.706  27.353  25.807  1.00  0.00     0.040 A 
ATOM     55  F   UNL A   1      42.088  29.337  27.007  1.00  0.00    -0.206 F 
ATOM     56  C   UNL A   1      41.148  26.079  25.724  1.00  0.00     0.006 A 
ENDBRANCH  28  49
BRANCH  40  57
ATOM     57  C   UNL A   1      44.372  27.907  34.014  1.00  0.00     0.057 A 
ATOM     58  C   UNL A   1      44.232  26.750  34.791  1.00  0.00     0.134 A 
ATOM     59  C   UNL A   1      45.668  28.388  33.794  1.00  0.00     0.134 A 
ATOM     60  F   UNL A   1      43.016  26.243  35.045  1.00  0.00    -0.206 F 
ATOM     61  C   UNL A   1      45.338  26.106  35.347  1.00  0.00     0.040 A 
ATOM     62  C   UNL A   1      46.785  27.739  34.323  1.00  0.00     0.040 A 
ATOM     63  F   UNL A   1      45.869  29.485  33.049  1.00  0.00    -0.206 F 
ATOM     64  C   UNL A   1      46.620  26.600  35.111  1.00  0.00     0.006 A 
ENDBRANCH  40  57
ENDBRANCH  14  15
ENDBRANCH   7   9
ENDBRANCH   4   5
ENDBRANCH   3   4
ENDBRANCH   2   3
ENDBRANCH   1   2
BRANCH   1  65
ATOM     65  C   UNL A   1      33.694  29.734  26.931  1.00  0.00     0.021 C 
BRANCH  65  66
ATOM     66  C   UNL A   1      33.973  28.392  26.258  1.00  0.00     0.116 C 
BRANCH  66  67
ATOM     67  N   UNL A   1      34.029  28.539  24.817  1.00  0.00    -0.356 N 
ATOM     68  C   UNL A   1      33.115  28.227  23.861  1.00  0.00     0.227 C 
ATOM     69  H   UNL A   1      34.867  28.929  24.475  1.00  0.00     0.163 HD
ATOM     70  O   UNL A   1      33.459  28.351  22.687  1.00  0.00    -0.275 OA
BRANCH  68  71
ATOM     71  C   UNL A   1      31.733  27.772  24.271  1.00  0.00     0.127 C 
ATOM     72  C   UNL A   1      31.688  26.242  24.618  1.00  0.00     0.127 C 
ATOM     73  C   UNL A   1      30.787  27.865  23.064  1.00  0.00     0.155 C 
ATOM     74  C   UNL A   1      30.646  25.768  23.578  1.00  0.00     0.155 C 
ATOM     75  C   UNL A   1      29.375  27.650  23.539  1.00  0.00     0.004 C 
ATOM     76  O   UNL A   1      31.003  26.585  22.434  1.00  0.00    -0.365 OA
ATOM     77  C   UNL A   1      29.288  26.351  23.855  1.00  0.00     0.004 C 
BRANCH  72  78
ATOM     78  C   UNL A   1      31.297  26.035  26.085  1.00  0.00     0.233 C 
ATOM     79  O   UNL A   1      30.736  26.932  26.726  1.00  0.00    -0.274 OA
ATOM     80  N   UNL A   1      31.522  24.861  26.736  1.00  0.00    -0.302 N 
ATOM     81  H   UNL A   1      31.039  24.713  27.581  1.00  0.00     0.172 HD
BRANCH  80  82
ATOM     82  C   UNL A   1      32.359  23.877  26.317  1.00  0.00     0.189 A 
ATOM     83  N   UNL A   1      33.660  23.852  26.404  1.00  0.00    -0.220 NA
ATOM     84  S   UNL A   1      31.613  22.562  25.533  1.00  0.00    -0.105 S 
ATOM     85  C   UNL A   1      34.135  22.761  25.707  1.00  0.00     0.084 A 
ATOM     86  C   UNL A   1      33.174  21.977  25.100  1.00  0.00     0.097 A 
BRANCH  85  87
ATOM     87  C   UNL A   1      35.557  22.501  25.639  1.00  0.00     0.001 A 
ATOM     88  C   UNL A   1      35.997  21.215  25.303  1.00  0.00     0.013 A 
ATOM     89  C   UNL A   1      36.485  23.499  25.963  1.00  0.00     0.013 A 
ATOM     90  C   UNL A   1      37.363  20.930  25.271  1.00  0.00     0.040 A 
ATOM     91  C   UNL A   1      37.851  23.208  25.938  1.00  0.00     0.040 A 
ATOM     92  C   UNL A   1      38.275  21.929  25.590  1.00  0.00     0.123 A 
ATOM     93  F   UNL A   1      39.586  21.653  25.566  1.00  0.00    -0.207 F 
ENDBRANCH  85  87
ENDBRANCH  80  82
ENDBRANCH  72  78
ENDBRANCH  68  71
ENDBRANCH  66  67
ENDBRANCH  65  66
ENDBRANCH   1  65
TORSDOF 16
ENDMDL
MODEL 2
REMARK VINA RESULT:     -12.3      0.702      5.916
REMARK SMILES O=C(NCCCCCCNC(=O)[C@@H]1[C@@H](C(=O)Nc2nc(-c3ccc(F)cc3)cs2)[C@H]2C=C[C@@H]1O2)c1ccc(-c2c3nc(c(-c4c(F)cccc4F)c4ccc([nH]4)c(-c4c(F)cccc4F)c4nc(c(-c5c(F)cccc5F)c5ccc2[nH]5)C=C4)C=C3)cc1
REMARK SMILES IDX 7 1 6 2 5 3 4 4 3 5 1 6 2 7 35 9 36 10 88 11 37 12 87 13
REMARK SMILES IDX 38 14 39 15 40 16 81 17 41 18 86 19 80 20 82 21 42 22 85 23
REMARK SMILES IDX 79 24 78 25 43 27 69 28 52 29 68 30 53 31 56 32 67 33 83 34
REMARK SMILES IDX 54 35 55 36 66 38 84 39 57 40 44 41 45 42 50 43 46 44 47 45
REMARK SMILES IDX 49 46 51 47 48 48 70 49 71 50 76 51 72 52 73 53 75 54 77 55
REMARK SMILES IDX 74 56 58 57 59 58 64 59 60 60 61 61 63 62 65 63 62 64 8 65
REMARK SMILES IDX 9 66 10 67 11 68 12 70 13 71 14 72 33 73 30 74 32 75 34 76
REMARK SMILES IDX 31 77 15 78 16 79 17 80 18 82 19 83 29 84 20 85 28 86 21 87
REMARK SMILES IDX 22 88 27 89 23 90 26 91 24 92 25 93
REMARK H PARENT 3 8 82 26 56 37 10 69 17 81
REMARK Flexibility Score: inf
ROOT
ATOM      1  C   UNL A   1      32.275  30.040  27.196  1.00  0.00     0.002 C 
ENDROOT
BRANCH   1   2
ATOM      2  C   UNL A   1      31.421  30.844  26.211  1.00  0.00     0.002 C 
BRANCH   2   3
ATOM      3  C   UNL A   1      31.314  32.338  26.517  1.00  0.00     0.021 C 
BRANCH   3   4
ATOM      4  C   UNL A   1      32.590  32.962  27.062  1.00  0.00     0.116 C 
BRANCH   4   5
ATOM      5  N   UNL A   1      32.362  34.282  27.626  1.00  0.00    -0.352 N 
ATOM      6  O   UNL A   1      32.565  35.939  29.149  1.00  0.00    -0.269 OA
ATOM      7  C   UNL A   1      32.993  34.887  28.685  1.00  0.00     0.251 C 
ATOM      8  H   UNL A   1      31.659  34.816  27.190  1.00  0.00     0.163 HD
BRANCH   7   9
ATOM      9  C   UNL A   1      34.187  34.249  29.277  1.00  0.00     0.039 A 
ATOM     10  C   UNL A   1      35.461  34.523  28.771  1.00  0.00     0.014 A 
ATOM     11  C   UNL A   1      34.029  33.369  30.351  1.00  0.00     0.014 A 
ATOM     12  C   UNL A   1      36.558  33.820  29.249  1.00  0.00     0.010 A 
ATOM     13  C   UNL A   1      35.147  32.730  30.890  1.00  0.00     0.010 A 
ATOM     14  C   UNL A   1      36.417  32.934  30.330  1.00  0.00    -0.014 A 
BRANCH  14  15
ATOM     15  C   UNL A   1      37.627  32.306  30.915  1.00  0.00     0.031 A 
ATOM     16  C   UNL A   1      38.285  31.123  30.270  1.00  0.00     0.074 A 
ATOM     17  C   UNL A   1      38.134  32.833  32.046  1.00  0.00     0.049 A 
ATOM     18  N   UNL A   1      39.346  30.461  30.661  1.00  0.00    -0.248 NA
ATOM     19  C   UNL A   1      37.677  30.607  29.035  1.00  0.00     0.031 C 
ATOM     20  C   UNL A   1      37.568  33.977  32.766  1.00  0.00     0.029 A 
ATOM     21  N   UNL A   1      39.239  32.492  32.781  1.00  0.00    -0.354 N 
ATOM     22  C   UNL A   1      39.520  29.440  29.735  1.00  0.00     0.074 A 
ATOM     23  C   UNL A   1      38.445  29.557  28.772  1.00  0.00     0.031 C 
ATOM     24  C   UNL A   1      38.350  34.269  33.813  1.00  0.00     0.029 A 
ATOM     25  C   UNL A   1      39.433  33.293  33.880  1.00  0.00     0.049 A 
ATOM     26  H   UNL A   1      39.836  31.745  32.546  1.00  0.00     0.167 HD
ATOM     27  C   UNL A   1      40.495  28.501  29.695  1.00  0.00     0.037 A 
ATOM     28  C   UNL A   1      40.364  33.241  34.849  1.00  0.00     0.037 A 
ATOM     29  C   UNL A   1      41.570  28.407  30.650  1.00  0.00     0.049 A 
ATOM     30  C   UNL A   1      41.415  32.175  34.795  1.00  0.00     0.074 A 
ATOM     31  C   UNL A   1      42.635  27.524  30.659  1.00  0.00     0.029 A 
ATOM     32  N   UNL A   1      41.712  29.216  31.768  1.00  0.00    -0.354 N 
ATOM     33  N   UNL A   1      41.591  31.242  33.892  1.00  0.00    -0.248 NA
ATOM     34  C   UNL A   1      42.390  32.146  35.892  1.00  0.00     0.031 C 
ATOM     35  C   UNL A   1      43.389  27.760  31.812  1.00  0.00     0.029 A 
ATOM     36  C   UNL A   1      42.828  28.829  32.492  1.00  0.00     0.049 A 
ATOM     37  H   UNL A   1      41.109  29.955  32.011  1.00  0.00     0.167 HD
ATOM     38  C   UNL A   1      42.702  30.520  34.304  1.00  0.00     0.074 A 
ATOM     39  C   UNL A   1      43.169  31.135  35.530  1.00  0.00     0.031 C 
ATOM     40  C   UNL A   1      43.279  29.443  33.716  1.00  0.00     0.037 A 
BRANCH  27  41
ATOM     41  C   UNL A   1      40.445  27.480  28.594  1.00  0.00     0.057 A 
ATOM     42  C   UNL A   1      39.682  26.315  28.739  1.00  0.00     0.134 A 
ATOM     43  C   UNL A   1      41.211  27.608  27.428  1.00  0.00     0.134 A 
ATOM     44  F   UNL A   1      38.933  26.124  29.836  1.00  0.00    -0.206 F 
ATOM     45  C   UNL A   1      39.691  25.307  27.773  1.00  0.00     0.040 A 
ATOM     46  C   UNL A   1      41.210  26.619  26.442  1.00  0.00     0.040 A 
ATOM     47  F   UNL A   1      41.959  28.703  27.221  1.00  0.00    -0.206 F 
ATOM     48  C   UNL A   1      40.456  25.460  26.618  1.00  0.00     0.006 A 
ENDBRANCH  27  41
BRANCH  28  49
ATOM     49  C   UNL A   1      40.320  34.242  35.944  1.00  0.00     0.057 A 
ATOM     50  C   UNL A   1      39.543  34.031  37.091  1.00  0.00     0.134 A 
ATOM     51  C   UNL A   1      40.991  35.464  35.834  1.00  0.00     0.134 A 
ATOM     52  F   UNL A   1      38.865  32.883  37.248  1.00  0.00    -0.206 F 
ATOM     53  C   UNL A   1      39.408  35.012  38.073  1.00  0.00     0.040 A 
ATOM     54  C   UNL A   1      40.886  36.444  36.821  1.00  0.00     0.040 A 
ATOM     55  F   UNL A   1      41.760  35.718  34.764  1.00  0.00    -0.206 F 
ATOM     56  C   UNL A   1      40.082  36.224  37.938  1.00  0.00     0.006 A 
ENDBRANCH  28  49
BRANCH  40  57
ATOM     57  C   UNL A   1      44.488  28.858  34.383  1.00  0.00     0.057 A 
ATOM     58  C   UNL A   1      45.773  29.307  34.052  1.00  0.00     0.134 A 
ATOM     59  C   UNL A   1      44.386  27.797  35.290  1.00  0.00     0.134 A 
ATOM     60  F   UNL A   1      45.939  30.315  33.182  1.00  0.00    -0.206 F 
ATOM     61  C   UNL A   1      46.915  28.710  34.586  1.00  0.00     0.040 A 
ATOM     62  C   UNL A   1      45.520  27.208  35.852  1.00  0.00     0.040 A 
ATOM     63  F   UNL A   1      43.183  27.329  35.657  1.00  0.00    -0.206 F 
ATOM     64  C   UNL A   1      46.789  27.658  35.491  1.00  0.00     0.006 A 
ENDBRANCH  40  57
ENDBRANCH  14  15
ENDBRANCH   7   9
ENDBRANCH   4   5
ENDBRANCH   3   4
ENDBRANCH   2   3
ENDBRANCH   1   2
BRANCH   1  65
ATOM     65  C   UNL A   1      33.727  29.804  26.764  1.00  0.00     0.021 C 
BRANCH  65  66
ATOM     66  C   UNL A   1      33.989  28.427  26.160  1.00  0.00     0.116 C 
BRANCH  66  67
ATOM     67  N   UNL A   1      34.041  28.499  24.712  1.00  0.00    -0.356 N 
ATOM     68  C   UNL A   1      33.107  28.178  23.777  1.00  0.00     0.227 C 
ATOM     69  H   UNL A   1      34.891  28.836  24.347  1.00  0.00     0.163 HD
ATOM     70  O   UNL A   1      33.449  28.229  22.597  1.00  0.00    -0.275 OA
BRANCH  68  71
ATOM     71  C   UNL A   1      31.711  27.803  24.216  1.00  0.00     0.127 C 
ATOM     72  C   UNL A   1      31.593  26.284  24.594  1.00  0.00     0.127 C 
ATOM     73  C   UNL A   1      30.752  27.921  23.021  1.00  0.00     0.155 C 
ATOM     74  C   UNL A   1      30.512  25.845  23.578  1.00  0.00     0.155 C 
ATOM     75  C   UNL A   1      29.339  27.788  23.521  1.00  0.00     0.004 C 
ATOM     76  O   UNL A   1      30.893  26.620  22.414  1.00  0.00    -0.365 OA
ATOM     77  C   UNL A   1      29.191  26.502  23.864  1.00  0.00     0.004 C 
BRANCH  72  78
ATOM     78  C   UNL A   1      31.215  26.125  26.069  1.00  0.00     0.233 C 
ATOM     79  O   UNL A   1      30.700  27.058  26.699  1.00  0.00    -0.274 OA
ATOM     80  N   UNL A   1      31.401  24.956  26.744  1.00  0.00    -0.302 N 
ATOM     81  H   UNL A   1      30.925  24.847  27.598  1.00  0.00     0.172 HD
BRANCH  80  82
ATOM     82  C   UNL A   1      32.191  23.930  26.335  1.00  0.00     0.189 A 
ATOM     83  N   UNL A   1      33.493  23.872  26.364  1.00  0.00    -0.220 NA
ATOM     84  S   UNL A   1      31.375  22.602  25.649  1.00  0.00    -0.105 S 
ATOM     85  C   UNL A   1      33.907  22.735  25.700  1.00  0.00     0.084 A 
ATOM     86  C   UNL A   1      32.898  21.952  25.176  1.00  0.00     0.097 A 
BRANCH  85  87
ATOM     87  C   UNL A   1      35.316  22.431  25.581  1.00  0.00     0.001 A 
ATOM     88  C   UNL A   1      35.705  21.121  25.277  1.00  0.00     0.013 A 
ATOM     89  C   UNL A   1      36.285  23.413  25.825  1.00  0.00     0.013 A 
ATOM     90  C   UNL A   1      37.059  20.795  25.197  1.00  0.00     0.040 A 
ATOM     91  C   UNL A   1      37.639  23.081  25.753  1.00  0.00     0.040 A 
ATOM     92  C   UNL A   1      38.013  21.778  25.436  1.00  0.00     0.123 A 
ATOM     93  F   UNL A   1      39.312  21.463  25.367  1.00  0.00    -0.207 F 
ENDBRANCH  85  87
ENDBRANCH  80  82
ENDBRANCH  72  78
ENDBRANCH  68  71
ENDBRANCH  66  67
ENDBRANCH  65  66
ENDBRANCH   1  65
TORSDOF 16
ENDMDL
MODEL 3
REMARK VINA RESULT:     -12.3      4.173      8.776
REMARK SMILES O=C(NCCCCCCNC(=O)[C@@H]1[C@@H](C(=O)Nc2nc(-c3ccc(F)cc3)cs2)[C@H]2C=C[C@@H]1O2)c1ccc(-c2c3nc(c(-c4c(F)cccc4F)c4ccc([nH]4)c(-c4c(F)cccc4F)c4nc(c(-c5c(F)cccc5F)c5ccc2[nH]5)C=C4)C=C3)cc1
REMARK SMILES IDX 7 1 6 2 5 3 4 4 3 5 1 6 2 7 35 9 36 10 88 11 37 12 87 13
REMARK SMILES IDX 38 14 39 15 40 16 81 17 41 18 86 19 80 20 82 21 42 22 85 23
REMARK SMILES IDX 79 24 78 25 43 27 69 28 52 29 68 30 53 31 56 32 67 33 83 34
REMARK SMILES IDX 54 35 55 36 66 38 84 39 57 40 44 41 45 42 50 43 46 44 47 45
REMARK SMILES IDX 49 46 51 47 48 48 70 49 71 50 76 51 72 52 73 53 75 54 77 55
REMARK SMILES IDX 74 56 58 57 59 58 64 59 60 60 61 61 63 62 65 63 62 64 8 65
REMARK SMILES IDX 9 66 10 67 11 68 12 70 13 71 14 72 33 73 30 74 32 75 34 76
REMARK SMILES IDX 31 77 15 78 16 79 17 80 18 82 19 83 29 84 20 85 28 86 21 87
REMARK SMILES IDX 22 88 27 89 23 90 26 91 24 92 25 93
REMARK H PARENT 3 8 82 26 56 37 10 69 17 81
REMARK Flexibility Score: inf
ROOT
ATOM      1  C   UNL A   1      36.642  21.905  25.686  1.00  0.00     0.002 C 
ENDROOT
BRANCH   1   2
ATOM      2  C   UNL A   1      37.372  21.244  24.513  1.00  0.00     0.002 C 
BRANCH   2   3
ATOM      3  C   UNL A   1      38.061  19.920  24.844  1.00  0.00     0.021 C 
BRANCH   3   4
ATOM      4  C   UNL A   1      38.988  19.977  26.049  1.00  0.00     0.116 C 
BRANCH   4   5
ATOM      5  N   UNL A   1      40.180  19.165  25.868  1.00  0.00    -0.352 N 
ATOM      6  O   UNL A   1      42.392  18.770  25.628  1.00  0.00    -0.269 OA
ATOM      7  C   UNL A   1      41.498  19.531  25.984  1.00  0.00     0.251 C 
ATOM      8  H   UNL A   1      40.021  18.223  25.630  1.00  0.00     0.163 HD
BRANCH   7   9
ATOM      9  C   UNL A   1      41.834  20.864  26.526  1.00  0.00     0.039 A 
ATOM     10  C   UNL A   1      41.887  21.075  27.906  1.00  0.00     0.014 A 
ATOM     11  C   UNL A   1      42.102  21.913  25.642  1.00  0.00     0.014 A 
ATOM     12  C   UNL A   1      42.075  22.358  28.401  1.00  0.00     0.010 A 
ATOM     13  C   UNL A   1      42.380  23.186  26.144  1.00  0.00     0.010 A 
ATOM     14  C   UNL A   1      42.348  23.423  27.526  1.00  0.00    -0.014 A 
BRANCH  14  15
ATOM     15  C   UNL A   1      42.688  24.753  28.088  1.00  0.00     0.031 A 
ATOM     16  C   UNL A   1      44.098  25.112  28.453  1.00  0.00     0.074 A 
ATOM     17  C   UNL A   1      41.694  25.645  28.258  1.00  0.00     0.049 A 
ATOM     18  N   UNL A   1      44.554  26.232  28.957  1.00  0.00    -0.248 NA
ATOM     19  C   UNL A   1      45.130  24.088  28.234  1.00  0.00     0.031 C 
ATOM     20  C   UNL A   1      40.283  25.398  27.949  1.00  0.00     0.029 A 
ATOM     21  N   UNL A   1      41.712  26.937  28.717  1.00  0.00    -0.354 N 
ATOM     22  C   UNL A   1      45.918  26.041  29.134  1.00  0.00     0.074 A 
ATOM     23  C   UNL A   1      46.214  24.691  28.703  1.00  0.00     0.031 C 
ATOM     24  C   UNL A   1      39.579  26.512  28.186  1.00  0.00     0.029 A 
ATOM     25  C   UNL A   1      40.473  27.530  28.727  1.00  0.00     0.049 A 
ATOM     26  H   UNL A   1      42.532  27.395  29.010  1.00  0.00     0.167 HD
ATOM     27  C   UNL A   1      46.834  26.920  29.608  1.00  0.00     0.037 A 
ATOM     28  C   UNL A   1      40.089  28.749  29.146  1.00  0.00     0.037 A 
ATOM     29  C   UNL A   1      46.528  28.267  30.017  1.00  0.00     0.049 A 
ATOM     30  C   UNL A   1      41.118  29.691  29.691  1.00  0.00     0.074 A 
ATOM     31  C   UNL A   1      47.399  29.249  30.458  1.00  0.00     0.029 A 
ATOM     32  N   UNL A   1      45.255  28.819  30.047  1.00  0.00    -0.354 N 
ATOM     33  N   UNL A   1      42.410  29.512  29.816  1.00  0.00    -0.248 NA
ATOM     34  C   UNL A   1      40.641  30.998  30.160  1.00  0.00     0.031 C 
ATOM     35  C   UNL A   1      46.647  30.374  30.809  1.00  0.00     0.029 A 
ATOM     36  C   UNL A   1      45.315  30.117  30.531  1.00  0.00     0.049 A 
ATOM     37  H   UNL A   1      44.433  28.358  29.766  1.00  0.00     0.167 HD
ATOM     38  C   UNL A   1      42.905  30.684  30.367  1.00  0.00     0.074 A 
ATOM     39  C   UNL A   1      41.774  31.576  30.536  1.00  0.00     0.031 C 
ATOM     40  C   UNL A   1      44.182  30.991  30.703  1.00  0.00     0.037 A 
BRANCH  27  41
ATOM     41  C   UNL A   1      48.258  26.457  29.731  1.00  0.00     0.057 A 
ATOM     42  C   UNL A   1      48.701  25.822  30.899  1.00  0.00     0.134 A 
ATOM     43  C   UNL A   1      49.208  26.707  28.733  1.00  0.00     0.134 A 
ATOM     44  F   UNL A   1      47.845  25.562  31.898  1.00  0.00    -0.206 F 
ATOM     45  C   UNL A   1      50.039  25.466  31.076  1.00  0.00     0.040 A 
ATOM     46  C   UNL A   1      50.545  26.333  28.887  1.00  0.00     0.040 A 
ATOM     47  F   UNL A   1      48.850  27.304  27.585  1.00  0.00    -0.206 F 
ATOM     48  C   UNL A   1      50.965  25.720  30.066  1.00  0.00     0.006 A 
ENDBRANCH  27  41
BRANCH  28  49
ATOM     49  C   UNL A   1      38.656  29.122  29.056  1.00  0.00     0.057 A 
ATOM     50  C   UNL A   1      38.105  29.608  27.862  1.00  0.00     0.134 A 
ATOM     51  C   UNL A   1      37.825  29.076  30.179  1.00  0.00     0.134 A 
ATOM     52  F   UNL A   1      38.856  29.688  26.753  1.00  0.00    -0.206 F 
ATOM     53  C   UNL A   1      36.789  30.065  27.797  1.00  0.00     0.040 A 
ATOM     54  C   UNL A   1      36.498  29.506  30.123  1.00  0.00     0.040 A 
ATOM     55  F   UNL A   1      38.293  28.609  31.347  1.00  0.00    -0.206 F 
ATOM     56  C   UNL A   1      35.981  30.014  28.932  1.00  0.00     0.006 A 
ENDBRANCH  28  49
BRANCH  40  57
ATOM     57  C   UNL A   1      44.436  32.351  31.282  1.00  0.00     0.057 A 
ATOM     58  C   UNL A   1      44.736  33.437  30.450  1.00  0.00     0.134 A 
ATOM     59  C   UNL A   1      44.464  32.567  32.665  1.00  0.00     0.134 A 
ATOM     60  F   UNL A   1      44.734  33.293  29.115  1.00  0.00    -0.206 F 
ATOM     61  C   UNL A   1      45.072  34.686  30.972  1.00  0.00     0.040 A 
ATOM     62  C   UNL A   1      44.773  33.819  33.200  1.00  0.00     0.040 A 
ATOM     63  F   UNL A   1      44.174  31.571  33.515  1.00  0.00    -0.206 F 
ATOM     64  C   UNL A   1      45.089  34.880  32.352  1.00  0.00     0.006 A 
ENDBRANCH  40  57
ENDBRANCH  14  15
ENDBRANCH   7   9
ENDBRANCH   4   5
ENDBRANCH   3   4
ENDBRANCH   2   3
ENDBRANCH   1   2
BRANCH   1  65
ATOM     65  C   UNL A   1      36.739  23.435  25.739  1.00  0.00     0.021 C 
BRANCH  65  66
ATOM     66  C   UNL A   1      35.562  24.164  25.096  1.00  0.00     0.116 C 
BRANCH  66  67
ATOM     67  N   UNL A   1      35.162  23.514  23.863  1.00  0.00    -0.356 N 
ATOM     68  C   UNL A   1      34.118  23.766  23.029  1.00  0.00     0.227 C 
ATOM     69  H   UNL A   1      35.744  22.770  23.583  1.00  0.00     0.163 HD
ATOM     70  O   UNL A   1      33.940  22.986  22.095  1.00  0.00    -0.275 OA
BRANCH  68  71
ATOM     71  C   UNL A   1      33.251  24.980  23.266  1.00  0.00     0.127 C 
ATOM     72  C   UNL A   1      31.813  24.814  22.660  1.00  0.00     0.127 C 
ATOM     73  C   UNL A   1      33.810  26.168  22.467  1.00  0.00     0.155 C 
ATOM     74  C   UNL A   1      31.802  26.008  21.679  1.00  0.00     0.155 C 
ATOM     75  C   UNL A   1      33.095  27.420  22.899  1.00  0.00     0.004 C 
ATOM     76  O   UNL A   1      33.167  25.979  21.190  1.00  0.00    -0.365 OA
ATOM     77  C   UNL A   1      31.852  27.321  22.409  1.00  0.00     0.004 C 
BRANCH  72  78
ATOM     78  C   UNL A   1      30.756  24.860  23.768  1.00  0.00     0.233 C 
ATOM     79  O   UNL A   1      29.976  25.816  23.864  1.00  0.00    -0.274 OA
ATOM     80  N   UNL A   1      30.607  23.851  24.671  1.00  0.00    -0.302 N 
ATOM     81  H   UNL A   1      29.771  23.830  25.191  1.00  0.00     0.172 HD
BRANCH  80  82
ATOM     82  C   UNL A   1      31.517  22.874  24.914  1.00  0.00     0.189 A 
ATOM     83  N   UNL A   1      31.726  21.794  24.214  1.00  0.00    -0.220 NA
ATOM     84  S   UNL A   1      32.437  23.062  26.335  1.00  0.00    -0.105 S 
ATOM     85  C   UNL A   1      32.612  20.983  24.893  1.00  0.00     0.084 A 
ATOM     86  C   UNL A   1      33.056  21.471  26.107  1.00  0.00     0.097 A 
BRANCH  85  87
ATOM     87  C   UNL A   1      33.012  19.710  24.335  1.00  0.00     0.001 A 
ATOM     88  C   UNL A   1      34.196  19.113  24.784  1.00  0.00     0.013 A 
ATOM     89  C   UNL A   1      32.267  19.107  23.314  1.00  0.00     0.013 A 
ATOM     90  C   UNL A   1      34.625  17.906  24.231  1.00  0.00     0.040 A 
ATOM     91  C   UNL A   1      32.703  17.904  22.756  1.00  0.00     0.040 A 
ATOM     92  C   UNL A   1      33.874  17.314  23.222  1.00  0.00     0.123 A 
ATOM     93  F   UNL A   1      34.289  16.160  22.685  1.00  0.00    -0.207 F 
ENDBRANCH  85  87
ENDBRANCH  80  82
ENDBRANCH  72  78
ENDBRANCH  68  71
ENDBRANCH  66  67
ENDBRANCH  65  66
ENDBRANCH   1  65
TORSDOF 16
ENDMDL
