MODEL 1
REMARK VINA RESULT:     -12.1      0.000      0.000
REMARK SMILES Cc1nnc(SCC2=C(C(=O)NCCCCCCNC(=O)c3ccc(-c4c5nc(c(-c6c(F)cccc6F)c6ccc([nH]6)c(-c6c(F)cccc6F)c6nc(c(-c7c(F)cccc7F)c7ccc4[nH]7)C=C6)C=C5)cc3)N3C(=O)[C@H](NC(=O)c4cn(C)nc4C)[C@@H]3SC2)s1
REMARK SMILES IDX 15 1 14 2 13 3 12 4 10 5 11 6 9 8 8 9 92 10 76 11 91 12
REMARK SMILES IDX 77 13 90 14 78 15 79 16 7 17 6 18 5 19 1 20 2 21 3 22 93 23
REMARK SMILES IDX 4 24 80 25 81 26 82 28 83 29 84 30 88 31 85 32 87 33 89 34
REMARK SMILES IDX 86 35 16 36 17 37 18 38 19 39 20 40 21 42 22 43 23 44 75 45
REMARK SMILES IDX 24 46 74 47 25 48 26 49 27 50 68 51 28 52 73 53 67 54 69 55
REMARK SMILES IDX 29 56 72 57 66 58 65 59 30 61 56 62 39 63 55 64 40 65 43 66
REMARK SMILES IDX 54 67 70 68 41 69 42 70 53 72 71 73 44 74 31 75 32 76 37 77
REMARK SMILES IDX 33 78 34 79 36 80 38 81 35 82 57 83 58 84 63 85 59 86 60 87
REMARK SMILES IDX 62 88 64 89 61 90 45 91 46 92 51 93 47 94 48 95 50 96 52 97
REMARK SMILES IDX 49 98
REMARK H PARENT 12 7 80 27 19 41 69 60 43 71
REMARK Flexibility Score: inf
ROOT
ATOM      1  C   UNL A   1      33.937  29.167  26.888  1.00  0.00     0.002 C 
ENDROOT
BRANCH   1   2
ATOM      2  C   UNL A   1      32.779  28.308  27.412  1.00  0.00     0.021 C 
BRANCH   2   3
ATOM      3  C   UNL A   1      32.336  27.089  26.605  1.00  0.00     0.116 C 
BRANCH   3   4
ATOM      4  N   UNL A   1      30.975  26.630  26.755  1.00  0.00    -0.351 N 
ATOM      5  C   UNL A   1      30.293  25.551  26.251  1.00  0.00     0.268 C 
ATOM      6  O   UNL A   1      29.234  25.296  26.829  1.00  0.00    -0.268 OA
ATOM      7  H   UNL A   1      30.428  27.207  27.334  1.00  0.00     0.163 HD
BRANCH   5   8
ATOM      8  C   UNL A   1      30.699  24.739  25.003  1.00  0.00     0.111 C 
ATOM      9  C   UNL A   1      30.784  25.221  23.723  1.00  0.00    -0.020 C 
ATOM     10  C   UNL A   1      31.189  24.358  22.534  1.00  0.00     0.106 C 
ATOM     11  N   UNL A   1      31.129  23.451  25.257  1.00  0.00    -0.290 N 
ATOM     12  S   UNL A   1      32.307  23.003  22.916  1.00  0.00    -0.129 SA
ATOM     13  C   UNL A   1      31.533  22.695  26.312  1.00  0.00     0.253 C 
ATOM     14  C   UNL A   1      31.282  22.405  24.263  1.00  0.00     0.181 C 
ATOM     15  O   UNL A   1      31.583  22.837  27.509  1.00  0.00    -0.272 OA
ATOM     16  C   UNL A   1      32.005  21.557  25.349  1.00  0.00     0.206 C 
BRANCH   9  17
ATOM     17  C   UNL A   1      30.488  26.666  23.377  1.00  0.00     0.111 C 
BRANCH  17  18
ATOM     18  S   UNL A   1      28.835  27.348  23.611  1.00  0.00    -0.089 SA
BRANCH  18  19
ATOM     19  C   UNL A   1      28.915  28.816  22.684  1.00  0.00     0.174 A 
ATOM     20  C   UNL A   1      28.116  32.216  21.134  1.00  0.00     0.081 C 
ATOM     21  C   UNL A   1      28.601  30.903  21.620  1.00  0.00     0.115 A 
ATOM     22  N   UNL A   1      29.697  30.299  21.211  1.00  0.00    -0.143 NA
ATOM     23  S   UNL A   1      27.723  30.037  22.813  1.00  0.00    -0.091 S 
ATOM     24  N   UNL A   1      29.878  29.079  21.831  1.00  0.00    -0.132 NA
ENDBRANCH  18  19
ENDBRANCH  17  18
ENDBRANCH   9  17
BRANCH  16  25
ATOM     25  N   UNL A   1      33.481  21.400  25.208  1.00  0.00    -0.337 N 
ATOM     26  C   UNL A   1      34.223  20.265  24.986  1.00  0.00     0.255 C 
ATOM     27  H   UNL A   1      34.001  22.232  25.288  1.00  0.00     0.164 HD
ATOM     28  O   UNL A   1      35.448  20.350  24.948  1.00  0.00    -0.269 OA
BRANCH  26  29
ATOM     29  C   UNL A   1      33.541  18.996  24.845  1.00  0.00     0.080 A 
ATOM     30  C   UNL A   1      33.471  17.950  25.747  1.00  0.00     0.122 A 
ATOM     31  C   UNL A   1      32.728  18.567  23.756  1.00  0.00     0.072 A 
ATOM     32  N   UNL A   1      32.734  16.974  25.147  1.00  0.00    -0.275 N 
ATOM     33  N   UNL A   1      32.265  17.322  23.940  1.00  0.00    -0.178 NA
ATOM     34  C   UNL A   1      32.398  19.292  22.502  1.00  0.00     0.069 C 
ATOM     35  C   UNL A   1      32.462  15.651  25.652  1.00  0.00     0.173 C 
ENDBRANCH  26  29
ENDBRANCH  16  25
ENDBRANCH   5   8
ENDBRANCH   3   4
ENDBRANCH   2   3
ENDBRANCH   1   2
BRANCH   1  36
ATOM     36  C   UNL A   1      34.108  30.607  27.379  1.00  0.00     0.002 C 
BRANCH  36  37
ATOM     37  C   UNL A   1      32.869  31.464  27.649  1.00  0.00     0.021 C 
BRANCH  37  38
ATOM     38  C   UNL A   1      32.709  32.762  26.864  1.00  0.00     0.116 C 
BRANCH  38  39
ATOM     39  N   UNL A   1      32.414  33.919  27.689  1.00  0.00    -0.352 N 
ATOM     40  C   UNL A   1      33.127  34.490  28.716  1.00  0.00     0.251 C 
ATOM     41  H   UNL A   1      31.563  34.368  27.477  1.00  0.00     0.163 HD
ATOM     42  O   UNL A   1      32.648  35.444  29.323  1.00  0.00    -0.269 OA
BRANCH  40  43
ATOM     43  C   UNL A   1      34.449  33.959  29.132  1.00  0.00     0.039 A 
ATOM     44  C   UNL A   1      34.521  33.221  30.320  1.00  0.00     0.014 A 
ATOM     45  C   UNL A   1      35.616  34.203  28.404  1.00  0.00     0.014 A 
ATOM     46  C   UNL A   1      35.738  32.675  30.737  1.00  0.00     0.010 A 
ATOM     47  C   UNL A   1      36.820  33.606  28.787  1.00  0.00     0.010 A 
ATOM     48  C   UNL A   1      36.893  32.832  29.955  1.00  0.00    -0.014 A 
BRANCH  48  49
ATOM     49  C   UNL A   1      38.172  32.178  30.340  1.00  0.00     0.031 A 
ATOM     50  C   UNL A   1      39.119  32.849  31.297  1.00  0.00     0.074 A 
ATOM     51  C   UNL A   1      38.509  30.998  29.783  1.00  0.00     0.049 A 
ATOM     52  N   UNL A   1      40.301  32.456  31.702  1.00  0.00    -0.248 NA
ATOM     53  C   UNL A   1      38.694  34.142  31.852  1.00  0.00     0.031 C 
ATOM     54  C   UNL A   1      37.700  30.262  28.810  1.00  0.00     0.029 A 
ATOM     55  N   UNL A   1      39.624  30.215  29.947  1.00  0.00    -0.354 N 
ATOM     56  C   UNL A   1      40.764  33.455  32.549  1.00  0.00     0.074 A 
ATOM     57  C   UNL A   1      39.756  34.494  32.563  1.00  0.00     0.031 C 
ATOM     58  C   UNL A   1      38.336  29.126  28.479  1.00  0.00     0.029 A 
ATOM     59  C   UNL A   1      39.611  29.070  29.189  1.00  0.00     0.049 A 
ATOM     60  H   UNL A   1      40.364  30.451  30.552  1.00  0.00     0.167 HD
ATOM     61  C   UNL A   1      41.914  33.496  33.264  1.00  0.00     0.037 A 
ATOM     62  C   UNL A   1      40.522  28.086  29.073  1.00  0.00     0.037 A 
ATOM     63  C   UNL A   1      42.906  32.451  33.271  1.00  0.00     0.049 A 
ATOM     64  C   UNL A   1      41.790  28.153  29.877  1.00  0.00     0.074 A 
ATOM     65  C   UNL A   1      44.073  32.377  34.011  1.00  0.00     0.029 A 
ATOM     66  N   UNL A   1      42.846  31.300  32.501  1.00  0.00    -0.354 N 
ATOM     67  N   UNL A   1      42.184  29.077  30.719  1.00  0.00    -0.248 NA
ATOM     68  C   UNL A   1      42.736  27.040  29.718  1.00  0.00     0.031 C 
ATOM     69  C   UNL A   1      44.740  31.198  33.660  1.00  0.00     0.029 A 
ATOM     70  C   UNL A   1      43.968  30.519  32.733  1.00  0.00     0.049 A 
ATOM     71  H   UNL A   1      42.117  31.071  31.882  1.00  0.00     0.167 HD
ATOM     72  C   UNL A   1      43.410  28.645  31.210  1.00  0.00     0.074 A 
ATOM     73  C   UNL A   1      43.688  27.370  30.581  1.00  0.00     0.031 C 
ATOM     74  C   UNL A   1      44.230  29.251  32.103  1.00  0.00     0.037 A 
BRANCH  61  75
ATOM     75  C   UNL A   1      42.163  34.714  34.106  1.00  0.00     0.057 A 
ATOM     76  C   UNL A   1      42.777  35.858  33.584  1.00  0.00     0.134 A 
ATOM     77  C   UNL A   1      41.749  34.756  35.444  1.00  0.00     0.134 A 
ATOM     78  F   UNL A   1      43.206  35.880  32.314  1.00  0.00    -0.206 F 
ATOM     79  C   UNL A   1      42.993  36.993  34.369  1.00  0.00     0.040 A 
ATOM     80  C   UNL A   1      41.936  35.893  36.231  1.00  0.00     0.040 A 
ATOM     81  F   UNL A   1      41.146  33.695  36.005  1.00  0.00    -0.206 F 
ATOM     82  C   UNL A   1      42.566  37.014  35.695  1.00  0.00     0.006 A 
ENDBRANCH  61  75
BRANCH  62  83
ATOM     83  C   UNL A   1      40.259  26.935  28.173  1.00  0.00     0.057 A 
ATOM     84  C   UNL A   1      39.443  25.874  28.580  1.00  0.00     0.134 A 
ATOM     85  C   UNL A   1      40.817  26.865  26.890  1.00  0.00     0.134 A 
ATOM     86  F   UNL A   1      38.897  25.875  29.805  1.00  0.00    -0.206 F 
ATOM     87  C   UNL A   1      39.203  24.776  27.752  1.00  0.00     0.040 A 
ATOM     88  C   UNL A   1      40.567  25.784  26.043  1.00  0.00     0.040 A 
ATOM     89  F   UNL A   1      41.603  27.854  26.440  1.00  0.00    -0.206 F 
ATOM     90  C   UNL A   1      39.762  24.732  26.477  1.00  0.00     0.006 A 
ENDBRANCH  62  83
BRANCH  74  91
ATOM     91  C   UNL A   1      45.492  28.529  32.471  1.00  0.00     0.057 A 
ATOM     92  C   UNL A   1      46.694  28.747  31.786  1.00  0.00     0.134 A 
ATOM     93  C   UNL A   1      45.513  27.631  33.546  1.00  0.00     0.134 A 
ATOM     94  F   UNL A   1      46.737  29.584  30.740  1.00  0.00    -0.206 F 
ATOM     95  C   UNL A   1      47.868  28.082  32.144  1.00  0.00     0.040 A 
ATOM     96  C   UNL A   1      46.685  26.977  33.928  1.00  0.00     0.040 A 
ATOM     97  F   UNL A   1      44.396  27.383  34.247  1.00  0.00    -0.206 F 
ATOM     98  C   UNL A   1      47.865  27.197  33.223  1.00  0.00     0.006 A 
ENDBRANCH  74  91
ENDBRANCH  48  49
ENDBRANCH  40  43
ENDBRANCH  38  39
ENDBRANCH  37  38
ENDBRANCH  36  37
ENDBRANCH   1  36
TORSDOF 18
ENDMDL
MODEL 2
REMARK VINA RESULT:     -11.9      0.664      5.828
REMARK SMILES Cc1nnc(SCC2=C(C(=O)NCCCCCCNC(=O)c3ccc(-c4c5nc(c(-c6c(F)cccc6F)c6ccc([nH]6)c(-c6c(F)cccc6F)c6nc(c(-c7c(F)cccc7F)c7ccc4[nH]7)C=C6)C=C5)cc3)N3C(=O)[C@H](NC(=O)c4cn(C)nc4C)[C@@H]3SC2)s1
REMARK SMILES IDX 15 1 14 2 13 3 12 4 10 5 11 6 9 8 8 9 92 10 76 11 91 12
REMARK SMILES IDX 77 13 90 14 78 15 79 16 7 17 6 18 5 19 1 20 2 21 3 22 93 23
REMARK SMILES IDX 4 24 80 25 81 26 82 28 83 29 84 30 88 31 85 32 87 33 89 34
REMARK SMILES IDX 86 35 16 36 17 37 18 38 19 39 20 40 21 42 22 43 23 44 75 45
REMARK SMILES IDX 24 46 74 47 25 48 26 49 27 50 68 51 28 52 73 53 67 54 69 55
REMARK SMILES IDX 29 56 72 57 66 58 65 59 30 61 56 62 39 63 55 64 40 65 43 66
REMARK SMILES IDX 54 67 70 68 41 69 42 70 53 72 71 73 44 74 31 75 32 76 37 77
REMARK SMILES IDX 33 78 34 79 36 80 38 81 35 82 57 83 58 84 63 85 59 86 60 87
REMARK SMILES IDX 62 88 64 89 61 90 45 91 46 92 51 93 47 94 48 95 50 96 52 97
REMARK SMILES IDX 49 98
REMARK H PARENT 12 7 80 27 19 41 69 60 43 71
REMARK Flexibility Score: inf
ROOT
ATOM      1  C   UNL A   1      34.053  29.158  26.858  1.00  0.00     0.002 C 
ENDROOT
BRANCH   1   2
ATOM      2  C   UNL A   1      32.887  28.314  27.386  1.00  0.00     0.021 C 
BRANCH   2   3
ATOM      3  C   UNL A   1      32.396  27.127  26.560  1.00  0.00     0.116 C 
BRANCH   3   4
ATOM      4  N   UNL A   1      31.035  26.683  26.746  1.00  0.00    -0.351 N 
ATOM      5  C   UNL A   1      30.332  25.602  26.274  1.00  0.00     0.268 C 
ATOM      6  O   UNL A   1      29.283  25.367  26.878  1.00  0.00    -0.268 OA
ATOM      7  H   UNL A   1      30.504  27.274  27.328  1.00  0.00     0.163 HD
BRANCH   5   8
ATOM      8  C   UNL A   1      30.705  24.768  25.031  1.00  0.00     0.111 C 
ATOM      9  C   UNL A   1      30.756  25.225  23.740  1.00  0.00    -0.020 C 
ATOM     10  C   UNL A   1      31.128  24.340  22.557  1.00  0.00     0.106 C 
ATOM     11  N   UNL A   1      31.140  23.483  25.297  1.00  0.00    -0.290 N 
ATOM     12  S   UNL A   1      32.255  22.991  22.934  1.00  0.00    -0.129 SA
ATOM     13  C   UNL A   1      31.571  22.747  26.355  1.00  0.00     0.253 C 
ATOM     14  C   UNL A   1      31.266  22.420  24.319  1.00  0.00     0.181 C 
ATOM     15  O   UNL A   1      31.653  22.911  27.547  1.00  0.00    -0.272 OA
ATOM     16  C   UNL A   1      32.017  21.591  25.400  1.00  0.00     0.206 C 
BRANCH   9  17
ATOM     17  C   UNL A   1      30.451  26.665  23.376  1.00  0.00     0.111 C 
BRANCH  17  18
ATOM     18  S   UNL A   1      28.783  27.326  23.554  1.00  0.00    -0.089 SA
BRANCH  18  19
ATOM     19  C   UNL A   1      28.888  28.818  22.669  1.00  0.00     0.174 A 
ATOM     20  C   UNL A   1      28.152  32.275  21.220  1.00  0.00     0.081 C 
ATOM     21  C   UNL A   1      28.613  30.939  21.665  1.00  0.00     0.115 A 
ATOM     22  N   UNL A   1      29.693  30.324  21.232  1.00  0.00    -0.143 NA
ATOM     23  S   UNL A   1      27.723  30.059  22.839  1.00  0.00    -0.091 S 
ATOM     24  N   UNL A   1      29.852  29.084  21.817  1.00  0.00    -0.132 NA
ENDBRANCH  18  19
ENDBRANCH  17  18
ENDBRANCH   9  17
BRANCH  16  25
ATOM     25  N   UNL A   1      33.488  21.430  25.224  1.00  0.00    -0.337 N 
ATOM     26  C   UNL A   1      34.221  20.293  24.978  1.00  0.00     0.255 C 
ATOM     27  H   UNL A   1      34.013  22.260  25.295  1.00  0.00     0.164 HD
ATOM     28  O   UNL A   1      35.445  20.374  24.911  1.00  0.00    -0.269 OA
BRANCH  26  29
ATOM     29  C   UNL A   1      33.531  19.027  24.847  1.00  0.00     0.080 A 
ATOM     30  C   UNL A   1      33.427  18.004  25.772  1.00  0.00     0.122 A 
ATOM     31  C   UNL A   1      32.746  18.580  23.746  1.00  0.00     0.072 A 
ATOM     32  N   UNL A   1      32.698  17.020  25.174  1.00  0.00    -0.275 N 
ATOM     33  N   UNL A   1      32.267  17.343  23.947  1.00  0.00    -0.178 NA
ATOM     34  C   UNL A   1      32.459  19.277  22.466  1.00  0.00     0.069 C 
ATOM     35  C   UNL A   1      32.399  15.711  25.703  1.00  0.00     0.173 C 
ENDBRANCH  26  29
ENDBRANCH  16  25
ENDBRANCH   5   8
ENDBRANCH   3   4
ENDBRANCH   2   3
ENDBRANCH   1   2
BRANCH   1  36
ATOM     36  C   UNL A   1      34.321  30.549  27.440  1.00  0.00     0.002 C 
BRANCH  36  37
ATOM     37  C   UNL A   1      33.141  31.451  27.810  1.00  0.00     0.021 C 
BRANCH  37  38
ATOM     38  C   UNL A   1      32.826  32.631  26.897  1.00  0.00     0.116 C 
BRANCH  38  39
ATOM     39  N   UNL A   1      32.485  33.851  27.605  1.00  0.00    -0.352 N 
ATOM     40  C   UNL A   1      33.145  34.516  28.610  1.00  0.00     0.251 C 
ATOM     41  H   UNL A   1      31.641  34.272  27.317  1.00  0.00     0.163 HD
ATOM     42  O   UNL A   1      32.632  35.514  29.111  1.00  0.00    -0.269 OA
BRANCH  40  43
ATOM     43  C   UNL A   1      34.450  34.037  29.131  1.00  0.00     0.039 A 
ATOM     44  C   UNL A   1      34.469  33.390  30.372  1.00  0.00     0.014 A 
ATOM     45  C   UNL A   1      35.650  34.245  28.446  1.00  0.00     0.014 A 
ATOM     46  C   UNL A   1      35.670  32.895  30.889  1.00  0.00     0.010 A 
ATOM     47  C   UNL A   1      36.839  33.696  28.932  1.00  0.00     0.010 A 
ATOM     48  C   UNL A   1      36.861  33.011  30.157  1.00  0.00    -0.014 A 
BRANCH  48  49
ATOM     49  C   UNL A   1      38.127  32.407  30.652  1.00  0.00     0.031 A 
ATOM     50  C   UNL A   1      38.651  31.129  30.056  1.00  0.00     0.074 A 
ATOM     51  C   UNL A   1      38.779  32.982  31.682  1.00  0.00     0.049 A 
ATOM     52  N   UNL A   1      39.705  30.430  30.397  1.00  0.00    -0.248 NA
ATOM     53  C   UNL A   1      37.879  30.550  28.947  1.00  0.00     0.031 C 
ATOM     54  C   UNL A   1      38.355  34.198  32.377  1.00  0.00     0.029 A 
ATOM     55  N   UNL A   1      39.933  32.615  32.329  1.00  0.00    -0.354 N 
ATOM     56  C   UNL A   1      39.716  29.325  29.555  1.00  0.00     0.074 A 
ATOM     57  C   UNL A   1      38.539  29.423  28.718  1.00  0.00     0.031 C 
ATOM     58  C   UNL A   1      39.246  34.487  33.340  1.00  0.00     0.029 A 
ATOM     59  C   UNL A   1      40.283  33.460  33.353  1.00  0.00     0.049 A 
ATOM     60  H   UNL A   1      40.459  31.820  32.083  1.00  0.00     0.167 HD
ATOM     61  C   UNL A   1      40.631  28.329  29.473  1.00  0.00     0.037 A 
ATOM     62  C   UNL A   1      41.320  33.414  34.210  1.00  0.00     0.037 A 
ATOM     63  C   UNL A   1      41.816  28.244  30.287  1.00  0.00     0.049 A 
ATOM     64  C   UNL A   1      42.323  32.301  34.099  1.00  0.00     0.074 A 
ATOM     65  C   UNL A   1      42.832  27.305  30.234  1.00  0.00     0.029 A 
ATOM     66  N   UNL A   1      42.143  29.130  31.302  1.00  0.00    -0.354 N 
ATOM     67  N   UNL A   1      42.350  31.296  33.257  1.00  0.00    -0.248 NA
ATOM     68  C   UNL A   1      43.441  32.316  35.053  1.00  0.00     0.031 C 
ATOM     69  C   UNL A   1      43.755  27.602  31.244  1.00  0.00     0.029 A 
ATOM     70  C   UNL A   1      43.335  28.748  31.897  1.00  0.00     0.049 A 
ATOM     71  H   UNL A   1      41.608  29.914  31.562  1.00  0.00     0.167 HD
ATOM     72  C   UNL A   1      43.498  30.576  33.562  1.00  0.00     0.074 A 
ATOM     73  C   UNL A   1      44.148  31.266  34.658  1.00  0.00     0.031 C 
ATOM     74  C   UNL A   1      43.972  29.446  32.984  1.00  0.00     0.037 A 
BRANCH  61  75
ATOM     75  C   UNL A   1      40.389  27.248  28.460  1.00  0.00     0.057 A 
ATOM     76  C   UNL A   1      39.545  26.162  28.728  1.00  0.00     0.134 A 
ATOM     77  C   UNL A   1      40.976  27.312  27.190  1.00  0.00     0.134 A 
ATOM     78  F   UNL A   1      38.960  26.036  29.928  1.00  0.00    -0.206 F 
ATOM     79  C   UNL A   1      39.312  25.167  27.777  1.00  0.00     0.040 A 
ATOM     80  C   UNL A   1      40.732  26.336  26.223  1.00  0.00     0.040 A 
ATOM     81  F   UNL A   1      41.790  28.329  26.866  1.00  0.00    -0.206 F 
ATOM     82  C   UNL A   1      39.902  25.256  26.517  1.00  0.00     0.006 A 
ENDBRANCH  61  75
BRANCH  62  83
ATOM     83  C   UNL A   1      41.478  34.472  35.240  1.00  0.00     0.057 A 
ATOM     84  C   UNL A   1      40.865  34.354  36.492  1.00  0.00     0.134 A 
ATOM     85  C   UNL A   1      42.238  35.623  34.998  1.00  0.00     0.134 A 
ATOM     86  F   UNL A   1      40.108  33.284  36.775  1.00  0.00    -0.206 F 
ATOM     87  C   UNL A   1      40.987  35.350  37.463  1.00  0.00     0.040 A 
ATOM     88  C   UNL A   1      42.388  36.615  35.968  1.00  0.00     0.040 A 
ATOM     89  F   UNL A   1      42.855  35.791  33.820  1.00  0.00    -0.206 F 
ATOM     90  C   UNL A   1      41.755  36.483  37.203  1.00  0.00     0.006 A 
ENDBRANCH  62  83
BRANCH  74  91
ATOM     91  C   UNL A   1      45.267  28.899  33.509  1.00  0.00     0.057 A 
ATOM     92  C   UNL A   1      45.304  27.952  34.541  1.00  0.00     0.134 A 
ATOM     93  C   UNL A   1      46.488  29.301  32.953  1.00  0.00     0.134 A 
ATOM     94  F   UNL A   1      44.171  27.537  35.124  1.00  0.00    -0.206 F 
ATOM     95  C   UNL A   1      46.513  27.439  35.014  1.00  0.00     0.040 A 
ATOM     96  C   UNL A   1      47.701  28.778  33.402  1.00  0.00     0.040 A 
ATOM     97  F   UNL A   1      46.520  30.200  31.958  1.00  0.00    -0.206 F 
ATOM     98  C   UNL A   1      47.716  27.848  34.439  1.00  0.00     0.006 A 
ENDBRANCH  74  91
ENDBRANCH  48  49
ENDBRANCH  40  43
ENDBRANCH  38  39
ENDBRANCH  37  38
ENDBRANCH  36  37
ENDBRANCH   1  36
TORSDOF 18
ENDMDL
MODEL 3
REMARK VINA RESULT:     -11.3      3.254      9.590
REMARK SMILES Cc1nnc(SCC2=C(C(=O)NCCCCCCNC(=O)c3ccc(-c4c5nc(c(-c6c(F)cccc6F)c6ccc([nH]6)c(-c6c(F)cccc6F)c6nc(c(-c7c(F)cccc7F)c7ccc4[nH]7)C=C6)C=C5)cc3)N3C(=O)[C@H](NC(=O)c4cn(C)nc4C)[C@@H]3SC2)s1
REMARK SMILES IDX 15 1 14 2 13 3 12 4 10 5 11 6 9 8 8 9 92 10 76 11 91 12
REMARK SMILES IDX 77 13 90 14 78 15 79 16 7 17 6 18 5 19 1 20 2 21 3 22 93 23
REMARK SMILES IDX 4 24 80 25 81 26 82 28 83 29 84 30 88 31 85 32 87 33 89 34
REMARK SMILES IDX 86 35 16 36 17 37 18 38 19 39 20 40 21 42 22 43 23 44 75 45
REMARK SMILES IDX 24 46 74 47 25 48 26 49 27 50 68 51 28 52 73 53 67 54 69 55
REMARK SMILES IDX 29 56 72 57 66 58 65 59 30 61 56 62 39 63 55 64 40 65 43 66
REMARK SMILES IDX 54 67 70 68 41 69 42 70 53 72 71 73 44 74 31 75 32 76 37 77
REMARK SMILES IDX 33 78 34 79 36 80 38 81 35 82 57 83 58 84 63 85 59 86 60 87
REMARK SMILES IDX 62 88 64 89 61 90 45 91 46 92 51 93 47 94 48 95 50 96 52 97
REMARK SMILES IDX 49 98
REMARK H PARENT 12 7 80 27 19 41 69 60 43 71
REMARK Flexibility Score: inf
ROOT
ATOM      1  C   UNL A   1      37.010  22.654  25.231  1.00  0.00     0.002 C 
ENDROOT
BRANCH   1   2
ATOM      2  C   UNL A   1      36.029  23.233  26.257  1.00  0.00     0.021 C 
BRANCH   2   3
ATOM      3  C   UNL A   1      35.088  22.287  27.000  1.00  0.00     0.116 C 
BRANCH   3   4
ATOM      4  N   UNL A   1      33.729  22.718  27.232  1.00  0.00    -0.351 N 
ATOM      5  C   UNL A   1      32.704  23.068  26.390  1.00  0.00     0.268 C 
ATOM      6  O   UNL A   1      31.589  23.087  26.916  1.00  0.00    -0.268 OA
ATOM      7  H   UNL A   1      33.492  22.772  28.186  1.00  0.00     0.163 HD
BRANCH   5   8
ATOM      8  C   UNL A   1      32.866  23.516  24.922  1.00  0.00     0.111 C 
ATOM      9  C   UNL A   1      33.030  22.688  23.841  1.00  0.00    -0.020 C 
ATOM     10  C   UNL A   1      33.191  23.202  22.416  1.00  0.00     0.106 C 
ATOM     11  N   UNL A   1      32.701  24.870  24.701  1.00  0.00    -0.290 N 
ATOM     12  S   UNL A   1      32.366  24.760  22.066  1.00  0.00    -0.129 SA
ATOM     13  C   UNL A   1      32.211  25.961  25.347  1.00  0.00     0.253 C 
ATOM     14  C   UNL A   1      33.085  25.577  23.494  1.00  0.00     0.181 C 
ATOM     15  O   UNL A   1      31.797  26.196  26.454  1.00  0.00    -0.272 OA
ATOM     16  C   UNL A   1      32.310  26.811  24.038  1.00  0.00     0.206 C 
BRANCH   9  17
ATOM     17  C   UNL A   1      33.059  21.178  23.972  1.00  0.00     0.111 C 
BRANCH  17  18
ATOM     18  S   UNL A   1      32.195  20.136  22.781  1.00  0.00    -0.089 SA
BRANCH  18  19
ATOM     19  C   UNL A   1      32.668  18.541  23.286  1.00  0.00     0.174 A 
ATOM     20  C   UNL A   1      33.486  15.460  25.392  1.00  0.00     0.081 C 
ATOM     21  C   UNL A   1      33.226  16.538  24.409  1.00  0.00     0.115 A 
ATOM     22  N   UNL A   1      33.447  16.457  23.115  1.00  0.00    -0.143 NA
ATOM     23  S   UNL A   1      32.581  18.044  24.921  1.00  0.00    -0.091 S 
ATOM     24  N   UNL A   1      33.123  17.628  22.459  1.00  0.00    -0.132 NA
ENDBRANCH  18  19
ENDBRANCH  17  18
ENDBRANCH   9  17
BRANCH  16  25
ATOM     25  N   UNL A   1      31.014  27.137  23.379  1.00  0.00    -0.337 N 
ATOM     26  C   UNL A   1      30.233  28.263  23.491  1.00  0.00     0.255 C 
ATOM     27  H   UNL A   1      30.664  26.443  22.774  1.00  0.00     0.164 HD
ATOM     28  O   UNL A   1      29.164  28.311  22.888  1.00  0.00    -0.269 OA
BRANCH  26  29
ATOM     29  C   UNL A   1      30.675  29.341  24.351  1.00  0.00     0.080 A 
ATOM     30  C   UNL A   1      31.735  29.354  25.239  1.00  0.00     0.122 A 
ATOM     31  C   UNL A   1      30.146  30.662  24.424  1.00  0.00     0.072 A 
ATOM     32  N   UNL A   1      31.729  30.585  25.825  1.00  0.00    -0.275 N 
ATOM     33  N   UNL A   1      30.780  31.401  25.346  1.00  0.00    -0.178 NA
ATOM     34  C   UNL A   1      29.012  31.251  23.666  1.00  0.00     0.069 C 
ATOM     35  C   UNL A   1      32.585  31.050  26.889  1.00  0.00     0.173 C 
ENDBRANCH  26  29
ENDBRANCH  16  25
ENDBRANCH   5   8
ENDBRANCH   3   4
ENDBRANCH   2   3
ENDBRANCH   1   2
BRANCH   1  36
ATOM     36  C   UNL A   1      36.798  21.241  24.678  1.00  0.00     0.002 C 
BRANCH  36  37
ATOM     37  C   UNL A   1      37.949  20.232  24.726  1.00  0.00     0.021 C 
BRANCH  37  38
ATOM     38  C   UNL A   1      38.865  20.247  25.943  1.00  0.00     0.116 C 
BRANCH  38  39
ATOM     39  N   UNL A   1      40.003  19.352  25.838  1.00  0.00    -0.352 N 
ATOM     40  C   UNL A   1      41.333  19.561  26.114  1.00  0.00     0.251 C 
ATOM     41  H   UNL A   1      39.786  18.446  25.516  1.00  0.00     0.163 HD
ATOM     42  O   UNL A   1      42.143  18.665  25.888  1.00  0.00    -0.269 OA
BRANCH  40  43
ATOM     43  C   UNL A   1      41.821  20.858  26.645  1.00  0.00     0.039 A 
ATOM     44  C   UNL A   1      42.239  21.832  25.731  1.00  0.00     0.014 A 
ATOM     45  C   UNL A   1      41.912  21.119  28.015  1.00  0.00     0.014 A 
ATOM     46  C   UNL A   1      42.678  23.080  26.182  1.00  0.00     0.010 A 
ATOM     47  C   UNL A   1      42.291  22.386  28.464  1.00  0.00     0.010 A 
ATOM     48  C   UNL A   1      42.674  23.382  27.553  1.00  0.00    -0.014 A 
BRANCH  48  49
ATOM     49  C   UNL A   1      43.049  24.736  28.040  1.00  0.00     0.031 A 
ATOM     50  C   UNL A   1      41.994  25.775  28.307  1.00  0.00     0.074 A 
ATOM     51  C   UNL A   1      44.351  25.051  28.191  1.00  0.00     0.049 A 
ATOM     52  N   UNL A   1      42.138  27.021  28.682  1.00  0.00    -0.248 NA
ATOM     53  C   UNL A   1      40.596  25.366  28.106  1.00  0.00     0.031 C 
ATOM     54  C   UNL A   1      45.473  24.150  27.926  1.00  0.00     0.029 A 
ATOM     55  N   UNL A   1      44.950  26.218  28.595  1.00  0.00    -0.354 N 
ATOM     56  C   UNL A   1      40.855  27.549  28.749  1.00  0.00     0.074 A 
ATOM     57  C   UNL A   1      39.948  26.499  28.333  1.00  0.00     0.031 C 
ATOM     58  C   UNL A   1      46.624  24.791  28.192  1.00  0.00     0.029 A 
ATOM     59  C   UNL A   1      46.322  26.156  28.614  1.00  0.00     0.049 A 
ATOM     60  H   UNL A   1      44.444  27.024  28.847  1.00  0.00     0.167 HD
ATOM     61  C   UNL A   1      40.464  28.786  29.139  1.00  0.00     0.037 A 
ATOM     62  C   UNL A   1      47.236  27.092  28.931  1.00  0.00     0.037 A 
ATOM     63  C   UNL A   1      41.363  29.822  29.578  1.00  0.00     0.049 A 
ATOM     64  C   UNL A   1      46.779  28.456  29.361  1.00  0.00     0.074 A 
ATOM     65  C   UNL A   1      41.056  31.086  30.050  1.00  0.00     0.029 A 
ATOM     66  N   UNL A   1      42.745  29.713  29.598  1.00  0.00    -0.354 N 
ATOM     67  N   UNL A   1      45.558  28.919  29.477  1.00  0.00    -0.248 NA
ATOM     68  C   UNL A   1      47.825  29.428  29.710  1.00  0.00     0.031 C 
ATOM     69  C   UNL A   1      42.254  31.757  30.320  1.00  0.00     0.029 A 
ATOM     70  C   UNL A   1      43.305  30.896  30.055  1.00  0.00     0.049 A 
ATOM     71  H   UNL A   1      43.253  28.915  29.328  1.00  0.00     0.167 HD
ATOM     72  C   UNL A   1      45.688  30.224  29.936  1.00  0.00     0.074 A 
ATOM     73  C   UNL A   1      47.106  30.475  30.090  1.00  0.00     0.031 C 
ATOM     74  C   UNL A   1      44.718  31.131  30.206  1.00  0.00     0.037 A 
BRANCH  61  75
ATOM     75  C   UNL A   1      38.994  29.088  29.113  1.00  0.00     0.057 A 
ATOM     76  C   UNL A   1      38.191  28.944  30.251  1.00  0.00     0.134 A 
ATOM     77  C   UNL A   1      38.382  29.566  27.947  1.00  0.00     0.134 A 
ATOM     78  F   UNL A   1      38.713  28.482  31.397  1.00  0.00    -0.206 F 
ATOM     79  C   UNL A   1      36.827  29.241  30.225  1.00  0.00     0.040 A 
ATOM     80  C   UNL A   1      37.024  29.890  27.915  1.00  0.00     0.040 A 
ATOM     81  F   UNL A   1      39.094  29.734  26.822  1.00  0.00    -0.206 F 
ATOM     82  C   UNL A   1      36.242  29.722  29.056  1.00  0.00     0.006 A 
ENDBRANCH  61  75
BRANCH  62  83
ATOM     83  C   UNL A   1      48.682  26.763  28.874  1.00  0.00     0.057 A 
ATOM     84  C   UNL A   1      49.412  26.925  27.691  1.00  0.00     0.134 A 
ATOM     85  C   UNL A   1      49.368  26.277  29.994  1.00  0.00     0.134 A 
ATOM     86  F   UNL A   1      48.806  27.367  26.580  1.00  0.00    -0.206 F 
ATOM     87  C   UNL A   1      50.768  26.601  27.617  1.00  0.00     0.040 A 
ATOM     88  C   UNL A   1      50.729  25.971  29.941  1.00  0.00     0.040 A 
ATOM     89  F   UNL A   1      48.726  26.105  31.159  1.00  0.00    -0.206 F 
ATOM     90  C   UNL A   1      51.431  26.127  28.747  1.00  0.00     0.006 A 
ENDBRANCH  62  83
BRANCH  74  91
ATOM     91  C   UNL A   1      45.158  32.470  30.721  1.00  0.00     0.057 A 
ATOM     92  C   UNL A   1      45.345  32.710  32.088  1.00  0.00     0.134 A 
ATOM     93  C   UNL A   1      45.429  33.521  29.835  1.00  0.00     0.134 A 
ATOM     94  F   UNL A   1      45.089  31.750  32.988  1.00  0.00    -0.206 F 
ATOM     95  C   UNL A   1      45.767  33.955  32.557  1.00  0.00     0.040 A 
ATOM     96  C   UNL A   1      45.873  34.762  30.290  1.00  0.00     0.040 A 
ATOM     97  F   UNL A   1      45.275  33.353  28.512  1.00  0.00    -0.206 F 
ATOM     98  C   UNL A   1      46.038  34.984  31.655  1.00  0.00     0.006 A 
ENDBRANCH  74  91
ENDBRANCH  48  49
ENDBRANCH  40  43
ENDBRANCH  38  39
ENDBRANCH  37  38
ENDBRANCH  36  37
ENDBRANCH   1  36
TORSDOF 18
ENDMDL
