MODEL 1
REMARK VINA RESULT:     -10.4      0.000      0.000
REMARK SMILES COc1ncccc1C[N@@H+](CC(=O)NCCCCCCNC(=O)c1ccc(-c2c3nc(c(-c4c(F)cccc4F)c4ccc([nH]4)c(-c4c(F)cccc4F)c4nc(c(-c5c(F)cccc5F)c5ccc2[nH]5)C=C4)C=C3)cc1)C1CCCC1
REMARK SMILES IDX 16 1 15 2 14 3 12 4 13 5 11 7 10 8 9 10 8 11 3 12 4 13 5 14
REMARK SMILES IDX 7 15 6 16 2 17 1 18 78 19 79 20 82 21 80 22 81 23 17 24
REMARK SMILES IDX 18 25 19 26 20 27 21 28 22 29 23 31 24 32 25 33 77 34 26 35
REMARK SMILES IDX 76 36 27 37 28 38 29 39 70 40 30 41 75 42 69 43 71 44 31 45
REMARK SMILES IDX 74 46 68 47 67 48 32 50 58 51 41 52 57 53 42 54 45 55 56 56
REMARK SMILES IDX 72 57 43 58 44 59 55 61 73 62 46 63 33 64 34 65 39 66 35 67
REMARK SMILES IDX 36 68 38 69 40 70 37 71 59 72 60 73 65 74 61 75 62 76 64 77
REMARK SMILES IDX 66 78 63 79 47 80 48 81 53 82 49 83 50 84 52 85 54 86 51 87
REMARK H PARENT 14 6 10 9 21 30 71 49 45 60
REMARK Flexibility Score: inf
ROOT
ATOM      1  C   UNL A   1      37.729  23.671  26.187  1.00  0.00     0.021 C 
ENDROOT
BRANCH   1   2
ATOM      2  C   UNL A   1      36.256  23.655  25.756  1.00  0.00     0.116 C 
BRANCH   2   3
ATOM      3  N   UNL A   1      35.440  22.953  26.729  1.00  0.00    -0.351 N 
ATOM      4  C   UNL A   1      34.791  21.755  26.663  1.00  0.00     0.275 C 
ATOM      5  O   UNL A   1      34.120  21.432  27.649  1.00  0.00    -0.269 OA
ATOM      6  H   UNL A   1      35.339  23.423  27.587  1.00  0.00     0.163 HD
BRANCH   4   7
ATOM      7  C   UNL A   1      34.897  20.815  25.451  1.00  0.00     0.364 C 
BRANCH   7   8
ATOM      8  N   UNL A   1      33.686  20.688  24.585  1.00  0.00    -0.321 N 
ATOM      9  H   UNL A   1      33.898  20.940  23.620  1.00  0.00     0.349 HD
BRANCH   8  10
ATOM     10  C   UNL A   1      32.686  21.692  24.957  1.00  0.00     0.305 C 
BRANCH  10  11
ATOM     11  C   UNL A   1      32.502  22.920  24.116  1.00  0.00     0.068 A 
ATOM     12  C   UNL A   1      31.545  23.896  24.386  1.00  0.00     0.221 A 
ATOM     13  N   UNL A   1      31.299  24.950  23.577  1.00  0.00    -0.222 NA
ATOM     14  C   UNL A   1      32.035  25.048  22.448  1.00  0.00     0.115 A 
ATOM     15  C   UNL A   1      33.232  23.057  22.923  1.00  0.00     0.017 A 
ATOM     16  C   UNL A   1      33.001  24.133  22.077  1.00  0.00     0.021 A 
BRANCH  12  17
ATOM     17  O   UNL A   1      30.641  23.745  25.404  1.00  0.00    -0.481 OA
ATOM     18  C   UNL A   1      30.387  24.976  26.073  1.00  0.00     0.280 C 
ENDBRANCH  12  17
ENDBRANCH  10  11
ENDBRANCH   8  10
BRANCH   8  19
ATOM     19  C   UNL A   1      33.275  19.292  24.365  1.00  0.00     0.184 C 
ATOM     20  C   UNL A   1      32.474  18.932  23.105  1.00  0.00     0.065 C 
ATOM     21  C   UNL A   1      34.415  18.248  24.405  1.00  0.00     0.065 C 
ATOM     22  C   UNL A   1      32.598  17.418  23.034  1.00  0.00     0.006 C 
ATOM     23  C   UNL A   1      34.055  17.174  23.378  1.00  0.00     0.006 C 
ENDBRANCH   8  19
ENDBRANCH   7   8
ENDBRANCH   4   7
ENDBRANCH   2   3
ENDBRANCH   1   2
BRANCH   1  24
ATOM     24  C   UNL A   1      38.473  22.346  26.050  1.00  0.00     0.002 C 
BRANCH  24  25
ATOM     25  C   UNL A   1      38.020  21.465  24.884  1.00  0.00     0.002 C 
BRANCH  25  26
ATOM     26  C   UNL A   1      38.509  20.013  24.918  1.00  0.00     0.021 C 
BRANCH  26  27
ATOM     27  C   UNL A   1      39.257  19.598  26.184  1.00  0.00     0.116 C 
BRANCH  27  28
ATOM     28  N   UNL A   1      40.541  18.987  25.890  1.00  0.00    -0.352 N 
ATOM     29  C   UNL A   1      41.795  19.544  25.860  1.00  0.00     0.251 C 
ATOM     30  H   UNL A   1      40.506  18.026  25.680  1.00  0.00     0.163 HD
ATOM     31  O   UNL A   1      42.735  18.915  25.383  1.00  0.00    -0.269 OA
BRANCH  29  32
ATOM     32  C   UNL A   1      42.020  20.905  26.392  1.00  0.00     0.039 A 
ATOM     33  C   UNL A   1      41.965  21.105  27.774  1.00  0.00     0.014 A 
ATOM     34  C   UNL A   1      42.242  21.987  25.535  1.00  0.00     0.014 A 
ATOM     35  C   UNL A   1      42.184  22.380  28.300  1.00  0.00     0.010 A 
ATOM     36  C   UNL A   1      42.522  23.245  26.064  1.00  0.00     0.010 A 
ATOM     37  C   UNL A   1      42.490  23.455  27.450  1.00  0.00    -0.014 A 
BRANCH  37  38
ATOM     38  C   UNL A   1      42.771  24.806  27.999  1.00  0.00     0.031 A 
ATOM     39  C   UNL A   1      44.168  25.182  28.410  1.00  0.00     0.074 A 
ATOM     40  C   UNL A   1      41.759  25.677  28.177  1.00  0.00     0.049 A 
ATOM     41  N   UNL A   1      44.600  26.292  28.954  1.00  0.00    -0.248 NA
ATOM     42  C   UNL A   1      45.214  24.170  28.203  1.00  0.00     0.031 C 
ATOM     43  C   UNL A   1      40.355  25.416  27.858  1.00  0.00     0.029 A 
ATOM     44  N   UNL A   1      41.756  26.954  28.674  1.00  0.00    -0.354 N 
ATOM     45  C   UNL A   1      45.960  26.106  29.165  1.00  0.00     0.074 A 
ATOM     46  C   UNL A   1      46.274  24.760  28.737  1.00  0.00     0.031 C 
ATOM     47  C   UNL A   1      39.629  26.508  28.147  1.00  0.00     0.029 A 
ATOM     48  C   UNL A   1      40.509  27.532  28.700  1.00  0.00     0.049 A 
ATOM     49  H   UNL A   1      42.569  27.414  28.984  1.00  0.00     0.167 HD
ATOM     50  C   UNL A   1      46.869  26.986  29.651  1.00  0.00     0.037 A 
ATOM     51  C   UNL A   1      40.121  28.750  29.123  1.00  0.00     0.037 A 
ATOM     52  C   UNL A   1      46.561  28.332  30.054  1.00  0.00     0.049 A 
ATOM     53  C   UNL A   1      41.150  29.706  29.659  1.00  0.00     0.074 A 
ATOM     54  C   UNL A   1      47.422  29.315  30.509  1.00  0.00     0.029 A 
ATOM     55  N   UNL A   1      45.290  28.885  30.051  1.00  0.00    -0.354 N 
ATOM     56  N   UNL A   1      42.442  29.537  29.796  1.00  0.00    -0.248 NA
ATOM     57  C   UNL A   1      40.666  31.024  30.092  1.00  0.00     0.031 C 
ATOM     58  C   UNL A   1      46.667  30.452  30.816  1.00  0.00     0.029 A 
ATOM     59  C   UNL A   1      45.340  30.190  30.511  1.00  0.00     0.049 A 
ATOM     60  H   UNL A   1      44.472  28.418  29.764  1.00  0.00     0.167 HD
ATOM     61  C   UNL A   1      42.930  30.734  30.305  1.00  0.00     0.074 A 
ATOM     62  C   UNL A   1      41.795  31.624  30.439  1.00  0.00     0.031 C 
ATOM     63  C   UNL A   1      44.203  31.065  30.632  1.00  0.00     0.037 A 
BRANCH  50  64
ATOM     64  C   UNL A   1      48.291  26.515  29.764  1.00  0.00     0.057 A 
ATOM     65  C   UNL A   1      49.214  26.701  28.727  1.00  0.00     0.134 A 
ATOM     66  C   UNL A   1      48.750  25.899  30.935  1.00  0.00     0.134 A 
ATOM     67  F   UNL A   1      48.834  27.274  27.574  1.00  0.00    -0.206 F 
ATOM     68  C   UNL A   1      50.535  26.268  28.838  1.00  0.00     0.040 A 
ATOM     69  C   UNL A   1      50.077  25.484  31.068  1.00  0.00     0.040 A 
ATOM     70  F   UNL A   1      47.921  25.694  31.969  1.00  0.00    -0.206 F 
ATOM     71  C   UNL A   1      50.973  25.663  30.015  1.00  0.00     0.006 A 
ENDBRANCH  50  64
BRANCH  51  72
ATOM     72  C   UNL A   1      38.695  29.147  29.030  1.00  0.00     0.057 A 
ATOM     73  C   UNL A   1      37.852  29.069  30.145  1.00  0.00     0.134 A 
ATOM     74  C   UNL A   1      38.138  29.605  27.830  1.00  0.00     0.134 A 
ATOM     75  F   UNL A   1      38.324  28.620  31.317  1.00  0.00    -0.206 F 
ATOM     76  C   UNL A   1      36.503  29.416  30.067  1.00  0.00     0.040 A 
ATOM     77  C   UNL A   1      36.795  29.977  27.744  1.00  0.00     0.040 A 
ATOM     78  F   UNL A   1      38.895  29.710  26.728  1.00  0.00    -0.206 F 
ATOM     79  C   UNL A   1      35.972  29.876  28.864  1.00  0.00     0.006 A 
ENDBRANCH  51  72
BRANCH  63  80
ATOM     80  C   UNL A   1      44.439  32.460  31.132  1.00  0.00     0.057 A 
ATOM     81  C   UNL A   1      44.684  33.527  30.258  1.00  0.00     0.134 A 
ATOM     82  C   UNL A   1      44.388  32.743  32.502  1.00  0.00     0.134 A 
ATOM     83  F   UNL A   1      44.759  33.318  28.935  1.00  0.00    -0.206 F 
ATOM     84  C   UNL A   1      44.893  34.822  30.732  1.00  0.00     0.040 A 
ATOM     85  C   UNL A   1      44.571  34.039  32.986  1.00  0.00     0.040 A 
ATOM     86  F   UNL A   1      44.149  31.767  33.392  1.00  0.00    -0.206 F 
ATOM     87  C   UNL A   1      44.832  35.082  32.100  1.00  0.00     0.006 A 
ENDBRANCH  63  80
ENDBRANCH  37  38
ENDBRANCH  29  32
ENDBRANCH  27  28
ENDBRANCH  26  27
ENDBRANCH  25  26
ENDBRANCH  24  25
ENDBRANCH   1  24
TORSDOF 18
ENDMDL
MODEL 2
REMARK VINA RESULT:     -10.3      2.758      8.050
REMARK SMILES COc1ncccc1C[N@@H+](CC(=O)NCCCCCCNC(=O)c1ccc(-c2c3nc(c(-c4c(F)cccc4F)c4ccc([nH]4)c(-c4c(F)cccc4F)c4nc(c(-c5c(F)cccc5F)c5ccc2[nH]5)C=C4)C=C3)cc1)C1CCCC1
REMARK SMILES IDX 16 1 15 2 14 3 12 4 13 5 11 7 10 8 9 10 8 11 3 12 4 13 5 14
REMARK SMILES IDX 7 15 6 16 2 17 1 18 78 19 79 20 82 21 80 22 81 23 17 24
REMARK SMILES IDX 18 25 19 26 20 27 21 28 22 29 23 31 24 32 25 33 77 34 26 35
REMARK SMILES IDX 76 36 27 37 28 38 29 39 70 40 30 41 75 42 69 43 71 44 31 45
REMARK SMILES IDX 74 46 68 47 67 48 32 50 58 51 41 52 57 53 42 54 45 55 56 56
REMARK SMILES IDX 72 57 43 58 44 59 55 61 73 62 46 63 33 64 34 65 39 66 35 67
REMARK SMILES IDX 36 68 38 69 40 70 37 71 59 72 60 73 65 74 61 75 62 76 64 77
REMARK SMILES IDX 66 78 63 79 47 80 48 81 53 82 49 83 50 84 52 85 54 86 51 87
REMARK H PARENT 14 6 10 9 21 30 71 49 45 60
REMARK Flexibility Score: inf
ROOT
ATOM      1  C   UNL A   1      32.248  27.435  26.176  1.00  0.00     0.021 C 
ENDROOT
BRANCH   1   2
ATOM      2  C   UNL A   1      31.032  26.517  25.987  1.00  0.00     0.116 C 
BRANCH   2   3
ATOM      3  N   UNL A   1      31.110  25.367  26.867  1.00  0.00    -0.351 N 
ATOM      4  C   UNL A   1      31.238  24.036  26.601  1.00  0.00     0.275 C 
ATOM      5  O   UNL A   1      31.226  23.271  27.572  1.00  0.00    -0.269 OA
ATOM      6  H   UNL A   1      31.064  25.587  27.826  1.00  0.00     0.163 HD
BRANCH   4   7
ATOM      7  C   UNL A   1      31.425  23.484  25.178  1.00  0.00     0.364 C 
BRANCH   7   8
ATOM      8  N   UNL A   1      32.775  23.652  24.559  1.00  0.00    -0.321 N 
ATOM      9  H   UNL A   1      33.120  22.768  24.188  1.00  0.00     0.349 HD
BRANCH   8  10
ATOM     10  C   UNL A   1      33.770  23.970  25.586  1.00  0.00     0.305 C 
BRANCH  10  11
ATOM     11  C   UNL A   1      35.111  23.298  25.568  1.00  0.00     0.068 A 
ATOM     12  C   UNL A   1      35.274  21.916  25.637  1.00  0.00     0.221 A 
ATOM     13  N   UNL A   1      36.478  21.306  25.730  1.00  0.00    -0.222 NA
ATOM     14  C   UNL A   1      37.572  22.098  25.751  1.00  0.00     0.115 A 
ATOM     15  C   UNL A   1      36.278  24.080  25.608  1.00  0.00     0.017 A 
ATOM     16  C   UNL A   1      37.525  23.478  25.698  1.00  0.00     0.021 A 
BRANCH  12  17
ATOM     17  O   UNL A   1      34.205  21.080  25.818  1.00  0.00    -0.481 OA
ATOM     18  C   UNL A   1      34.149  20.069  24.818  1.00  0.00     0.280 C 
ENDBRANCH  12  17
ENDBRANCH  10  11
ENDBRANCH   8  10
BRANCH   8  19
ATOM     19  C   UNL A   1      32.745  24.424  23.306  1.00  0.00     0.184 C 
ATOM     20  C   UNL A   1      31.398  24.917  22.758  1.00  0.00     0.065 C 
ATOM     21  C   UNL A   1      33.652  25.676  23.274  1.00  0.00     0.065 C 
ATOM     22  C   UNL A   1      31.800  25.971  21.738  1.00  0.00     0.006 C 
ATOM     23  C   UNL A   1      32.912  26.725  22.442  1.00  0.00     0.006 C 
ENDBRANCH   8  19
ENDBRANCH   7   8
ENDBRANCH   4   7
ENDBRANCH   2   3
ENDBRANCH   1   2
BRANCH   1  24
ATOM     24  C   UNL A   1      32.232  28.304  27.431  1.00  0.00     0.002 C 
BRANCH  24  25
ATOM     25  C   UNL A   1      32.633  29.764  27.214  1.00  0.00     0.002 C 
BRANCH  25  26
ATOM     26  C   UNL A   1      34.098  30.003  26.832  1.00  0.00     0.021 C 
BRANCH  26  27
ATOM     27  C   UNL A   1      35.133  29.414  27.790  1.00  0.00     0.116 C 
BRANCH  27  28
ATOM     28  N   UNL A   1      35.159  30.107  29.066  1.00  0.00    -0.352 N 
ATOM     29  C   UNL A   1      36.187  30.265  29.960  1.00  0.00     0.251 C 
ATOM     30  H   UNL A   1      34.308  30.528  29.329  1.00  0.00     0.163 HD
ATOM     31  O   UNL A   1      35.961  30.702  31.085  1.00  0.00    -0.269 OA
BRANCH  29  32
ATOM     32  C   UNL A   1      37.569  29.902  29.581  1.00  0.00     0.039 A 
ATOM     33  C   UNL A   1      38.428  29.404  30.565  1.00  0.00     0.014 A 
ATOM     34  C   UNL A   1      38.033  30.091  28.276  1.00  0.00     0.014 A 
ATOM     35  C   UNL A   1      39.736  29.047  30.229  1.00  0.00     0.010 A 
ATOM     36  C   UNL A   1      39.316  29.675  27.928  1.00  0.00     0.010 A 
ATOM     37  C   UNL A   1      40.182  29.155  28.901  1.00  0.00    -0.014 A 
BRANCH  37  38
ATOM     38  C   UNL A   1      41.554  28.735  28.521  1.00  0.00     0.031 A 
ATOM     39  C   UNL A   1      41.833  27.305  28.147  1.00  0.00     0.074 A 
ATOM     40  C   UNL A   1      42.560  29.628  28.563  1.00  0.00     0.049 A 
ATOM     41  N   UNL A   1      42.971  26.739  27.834  1.00  0.00    -0.248 NA
ATOM     42  C   UNL A   1      40.685  26.385  28.143  1.00  0.00     0.031 C 
ATOM     43  C   UNL A   1      42.427  31.033  28.952  1.00  0.00     0.029 A 
ATOM     44  N   UNL A   1      43.895  29.487  28.282  1.00  0.00    -0.354 N 
ATOM     45  C   UNL A   1      42.679  25.399  27.612  1.00  0.00     0.074 A 
ATOM     46  C   UNL A   1      41.266  25.226  27.872  1.00  0.00     0.031 C 
ATOM     47  C   UNL A   1      43.627  31.629  28.863  1.00  0.00     0.029 A 
ATOM     48  C   UNL A   1      44.618  30.644  28.443  1.00  0.00     0.049 A 
ATOM     49  H   UNL A   1      44.297  28.636  27.993  1.00  0.00     0.167 HD
ATOM     50  C   UNL A   1      43.509  24.408  27.205  1.00  0.00     0.037 A 
ATOM     51  C   UNL A   1      45.932  30.882  28.272  1.00  0.00     0.037 A 
ATOM     52  C   UNL A   1      44.908  24.586  26.923  1.00  0.00     0.049 A 
ATOM     53  C   UNL A   1      46.831  29.764  27.822  1.00  0.00     0.074 A 
ATOM     54  C   UNL A   1      45.820  23.655  26.456  1.00  0.00     0.029 A 
ATOM     55  N   UNL A   1      45.600  25.776  27.084  1.00  0.00    -0.354 N 
ATOM     56  N   UNL A   1      46.528  28.517  27.557  1.00  0.00    -0.248 NA
ATOM     57  C   UNL A   1      48.252  30.091  27.641  1.00  0.00     0.031 C 
ATOM     58  C   UNL A   1      47.072  24.273  26.368  1.00  0.00     0.029 A 
ATOM     59  C   UNL A   1      46.930  25.601  26.740  1.00  0.00     0.049 A 
ATOM     60  H   UNL A   1      45.205  26.622  27.396  1.00  0.00     0.167 HD
ATOM     61  C   UNL A   1      47.714  27.916  27.152  1.00  0.00     0.074 A 
ATOM     62  C   UNL A   1      48.737  28.941  27.194  1.00  0.00     0.031 C 
ATOM     63  C   UNL A   1      47.934  26.632  26.780  1.00  0.00     0.037 A 
BRANCH  50  64
ATOM     64  C   UNL A   1      42.914  23.039  27.034  1.00  0.00     0.057 A 
ATOM     65  C   UNL A   1      42.633  22.511  25.767  1.00  0.00     0.134 A 
ATOM     66  C   UNL A   1      42.652  22.228  28.145  1.00  0.00     0.134 A 
ATOM     67  F   UNL A   1      42.850  23.242  24.662  1.00  0.00    -0.206 F 
ATOM     68  C   UNL A   1      42.087  21.237  25.612  1.00  0.00     0.040 A 
ATOM     69  C   UNL A   1      42.130  20.941  28.001  1.00  0.00     0.040 A 
ATOM     70  F   UNL A   1      42.903  22.669  29.386  1.00  0.00    -0.206 F 
ATOM     71  C   UNL A   1      41.840  20.444  26.731  1.00  0.00     0.006 A 
ENDBRANCH  50  64
BRANCH  51  72
ATOM     72  C   UNL A   1      46.474  32.244  28.499  1.00  0.00     0.057 A 
ATOM     73  C   UNL A   1      46.927  32.637  29.764  1.00  0.00     0.134 A 
ATOM     74  C   UNL A   1      46.547  33.186  27.466  1.00  0.00     0.134 A 
ATOM     75  F   UNL A   1      46.864  31.784  30.797  1.00  0.00    -0.206 F 
ATOM     76  C   UNL A   1      47.416  33.922  29.999  1.00  0.00     0.040 A 
ATOM     77  C   UNL A   1      47.056  34.469  27.682  1.00  0.00     0.040 A 
ATOM     78  F   UNL A   1      46.136  32.869  26.230  1.00  0.00    -0.206 F 
ATOM     79  C   UNL A   1      47.486  34.841  28.954  1.00  0.00     0.006 A 
ENDBRANCH  51  72
BRANCH  63  80
ATOM     80  C   UNL A   1      49.328  26.274  26.355  1.00  0.00     0.057 A 
ATOM     81  C   UNL A   1      50.209  25.596  27.207  1.00  0.00     0.134 A 
ATOM     82  C   UNL A   1      49.781  26.584  25.066  1.00  0.00     0.134 A 
ATOM     83  F   UNL A   1      49.840  25.284  28.458  1.00  0.00    -0.206 F 
ATOM     84  C   UNL A   1      51.500  25.260  26.799  1.00  0.00     0.040 A 
ATOM     85  C   UNL A   1      51.062  26.230  24.640  1.00  0.00     0.040 A 
ATOM     86  F   UNL A   1      48.983  27.225  24.199  1.00  0.00    -0.206 F 
ATOM     87  C   UNL A   1      51.928  25.572  25.510  1.00  0.00     0.006 A 
ENDBRANCH  63  80
ENDBRANCH  37  38
ENDBRANCH  29  32
ENDBRANCH  27  28
ENDBRANCH  26  27
ENDBRANCH  25  26
ENDBRANCH  24  25
ENDBRANCH   1  24
TORSDOF 18
ENDMDL
MODEL 3
REMARK VINA RESULT:     -10.3      4.250      9.214
REMARK SMILES COc1ncccc1C[N@@H+](CC(=O)NCCCCCCNC(=O)c1ccc(-c2c3nc(c(-c4c(F)cccc4F)c4ccc([nH]4)c(-c4c(F)cccc4F)c4nc(c(-c5c(F)cccc5F)c5ccc2[nH]5)C=C4)C=C3)cc1)C1CCCC1
REMARK SMILES IDX 16 1 15 2 14 3 12 4 13 5 11 7 10 8 9 10 8 11 3 12 4 13 5 14
REMARK SMILES IDX 7 15 6 16 2 17 1 18 78 19 79 20 82 21 80 22 81 23 17 24
REMARK SMILES IDX 18 25 19 26 20 27 21 28 22 29 23 31 24 32 25 33 77 34 26 35
REMARK SMILES IDX 76 36 27 37 28 38 29 39 70 40 30 41 75 42 69 43 71 44 31 45
REMARK SMILES IDX 74 46 68 47 67 48 32 50 58 51 41 52 57 53 42 54 45 55 56 56
REMARK SMILES IDX 72 57 43 58 44 59 55 61 73 62 46 63 33 64 34 65 39 66 35 67
REMARK SMILES IDX 36 68 38 69 40 70 37 71 59 72 60 73 65 74 61 75 62 76 64 77
REMARK SMILES IDX 66 78 63 79 47 80 48 81 53 82 49 83 50 84 52 85 54 86 51 87
REMARK H PARENT 14 6 10 9 21 30 71 49 45 60
REMARK Flexibility Score: inf
ROOT
ATOM      1  C   UNL A   1      33.102  29.439  24.956  1.00  0.00     0.021 C 
ENDROOT
BRANCH   1   2
ATOM      2  C   UNL A   1      33.224  27.934  24.682  1.00  0.00     0.116 C 
BRANCH   2   3
ATOM      3  N   UNL A   1      33.569  27.686  23.296  1.00  0.00    -0.351 N 
ATOM      4  C   UNL A   1      33.289  26.636  22.472  1.00  0.00     0.275 C 
ATOM      5  O   UNL A   1      33.767  26.681  21.333  1.00  0.00    -0.269 OA
ATOM      6  H   UNL A   1      34.097  28.402  22.876  1.00  0.00     0.163 HD
BRANCH   4   7
ATOM      7  C   UNL A   1      32.396  25.458  22.895  1.00  0.00     0.364 C 
BRANCH   7   8
ATOM      8  N   UNL A   1      32.980  24.480  23.862  1.00  0.00    -0.321 N 
ATOM      9  H   UNL A   1      33.819  24.856  24.302  1.00  0.00     0.349 HD
BRANCH   8  10
ATOM     10  C   UNL A   1      33.498  23.308  23.151  1.00  0.00     0.305 C 
BRANCH  10  11
ATOM     11  C   UNL A   1      34.599  22.488  23.754  1.00  0.00     0.068 A 
ATOM     12  C   UNL A   1      34.386  21.252  24.363  1.00  0.00     0.221 A 
ATOM     13  N   UNL A   1      35.352  20.555  25.003  1.00  0.00    -0.222 NA
ATOM     14  C   UNL A   1      36.586  21.101  25.041  1.00  0.00     0.115 A 
ATOM     15  C   UNL A   1      35.896  23.021  23.833  1.00  0.00     0.017 A 
ATOM     16  C   UNL A   1      36.905  22.324  24.481  1.00  0.00     0.021 A 
BRANCH  12  17
ATOM     17  O   UNL A   1      33.124  20.746  24.526  1.00  0.00    -0.481 OA
ATOM     18  C   UNL A   1      33.086  19.733  25.526  1.00  0.00     0.280 C 
ENDBRANCH  12  17
ENDBRANCH  10  11
ENDBRANCH   8  10
BRANCH   8  19
ATOM     19  C   UNL A   1      32.158  24.298  25.069  1.00  0.00     0.184 C 
ATOM     20  C   UNL A   1      30.997  23.293  25.045  1.00  0.00     0.065 C 
ATOM     21  C   UNL A   1      32.937  23.951  26.359  1.00  0.00     0.065 C 
ATOM     22  C   UNL A   1      30.675  23.095  26.518  1.00  0.00     0.006 C 
ATOM     23  C   UNL A   1      32.045  23.001  27.161  1.00  0.00     0.006 C 
ENDBRANCH   8  19
ENDBRANCH   7   8
ENDBRANCH   4   7
ENDBRANCH   2   3
ENDBRANCH   1   2
BRANCH   1  24
ATOM     24  C   UNL A   1      31.711  29.930  25.349  1.00  0.00     0.002 C 
BRANCH  24  25
ATOM     25  C   UNL A   1      31.602  30.505  26.762  1.00  0.00     0.002 C 
BRANCH  25  26
ATOM     26  C   UNL A   1      31.437  32.026  26.851  1.00  0.00     0.021 C 
BRANCH  26  27
ATOM     27  C   UNL A   1      32.736  32.826  26.926  1.00  0.00     0.116 C 
BRANCH  27  28
ATOM     28  N   UNL A   1      32.555  34.107  27.586  1.00  0.00    -0.352 N 
ATOM     29  C   UNL A   1      33.167  34.615  28.705  1.00  0.00     0.251 C 
ATOM     30  H   UNL A   1      31.893  34.703  27.167  1.00  0.00     0.163 HD
ATOM     31  O   UNL A   1      32.730  35.632  29.235  1.00  0.00    -0.269 OA
BRANCH  29  32
ATOM     32  C   UNL A   1      34.347  33.937  29.284  1.00  0.00     0.039 A 
ATOM     33  C   UNL A   1      34.146  32.935  30.237  1.00  0.00     0.014 A 
ATOM     34  C   UNL A   1      35.644  34.313  28.924  1.00  0.00     0.014 A 
ATOM     35  C   UNL A   1      35.246  32.275  30.792  1.00  0.00     0.010 A 
ATOM     36  C   UNL A   1      36.736  33.611  29.429  1.00  0.00     0.010 A 
ATOM     37  C   UNL A   1      36.548  32.590  30.372  1.00  0.00    -0.014 A 
BRANCH  37  38
ATOM     38  C   UNL A   1      37.723  31.864  30.918  1.00  0.00     0.031 A 
ATOM     39  C   UNL A   1      38.258  32.205  32.282  1.00  0.00     0.074 A 
ATOM     40  C   UNL A   1      38.340  30.934  30.166  1.00  0.00     0.049 A 
ATOM     41  N   UNL A   1      39.299  31.719  32.908  1.00  0.00    -0.248 NA
ATOM     42  C   UNL A   1      37.539  33.247  33.034  1.00  0.00     0.031 C 
ATOM     43  C   UNL A   1      37.945  30.544  28.812  1.00  0.00     0.029 A 
ATOM     44  N   UNL A   1      39.436  30.152  30.431  1.00  0.00    -0.354 N 
ATOM     45  C   UNL A   1      39.369  32.401  34.115  1.00  0.00     0.074 A 
ATOM     46  C   UNL A   1      38.294  33.370  34.116  1.00  0.00     0.031 C 
ATOM     47  C   UNL A   1      38.772  29.580  28.374  1.00  0.00     0.029 A 
ATOM     48  C   UNL A   1      39.773  29.308  29.401  1.00  0.00     0.049 A 
ATOM     49  H   UNL A   1      39.933  30.192  31.280  1.00  0.00     0.167 HD
ATOM     50  C   UNL A   1      40.236  32.221  35.141  1.00  0.00     0.037 A 
ATOM     51  C   UNL A   1      40.776  28.417  29.296  1.00  0.00     0.037 A 
ATOM     52  C   UNL A   1      41.289  31.241  35.151  1.00  0.00     0.049 A 
ATOM     53  C   UNL A   1      41.725  28.238  30.448  1.00  0.00     0.074 A 
ATOM     54  C   UNL A   1      42.186  30.947  36.163  1.00  0.00     0.029 A 
ATOM     55  N   UNL A   1      41.589  30.395  34.094  1.00  0.00    -0.354 N 
ATOM     56  N   UNL A   1      41.741  28.848  31.608  1.00  0.00    -0.248 NA
ATOM     57  C   UNL A   1      42.790  27.240  30.278  1.00  0.00     0.031 C 
ATOM     58  C   UNL A   1      43.051  29.947  35.706  1.00  0.00     0.029 A 
ATOM     59  C   UNL A   1      42.666  29.589  34.424  1.00  0.00     0.049 A 
ATOM     60  H   UNL A   1      41.107  30.371  33.236  1.00  0.00     0.167 HD
ATOM     61  C   UNL A   1      42.799  28.291  32.316  1.00  0.00     0.074 A 
ATOM     62  C   UNL A   1      43.390  27.284  31.458  1.00  0.00     0.031 C 
ATOM     63  C   UNL A   1      43.239  28.587  33.563  1.00  0.00     0.037 A 
BRANCH  50  64
ATOM     64  C   UNL A   1      40.072  33.104  36.345  1.00  0.00     0.057 A 
ATOM     65  C   UNL A   1      39.153  32.804  37.359  1.00  0.00     0.134 A 
ATOM     66  C   UNL A   1      40.864  34.247  36.509  1.00  0.00     0.134 A 
ATOM     67  F   UNL A   1      38.356  31.728  37.257  1.00  0.00    -0.206 F 
ATOM     68  C   UNL A   1      39.008  33.622  38.479  1.00  0.00     0.040 A 
ATOM     69  C   UNL A   1      40.746  35.061  37.638  1.00  0.00     0.040 A 
ATOM     70  F   UNL A   1      41.768  34.590  35.579  1.00  0.00    -0.206 F 
ATOM     71  C   UNL A   1      39.811  34.752  38.625  1.00  0.00     0.006 A 
ENDBRANCH  50  64
BRANCH  51  72
ATOM     72  C   UNL A   1      40.918  27.602  28.064  1.00  0.00     0.057 A 
ATOM     73  C   UNL A   1      41.690  28.055  26.987  1.00  0.00     0.134 A 
ATOM     74  C   UNL A   1      40.286  26.361  27.929  1.00  0.00     0.134 A 
ATOM     75  F   UNL A   1      42.303  29.246  27.052  1.00  0.00    -0.206 F 
ATOM     76  C   UNL A   1      41.813  27.313  25.813  1.00  0.00     0.040 A 
ATOM     77  C   UNL A   1      40.420  25.596  26.768  1.00  0.00     0.040 A 
ATOM     78  F   UNL A   1      39.539  25.869  28.928  1.00  0.00    -0.206 F 
ATOM     79  C   UNL A   1      41.180  26.076  25.703  1.00  0.00     0.006 A 
ENDBRANCH  51  72
BRANCH  63  80
ATOM     80  C   UNL A   1      44.395  27.788  34.086  1.00  0.00     0.057 A 
ATOM     81  C   UNL A   1      44.211  26.564  34.742  1.00  0.00     0.134 A 
ATOM     82  C   UNL A   1      45.710  28.233  33.904  1.00  0.00     0.134 A 
ATOM     83  F   UNL A   1      42.975  26.090  34.961  1.00  0.00    -0.206 F 
ATOM     84  C   UNL A   1      45.293  25.823  35.218  1.00  0.00     0.040 A 
ATOM     85  C   UNL A   1      46.801  27.488  34.353  1.00  0.00     0.040 A 
ATOM     86  F   UNL A   1      45.956  29.394  33.276  1.00  0.00    -0.206 F 
ATOM     87  C   UNL A   1      46.593  26.282  35.019  1.00  0.00     0.006 A 
ENDBRANCH  63  80
ENDBRANCH  37  38
ENDBRANCH  29  32
ENDBRANCH  27  28
ENDBRANCH  26  27
ENDBRANCH  25  26
ENDBRANCH  24  25
ENDBRANCH   1  24
TORSDOF 18
ENDMDL
