MODEL 1
REMARK VINA RESULT:     -10.5      0.000      0.000
REMARK SMILES C[C@H](C[N@H+](C)[C@H]1CC[C@H]([NH3+])CC1)C(=O)NCCCCCCNC(=O)c1ccc(-c2c3nc(c(-c4c(F)cccc4F)c4ccc([nH]4)c(-c4c(F)cccc4F)c4nc(c(-c5c(F)cccc5F)c5ccc2[nH]5)C=C4)C=C3)cc1
REMARK SMILES IDX 17 1 16 2 15 3 13 4 14 5 2 7 1 8 3 9 4 10 5 11 6 13 7 14
REMARK SMILES IDX 12 15 8 16 11 17 9 18 10 19 18 23 19 24 20 25 21 26 22 27
REMARK SMILES IDX 23 28 24 30 25 31 26 32 78 33 27 34 77 35 28 36 29 37 30 38
REMARK SMILES IDX 71 39 31 40 76 41 70 42 72 43 32 44 75 45 69 46 68 47 33 49
REMARK SMILES IDX 59 50 42 51 58 52 43 53 46 54 57 55 73 56 44 57 45 58 56 60
REMARK SMILES IDX 74 61 47 62 34 63 35 64 40 65 36 66 37 67 39 68 41 69 38 70
REMARK SMILES IDX 60 71 61 72 66 73 62 74 63 75 65 76 67 77 64 78 48 79 49 80
REMARK SMILES IDX 54 81 50 82 51 83 53 84 55 85 52 86
REMARK H PARENT 15 6 4 12 10 20 10 21 10 22 22 29 72 48 46 59
REMARK Flexibility Score: inf
ROOT
ATOM      1  C   UNL A   1      32.448  28.404  27.149  1.00  0.00     0.021 C 
ENDROOT
BRANCH   1   2
ATOM      2  C   UNL A   1      32.747  27.046  26.534  1.00  0.00     0.116 C 
BRANCH   2   3
ATOM      3  N   UNL A   1      31.751  26.025  26.707  1.00  0.00    -0.356 N 
ATOM      4  C   UNL A   1      31.861  24.673  26.627  1.00  0.00     0.228 C 
ATOM      5  O   UNL A   1      30.932  24.047  27.160  1.00  0.00    -0.275 OA
ATOM      6  H   UNL A   1      30.848  26.357  26.917  1.00  0.00     0.163 HD
BRANCH   4   7
ATOM      7  C   UNL A   1      32.957  23.874  25.880  1.00  0.00     0.130 C 
ATOM      8  C   UNL A   1      33.892  23.137  26.856  1.00  0.00     0.024 C 
BRANCH   7   9
ATOM      9  C   UNL A   1      33.639  24.338  24.571  1.00  0.00     0.275 C 
BRANCH   9  10
ATOM     10  N   UNL A   1      32.971  24.490  23.262  1.00  0.00    -0.334 N 
ATOM     11  C   UNL A   1      33.312  23.455  22.298  1.00  0.00     0.332 C 
ATOM     12  H   UNL A   1      32.015  24.306  23.564  1.00  0.00     0.348 HD
BRANCH  10  13
ATOM     13  C   UNL A   1      32.569  25.804  22.742  1.00  0.00     0.184 C 
ATOM     14  C   UNL A   1      33.508  26.964  23.152  1.00  0.00     0.071 C 
ATOM     15  C   UNL A   1      31.118  26.220  23.037  1.00  0.00     0.071 C 
ATOM     16  C   UNL A   1      33.144  28.262  22.421  1.00  0.00     0.071 C 
ATOM     17  C   UNL A   1      30.726  27.534  22.360  1.00  0.00     0.071 C 
ATOM     18  C   UNL A   1      31.693  28.668  22.689  1.00  0.00     0.181 C 
BRANCH  18  19
ATOM     19  N   UNL A   1      31.327  29.846  21.902  1.00  0.00    -0.355 N 
ATOM     20  H   UNL A   1      31.971  30.607  22.111  1.00  0.00     0.344 HD
ATOM     21  H   UNL A   1      30.375  30.130  22.139  1.00  0.00     0.344 HD
ATOM     22  H   UNL A   1      31.376  29.620  20.909  1.00  0.00     0.344 HD
ENDBRANCH  18  19
ENDBRANCH  10  13
ENDBRANCH   9  10
ENDBRANCH   7   9
ENDBRANCH   4   7
ENDBRANCH   2   3
ENDBRANCH   1   2
BRANCH   1  23
ATOM     23  C   UNL A   1      32.745  29.619  26.272  1.00  0.00     0.002 C 
BRANCH  23  24
ATOM     24  C   UNL A   1      31.546  30.474  25.845  1.00  0.00     0.002 C 
BRANCH  24  25
ATOM     25  C   UNL A   1      31.352  31.809  26.568  1.00  0.00     0.021 C 
BRANCH  25  26
ATOM     26  C   UNL A   1      32.602  32.445  27.167  1.00  0.00     0.116 C 
BRANCH  26  27
ATOM     27  N   UNL A   1      32.393  33.817  27.597  1.00  0.00    -0.352 N 
ATOM     28  C   UNL A   1      33.112  34.593  28.471  1.00  0.00     0.251 C 
ATOM     29  H   UNL A   1      31.611  34.260  27.196  1.00  0.00     0.163 HD
ATOM     30  O   UNL A   1      32.688  35.699  28.791  1.00  0.00    -0.269 OA
BRANCH  28  31
ATOM     31  C   UNL A   1      34.381  34.101  29.056  1.00  0.00     0.039 A 
ATOM     32  C   UNL A   1      34.321  33.308  30.205  1.00  0.00     0.014 A 
ATOM     33  C   UNL A   1      35.620  34.433  28.503  1.00  0.00     0.014 A 
ATOM     34  C   UNL A   1      35.496  32.798  30.763  1.00  0.00     0.010 A 
ATOM     35  C   UNL A   1      36.786  33.864  29.017  1.00  0.00     0.010 A 
ATOM     36  C   UNL A   1      36.737  33.041  30.152  1.00  0.00    -0.014 A 
BRANCH  36  37
ATOM     37  C   UNL A   1      37.986  32.434  30.681  1.00  0.00     0.031 A 
ATOM     38  C   UNL A   1      38.535  31.171  30.075  1.00  0.00     0.074 A 
ATOM     39  C   UNL A   1      38.595  32.988  31.749  1.00  0.00     0.049 A 
ATOM     40  N   UNL A   1      39.571  30.459  30.443  1.00  0.00    -0.248 NA
ATOM     41  C   UNL A   1      37.812  30.624  28.916  1.00  0.00     0.031 C 
ATOM     42  C   UNL A   1      38.144  34.192  32.449  1.00  0.00     0.029 A 
ATOM     43  N   UNL A   1      39.721  32.606  32.435  1.00  0.00    -0.354 N 
ATOM     44  C   UNL A   1      39.617  29.379  29.570  1.00  0.00     0.074 A 
ATOM     45  C   UNL A   1      38.475  29.500  28.690  1.00  0.00     0.031 C 
ATOM     46  C   UNL A   1      38.997  34.463  33.451  1.00  0.00     0.029 A 
ATOM     47  C   UNL A   1      40.027  33.431  33.492  1.00  0.00     0.049 A 
ATOM     48  H   UNL A   1      40.257  31.817  32.196  1.00  0.00     0.167 HD
ATOM     49  C   UNL A   1      40.540  28.391  29.494  1.00  0.00     0.037 A 
ATOM     50  C   UNL A   1      41.020  33.358  34.398  1.00  0.00     0.037 A 
ATOM     51  C   UNL A   1      41.684  28.282  30.362  1.00  0.00     0.049 A 
ATOM     52  C   UNL A   1      42.013  32.232  34.312  1.00  0.00     0.074 A 
ATOM     53  C   UNL A   1      42.701  27.344  30.333  1.00  0.00     0.029 A 
ATOM     54  N   UNL A   1      41.959  29.136  31.420  1.00  0.00    -0.354 N 
ATOM     55  N   UNL A   1      42.079  31.252  33.443  1.00  0.00    -0.248 NA
ATOM     56  C   UNL A   1      43.071  32.202  35.331  1.00  0.00     0.031 C 
ATOM     57  C   UNL A   1      43.561  27.598  31.406  1.00  0.00     0.029 A 
ATOM     58  C   UNL A   1      43.114  28.730  32.067  1.00  0.00     0.049 A 
ATOM     59  H   UNL A   1      41.413  29.916  31.672  1.00  0.00     0.167 HD
ATOM     60  C   UNL A   1      43.201  30.510  33.790  1.00  0.00     0.074 A 
ATOM     61  C   UNL A   1      43.793  31.161  34.940  1.00  0.00     0.031 C 
ATOM     62  C   UNL A   1      43.697  29.392  33.208  1.00  0.00     0.037 A 
BRANCH  49  63
ATOM     63  C   UNL A   1      40.351  27.343  28.434  1.00  0.00     0.057 A 
ATOM     64  C   UNL A   1      40.978  27.433  27.183  1.00  0.00     0.134 A 
ATOM     65  C   UNL A   1      39.567  26.208  28.679  1.00  0.00     0.134 A 
ATOM     66  F   UNL A   1      41.735  28.499  26.877  1.00  0.00    -0.206 F 
ATOM     67  C   UNL A   1      40.810  26.448  26.208  1.00  0.00     0.040 A 
ATOM     68  C   UNL A   1      39.417  25.202  27.723  1.00  0.00     0.040 A 
ATOM     69  F   UNL A   1      38.945  26.052  29.858  1.00  0.00    -0.206 F 
ATOM     70  C   UNL A   1      40.033  25.324  26.481  1.00  0.00     0.006 A 
ENDBRANCH  49  63
BRANCH  50  71
ATOM     71  C   UNL A   1      41.137  34.390  35.461  1.00  0.00     0.057 A 
ATOM     72  C   UNL A   1      40.473  34.244  36.685  1.00  0.00     0.134 A 
ATOM     73  C   UNL A   1      41.901  35.550  35.277  1.00  0.00     0.134 A 
ATOM     74  F   UNL A   1      39.712  33.165  36.914  1.00  0.00    -0.206 F 
ATOM     75  C   UNL A   1      40.544  35.223  37.678  1.00  0.00     0.040 A 
ATOM     76  C   UNL A   1      42.004  36.524  36.272  1.00  0.00     0.040 A 
ATOM     77  F   UNL A   1      42.569  35.747  34.131  1.00  0.00    -0.206 F 
ATOM     78  C   UNL A   1      41.315  36.365  37.473  1.00  0.00     0.006 A 
ENDBRANCH  50  71
BRANCH  62  79
ATOM     79  C   UNL A   1      44.964  28.820  33.777  1.00  0.00     0.057 A 
ATOM     80  C   UNL A   1      46.229  29.237  33.343  1.00  0.00     0.134 A 
ATOM     81  C   UNL A   1      44.915  27.868  34.805  1.00  0.00     0.134 A 
ATOM     82  F   UNL A   1      46.346  30.136  32.355  1.00  0.00    -0.206 F 
ATOM     83  C   UNL A   1      47.399  28.711  33.895  1.00  0.00     0.040 A 
ATOM     84  C   UNL A   1      46.078  27.358  35.385  1.00  0.00     0.040 A 
ATOM     85  F   UNL A   1      43.737  27.432  35.274  1.00  0.00    -0.206 F 
ATOM     86  C   UNL A   1      47.324  27.774  34.924  1.00  0.00     0.006 A 
ENDBRANCH  62  79
ENDBRANCH  36  37
ENDBRANCH  28  31
ENDBRANCH  26  27
ENDBRANCH  25  26
ENDBRANCH  24  25
ENDBRANCH  23  24
ENDBRANCH   1  23
TORSDOF 17
ENDMDL
MODEL 2
REMARK VINA RESULT:     -10.4      1.711      2.626
REMARK SMILES C[C@H](C[N@H+](C)[C@H]1CC[C@H]([NH3+])CC1)C(=O)NCCCCCCNC(=O)c1ccc(-c2c3nc(c(-c4c(F)cccc4F)c4ccc([nH]4)c(-c4c(F)cccc4F)c4nc(c(-c5c(F)cccc5F)c5ccc2[nH]5)C=C4)C=C3)cc1
REMARK SMILES IDX 17 1 16 2 15 3 13 4 14 5 2 7 1 8 3 9 4 10 5 11 6 13 7 14
REMARK SMILES IDX 12 15 8 16 11 17 9 18 10 19 18 23 19 24 20 25 21 26 22 27
REMARK SMILES IDX 23 28 24 30 25 31 26 32 78 33 27 34 77 35 28 36 29 37 30 38
REMARK SMILES IDX 71 39 31 40 76 41 70 42 72 43 32 44 75 45 69 46 68 47 33 49
REMARK SMILES IDX 59 50 42 51 58 52 43 53 46 54 57 55 73 56 44 57 45 58 56 60
REMARK SMILES IDX 74 61 47 62 34 63 35 64 40 65 36 66 37 67 39 68 41 69 38 70
REMARK SMILES IDX 60 71 61 72 66 73 62 74 63 75 65 76 67 77 64 78 48 79 49 80
REMARK SMILES IDX 54 81 50 82 51 83 53 84 55 85 52 86
REMARK H PARENT 15 6 4 12 10 20 10 21 10 22 22 29 72 48 46 59
REMARK Flexibility Score: inf
ROOT
ATOM      1  C   UNL A   1      33.376  29.268  27.219  1.00  0.00     0.021 C 
ENDROOT
BRANCH   1   2
ATOM      2  C   UNL A   1      33.938  28.229  26.262  1.00  0.00     0.116 C 
BRANCH   2   3
ATOM      3  N   UNL A   1      34.080  28.625  24.888  1.00  0.00    -0.356 N 
ATOM      4  C   UNL A   1      33.425  28.191  23.780  1.00  0.00     0.228 C 
ATOM      5  O   UNL A   1      33.507  28.948  22.801  1.00  0.00    -0.275 OA
ATOM      6  H   UNL A   1      34.758  29.320  24.724  1.00  0.00     0.163 HD
BRANCH   4   7
ATOM      7  C   UNL A   1      32.685  26.841  23.609  1.00  0.00     0.130 C 
ATOM      8  C   UNL A   1      33.647  25.708  23.212  1.00  0.00     0.024 C 
BRANCH   7   9
ATOM      9  C   UNL A   1      31.255  26.695  23.035  1.00  0.00     0.275 C 
BRANCH   9  10
ATOM     10  N   UNL A   1      30.029  27.270  23.625  1.00  0.00    -0.334 N 
ATOM     11  C   UNL A   1      29.064  26.278  24.073  1.00  0.00     0.332 C 
ATOM     12  H   UNL A   1      30.446  27.673  24.464  1.00  0.00     0.348 HD
BRANCH  10  13
ATOM     13  C   UNL A   1      29.520  28.590  23.228  1.00  0.00     0.184 C 
ATOM     14  C   UNL A   1      27.979  28.662  23.090  1.00  0.00     0.071 C 
ATOM     15  C   UNL A   1      30.154  29.195  21.964  1.00  0.00     0.071 C 
ATOM     16  C   UNL A   1      27.506  30.103  22.867  1.00  0.00     0.071 C 
ATOM     17  C   UNL A   1      29.676  30.619  21.681  1.00  0.00     0.071 C 
ATOM     18  C   UNL A   1      28.154  30.721  21.626  1.00  0.00     0.181 C 
BRANCH  18  19
ATOM     19  N   UNL A   1      27.778  32.127  21.486  1.00  0.00    -0.355 N 
ATOM     20  H   UNL A   1      26.960  32.202  20.883  1.00  0.00     0.344 HD
ATOM     21  H   UNL A   1      28.554  32.647  21.073  1.00  0.00     0.344 HD
ATOM     22  H   UNL A   1      27.561  32.514  22.404  1.00  0.00     0.344 HD
ENDBRANCH  18  19
ENDBRANCH  10  13
ENDBRANCH   9  10
ENDBRANCH   7   9
ENDBRANCH   4   7
ENDBRANCH   2   3
ENDBRANCH   1   2
BRANCH   1  23
ATOM     23  C   UNL A   1      31.896  29.606  27.051  1.00  0.00     0.002 C 
BRANCH  23  24
ATOM     24  C   UNL A   1      31.547  30.693  26.028  1.00  0.00     0.002 C 
BRANCH  24  25
ATOM     25  C   UNL A   1      31.353  32.114  26.562  1.00  0.00     0.021 C 
BRANCH  25  26
ATOM     26  C   UNL A   1      32.580  32.784  27.174  1.00  0.00     0.116 C 
BRANCH  26  27
ATOM     27  N   UNL A   1      32.328  34.146  27.609  1.00  0.00    -0.352 N 
ATOM     28  C   UNL A   1      32.965  34.908  28.556  1.00  0.00     0.251 C 
ATOM     29  H   UNL A   1      31.581  34.594  27.151  1.00  0.00     0.163 HD
ATOM     30  O   UNL A   1      32.510  36.006  28.859  1.00  0.00    -0.269 OA
BRANCH  28  31
ATOM     31  C   UNL A   1      34.182  34.409  29.238  1.00  0.00     0.039 A 
ATOM     32  C   UNL A   1      34.048  33.840  30.508  1.00  0.00     0.014 A 
ATOM     33  C   UNL A   1      35.447  34.519  28.656  1.00  0.00     0.014 A 
ATOM     34  C   UNL A   1      35.169  33.328  31.166  1.00  0.00     0.010 A 
ATOM     35  C   UNL A   1      36.553  33.943  29.280  1.00  0.00     0.010 A 
ATOM     36  C   UNL A   1      36.427  33.341  30.541  1.00  0.00    -0.014 A 
BRANCH  36  37
ATOM     37  C   UNL A   1      37.612  32.722  31.189  1.00  0.00     0.031 A 
ATOM     38  C   UNL A   1      38.275  31.519  30.573  1.00  0.00     0.074 A 
ATOM     39  C   UNL A   1      38.057  33.206  32.366  1.00  0.00     0.049 A 
ATOM     40  N   UNL A   1      39.274  30.803  31.025  1.00  0.00    -0.248 NA
ATOM     41  C   UNL A   1      37.730  31.046  29.291  1.00  0.00     0.031 C 
ATOM     42  C   UNL A   1      37.481  34.344  33.083  1.00  0.00     0.029 A 
ATOM     43  N   UNL A   1      39.093  32.797  33.168  1.00  0.00    -0.354 N 
ATOM     44  C   UNL A   1      39.469  29.793  30.091  1.00  0.00     0.074 A 
ATOM     45  C   UNL A   1      38.450  29.956  29.076  1.00  0.00     0.031 C 
ATOM     46  C   UNL A   1      38.184  34.557  34.208  1.00  0.00     0.029 A 
ATOM     47  C   UNL A   1      39.231  33.546  34.313  1.00  0.00     0.049 A 
ATOM     48  H   UNL A   1      39.680  32.039  32.947  1.00  0.00     0.167 HD
ATOM     49  C   UNL A   1      40.423  28.832  30.069  1.00  0.00     0.037 A 
ATOM     50  C   UNL A   1      40.097  33.426  35.337  1.00  0.00     0.037 A 
ATOM     51  C   UNL A   1      41.444  28.682  31.073  1.00  0.00     0.049 A 
ATOM     52  C   UNL A   1      41.125  32.329  35.305  1.00  0.00     0.074 A 
ATOM     53  C   UNL A   1      42.484  27.770  31.114  1.00  0.00     0.029 A 
ATOM     54  N   UNL A   1      41.550  29.459  32.218  1.00  0.00    -0.354 N 
ATOM     55  N   UNL A   1      41.337  31.419  34.385  1.00  0.00    -0.248 NA
ATOM     56  C   UNL A   1      42.040  32.245  36.453  1.00  0.00     0.031 C 
ATOM     57  C   UNL A   1      43.186  27.960  32.309  1.00  0.00     0.029 A 
ATOM     58  C   UNL A   1      42.621  29.030  32.984  1.00  0.00     0.049 A 
ATOM     59  H   UNL A   1      40.952  30.207  32.449  1.00  0.00     0.167 HD
ATOM     60  C   UNL A   1      42.425  30.676  34.826  1.00  0.00     0.074 A 
ATOM     61  C   UNL A   1      42.838  31.251  36.088  1.00  0.00     0.031 C 
ATOM     62  C   UNL A   1      43.027  29.616  34.237  1.00  0.00     0.037 A 
BRANCH  49  63
ATOM     63  C   UNL A   1      40.408  27.864  28.921  1.00  0.00     0.057 A 
ATOM     64  C   UNL A   1      39.622  26.703  28.942  1.00  0.00     0.134 A 
ATOM     65  C   UNL A   1      41.153  28.115  27.761  1.00  0.00     0.134 A 
ATOM     66  F   UNL A   1      38.892  26.396  30.025  1.00  0.00    -0.206 F 
ATOM     67  C   UNL A   1      39.601  25.815  27.864  1.00  0.00     0.040 A 
ATOM     68  C   UNL A   1      41.115  27.250  26.666  1.00  0.00     0.040 A 
ATOM     69  F   UNL A   1      41.920  29.211  27.669  1.00  0.00    -0.206 F 
ATOM     70  C   UNL A   1      40.343  26.092  26.719  1.00  0.00     0.006 A 
ENDBRANCH  49  63
BRANCH  50  71
ATOM     71  C   UNL A   1      40.040  34.377  36.477  1.00  0.00     0.057 A 
ATOM     72  C   UNL A   1      39.297  34.082  37.627  1.00  0.00     0.134 A 
ATOM     73  C   UNL A   1      40.713  35.605  36.443  1.00  0.00     0.134 A 
ATOM     74  F   UNL A   1      38.616  32.931  37.713  1.00  0.00    -0.206 F 
ATOM     75  C   UNL A   1      39.205  34.983  38.690  1.00  0.00     0.040 A 
ATOM     76  C   UNL A   1      40.652  36.503  37.510  1.00  0.00     0.040 A 
ATOM     77  F   UNL A   1      41.449  35.944  35.374  1.00  0.00    -0.206 F 
ATOM     78  C   UNL A   1      39.888  36.196  38.634  1.00  0.00     0.006 A 
ENDBRANCH  50  71
BRANCH  62  79
ATOM     79  C   UNL A   1      44.224  29.029  34.929  1.00  0.00     0.057 A 
ATOM     80  C   UNL A   1      44.107  27.997  35.869  1.00  0.00     0.134 A 
ATOM     81  C   UNL A   1      45.515  29.477  34.620  1.00  0.00     0.134 A 
ATOM     82  F   UNL A   1      42.899  27.531  36.220  1.00  0.00    -0.206 F 
ATOM     83  C   UNL A   1      45.228  27.447  36.492  1.00  0.00     0.040 A 
ATOM     84  C   UNL A   1      46.646  28.914  35.214  1.00  0.00     0.040 A 
ATOM     85  F   UNL A   1      45.700  30.456  33.722  1.00  0.00    -0.206 F 
ATOM     86  C   UNL A   1      46.503  27.902  36.158  1.00  0.00     0.006 A 
ENDBRANCH  62  79
ENDBRANCH  36  37
ENDBRANCH  28  31
ENDBRANCH  26  27
ENDBRANCH  25  26
ENDBRANCH  24  25
ENDBRANCH  23  24
ENDBRANCH   1  23
TORSDOF 17
ENDMDL
MODEL 3
REMARK VINA RESULT:     -10.3      1.677      3.035
REMARK SMILES C[C@H](C[N@H+](C)[C@H]1CC[C@H]([NH3+])CC1)C(=O)NCCCCCCNC(=O)c1ccc(-c2c3nc(c(-c4c(F)cccc4F)c4ccc([nH]4)c(-c4c(F)cccc4F)c4nc(c(-c5c(F)cccc5F)c5ccc2[nH]5)C=C4)C=C3)cc1
REMARK SMILES IDX 17 1 16 2 15 3 13 4 14 5 2 7 1 8 3 9 4 10 5 11 6 13 7 14
REMARK SMILES IDX 12 15 8 16 11 17 9 18 10 19 18 23 19 24 20 25 21 26 22 27
REMARK SMILES IDX 23 28 24 30 25 31 26 32 78 33 27 34 77 35 28 36 29 37 30 38
REMARK SMILES IDX 71 39 31 40 76 41 70 42 72 43 32 44 75 45 69 46 68 47 33 49
REMARK SMILES IDX 59 50 42 51 58 52 43 53 46 54 57 55 73 56 44 57 45 58 56 60
REMARK SMILES IDX 74 61 47 62 34 63 35 64 40 65 36 66 37 67 39 68 41 69 38 70
REMARK SMILES IDX 60 71 61 72 66 73 62 74 63 75 65 76 67 77 64 78 48 79 49 80
REMARK SMILES IDX 54 81 50 82 51 83 53 84 55 85 52 86
REMARK H PARENT 15 6 4 12 10 20 10 21 10 22 22 29 72 48 46 59
REMARK Flexibility Score: inf
ROOT
ATOM      1  C   UNL A   1      33.205  28.525  26.729  1.00  0.00     0.021 C 
ENDROOT
BRANCH   1   2
ATOM      2  C   UNL A   1      33.307  27.502  25.608  1.00  0.00     0.116 C 
BRANCH   2   3
ATOM      3  N   UNL A   1      34.020  27.906  24.428  1.00  0.00    -0.356 N 
ATOM      4  C   UNL A   1      33.652  27.849  23.121  1.00  0.00     0.228 C 
ATOM      5  O   UNL A   1      34.313  28.578  22.366  1.00  0.00    -0.275 OA
ATOM      6  H   UNL A   1      34.914  28.283  24.592  1.00  0.00     0.163 HD
BRANCH   4   7
ATOM      7  C   UNL A   1      32.580  26.922  22.499  1.00  0.00     0.130 C 
ATOM      8  C   UNL A   1      31.153  27.389  22.839  1.00  0.00     0.024 C 
BRANCH   7   9
ATOM      9  C   UNL A   1      32.730  25.389  22.347  1.00  0.00     0.275 C 
BRANCH   9  10
ATOM     10  N   UNL A   1      33.056  24.445  23.437  1.00  0.00    -0.334 N 
ATOM     11  C   UNL A   1      31.998  24.287  24.422  1.00  0.00     0.332 C 
ATOM     12  H   UNL A   1      33.075  23.588  22.885  1.00  0.00     0.348 HD
BRANCH  10  13
ATOM     13  C   UNL A   1      34.439  24.210  23.873  1.00  0.00     0.184 C 
ATOM     14  C   UNL A   1      35.136  23.023  23.163  1.00  0.00     0.071 C 
ATOM     15  C   UNL A   1      34.642  24.061  25.390  1.00  0.00     0.071 C 
ATOM     16  C   UNL A   1      36.626  22.957  23.519  1.00  0.00     0.071 C 
ATOM     17  C   UNL A   1      36.115  23.948  25.786  1.00  0.00     0.071 C 
ATOM     18  C   UNL A   1      36.837  22.836  25.030  1.00  0.00     0.181 C 
BRANCH  18  19
ATOM     19  N   UNL A   1      38.259  22.882  25.365  1.00  0.00    -0.355 N 
ATOM     20  H   UNL A   1      38.768  22.223  24.777  1.00  0.00     0.344 HD
ATOM     21  H   UNL A   1      38.386  22.631  26.346  1.00  0.00     0.344 HD
ATOM     22  H   UNL A   1      38.615  23.824  25.207  1.00  0.00     0.344 HD
ENDBRANCH  18  19
ENDBRANCH  10  13
ENDBRANCH   9  10
ENDBRANCH   7   9
ENDBRANCH   4   7
ENDBRANCH   2   3
ENDBRANCH   1   2
BRANCH   1  23
ATOM     23  C   UNL A   1      31.861  29.235  26.872  1.00  0.00     0.002 C 
BRANCH  23  24
ATOM     24  C   UNL A   1      31.578  30.382  25.895  1.00  0.00     0.002 C 
BRANCH  24  25
ATOM     25  C   UNL A   1      31.402  31.779  26.497  1.00  0.00     0.021 C 
BRANCH  25  26
ATOM     26  C   UNL A   1      32.672  32.482  26.967  1.00  0.00     0.116 C 
BRANCH  26  27
ATOM     27  N   UNL A   1      32.433  33.832  27.444  1.00  0.00    -0.352 N 
ATOM     28  C   UNL A   1      33.054  34.546  28.438  1.00  0.00     0.251 C 
ATOM     29  H   UNL A   1      31.708  34.311  26.980  1.00  0.00     0.163 HD
ATOM     30  O   UNL A   1      32.611  35.641  28.767  1.00  0.00    -0.269 OA
BRANCH  28  31
ATOM     31  C   UNL A   1      34.240  33.999  29.137  1.00  0.00     0.039 A 
ATOM     32  C   UNL A   1      34.037  33.090  30.180  1.00  0.00     0.014 A 
ATOM     33  C   UNL A   1      35.538  34.389  28.798  1.00  0.00     0.014 A 
ATOM     34  C   UNL A   1      35.133  32.528  30.838  1.00  0.00     0.010 A 
ATOM     35  C   UNL A   1      36.631  33.773  29.405  1.00  0.00     0.010 A 
ATOM     36  C   UNL A   1      36.442  32.836  30.432  1.00  0.00    -0.014 A 
BRANCH  36  37
ATOM     37  C   UNL A   1      37.616  32.180  31.062  1.00  0.00     0.031 A 
ATOM     38  C   UNL A   1      38.338  31.065  30.353  1.00  0.00     0.074 A 
ATOM     39  C   UNL A   1      38.000  32.548  32.301  1.00  0.00     0.049 A 
ATOM     40  N   UNL A   1      39.337  30.329  30.771  1.00  0.00    -0.248 NA
ATOM     41  C   UNL A   1      37.858  30.717  29.007  1.00  0.00     0.031 C 
ATOM     42  C   UNL A   1      37.363  33.590  33.108  1.00  0.00     0.029 A 
ATOM     43  N   UNL A   1      39.012  32.081  33.101  1.00  0.00    -0.354 N 
ATOM     44  C   UNL A   1      39.598  29.428  29.746  1.00  0.00     0.074 A 
ATOM     45  C   UNL A   1      38.617  29.672  28.711  1.00  0.00     0.031 C 
ATOM     46  C   UNL A   1      38.013  33.700  34.278  1.00  0.00     0.029 A 
ATOM     47  C   UNL A   1      39.083  32.708  34.322  1.00  0.00     0.049 A 
ATOM     48  H   UNL A   1      39.629  31.364  32.828  1.00  0.00     0.167 HD
ATOM     49  C   UNL A   1      40.579  28.497  29.666  1.00  0.00     0.037 A 
ATOM     50  C   UNL A   1      39.909  32.501  35.365  1.00  0.00     0.037 A 
ATOM     51  C   UNL A   1      41.562  28.266  30.692  1.00  0.00     0.049 A 
ATOM     52  C   UNL A   1      40.969  31.439  35.263  1.00  0.00     0.074 A 
ATOM     53  C   UNL A   1      42.625  27.380  30.683  1.00  0.00     0.029 A 
ATOM     54  N   UNL A   1      41.599  28.921  31.915  1.00  0.00    -0.354 N 
ATOM     55  N   UNL A   1      41.243  30.636  34.264  1.00  0.00    -0.248 NA
ATOM     56  C   UNL A   1      41.838  31.256  36.435  1.00  0.00     0.031 C 
ATOM     57  C   UNL A   1      43.272  27.459  31.921  1.00  0.00     0.029 A 
ATOM     58  C   UNL A   1      42.650  28.439  32.678  1.00  0.00     0.049 A 
ATOM     59  H   UNL A   1      40.972  29.625  32.197  1.00  0.00     0.167 HD
ATOM     60  C   UNL A   1      42.332  29.877  34.671  1.00  0.00     0.074 A 
ATOM     61  C   UNL A   1      42.678  30.325  36.004  1.00  0.00     0.031 C 
ATOM     62  C   UNL A   1      42.988  28.898  34.001  1.00  0.00     0.037 A 
BRANCH  49  63
ATOM     63  C   UNL A   1      40.638  27.655  28.423  1.00  0.00     0.057 A 
ATOM     64  C   UNL A   1      41.389  28.039  27.304  1.00  0.00     0.134 A 
ATOM     65  C   UNL A   1      39.972  26.424  28.359  1.00  0.00     0.134 A 
ATOM     66  F   UNL A   1      42.043  29.211  27.293  1.00  0.00    -0.206 F 
ATOM     67  C   UNL A   1      41.451  27.244  26.157  1.00  0.00     0.040 A 
ATOM     68  C   UNL A   1      40.052  25.607  27.230  1.00  0.00     0.040 A 
ATOM     69  F   UNL A   1      39.242  25.990  29.398  1.00  0.00    -0.206 F 
ATOM     70  C   UNL A   1      40.788  26.020  26.122  1.00  0.00     0.006 A 
ENDBRANCH  49  63
BRANCH  50  71
ATOM     71  C   UNL A   1      39.780  33.325  36.595  1.00  0.00     0.057 A 
ATOM     72  C   UNL A   1      40.539  34.489  36.767  1.00  0.00     0.134 A 
ATOM     73  C   UNL A   1      38.908  32.966  37.631  1.00  0.00     0.134 A 
ATOM     74  F   UNL A   1      41.405  34.875  35.820  1.00  0.00    -0.206 F 
ATOM     75  C   UNL A   1      40.455  35.252  37.933  1.00  0.00     0.040 A 
ATOM     76  C   UNL A   1      38.793  33.735  38.790  1.00  0.00     0.040 A 
ATOM     77  F   UNL A   1      38.146  31.867  37.525  1.00  0.00    -0.206 F 
ATOM     78  C   UNL A   1      39.575  34.877  38.947  1.00  0.00     0.006 A 
ENDBRANCH  50  71
BRANCH  62  79
ATOM     79  C   UNL A   1      44.171  28.270  34.681  1.00  0.00     0.057 A 
ATOM     80  C   UNL A   1      44.057  27.100  35.442  1.00  0.00     0.134 A 
ATOM     81  C   UNL A   1      45.451  28.824  34.535  1.00  0.00     0.134 A 
ATOM     82  F   UNL A   1      42.859  26.527  35.631  1.00  0.00    -0.206 F 
ATOM     83  C   UNL A   1      45.168  26.515  36.052  1.00  0.00     0.040 A 
ATOM     84  C   UNL A   1      46.573  28.231  35.116  1.00  0.00     0.040 A 
ATOM     85  F   UNL A   1      45.633  29.938  33.812  1.00  0.00    -0.206 F 
ATOM     86  C   UNL A   1      46.432  27.079  35.883  1.00  0.00     0.006 A 
ENDBRANCH  62  79
ENDBRANCH  36  37
ENDBRANCH  28  31
ENDBRANCH  26  27
ENDBRANCH  25  26
ENDBRANCH  24  25
ENDBRANCH  23  24
ENDBRANCH   1  23
TORSDOF 17
ENDMDL
