MODEL 1
REMARK VINA RESULT:     -12.0      0.000      0.000
REMARK SMILES O=C(NCCCCCCNC(=O)c1cc(S(=O)(=O)Nc2ccc(F)c(F)c2)cc(Cl)c1Cl)c1ccc(-c2c3nc(c(-c4c(F)cccc4F)c4ccc([nH]4)c(-c4c(F)cccc4F)c4nc(c(-c5c(F)cccc5F)c5ccc2[nH]5)C=C4)C=C3)cc1
REMARK SMILES IDX 7 1 6 2 5 3 4 4 3 5 1 6 2 7 33 9 34 10 86 11 35 12 85 13
REMARK SMILES IDX 36 14 37 15 38 16 79 17 39 18 84 19 78 20 80 21 40 22 83 23
REMARK SMILES IDX 77 24 76 25 41 27 67 28 50 29 66 30 51 31 54 32 65 33 81 34
REMARK SMILES IDX 52 35 53 36 64 38 82 39 55 40 42 41 43 42 48 43 44 44 45 45
REMARK SMILES IDX 47 46 49 47 46 48 68 49 69 50 74 51 70 52 71 53 73 54 75 55
REMARK SMILES IDX 72 56 56 57 57 58 62 59 58 60 59 61 61 62 63 63 60 64 8 65
REMARK SMILES IDX 9 66 10 67 11 68 12 70 13 71 14 72 31 73 15 74 29 75 32 76
REMARK SMILES IDX 28 77 30 78 16 79 17 80 18 81 19 82 20 84 21 85 27 86 22 87
REMARK SMILES IDX 25 88 23 89 26 90 24 91
REMARK H PARENT 3 8 80 26 54 37 10 69 19 83
REMARK Flexibility Score: inf
ROOT
ATOM      1  C   UNL A   1      37.034  21.726  24.384  1.00  0.00     0.002 C 
ENDROOT
BRANCH   1   2
ATOM      2  C   UNL A   1      36.924  20.328  24.998  1.00  0.00     0.002 C 
BRANCH   2   3
ATOM      3  C   UNL A   1      38.184  19.464  24.937  1.00  0.00     0.021 C 
BRANCH   3   4
ATOM      4  C   UNL A   1      39.225  19.730  26.019  1.00  0.00     0.116 C 
BRANCH   4   5
ATOM      5  N   UNL A   1      40.381  18.857  25.922  1.00  0.00    -0.352 N 
ATOM      6  O   UNL A   1      42.560  18.297  25.802  1.00  0.00    -0.269 OA
ATOM      7  C   UNL A   1      41.716  19.158  26.032  1.00  0.00     0.251 C 
ATOM      8  H   UNL A   1      40.177  17.909  25.752  1.00  0.00     0.163 HD
BRANCH   7   9
ATOM      9  C   UNL A   1      42.147  20.526  26.398  1.00  0.00     0.039 A 
ATOM     10  C   UNL A   1      42.217  20.937  27.733  1.00  0.00     0.014 A 
ATOM     11  C   UNL A   1      42.521  21.403  25.375  1.00  0.00     0.014 A 
ATOM     12  C   UNL A   1      42.555  22.255  28.037  1.00  0.00     0.010 A 
ATOM     13  C   UNL A   1      42.913  22.708  25.683  1.00  0.00     0.010 A 
ATOM     14  C   UNL A   1      42.906  23.151  27.015  1.00  0.00    -0.014 A 
BRANCH  14  15
ATOM     15  C   UNL A   1      43.303  24.540  27.347  1.00  0.00     0.031 A 
ATOM     16  C   UNL A   1      44.741  24.967  27.273  1.00  0.00     0.074 A 
ATOM     17  C   UNL A   1      42.358  25.420  27.727  1.00  0.00     0.049 A 
ATOM     18  N   UNL A   1      45.273  26.127  27.566  1.00  0.00    -0.248 NA
ATOM     19  C   UNL A   1      45.709  23.958  26.819  1.00  0.00     0.031 C 
ATOM     20  C   UNL A   1      40.929  25.123  27.847  1.00  0.00     0.029 A 
ATOM     21  N   UNL A   1      42.457  26.740  28.083  1.00  0.00    -0.354 N 
ATOM     22  C   UNL A   1      46.637  25.983  27.353  1.00  0.00     0.074 A 
ATOM     23  C   UNL A   1      46.855  24.619  26.918  1.00  0.00     0.031 C 
ATOM     24  C   UNL A   1      40.283  26.234  28.231  1.00  0.00     0.029 A 
ATOM     25  C   UNL A   1      41.254  27.307  28.422  1.00  0.00     0.049 A 
ATOM     26  H   UNL A   1      43.309  27.234  28.093  1.00  0.00     0.167 HD
ATOM     27  C   UNL A   1      47.617  26.907  27.502  1.00  0.00     0.037 A 
ATOM     28  C   UNL A   1      40.965  28.548  28.856  1.00  0.00     0.037 A 
ATOM     29  C   UNL A   1      47.401  28.268  27.914  1.00  0.00     0.049 A 
ATOM     30  C   UNL A   1      42.069  29.549  29.018  1.00  0.00     0.074 A 
ATOM     31  C   UNL A   1      48.328  29.286  28.056  1.00  0.00     0.029 A 
ATOM     32  N   UNL A   1      46.167  28.803  28.253  1.00  0.00    -0.354 N 
ATOM     33  N   UNL A   1      43.351  29.407  28.789  1.00  0.00    -0.248 NA
ATOM     34  C   UNL A   1      41.687  30.884  29.501  1.00  0.00     0.031 C 
ATOM     35  C   UNL A   1      47.660  30.430  28.505  1.00  0.00     0.029 A 
ATOM     36  C   UNL A   1      46.311  30.131  28.616  1.00  0.00     0.049 A 
ATOM     37  H   UNL A   1      45.314  28.311  28.237  1.00  0.00     0.167 HD
ATOM     38  C   UNL A   1      43.929  30.631  29.090  1.00  0.00     0.074 A 
ATOM     39  C   UNL A   1      42.856  31.511  29.506  1.00  0.00     0.031 C 
ATOM     40  C   UNL A   1      45.233  30.993  29.028  1.00  0.00     0.037 A 
BRANCH  27  41
ATOM     41  C   UNL A   1      49.023  26.466  27.228  1.00  0.00     0.057 A 
ATOM     42  C   UNL A   1      49.861  26.002  28.249  1.00  0.00     0.134 A 
ATOM     43  C   UNL A   1      49.532  26.477  25.924  1.00  0.00     0.134 A 
ATOM     44  F   UNL A   1      49.435  25.979  29.521  1.00  0.00    -0.206 F 
ATOM     45  C   UNL A   1      51.165  25.577  27.984  1.00  0.00     0.040 A 
ATOM     46  C   UNL A   1      50.828  26.040  25.645  1.00  0.00     0.040 A 
ATOM     47  F   UNL A   1      48.778  26.907  24.902  1.00  0.00    -0.206 F 
ATOM     48  C   UNL A   1      51.650  25.591  26.677  1.00  0.00     0.006 A 
ENDBRANCH  27  41
BRANCH  28  49
ATOM     49  C   UNL A   1      39.561  28.901  29.162  1.00  0.00     0.057 A 
ATOM     50  C   UNL A   1      38.704  29.380  28.166  1.00  0.00     0.134 A 
ATOM     51  C   UNL A   1      39.034  28.734  30.448  1.00  0.00     0.134 A 
ATOM     52  F   UNL A   1      39.161  29.575  26.920  1.00  0.00    -0.206 F 
ATOM     53  C   UNL A   1      37.370  29.683  28.437  1.00  0.00     0.040 A 
ATOM     54  C   UNL A   1      37.697  29.015  30.729  1.00  0.00     0.040 A 
ATOM     55  F   UNL A   1      39.807  28.271  31.442  1.00  0.00    -0.206 F 
ATOM     56  C   UNL A   1      36.861  29.493  29.722  1.00  0.00     0.006 A 
ENDBRANCH  28  49
BRANCH  40  57
ATOM     57  C   UNL A   1      45.565  32.403  29.402  1.00  0.00     0.057 A 
ATOM     58  C   UNL A   1      45.935  32.746  30.707  1.00  0.00     0.134 A 
ATOM     59  C   UNL A   1      45.547  33.421  28.440  1.00  0.00     0.134 A 
ATOM     60  F   UNL A   1      45.956  31.816  31.675  1.00  0.00    -0.206 F 
ATOM     61  C   UNL A   1      46.263  34.059  31.048  1.00  0.00     0.040 A 
ATOM     62  C   UNL A   1      45.889  34.734  28.766  1.00  0.00     0.040 A 
ATOM     63  F   UNL A   1      45.204  33.152  27.172  1.00  0.00    -0.206 F 
ATOM     64  C   UNL A   1      46.245  35.056  30.074  1.00  0.00     0.006 A 
ENDBRANCH  40  57
ENDBRANCH  14  15
ENDBRANCH   7   9
ENDBRANCH   4   5
ENDBRANCH   3   4
ENDBRANCH   2   3
ENDBRANCH   1   2
BRANCH   1  65
ATOM     65  C   UNL A   1      37.328  22.875  25.354  1.00  0.00     0.021 C 
BRANCH  65  66
ATOM     66  C   UNL A   1      36.120  23.665  25.849  1.00  0.00     0.116 C 
BRANCH  66  67
ATOM     67  N   UNL A   1      35.387  22.985  26.900  1.00  0.00    -0.352 N 
ATOM     68  C   UNL A   1      34.063  22.645  26.983  1.00  0.00     0.252 C 
ATOM     69  H   UNL A   1      35.930  22.726  27.679  1.00  0.00     0.163 HD
ATOM     70  O   UNL A   1      33.655  22.015  27.954  1.00  0.00    -0.269 OA
BRANCH  68  71
ATOM     71  C   UNL A   1      33.125  22.980  25.894  1.00  0.00     0.061 A 
ATOM     72  C   UNL A   1      32.507  24.241  25.906  1.00  0.00     0.037 A 
ATOM     73  C   UNL A   1      32.909  22.093  24.828  1.00  0.00     0.072 A 
ATOM     74  C   UNL A   1      31.650  24.610  24.867  1.00  0.00     0.090 A 
ATOM     75  C   UNL A   1      32.109  22.514  23.755  1.00  0.00     0.061 A 
ATOM     76  Cl  UNL A   1      33.550  20.482  24.857  1.00  0.00    -0.082 Cl
ATOM     77  C   UNL A   1      31.503  23.776  23.763  1.00  0.00     0.044 A 
ATOM     78  Cl  UNL A   1      31.776  21.505  22.387  1.00  0.00    -0.083 Cl
BRANCH  74  79
ATOM     79  S   UNL A   1      30.699  26.097  25.107  1.00  0.00     0.261 S 
ATOM     80  O   UNL A   1      29.523  25.955  24.267  1.00  0.00    -0.201 OA
ATOM     81  O   UNL A   1      30.585  26.272  26.532  1.00  0.00    -0.201 OA
BRANCH  79  82
ATOM     82  N   UNL A   1      31.611  27.385  24.561  1.00  0.00    -0.280 N 
ATOM     83  H   UNL A   1      31.645  27.522  23.586  1.00  0.00     0.180 HD
BRANCH  82  84
ATOM     84  C   UNL A   1      32.340  28.304  25.363  1.00  0.00     0.052 A 
ATOM     85  C   UNL A   1      33.567  28.008  25.969  1.00  0.00     0.030 A 
ATOM     86  C   UNL A   1      31.736  29.543  25.600  1.00  0.00     0.069 A 
ATOM     87  C   UNL A   1      34.137  28.910  26.875  1.00  0.00     0.044 A 
ATOM     88  C   UNL A   1      32.313  30.435  26.499  1.00  0.00     0.160 A 
ATOM     89  C   UNL A   1      33.498  30.114  27.146  1.00  0.00     0.158 A 
ATOM     90  F   UNL A   1      31.694  31.594  26.756  1.00  0.00    -0.204 F 
ATOM     91  F   UNL A   1      34.029  30.956  28.041  1.00  0.00    -0.204 F 
ENDBRANCH  82  84
ENDBRANCH  79  82
ENDBRANCH  74  79
ENDBRANCH  68  71
ENDBRANCH  66  67
ENDBRANCH  65  66
ENDBRANCH   1  65
TORSDOF 16
ENDMDL
MODEL 2
REMARK VINA RESULT:     -12.0      4.882      9.534
REMARK SMILES O=C(NCCCCCCNC(=O)c1cc(S(=O)(=O)Nc2ccc(F)c(F)c2)cc(Cl)c1Cl)c1ccc(-c2c3nc(c(-c4c(F)cccc4F)c4ccc([nH]4)c(-c4c(F)cccc4F)c4nc(c(-c5c(F)cccc5F)c5ccc2[nH]5)C=C4)C=C3)cc1
REMARK SMILES IDX 7 1 6 2 5 3 4 4 3 5 1 6 2 7 33 9 34 10 86 11 35 12 85 13
REMARK SMILES IDX 36 14 37 15 38 16 79 17 39 18 84 19 78 20 80 21 40 22 83 23
REMARK SMILES IDX 77 24 76 25 41 27 67 28 50 29 66 30 51 31 54 32 65 33 81 34
REMARK SMILES IDX 52 35 53 36 64 38 82 39 55 40 42 41 43 42 48 43 44 44 45 45
REMARK SMILES IDX 47 46 49 47 46 48 68 49 69 50 74 51 70 52 71 53 73 54 75 55
REMARK SMILES IDX 72 56 56 57 57 58 62 59 58 60 59 61 61 62 63 63 60 64 8 65
REMARK SMILES IDX 9 66 10 67 11 68 12 70 13 71 14 72 31 73 15 74 29 75 32 76
REMARK SMILES IDX 28 77 30 78 16 79 17 80 18 81 19 82 20 84 21 85 27 86 22 87
REMARK SMILES IDX 25 88 23 89 26 90 24 91
REMARK H PARENT 3 8 80 26 54 37 10 69 19 83
REMARK Flexibility Score: inf
ROOT
ATOM      1  C   UNL A   1      32.161  29.776  27.201  1.00  0.00     0.002 C 
ENDROOT
BRANCH   1   2
ATOM      2  C   UNL A   1      31.578  30.803  26.227  1.00  0.00     0.002 C 
BRANCH   2   3
ATOM      3  C   UNL A   1      31.369  32.213  26.780  1.00  0.00     0.021 C 
BRANCH   3   4
ATOM      4  C   UNL A   1      32.637  33.000  27.090  1.00  0.00     0.116 C 
BRANCH   4   5
ATOM      5  N   UNL A   1      32.370  34.296  27.688  1.00  0.00    -0.352 N 
ATOM      6  O   UNL A   1      32.579  35.991  29.157  1.00  0.00    -0.269 OA
ATOM      7  C   UNL A   1      33.029  34.942  28.704  1.00  0.00     0.251 C 
ATOM      8  H   UNL A   1      31.603  34.782  27.309  1.00  0.00     0.163 HD
BRANCH   7   9
ATOM      9  C   UNL A   1      34.264  34.366  29.281  1.00  0.00     0.039 A 
ATOM     10  C   UNL A   1      35.495  34.475  28.627  1.00  0.00     0.014 A 
ATOM     11  C   UNL A   1      34.186  33.733  30.526  1.00  0.00     0.014 A 
ATOM     12  C   UNL A   1      36.623  33.856  29.163  1.00  0.00     0.010 A 
ATOM     13  C   UNL A   1      35.328  33.160  31.089  1.00  0.00     0.010 A 
ATOM     14  C   UNL A   1      36.550  33.194  30.399  1.00  0.00    -0.014 A 
BRANCH  14  15
ATOM     15  C   UNL A   1      37.761  32.571  30.983  1.00  0.00     0.031 A 
ATOM     16  C   UNL A   1      38.385  31.361  30.348  1.00  0.00     0.074 A 
ATOM     17  C   UNL A   1      38.296  33.096  32.100  1.00  0.00     0.049 A 
ATOM     18  N   UNL A   1      39.419  30.662  30.744  1.00  0.00    -0.248 NA
ATOM     19  C   UNL A   1      37.762  30.865  29.112  1.00  0.00     0.031 C 
ATOM     20  C   UNL A   1      37.777  34.263  32.816  1.00  0.00     0.029 A 
ATOM     21  N   UNL A   1      39.393  32.717  32.830  1.00  0.00    -0.354 N 
ATOM     22  C   UNL A   1      39.558  29.635  29.821  1.00  0.00     0.074 A 
ATOM     23  C   UNL A   1      38.495  29.792  28.851  1.00  0.00     0.031 C 
ATOM     24  C   UNL A   1      38.565  34.515  33.872  1.00  0.00     0.029 A 
ATOM     25  C   UNL A   1      39.619  33.507  33.929  1.00  0.00     0.049 A 
ATOM     26  H   UNL A   1      39.964  31.952  32.588  1.00  0.00     0.167 HD
ATOM     27  C   UNL A   1      40.492  28.653  29.785  1.00  0.00     0.037 A 
ATOM     28  C   UNL A   1      40.560  33.420  34.888  1.00  0.00     0.037 A 
ATOM     29  C   UNL A   1      41.561  28.507  30.737  1.00  0.00     0.049 A 
ATOM     30  C   UNL A   1      41.577  32.322  34.828  1.00  0.00     0.074 A 
ATOM     31  C   UNL A   1      42.576  27.567  30.758  1.00  0.00     0.029 A 
ATOM     32  N   UNL A   1      41.753  29.326  31.838  1.00  0.00    -0.354 N 
ATOM     33  N   UNL A   1      41.712  31.371  33.936  1.00  0.00    -0.248 NA
ATOM     34  C   UNL A   1      42.572  32.280  35.909  1.00  0.00     0.031 C 
ATOM     35  C   UNL A   1      43.368  27.800  31.888  1.00  0.00     0.029 A 
ATOM     36  C   UNL A   1      42.861  28.904  32.554  1.00  0.00     0.049 A 
ATOM     37  H   UNL A   1      41.185  30.095  32.077  1.00  0.00     0.167 HD
ATOM     38  C   UNL A   1      42.809  30.624  34.339  1.00  0.00     0.074 A 
ATOM     39  C   UNL A   1      43.312  31.239  35.551  1.00  0.00     0.031 C 
ATOM     40  C   UNL A   1      43.349  29.527  33.758  1.00  0.00     0.037 A 
BRANCH  27  41
ATOM     41  C   UNL A   1      40.387  27.647  28.679  1.00  0.00     0.057 A 
ATOM     42  C   UNL A   1      41.073  27.806  27.470  1.00  0.00     0.134 A 
ATOM     43  C   UNL A   1      39.615  26.490  28.841  1.00  0.00     0.134 A 
ATOM     44  F   UNL A   1      41.819  28.899  27.251  1.00  0.00    -0.206 F 
ATOM     45  C   UNL A   1      40.983  26.856  26.451  1.00  0.00     0.040 A 
ATOM     46  C   UNL A   1      39.530  25.525  27.836  1.00  0.00     0.040 A 
ATOM     47  F   UNL A   1      38.935  26.277  29.978  1.00  0.00    -0.206 F 
ATOM     48  C   UNL A   1      40.213  25.708  26.635  1.00  0.00     0.006 A 
ENDBRANCH  27  41
BRANCH  28  49
ATOM     49  C   UNL A   1      40.572  34.415  35.984  1.00  0.00     0.057 A 
ATOM     50  C   UNL A   1      41.291  35.609  35.865  1.00  0.00     0.134 A 
ATOM     51  C   UNL A   1      39.838  34.212  37.158  1.00  0.00     0.134 A 
ATOM     52  F   UNL A   1      42.025  35.848  34.769  1.00  0.00    -0.206 F 
ATOM     53  C   UNL A   1      41.281  36.568  36.878  1.00  0.00     0.040 A 
ATOM     54  C   UNL A   1      39.805  35.171  38.171  1.00  0.00     0.040 A 
ATOM     55  F   UNL A   1      39.124  33.089  37.324  1.00  0.00    -0.206 F 
ATOM     56  C   UNL A   1      40.529  36.353  38.033  1.00  0.00     0.006 A 
ENDBRANCH  28  49
BRANCH  40  57
ATOM     57  C   UNL A   1      44.555  28.934  34.415  1.00  0.00     0.057 A 
ATOM     58  C   UNL A   1      45.842  29.417  34.154  1.00  0.00     0.134 A 
ATOM     59  C   UNL A   1      44.425  27.893  35.343  1.00  0.00     0.134 A 
ATOM     60  F   UNL A   1      46.031  30.403  33.264  1.00  0.00    -0.206 F 
ATOM     61  C   UNL A   1      46.963  28.874  34.784  1.00  0.00     0.040 A 
ATOM     62  C   UNL A   1      45.536  27.353  35.990  1.00  0.00     0.040 A 
ATOM     63  F   UNL A   1      43.216  27.391  35.636  1.00  0.00    -0.206 F 
ATOM     64  C   UNL A   1      46.811  27.842  35.710  1.00  0.00     0.006 A 
ENDBRANCH  40  57
ENDBRANCH  14  15
ENDBRANCH   7   9
ENDBRANCH   4   5
ENDBRANCH   3   4
ENDBRANCH   2   3
ENDBRANCH   1   2
BRANCH   1  65
ATOM     65  C   UNL A   1      33.648  29.445  27.035  1.00  0.00     0.021 C 
BRANCH  65  66
ATOM     66  C   UNL A   1      33.982  28.302  26.080  1.00  0.00     0.116 C 
BRANCH  66  67
ATOM     67  N   UNL A   1      34.209  28.748  24.718  1.00  0.00    -0.352 N 
ATOM     68  C   UNL A   1      33.705  28.280  23.534  1.00  0.00     0.252 C 
ATOM     69  H   UNL A   1      34.826  29.510  24.631  1.00  0.00     0.163 HD
ATOM     70  O   UNL A   1      33.992  28.845  22.483  1.00  0.00    -0.269 OA
BRANCH  68  71
ATOM     71  C   UNL A   1      32.777  27.133  23.507  1.00  0.00     0.061 A 
ATOM     72  C   UNL A   1      33.313  25.837  23.460  1.00  0.00     0.037 A 
ATOM     73  C   UNL A   1      31.389  27.325  23.602  1.00  0.00     0.072 A 
ATOM     74  C   UNL A   1      32.465  24.726  23.481  1.00  0.00     0.090 A 
ATOM     75  C   UNL A   1      30.561  26.197  23.703  1.00  0.00     0.061 A 
ATOM     76  Cl  UNL A   1      30.695  28.911  23.525  1.00  0.00    -0.082 Cl
ATOM     77  C   UNL A   1      31.099  24.905  23.667  1.00  0.00     0.044 A 
ATOM     78  Cl  UNL A   1      28.837  26.313  23.827  1.00  0.00    -0.083 Cl
BRANCH  74  79
ATOM     79  S   UNL A   1      33.210  23.147  23.133  1.00  0.00     0.261 S 
ATOM     80  O   UNL A   1      32.141  22.309  22.619  1.00  0.00    -0.201 OA
ATOM     81  O   UNL A   1      34.387  23.424  22.349  1.00  0.00    -0.201 OA
BRANCH  79  82
ATOM     82  N   UNL A   1      33.763  22.509  24.573  1.00  0.00    -0.280 N 
ATOM     83  H   UNL A   1      33.093  22.077  25.152  1.00  0.00     0.180 HD
BRANCH  82  84
ATOM     84  C   UNL A   1      35.103  22.528  25.046  1.00  0.00     0.052 A 
ATOM     85  C   UNL A   1      35.714  23.651  25.617  1.00  0.00     0.030 A 
ATOM     86  C   UNL A   1      35.850  21.362  24.852  1.00  0.00     0.069 A 
ATOM     87  C   UNL A   1      37.083  23.634  25.905  1.00  0.00     0.044 A 
ATOM     88  C   UNL A   1      37.211  21.354  25.145  1.00  0.00     0.160 A 
ATOM     89  C   UNL A   1      37.828  22.488  25.653  1.00  0.00     0.158 A 
ATOM     90  F   UNL A   1      37.924  20.246  24.902  1.00  0.00    -0.204 F 
ATOM     91  F   UNL A   1      39.145  22.490  25.897  1.00  0.00    -0.204 F 
ENDBRANCH  82  84
ENDBRANCH  79  82
ENDBRANCH  74  79
ENDBRANCH  68  71
ENDBRANCH  66  67
ENDBRANCH  65  66
ENDBRANCH   1  65
TORSDOF 16
ENDMDL
MODEL 3
REMARK VINA RESULT:     -12.0      2.058      2.739
REMARK SMILES O=C(NCCCCCCNC(=O)c1cc(S(=O)(=O)Nc2ccc(F)c(F)c2)cc(Cl)c1Cl)c1ccc(-c2c3nc(c(-c4c(F)cccc4F)c4ccc([nH]4)c(-c4c(F)cccc4F)c4nc(c(-c5c(F)cccc5F)c5ccc2[nH]5)C=C4)C=C3)cc1
REMARK SMILES IDX 7 1 6 2 5 3 4 4 3 5 1 6 2 7 33 9 34 10 86 11 35 12 85 13
REMARK SMILES IDX 36 14 37 15 38 16 79 17 39 18 84 19 78 20 80 21 40 22 83 23
REMARK SMILES IDX 77 24 76 25 41 27 67 28 50 29 66 30 51 31 54 32 65 33 81 34
REMARK SMILES IDX 52 35 53 36 64 38 82 39 55 40 42 41 43 42 48 43 44 44 45 45
REMARK SMILES IDX 47 46 49 47 46 48 68 49 69 50 74 51 70 52 71 53 73 54 75 55
REMARK SMILES IDX 72 56 56 57 57 58 62 59 58 60 59 61 61 62 63 63 60 64 8 65
REMARK SMILES IDX 9 66 10 67 11 68 12 70 13 71 14 72 31 73 15 74 29 75 32 76
REMARK SMILES IDX 28 77 30 78 16 79 17 80 18 81 19 82 20 84 21 85 27 86 22 87
REMARK SMILES IDX 25 88 23 89 26 90 24 91
REMARK H PARENT 3 8 80 26 54 37 10 69 19 83
REMARK Flexibility Score: inf
ROOT
ATOM      1  C   UNL A   1      38.295  22.392  25.840  1.00  0.00     0.002 C 
ENDROOT
BRANCH   1   2
ATOM      2  C   UNL A   1      37.740  21.350  24.866  1.00  0.00     0.002 C 
BRANCH   2   3
ATOM      3  C   UNL A   1      38.344  19.948  24.964  1.00  0.00     0.021 C 
BRANCH   3   4
ATOM      4  C   UNL A   1      39.221  19.686  26.184  1.00  0.00     0.116 C 
BRANCH   4   5
ATOM      5  N   UNL A   1      40.481  19.047  25.850  1.00  0.00    -0.352 N 
ATOM      6  O   UNL A   1      42.693  18.891  25.447  1.00  0.00    -0.269 OA
ATOM      7  C   UNL A   1      41.756  19.555  25.883  1.00  0.00     0.251 C 
ATOM      8  H   UNL A   1      40.410  18.110  25.556  1.00  0.00     0.163 HD
BRANCH   7   9
ATOM      9  C   UNL A   1      42.006  20.914  26.412  1.00  0.00     0.039 A 
ATOM     10  C   UNL A   1      42.277  21.991  25.561  1.00  0.00     0.014 A 
ATOM     11  C   UNL A   1      41.931  21.116  27.794  1.00  0.00     0.014 A 
ATOM     12  C   UNL A   1      42.580  23.241  26.099  1.00  0.00     0.010 A 
ATOM     13  C   UNL A   1      42.181  22.382  28.329  1.00  0.00     0.010 A 
ATOM     14  C   UNL A   1      42.535  23.447  27.486  1.00  0.00    -0.014 A 
BRANCH  14  15
ATOM     15  C   UNL A   1      42.821  24.788  28.050  1.00  0.00     0.031 A 
ATOM     16  C   UNL A   1      44.214  25.166  28.463  1.00  0.00     0.074 A 
ATOM     17  C   UNL A   1      41.813  25.667  28.197  1.00  0.00     0.049 A 
ATOM     18  N   UNL A   1      44.639  26.277  29.011  1.00  0.00    -0.248 NA
ATOM     19  C   UNL A   1      45.267  24.164  28.241  1.00  0.00     0.031 C 
ATOM     20  C   UNL A   1      40.415  25.415  27.842  1.00  0.00     0.029 A 
ATOM     21  N   UNL A   1      41.808  26.948  28.685  1.00  0.00    -0.354 N 
ATOM     22  C   UNL A   1      46.001  26.101  29.217  1.00  0.00     0.074 A 
ATOM     23  C   UNL A   1      46.330  24.772  28.749  1.00  0.00     0.031 C 
ATOM     24  C   UNL A   1      39.691  26.513  28.108  1.00  0.00     0.029 A 
ATOM     25  C   UNL A   1      40.564  27.529  28.686  1.00  0.00     0.049 A 
ATOM     26  H   UNL A   1      42.619  27.408  29.003  1.00  0.00     0.167 HD
ATOM     27  C   UNL A   1      46.894  26.972  29.746  1.00  0.00     0.037 A 
ATOM     28  C   UNL A   1      40.167  28.739  29.121  1.00  0.00     0.037 A 
ATOM     29  C   UNL A   1      46.572  28.301  30.194  1.00  0.00     0.049 A 
ATOM     30  C   UNL A   1      41.174  29.682  29.707  1.00  0.00     0.074 A 
ATOM     31  C   UNL A   1      47.419  29.268  30.707  1.00  0.00     0.029 A 
ATOM     32  N   UNL A   1      45.300  28.851  30.182  1.00  0.00    -0.354 N 
ATOM     33  N   UNL A   1      42.462  29.511  29.874  1.00  0.00    -0.248 NA
ATOM     34  C   UNL A   1      40.672  30.984  30.169  1.00  0.00     0.031 C 
ATOM     35  C   UNL A   1      46.654  30.395  31.031  1.00  0.00     0.029 A 
ATOM     36  C   UNL A   1      45.336  30.138  30.692  1.00  0.00     0.049 A 
ATOM     37  H   UNL A   1      44.489  28.394  29.858  1.00  0.00     0.167 HD
ATOM     38  C   UNL A   1      42.929  30.684  30.450  1.00  0.00     0.074 A 
ATOM     39  C   UNL A   1      41.788  31.565  30.592  1.00  0.00     0.031 C 
ATOM     40  C   UNL A   1      44.191  31.001  30.827  1.00  0.00     0.037 A 
BRANCH  27  41
ATOM     41  C   UNL A   1      48.312  26.504  29.881  1.00  0.00     0.057 A 
ATOM     42  C   UNL A   1      49.274  26.778  28.903  1.00  0.00     0.134 A 
ATOM     43  C   UNL A   1      48.723  25.799  31.019  1.00  0.00     0.134 A 
ATOM     44  F   UNL A   1      48.938  27.439  27.785  1.00  0.00    -0.206 F 
ATOM     45  C   UNL A   1      50.596  26.353  29.043  1.00  0.00     0.040 A 
ATOM     46  C   UNL A   1      50.046  25.383  31.178  1.00  0.00     0.040 A 
ATOM     47  F   UNL A   1      47.849  25.508  31.994  1.00  0.00    -0.206 F 
ATOM     48  C   UNL A   1      50.987  25.657  30.187  1.00  0.00     0.006 A 
ENDBRANCH  27  41
BRANCH  28  49
ATOM     49  C   UNL A   1      38.740  29.117  29.010  1.00  0.00     0.057 A 
ATOM     50  C   UNL A   1      38.205  29.562  27.797  1.00  0.00     0.134 A 
ATOM     51  C   UNL A   1      37.872  29.007  30.102  1.00  0.00     0.134 A 
ATOM     52  F   UNL A   1      38.995  29.701  26.722  1.00  0.00    -0.206 F 
ATOM     53  C   UNL A   1      36.854  29.888  27.672  1.00  0.00     0.040 A 
ATOM     54  C   UNL A   1      36.515  29.312  29.987  1.00  0.00     0.040 A 
ATOM     55  F   UNL A   1      38.328  28.579  31.289  1.00  0.00    -0.206 F 
ATOM     56  C   UNL A   1      36.003  29.755  28.769  1.00  0.00     0.006 A 
ENDBRANCH  28  49
BRANCH  40  57
ATOM     57  C   UNL A   1      44.403  32.361  31.412  1.00  0.00     0.057 A 
ATOM     58  C   UNL A   1      44.342  32.581  32.793  1.00  0.00     0.134 A 
ATOM     59  C   UNL A   1      44.703  33.455  30.590  1.00  0.00     0.134 A 
ATOM     60  F   UNL A   1      44.045  31.575  33.630  1.00  0.00    -0.206 F 
ATOM     61  C   UNL A   1      44.560  33.848  33.337  1.00  0.00     0.040 A 
ATOM     62  C   UNL A   1      44.938  34.722  31.124  1.00  0.00     0.040 A 
ATOM     63  F   UNL A   1      44.778  33.305  29.259  1.00  0.00    -0.206 F 
ATOM     64  C   UNL A   1      44.864  34.922  32.501  1.00  0.00     0.006 A 
ENDBRANCH  40  57
ENDBRANCH  14  15
ENDBRANCH   7   9
ENDBRANCH   4   5
ENDBRANCH   3   4
ENDBRANCH   2   3
ENDBRANCH   1   2
BRANCH   1  65
ATOM     65  C   UNL A   1      37.682  23.795  25.761  1.00  0.00     0.021 C 
BRANCH  65  66
ATOM     66  C   UNL A   1      36.158  23.866  25.765  1.00  0.00     0.116 C 
BRANCH  66  67
ATOM     67  N   UNL A   1      35.555  23.091  26.833  1.00  0.00    -0.352 N 
ATOM     68  C   UNL A   1      34.283  22.601  26.968  1.00  0.00     0.252 C 
ATOM     69  H   UNL A   1      36.159  22.883  27.582  1.00  0.00     0.163 HD
ATOM     70  O   UNL A   1      33.994  21.915  27.942  1.00  0.00    -0.269 OA
BRANCH  68  71
ATOM     71  C   UNL A   1      33.265  22.845  25.928  1.00  0.00     0.061 A 
ATOM     72  C   UNL A   1      32.475  24.002  26.020  1.00  0.00     0.037 A 
ATOM     73  C   UNL A   1      33.134  21.981  24.829  1.00  0.00     0.072 A 
ATOM     74  C   UNL A   1      31.534  24.288  25.028  1.00  0.00     0.090 A 
ATOM     75  C   UNL A   1      32.241  22.328  23.804  1.00  0.00     0.061 A 
ATOM     76  Cl  UNL A   1      33.997  20.479  24.759  1.00  0.00    -0.082 Cl
ATOM     77  C   UNL A   1      31.463  23.489  23.892  1.00  0.00     0.044 A 
ATOM     78  Cl  UNL A   1      32.000  21.340  22.401  1.00  0.00    -0.083 Cl
BRANCH  74  79
ATOM     79  S   UNL A   1      30.392  25.611  25.370  1.00  0.00     0.261 S 
ATOM     80  O   UNL A   1      29.507  25.112  26.407  1.00  0.00    -0.201 OA
ATOM     81  O   UNL A   1      31.196  26.789  25.575  1.00  0.00    -0.201 OA
BRANCH  79  82
ATOM     82  N   UNL A   1      29.507  25.899  23.984  1.00  0.00    -0.280 N 
ATOM     83  H   UNL A   1      29.334  25.125  23.399  1.00  0.00     0.180 HD
BRANCH  82  84
ATOM     84  C   UNL A   1      28.977  27.149  23.565  1.00  0.00     0.052 A 
ATOM     85  C   UNL A   1      27.642  27.532  23.745  1.00  0.00     0.030 A 
ATOM     86  C   UNL A   1      29.849  27.997  22.873  1.00  0.00     0.069 A 
ATOM     87  C   UNL A   1      27.165  28.709  23.159  1.00  0.00     0.044 A 
ATOM     88  C   UNL A   1      29.365  29.168  22.297  1.00  0.00     0.160 A 
ATOM     89  C   UNL A   1      28.028  29.514  22.424  1.00  0.00     0.158 A 
ATOM     90  F   UNL A   1      30.201  29.941  21.591  1.00  0.00    -0.204 F 
ATOM     91  F   UNL A   1      27.557  30.621  21.834  1.00  0.00    -0.204 F 
ENDBRANCH  82  84
ENDBRANCH  79  82
ENDBRANCH  74  79
ENDBRANCH  68  71
ENDBRANCH  66  67
ENDBRANCH  65  66
ENDBRANCH   1  65
TORSDOF 16
ENDMDL
