MODEL 1
REMARK VINA RESULT:     -11.1      0.000      0.000
REMARK SMILES C[C@@H](SCCC(=O)NCCCCCCNC(=O)c1ccc(-c2c3nc(c(-c4c(F)cccc4F)c4ccc([nH]4)c(-c4c(F)cccc4F)c4nc(c(-c5c(F)cccc5F)c5ccc2[nH]5)C=C4)C=C3)cc1)C(=O)Nc1ccc(C(N)=O)cc1
REMARK SMILES IDX 9 1 8 2 6 3 7 4 5 6 4 7 3 8 2 9 1 10 72 11 73 12 74 13 75 15
REMARK SMILES IDX 76 16 83 17 77 18 82 19 78 20 79 21 80 22 81 23 10 26 11 27
REMARK SMILES IDX 12 28 13 29 14 30 15 31 16 32 17 34 18 35 19 36 71 37 20 38
REMARK SMILES IDX 70 39 21 40 22 41 23 42 64 43 24 44 69 45 63 46 65 47 25 48
REMARK SMILES IDX 68 49 62 50 61 51 26 53 52 54 35 55 51 56 36 57 39 58 50 59
REMARK SMILES IDX 66 60 37 61 38 62 49 64 67 65 40 66 27 67 28 68 33 69 29 70
REMARK SMILES IDX 30 71 32 72 34 73 31 74 53 75 54 76 59 77 55 78 56 79 58 80
REMARK SMILES IDX 60 81 57 82 41 83 42 84 47 85 43 86 44 87 46 88 48 89 45 90
REMARK H PARENT 8 5 74 14 80 24 80 25 15 33 65 52 39 63
REMARK Flexibility Score: inf
ROOT
ATOM      1  C   UNL A   1      33.191  28.929  23.515  1.00  0.00     0.116 C 
ENDROOT
BRANCH   1   2
ATOM      2  N   UNL A   1      31.880  29.063  22.904  1.00  0.00    -0.356 N 
ATOM      3  C   UNL A   1      30.982  28.135  22.484  1.00  0.00     0.220 C 
ATOM      4  O   UNL A   1      29.917  28.538  22.011  1.00  0.00    -0.275 OA
ATOM      5  H   UNL A   1      31.592  29.995  22.768  1.00  0.00     0.163 HD
BRANCH   3   6
ATOM      6  C   UNL A   1      31.273  26.657  22.607  1.00  0.00     0.111 C 
BRANCH   6   7
ATOM      7  C   UNL A   1      30.298  25.957  23.554  1.00  0.00     0.080 C 
BRANCH   7   8
ATOM      8  S   UNL A   1      30.855  25.911  25.304  1.00  0.00    -0.148 SA
BRANCH   8   9
ATOM      9  C   UNL A   1      31.835  24.361  25.325  1.00  0.00     0.133 C 
ATOM     10  C   UNL A   1      31.912  23.699  26.690  1.00  0.00     0.030 C 
BRANCH   9  11
ATOM     11  C   UNL A   1      33.163  24.560  24.565  1.00  0.00     0.237 C 
ATOM     12  O   UNL A   1      33.972  25.434  24.899  1.00  0.00    -0.273 OA
ATOM     13  N   UNL A   1      33.534  23.765  23.508  1.00  0.00    -0.325 N 
ATOM     14  H   UNL A   1      33.745  24.157  22.629  1.00  0.00     0.169 HD
BRANCH  13  15
ATOM     15  C   UNL A   1      33.603  22.382  23.714  1.00  0.00     0.041 A 
ATOM     16  C   UNL A   1      34.644  21.895  24.506  1.00  0.00     0.027 A 
ATOM     17  C   UNL A   1      32.592  21.548  23.257  1.00  0.00     0.027 A 
ATOM     18  C   UNL A   1      34.591  20.587  24.974  1.00  0.00     0.016 A 
ATOM     19  C   UNL A   1      32.529  20.244  23.739  1.00  0.00     0.016 A 
ATOM     20  C   UNL A   1      33.507  19.770  24.625  1.00  0.00     0.039 A 
BRANCH  20  21
ATOM     21  C   UNL A   1      33.304  18.438  25.241  1.00  0.00     0.248 C 
ATOM     22  N   UNL A   1      32.788  18.391  26.501  1.00  0.00    -0.366 N 
ATOM     23  O   UNL A   1      33.590  17.405  24.637  1.00  0.00    -0.270 OA
ATOM     24  H   UNL A   1      32.565  19.224  26.974  1.00  0.00     0.159 HD
ATOM     25  H   UNL A   1      32.641  17.522  26.939  1.00  0.00     0.159 HD
ENDBRANCH  20  21
ENDBRANCH  13  15
ENDBRANCH   9  11
ENDBRANCH   8   9
ENDBRANCH   7   8
ENDBRANCH   6   7
ENDBRANCH   3   6
ENDBRANCH   1   2
BRANCH   1  26
ATOM     26  C   UNL A   1      33.158  28.748  25.038  1.00  0.00     0.021 C 
BRANCH  26  27
ATOM     27  C   UNL A   1      32.981  30.054  25.839  1.00  0.00     0.002 C 
BRANCH  27  28
ATOM     28  C   UNL A   1      31.526  30.516  26.007  1.00  0.00     0.002 C 
BRANCH  28  29
ATOM     29  C   UNL A   1      31.327  31.952  26.501  1.00  0.00     0.021 C 
BRANCH  29  30
ATOM     30  C   UNL A   1      32.568  32.570  27.143  1.00  0.00     0.116 C 
BRANCH  30  31
ATOM     31  N   UNL A   1      32.374  33.958  27.542  1.00  0.00    -0.352 N 
ATOM     32  C   UNL A   1      33.035  34.716  28.476  1.00  0.00     0.251 C 
ATOM     33  H   UNL A   1      31.653  34.426  27.064  1.00  0.00     0.163 HD
ATOM     34  O   UNL A   1      32.626  35.840  28.754  1.00  0.00    -0.269 OA
BRANCH  32  35
ATOM     35  C   UNL A   1      34.222  34.185  29.178  1.00  0.00     0.039 A 
ATOM     36  C   UNL A   1      34.029  33.367  30.297  1.00  0.00     0.014 A 
ATOM     37  C   UNL A   1      35.517  34.517  28.774  1.00  0.00     0.014 A 
ATOM     38  C   UNL A   1      35.131  32.823  30.963  1.00  0.00     0.010 A 
ATOM     39  C   UNL A   1      36.613  33.924  29.400  1.00  0.00     0.010 A 
ATOM     40  C   UNL A   1      36.432  33.070  30.499  1.00  0.00    -0.014 A 
BRANCH  40  41
ATOM     41  C   UNL A   1      37.618  32.450  31.146  1.00  0.00     0.031 A 
ATOM     42  C   UNL A   1      38.314  31.289  30.493  1.00  0.00     0.074 A 
ATOM     43  C   UNL A   1      38.017  32.870  32.362  1.00  0.00     0.049 A 
ATOM     44  N   UNL A   1      39.277  30.533  30.955  1.00  0.00    -0.248 NA
ATOM     45  C   UNL A   1      37.843  30.913  29.153  1.00  0.00     0.031 C 
ATOM     46  C   UNL A   1      37.408  33.964  33.119  1.00  0.00     0.029 A 
ATOM     47  N   UNL A   1      39.012  32.407  33.187  1.00  0.00    -0.354 N 
ATOM     48  C   UNL A   1      39.511  29.579  29.973  1.00  0.00     0.074 A 
ATOM     49  C   UNL A   1      38.559  29.826  28.912  1.00  0.00     0.031 C 
ATOM     50  C   UNL A   1      38.040  34.086  34.297  1.00  0.00     0.029 A 
ATOM     51  C   UNL A   1      39.067  33.053  34.399  1.00  0.00     0.049 A 
ATOM     52  H   UNL A   1      39.628  31.680  32.935  1.00  0.00     0.167 HD
ATOM     53  C   UNL A   1      40.444  28.596  29.953  1.00  0.00     0.037 A 
ATOM     54  C   UNL A   1      39.837  32.825  35.480  1.00  0.00     0.037 A 
ATOM     55  C   UNL A   1      41.401  28.365  31.003  1.00  0.00     0.049 A 
ATOM     56  C   UNL A   1      40.855  31.719  35.447  1.00  0.00     0.074 A 
ATOM     57  C   UNL A   1      42.426  27.436  31.045  1.00  0.00     0.029 A 
ATOM     58  N   UNL A   1      41.443  29.061  32.201  1.00  0.00    -0.354 N 
ATOM     59  N   UNL A   1      41.110  30.863  34.487  1.00  0.00    -0.248 NA
ATOM     60  C   UNL A   1      41.696  31.548  36.641  1.00  0.00     0.031 C 
ATOM     61  C   UNL A   1      43.052  27.532  32.292  1.00  0.00     0.029 A 
ATOM     62  C   UNL A   1      42.456  28.562  33.003  1.00  0.00     0.049 A 
ATOM     63  H   UNL A   1      40.841  29.801  32.447  1.00  0.00     0.167 HD
ATOM     64  C   UNL A   1      42.157  30.074  34.947  1.00  0.00     0.074 A 
ATOM     65  C   UNL A   1      42.490  30.551  36.273  1.00  0.00     0.031 C 
ATOM     66  C   UNL A   1      42.787  29.052  34.319  1.00  0.00     0.037 A 
BRANCH  53  67
ATOM     67  C   UNL A   1      40.452  27.682  28.760  1.00  0.00     0.057 A 
ATOM     68  C   UNL A   1      41.231  27.945  27.625  1.00  0.00     0.134 A 
ATOM     69  C   UNL A   1      39.669  26.521  28.746  1.00  0.00     0.134 A 
ATOM     70  F   UNL A   1      41.999  29.044  27.567  1.00  0.00    -0.206 F 
ATOM     71  C   UNL A   1      41.195  27.113  26.504  1.00  0.00     0.040 A 
ATOM     72  C   UNL A   1      39.650  25.663  27.645  1.00  0.00     0.040 A 
ATOM     73  F   UNL A   1      38.907  26.200  29.803  1.00  0.00    -0.206 F 
ATOM     74  C   UNL A   1      40.405  25.966  26.515  1.00  0.00     0.006 A 
ENDBRANCH  53  67
BRANCH  54  75
ATOM     75  C   UNL A   1      39.666  33.673  36.685  1.00  0.00     0.057 A 
ATOM     76  C   UNL A   1      40.373  34.872  36.834  1.00  0.00     0.134 A 
ATOM     77  C   UNL A   1      38.762  33.328  37.697  1.00  0.00     0.134 A 
ATOM     78  F   UNL A   1      41.266  35.248  35.908  1.00  0.00    -0.206 F 
ATOM     79  C   UNL A   1      40.188  35.695  37.947  1.00  0.00     0.040 A 
ATOM     80  C   UNL A   1      38.551  34.153  38.803  1.00  0.00     0.040 A 
ATOM     81  F   UNL A   1      38.048  32.195  37.609  1.00  0.00    -0.206 F 
ATOM     82  C   UNL A   1      39.268  35.340  38.931  1.00  0.00     0.006 A 
ENDBRANCH  54  75
BRANCH  66  83
ATOM     83  C   UNL A   1      43.937  28.396  35.029  1.00  0.00     0.057 A 
ATOM     84  C   UNL A   1      45.241  28.901  34.955  1.00  0.00     0.134 A 
ATOM     85  C   UNL A   1      43.714  27.298  35.871  1.00  0.00     0.134 A 
ATOM     86  F   UNL A   1      45.522  29.943  34.158  1.00  0.00    -0.206 F 
ATOM     87  C   UNL A   1      46.283  28.335  35.691  1.00  0.00     0.040 A 
ATOM     88  C   UNL A   1      44.743  26.739  36.630  1.00  0.00     0.040 A 
ATOM     89  F   UNL A   1      42.487  26.771  35.993  1.00  0.00    -0.206 F 
ATOM     90  C   UNL A   1      46.033  27.258  36.542  1.00  0.00     0.006 A 
ENDBRANCH  66  83
ENDBRANCH  40  41
ENDBRANCH  32  35
ENDBRANCH  30  31
ENDBRANCH  29  30
ENDBRANCH  28  29
ENDBRANCH  27  28
ENDBRANCH  26  27
ENDBRANCH   1  26
TORSDOF 19
ENDMDL
MODEL 2
REMARK VINA RESULT:     -11.0      4.828     10.297
REMARK SMILES C[C@@H](SCCC(=O)NCCCCCCNC(=O)c1ccc(-c2c3nc(c(-c4c(F)cccc4F)c4ccc([nH]4)c(-c4c(F)cccc4F)c4nc(c(-c5c(F)cccc5F)c5ccc2[nH]5)C=C4)C=C3)cc1)C(=O)Nc1ccc(C(N)=O)cc1
REMARK SMILES IDX 9 1 8 2 6 3 7 4 5 6 4 7 3 8 2 9 1 10 72 11 73 12 74 13 75 15
REMARK SMILES IDX 76 16 83 17 77 18 82 19 78 20 79 21 80 22 81 23 10 26 11 27
REMARK SMILES IDX 12 28 13 29 14 30 15 31 16 32 17 34 18 35 19 36 71 37 20 38
REMARK SMILES IDX 70 39 21 40 22 41 23 42 64 43 24 44 69 45 63 46 65 47 25 48
REMARK SMILES IDX 68 49 62 50 61 51 26 53 52 54 35 55 51 56 36 57 39 58 50 59
REMARK SMILES IDX 66 60 37 61 38 62 49 64 67 65 40 66 27 67 28 68 33 69 29 70
REMARK SMILES IDX 30 71 32 72 34 73 31 74 53 75 54 76 59 77 55 78 56 79 58 80
REMARK SMILES IDX 60 81 57 82 41 83 42 84 47 85 43 86 44 87 46 88 48 89 45 90
REMARK H PARENT 8 5 74 14 80 24 80 25 15 33 65 52 39 63
REMARK Flexibility Score: inf
ROOT
ATOM      1  C   UNL A   1      33.840  21.108  26.543  1.00  0.00     0.116 C 
ENDROOT
BRANCH   1   2
ATOM      2  N   UNL A   1      32.917  22.000  27.225  1.00  0.00    -0.356 N 
ATOM      3  C   UNL A   1      32.322  23.155  26.830  1.00  0.00     0.220 C 
ATOM      4  O   UNL A   1      31.552  23.704  27.620  1.00  0.00    -0.275 OA
ATOM      5  H   UNL A   1      32.681  21.715  28.138  1.00  0.00     0.163 HD
BRANCH   3   6
ATOM      6  C   UNL A   1      32.586  23.739  25.462  1.00  0.00     0.111 C 
BRANCH   6   7
ATOM      7  C   UNL A   1      33.428  25.014  25.535  1.00  0.00     0.080 C 
BRANCH   7   8
ATOM      8  S   UNL A   1      32.855  26.356  24.420  1.00  0.00    -0.148 SA
BRANCH   8   9
ATOM      9  C   UNL A   1      31.429  27.018  25.363  1.00  0.00     0.133 C 
ATOM     10  C   UNL A   1      31.716  27.243  26.838  1.00  0.00     0.030 C 
BRANCH   9  11
ATOM     11  C   UNL A   1      30.147  26.235  25.010  1.00  0.00     0.237 C 
ATOM     12  O   UNL A   1      29.552  25.556  25.854  1.00  0.00    -0.273 OA
ATOM     13  N   UNL A   1      29.580  26.277  23.759  1.00  0.00    -0.325 N 
ATOM     14  H   UNL A   1      29.425  25.450  23.246  1.00  0.00     0.169 HD
BRANCH  13  15
ATOM     15  C   UNL A   1      29.227  27.525  23.234  1.00  0.00     0.041 A 
ATOM     16  C   UNL A   1      27.915  27.963  23.423  1.00  0.00     0.027 A 
ATOM     17  C   UNL A   1      30.188  28.352  22.669  1.00  0.00     0.027 A 
ATOM     18  C   UNL A   1      27.597  29.295  23.183  1.00  0.00     0.016 A 
ATOM     19  C   UNL A   1      29.877  29.689  22.445  1.00  0.00     0.016 A 
ATOM     20  C   UNL A   1      28.593  30.173  22.733  1.00  0.00     0.039 A 
BRANCH  20  21
ATOM     21  C   UNL A   1      28.360  31.633  22.640  1.00  0.00     0.248 C 
ATOM     22  N   UNL A   1      29.257  32.379  21.937  1.00  0.00    -0.366 N 
ATOM     23  O   UNL A   1      27.388  32.160  23.181  1.00  0.00    -0.270 OA
ATOM     24  H   UNL A   1      30.030  31.946  21.510  1.00  0.00     0.159 HD
ATOM     25  H   UNL A   1      29.132  33.352  21.857  1.00  0.00     0.159 HD
ENDBRANCH  20  21
ENDBRANCH  13  15
ENDBRANCH   9  11
ENDBRANCH   8   9
ENDBRANCH   7   8
ENDBRANCH   6   7
ENDBRANCH   3   6
ENDBRANCH   1   2
BRANCH   1  26
ATOM     26  C   UNL A   1      35.172  21.759  26.156  1.00  0.00     0.021 C 
BRANCH  26  27
ATOM     27  C   UNL A   1      35.666  21.423  24.734  1.00  0.00     0.002 C 
BRANCH  27  28
ATOM     28  C   UNL A   1      37.191  21.469  24.553  1.00  0.00     0.002 C 
BRANCH  28  29
ATOM     29  C   UNL A   1      37.939  20.155  24.801  1.00  0.00     0.021 C 
BRANCH  29  30
ATOM     30  C   UNL A   1      38.890  20.193  25.996  1.00  0.00     0.116 C 
BRANCH  30  31
ATOM     31  N   UNL A   1      40.008  19.268  25.866  1.00  0.00    -0.352 N 
ATOM     32  C   UNL A   1      41.354  19.470  26.039  1.00  0.00     0.251 C 
ATOM     33  H   UNL A   1      39.757  18.351  25.612  1.00  0.00     0.163 HD
ATOM     34  O   UNL A   1      42.150  18.581  25.750  1.00  0.00    -0.269 OA
BRANCH  32  35
ATOM     35  C   UNL A   1      41.866  20.762  26.544  1.00  0.00     0.039 A 
ATOM     36  C   UNL A   1      42.279  21.727  25.618  1.00  0.00     0.014 A 
ATOM     37  C   UNL A   1      41.983  21.014  27.912  1.00  0.00     0.014 A 
ATOM     38  C   UNL A   1      42.737  22.970  26.064  1.00  0.00     0.010 A 
ATOM     39  C   UNL A   1      42.380  22.276  28.354  1.00  0.00     0.010 A 
ATOM     40  C   UNL A   1      42.760  23.268  27.435  1.00  0.00    -0.014 A 
BRANCH  40  41
ATOM     41  C   UNL A   1      43.177  24.604  27.933  1.00  0.00     0.031 A 
ATOM     42  C   UNL A   1      42.144  25.649  28.251  1.00  0.00     0.074 A 
ATOM     43  C   UNL A   1      44.486  24.913  28.017  1.00  0.00     0.049 A 
ATOM     44  N   UNL A   1      42.308  26.907  28.571  1.00  0.00    -0.248 NA
ATOM     45  C   UNL A   1      40.739  25.225  28.169  1.00  0.00     0.031 C 
ATOM     46  C   UNL A   1      45.589  24.002  27.707  1.00  0.00     0.029 A 
ATOM     47  N   UNL A   1      45.109  26.087  28.359  1.00  0.00    -0.354 N 
ATOM     48  C   UNL A   1      41.029  27.431  28.706  1.00  0.00     0.074 A 
ATOM     49  C   UNL A   1      40.103  26.365  28.390  1.00  0.00     0.031 C 
ATOM     50  C   UNL A   1      46.752  24.652  27.871  1.00  0.00     0.029 A 
ATOM     51  C   UNL A   1      46.478  26.035  28.253  1.00  0.00     0.049 A 
ATOM     52  H   UNL A   1      44.622  26.891  28.653  1.00  0.00     0.167 HD
ATOM     53  C   UNL A   1      40.660  28.682  29.073  1.00  0.00     0.037 A 
ATOM     54  C   UNL A   1      47.408  26.995  28.418  1.00  0.00     0.037 A 
ATOM     55  C   UNL A   1      41.585  29.735  29.404  1.00  0.00     0.049 A 
ATOM     56  C   UNL A   1      46.981  28.383  28.809  1.00  0.00     0.074 A 
ATOM     57  C   UNL A   1      41.309  31.016  29.849  1.00  0.00     0.029 A 
ATOM     58  N   UNL A   1      42.965  29.632  29.313  1.00  0.00    -0.354 N 
ATOM     59  N   UNL A   1      45.771  28.849  28.996  1.00  0.00    -0.248 NA
ATOM     60  C   UNL A   1      48.045  29.375  29.018  1.00  0.00     0.031 C 
ATOM     61  C   UNL A   1      42.520  31.706  29.973  1.00  0.00     0.029 A 
ATOM     62  C   UNL A   1      43.554  30.836  29.664  1.00  0.00     0.049 A 
ATOM     63  H   UNL A   1      43.455  28.823  29.039  1.00  0.00     0.167 HD
ATOM     64  C   UNL A   1      45.927  30.177  29.372  1.00  0.00     0.074 A 
ATOM     65  C   UNL A   1      47.351  30.444  29.386  1.00  0.00     0.031 C 
ATOM     66  C   UNL A   1      44.973  31.088  29.685  1.00  0.00     0.037 A 
BRANCH  53  67
ATOM     67  C   UNL A   1      39.188  28.982  29.112  1.00  0.00     0.057 A 
ATOM     68  C   UNL A   1      38.490  29.436  27.984  1.00  0.00     0.134 A 
ATOM     69  C   UNL A   1      38.458  28.813  30.295  1.00  0.00     0.134 A 
ATOM     70  F   UNL A   1      39.129  29.627  26.820  1.00  0.00    -0.206 F 
ATOM     71  C   UNL A   1      37.132  29.754  28.045  1.00  0.00     0.040 A 
ATOM     72  C   UNL A   1      37.093  29.096  30.359  1.00  0.00     0.040 A 
ATOM     73  F   UNL A   1      39.059  28.370  31.410  1.00  0.00    -0.206 F 
ATOM     74  C   UNL A   1      36.429  29.581  29.235  1.00  0.00     0.006 A 
ENDBRANCH  53  67
BRANCH  54  75
ATOM     75  C   UNL A   1      48.839  26.662  28.212  1.00  0.00     0.057 A 
ATOM     76  C   UNL A   1      49.671  26.336  29.289  1.00  0.00     0.134 A 
ATOM     77  C   UNL A   1      49.400  26.623  26.930  1.00  0.00     0.134 A 
ATOM     78  F   UNL A   1      49.196  26.373  30.543  1.00  0.00    -0.206 F 
ATOM     79  C   UNL A   1      51.008  25.984  29.099  1.00  0.00     0.040 A 
ATOM     80  C   UNL A   1      50.730  26.251  26.723  1.00  0.00     0.040 A 
ATOM     81  F   UNL A   1      48.653  26.918  25.855  1.00  0.00    -0.206 F 
ATOM     82  C   UNL A   1      51.539  25.933  27.812  1.00  0.00     0.006 A 
ENDBRANCH  54  75
BRANCH  66  83
ATOM     83  C   UNL A   1      45.424  32.455  30.115  1.00  0.00     0.057 A 
ATOM     84  C   UNL A   1      45.531  33.520  29.213  1.00  0.00     0.134 A 
ATOM     85  C   UNL A   1      45.666  32.726  31.469  1.00  0.00     0.134 A 
ATOM     86  F   UNL A   1      45.325  33.324  27.902  1.00  0.00    -0.206 F 
ATOM     87  C   UNL A   1      45.865  34.806  29.641  1.00  0.00     0.040 A 
ATOM     88  C   UNL A   1      45.977  34.013  31.912  1.00  0.00     0.040 A 
ATOM     89  F   UNL A   1      45.573  31.752  32.386  1.00  0.00    -0.206 F 
ATOM     90  C   UNL A   1      46.077  35.058  30.996  1.00  0.00     0.006 A 
ENDBRANCH  66  83
ENDBRANCH  40  41
ENDBRANCH  32  35
ENDBRANCH  30  31
ENDBRANCH  29  30
ENDBRANCH  28  29
ENDBRANCH  27  28
ENDBRANCH  26  27
ENDBRANCH   1  26
TORSDOF 19
ENDMDL
MODEL 3
REMARK VINA RESULT:     -11.0      1.749      6.513
REMARK SMILES C[C@@H](SCCC(=O)NCCCCCCNC(=O)c1ccc(-c2c3nc(c(-c4c(F)cccc4F)c4ccc([nH]4)c(-c4c(F)cccc4F)c4nc(c(-c5c(F)cccc5F)c5ccc2[nH]5)C=C4)C=C3)cc1)C(=O)Nc1ccc(C(N)=O)cc1
REMARK SMILES IDX 9 1 8 2 6 3 7 4 5 6 4 7 3 8 2 9 1 10 72 11 73 12 74 13 75 15
REMARK SMILES IDX 76 16 83 17 77 18 82 19 78 20 79 21 80 22 81 23 10 26 11 27
REMARK SMILES IDX 12 28 13 29 14 30 15 31 16 32 17 34 18 35 19 36 71 37 20 38
REMARK SMILES IDX 70 39 21 40 22 41 23 42 64 43 24 44 69 45 63 46 65 47 25 48
REMARK SMILES IDX 68 49 62 50 61 51 26 53 52 54 35 55 51 56 36 57 39 58 50 59
REMARK SMILES IDX 66 60 37 61 38 62 49 64 67 65 40 66 27 67 28 68 33 69 29 70
REMARK SMILES IDX 30 71 32 72 34 73 31 74 53 75 54 76 59 77 55 78 56 79 58 80
REMARK SMILES IDX 60 81 57 82 41 83 42 84 47 85 43 86 44 87 46 88 48 89 45 90
REMARK H PARENT 8 5 74 14 80 24 80 25 15 33 65 52 39 63
REMARK Flexibility Score: inf
ROOT
ATOM      1  C   UNL A   1      33.563  30.700  27.075  1.00  0.00     0.116 C 
ENDROOT
BRANCH   1   2
ATOM      2  N   UNL A   1      32.766  29.624  27.638  1.00  0.00    -0.356 N 
ATOM      3  C   UNL A   1      31.912  28.737  27.063  1.00  0.00     0.220 C 
ATOM      4  O   UNL A   1      31.376  27.900  27.792  1.00  0.00    -0.275 OA
ATOM      5  H   UNL A   1      32.862  29.518  28.613  1.00  0.00     0.163 HD
BRANCH   3   6
ATOM      6  C   UNL A   1      31.641  28.770  25.577  1.00  0.00     0.111 C 
BRANCH   6   7
ATOM      7  C   UNL A   1      31.051  27.452  25.073  1.00  0.00     0.080 C 
BRANCH   7   8
ATOM      8  S   UNL A   1      31.786  26.855  23.499  1.00  0.00    -0.148 SA
BRANCH   8   9
ATOM      9  C   UNL A   1      32.635  25.329  24.059  1.00  0.00     0.133 C 
ATOM     10  C   UNL A   1      33.372  25.483  25.379  1.00  0.00     0.030 C 
BRANCH   9  11
ATOM     11  C   UNL A   1      33.414  24.693  22.890  1.00  0.00     0.237 C 
ATOM     12  O   UNL A   1      34.428  25.226  22.424  1.00  0.00    -0.273 OA
ATOM     13  N   UNL A   1      33.051  23.493  22.329  1.00  0.00    -0.325 N 
ATOM     14  H   UNL A   1      32.862  23.421  21.365  1.00  0.00     0.169 HD
BRANCH  13  15
ATOM     15  C   UNL A   1      32.956  22.374  23.165  1.00  0.00     0.041 A 
ATOM     16  C   UNL A   1      32.102  21.341  22.772  1.00  0.00     0.027 A 
ATOM     17  C   UNL A   1      33.786  22.243  24.270  1.00  0.00     0.027 A 
ATOM     18  C   UNL A   1      32.191  20.105  23.403  1.00  0.00     0.016 A 
ATOM     19  C   UNL A   1      33.888  21.002  24.890  1.00  0.00     0.016 A 
ATOM     20  C   UNL A   1      33.117  19.921  24.438  1.00  0.00     0.039 A 
BRANCH  20  21
ATOM     21  C   UNL A   1      33.386  18.583  25.016  1.00  0.00     0.248 C 
ATOM     22  N   UNL A   1      32.929  18.327  26.273  1.00  0.00    -0.366 N 
ATOM     23  O   UNL A   1      34.002  17.727  24.382  1.00  0.00    -0.270 OA
ATOM     24  H   UNL A   1      32.438  19.021  26.769  1.00  0.00     0.159 HD
ATOM     25  H   UNL A   1      33.091  17.449  26.686  1.00  0.00     0.159 HD
ENDBRANCH  20  21
ENDBRANCH  13  15
ENDBRANCH   9  11
ENDBRANCH   8   9
ENDBRANCH   7   8
ENDBRANCH   6   7
ENDBRANCH   3   6
ENDBRANCH   1   2
BRANCH   1  26
ATOM     26  C   UNL A   1      34.675  31.208  28.001  1.00  0.00     0.021 C 
BRANCH  26  27
ATOM     27  C   UNL A   1      34.851  32.741  28.016  1.00  0.00     0.002 C 
BRANCH  27  28
ATOM     28  C   UNL A   1      34.147  33.460  29.176  1.00  0.00     0.002 C 
BRANCH  28  29
ATOM     29  C   UNL A   1      33.099  34.506  28.784  1.00  0.00     0.021 C 
BRANCH  29  30
ATOM     30  C   UNL A   1      33.381  35.907  29.325  1.00  0.00     0.116 C 
BRANCH  30  31
ATOM     31  N   UNL A   1      32.563  36.248  30.481  1.00  0.00    -0.352 N 
ATOM     32  C   UNL A   1      32.689  35.887  31.799  1.00  0.00     0.251 C 
ATOM     33  H   UNL A   1      31.795  36.831  30.284  1.00  0.00     0.163 HD
ATOM     34  O   UNL A   1      31.809  36.179  32.603  1.00  0.00    -0.269 OA
BRANCH  32  35
ATOM     35  C   UNL A   1      33.865  35.119  32.262  1.00  0.00     0.039 A 
ATOM     36  C   UNL A   1      33.661  33.849  32.814  1.00  0.00     0.014 A 
ATOM     37  C   UNL A   1      35.154  35.652  32.199  1.00  0.00     0.014 A 
ATOM     38  C   UNL A   1      34.756  33.086  33.231  1.00  0.00     0.010 A 
ATOM     39  C   UNL A   1      36.249  34.867  32.557  1.00  0.00     0.010 A 
ATOM     40  C   UNL A   1      36.062  33.574  33.075  1.00  0.00    -0.014 A 
BRANCH  40  41
ATOM     41  C   UNL A   1      37.246  32.758  33.447  1.00  0.00     0.031 A 
ATOM     42  C   UNL A   1      37.997  33.048  34.716  1.00  0.00     0.074 A 
ATOM     43  C   UNL A   1      37.703  31.812  32.603  1.00  0.00     0.049 A 
ATOM     44  N   UNL A   1      39.121  32.539  35.150  1.00  0.00    -0.248 NA
ATOM     45  C   UNL A   1      37.417  34.070  35.599  1.00  0.00     0.031 C 
ATOM     46  C   UNL A   1      37.087  31.452  31.326  1.00  0.00     0.029 A 
ATOM     47  N   UNL A   1      38.807  31.000  32.681  1.00  0.00    -0.354 N 
ATOM     48  C   UNL A   1      39.396  33.194  36.344  1.00  0.00     0.074 A 
ATOM     49  C   UNL A   1      38.342  34.166  36.541  1.00  0.00     0.031 C 
ATOM     50  C   UNL A   1      37.823  30.495  30.739  1.00  0.00     0.029 A 
ATOM     51  C   UNL A   1      38.985  30.205  31.575  1.00  0.00     0.049 A 
ATOM     52  H   UNL A   1      39.415  30.988  33.456  1.00  0.00     0.167 HD
ATOM     53  C   UNL A   1      40.423  32.993  37.204  1.00  0.00     0.037 A 
ATOM     54  C   UNL A   1      39.981  29.357  31.254  1.00  0.00     0.037 A 
ATOM     55  C   UNL A   1      41.459  32.011  37.012  1.00  0.00     0.049 A 
ATOM     56  C   UNL A   1      41.123  29.158  32.212  1.00  0.00     0.074 A 
ATOM     57  C   UNL A   1      42.506  31.688  37.857  1.00  0.00     0.029 A 
ATOM     58  N   UNL A   1      41.586  31.204  35.892  1.00  0.00    -0.354 N 
ATOM     59  N   UNL A   1      41.338  29.737  33.368  1.00  0.00    -0.248 NA
ATOM     60  C   UNL A   1      42.157  28.187  31.826  1.00  0.00     0.031 C 
ATOM     61  C   UNL A   1      43.299  30.725  37.223  1.00  0.00     0.029 A 
ATOM     62  C   UNL A   1      42.711  30.405  36.009  1.00  0.00     0.049 A 
ATOM     63  H   UNL A   1      40.968  31.200  35.125  1.00  0.00     0.167 HD
ATOM     64  C   UNL A   1      42.512  29.180  33.861  1.00  0.00     0.074 A 
ATOM     65  C   UNL A   1      42.965  28.218  32.878  1.00  0.00     0.031 C 
ATOM     66  C   UNL A   1      43.149  29.441  35.029  1.00  0.00     0.037 A 
BRANCH  53  67
ATOM     67  C   UNL A   1      40.484  33.873  38.420  1.00  0.00     0.057 A 
ATOM     68  C   UNL A   1      41.264  35.037  38.459  1.00  0.00     0.134 A 
ATOM     69  C   UNL A   1      39.752  33.551  39.569  1.00  0.00     0.134 A 
ATOM     70  F   UNL A   1      41.997  35.401  37.395  1.00  0.00    -0.206 F 
ATOM     71  C   UNL A   1      41.348  35.823  39.610  1.00  0.00     0.040 A 
ATOM     72  C   UNL A   1      39.802  34.347  40.715  1.00  0.00     0.040 A 
ATOM     73  F   UNL A   1      38.975  32.458  39.599  1.00  0.00    -0.206 F 
ATOM     74  C   UNL A   1      40.613  35.479  40.742  1.00  0.00     0.006 A 
ENDBRANCH  53  67
BRANCH  54  75
ATOM     75  C   UNL A   1      39.931  28.633  29.960  1.00  0.00     0.057 A 
ATOM     76  C   UNL A   1      40.581  29.130  28.825  1.00  0.00     0.134 A 
ATOM     77  C   UNL A   1      39.266  27.407  29.837  1.00  0.00     0.134 A 
ATOM     78  F   UNL A   1      41.219  30.308  28.875  1.00  0.00    -0.206 F 
ATOM     79  C   UNL A   1      40.570  28.435  27.614  1.00  0.00     0.040 A 
ATOM     80  C   UNL A   1      39.267  26.690  28.639  1.00  0.00     0.040 A 
ATOM     81  F   UNL A   1      38.630  26.873  30.891  1.00  0.00    -0.206 F 
ATOM     82  C   UNL A   1      39.919  27.207  27.522  1.00  0.00     0.006 A 
ENDBRANCH  54  75
BRANCH  66  83
ATOM     83  C   UNL A   1      44.385  28.650  35.344  1.00  0.00     0.057 A 
ATOM     84  C   UNL A   1      44.329  27.416  36.003  1.00  0.00     0.134 A 
ATOM     85  C   UNL A   1      45.639  29.089  34.899  1.00  0.00     0.134 A 
ATOM     86  F   UNL A   1      43.161  26.944  36.466  1.00  0.00    -0.206 F 
ATOM     87  C   UNL A   1      45.477  26.648  36.211  1.00  0.00     0.040 A 
ATOM     88  C   UNL A   1      46.790  28.320  35.079  1.00  0.00     0.040 A 
ATOM     89  F   UNL A   1      45.761  30.259  34.254  1.00  0.00    -0.206 F 
ATOM     90  C   UNL A   1      46.710  27.095  35.736  1.00  0.00     0.006 A 
ENDBRANCH  66  83
ENDBRANCH  40  41
ENDBRANCH  32  35
ENDBRANCH  30  31
ENDBRANCH  29  30
ENDBRANCH  28  29
ENDBRANCH  27  28
ENDBRANCH  26  27
ENDBRANCH   1  26
TORSDOF 19
ENDMDL
