MODEL 1
REMARK VINA RESULT:     -12.4      0.000      0.000
REMARK SMILES O=C(NCCCCCCNC(=O)c1nnn(-c2cccc(C(F)(F)F)c2)c1[C@@H]1COc2ccccc2O1)c1ccc(-c2c3nc(c(-c4c(F)cccc4F)c4ccc([nH]4)c(-c4c(F)cccc4F)c4nc(c(-c5c(F)cccc5F)c5ccc2[nH]5)C=C4)C=C3)cc1
REMARK SMILES IDX 6 1 5 2 4 3 3 4 1 5 2 6 38 8 39 9 91 10 40 11 90 12 41 13
REMARK SMILES IDX 42 14 43 15 84 16 44 17 89 18 83 19 85 20 45 21 88 22 82 23
REMARK SMILES IDX 81 24 46 26 72 27 55 28 71 29 56 30 59 31 70 32 86 33 57 34
REMARK SMILES IDX 58 35 69 37 87 38 60 39 47 40 48 41 53 42 49 43 50 44 52 45
REMARK SMILES IDX 54 46 51 47 73 48 74 49 79 50 75 51 76 52 78 53 80 54 77 55
REMARK SMILES IDX 61 56 62 57 67 58 63 59 64 60 66 61 68 62 65 63 7 64 8 65
REMARK SMILES IDX 9 66 10 67 11 68 12 70 13 71 14 72 27 73 15 74 16 75 28 76
REMARK SMILES IDX 29 77 37 78 30 79 36 80 31 81 35 82 32 83 34 84 33 85 17 86
REMARK SMILES IDX 18 87 26 88 19 89 21 90 20 91 22 92 23 93 24 94 25 95
REMARK H PARENT 3 7 85 25 59 36 10 69
REMARK Flexibility Score: inf
ROOT
ATOM      1  C   UNL A   1      40.406  21.086  26.835  1.00  0.00     0.002 C 
ENDROOT
BRANCH   1   2
ATOM      2  C   UNL A   1      40.746  19.783  26.094  1.00  0.00     0.021 C 
BRANCH   2   3
ATOM      3  C   UNL A   1      42.128  19.191  26.372  1.00  0.00     0.116 C 
BRANCH   3   4
ATOM      4  N   UNL A   1      43.129  19.528  25.382  1.00  0.00    -0.352 N 
ATOM      5  O   UNL A   1      44.666  20.474  24.128  1.00  0.00    -0.269 OA
ATOM      6  C   UNL A   1      43.826  20.645  25.017  1.00  0.00     0.251 C 
ATOM      7  H   UNL A   1      43.371  18.751  24.829  1.00  0.00     0.163 HD
BRANCH   6   8
ATOM      8  C   UNL A   1      43.643  22.023  25.557  1.00  0.00     0.039 A 
ATOM      9  C   UNL A   1      42.931  23.061  24.956  1.00  0.00     0.014 A 
ATOM     10  C   UNL A   1      44.250  22.272  26.806  1.00  0.00     0.014 A 
ATOM     11  C   UNL A   1      42.865  24.319  25.567  1.00  0.00     0.010 A 
ATOM     12  C   UNL A   1      44.181  23.521  27.421  1.00  0.00     0.010 A 
ATOM     13  C   UNL A   1      43.505  24.559  26.791  1.00  0.00    -0.014 A 
BRANCH  13  14
ATOM     14  C   UNL A   1      43.337  25.867  27.433  1.00  0.00     0.031 A 
ATOM     15  C   UNL A   1      44.396  26.880  27.130  1.00  0.00     0.074 A 
ATOM     16  C   UNL A   1      42.243  26.255  28.121  1.00  0.00     0.049 A 
ATOM     17  N   UNL A   1      45.188  27.492  27.953  1.00  0.00    -0.248 NA
ATOM     18  C   UNL A   1      44.630  27.217  25.718  1.00  0.00     0.031 C 
ATOM     19  C   UNL A   1      40.959  25.563  28.256  1.00  0.00     0.029 A 
ATOM     20  N   UNL A   1      42.030  27.429  28.788  1.00  0.00    -0.354 N 
ATOM     21  C   UNL A   1      45.918  28.405  27.189  1.00  0.00     0.074 A 
ATOM     22  C   UNL A   1      45.604  28.122  25.811  1.00  0.00     0.031 C 
ATOM     23  C   UNL A   1      40.046  26.412  28.784  1.00  0.00     0.029 A 
ATOM     24  C   UNL A   1      40.710  27.650  29.155  1.00  0.00     0.049 A 
ATOM     25  H   UNL A   1      42.753  28.067  28.990  1.00  0.00     0.167 HD
ATOM     26  C   UNL A   1      46.609  29.437  27.748  1.00  0.00     0.037 A 
ATOM     27  C   UNL A   1      40.190  28.783  29.688  1.00  0.00     0.037 A 
ATOM     28  C   UNL A   1      46.842  29.227  29.150  1.00  0.00     0.049 A 
ATOM     29  C   UNL A   1      41.304  29.579  30.252  1.00  0.00     0.074 A 
ATOM     30  C   UNL A   1      47.507  28.276  29.899  1.00  0.00     0.029 A 
ATOM     31  N   UNL A   1      46.084  29.935  30.048  1.00  0.00    -0.354 N 
ATOM     32  N   UNL A   1      41.987  29.247  31.311  1.00  0.00    -0.248 NA
ATOM     33  C   UNL A   1      41.918  30.587  29.402  1.00  0.00     0.031 C 
ATOM     34  C   UNL A   1      46.733  28.138  31.088  1.00  0.00     0.029 A 
ATOM     35  C   UNL A   1      45.672  29.040  30.999  1.00  0.00     0.049 A 
ATOM     36  H   UNL A   1      45.877  30.897  30.016  1.00  0.00     0.167 HD
ATOM     37  C   UNL A   1      43.277  29.676  31.045  1.00  0.00     0.074 A 
ATOM     38  C   UNL A   1      43.151  30.585  29.911  1.00  0.00     0.031 C 
ATOM     39  C   UNL A   1      44.356  29.045  31.592  1.00  0.00     0.037 A 
BRANCH  26  40
ATOM     40  C   UNL A   1      46.817  30.788  27.107  1.00  0.00     0.057 A 
ATOM     41  C   UNL A   1      48.106  31.353  27.070  1.00  0.00     0.134 A 
ATOM     42  C   UNL A   1      45.767  31.676  26.799  1.00  0.00     0.134 A 
ATOM     43  F   UNL A   1      49.190  30.616  27.358  1.00  0.00    -0.206 F 
ATOM     44  C   UNL A   1      48.327  32.713  26.820  1.00  0.00     0.040 A 
ATOM     45  C   UNL A   1      45.980  33.025  26.497  1.00  0.00     0.040 A 
ATOM     46  F   UNL A   1      44.482  31.310  26.870  1.00  0.00    -0.206 F 
ATOM     47  C   UNL A   1      47.260  33.557  26.540  1.00  0.00     0.006 A 
ENDBRANCH  26  40
BRANCH  27  48
ATOM     48  C   UNL A   1      38.838  29.362  29.517  1.00  0.00     0.057 A 
ATOM     49  C   UNL A   1      38.331  29.674  28.246  1.00  0.00     0.134 A 
ATOM     50  C   UNL A   1      37.907  29.354  30.569  1.00  0.00     0.134 A 
ATOM     51  F   UNL A   1      39.133  29.667  27.171  1.00  0.00    -0.206 F 
ATOM     52  C   UNL A   1      36.971  29.935  28.031  1.00  0.00     0.040 A 
ATOM     53  C   UNL A   1      36.548  29.618  30.368  1.00  0.00     0.040 A 
ATOM     54  F   UNL A   1      38.269  28.995  31.809  1.00  0.00    -0.206 F 
ATOM     55  C   UNL A   1      36.073  29.895  29.093  1.00  0.00     0.006 A 
ENDBRANCH  27  48
BRANCH  39  56
ATOM     56  C   UNL A   1      44.119  28.065  32.704  1.00  0.00     0.057 A 
ATOM     57  C   UNL A   1      43.937  26.689  32.506  1.00  0.00     0.134 A 
ATOM     58  C   UNL A   1      44.257  28.505  34.025  1.00  0.00     0.134 A 
ATOM     59  F   UNL A   1      43.893  26.163  31.275  1.00  0.00    -0.206 F 
ATOM     60  C   UNL A   1      43.861  25.796  33.579  1.00  0.00     0.040 A 
ATOM     61  C   UNL A   1      44.217  27.620  35.104  1.00  0.00     0.040 A 
ATOM     62  F   UNL A   1      44.491  29.801  34.286  1.00  0.00    -0.206 F 
ATOM     63  C   UNL A   1      44.012  26.260  34.884  1.00  0.00     0.006 A 
ENDBRANCH  39  56
ENDBRANCH  13  14
ENDBRANCH   6   8
ENDBRANCH   3   4
ENDBRANCH   2   3
ENDBRANCH   1   2
BRANCH   1  64
ATOM     64  C   UNL A   1      39.335  22.001  26.223  1.00  0.00     0.002 C 
BRANCH  64  65
ATOM     65  C   UNL A   1      38.246  21.330  25.390  1.00  0.00     0.021 C 
BRANCH  65  66
ATOM     66  C   UNL A   1      36.959  22.123  25.174  1.00  0.00     0.116 C 
BRANCH  66  67
ATOM     67  N   UNL A   1      35.762  21.354  24.934  1.00  0.00    -0.351 N 
ATOM     68  C   UNL A   1      34.522  21.599  24.372  1.00  0.00     0.273 C 
ATOM     69  H   UNL A   1      35.850  20.424  25.246  1.00  0.00     0.163 HD
ATOM     70  O   UNL A   1      33.803  20.590  24.357  1.00  0.00    -0.267 OA
BRANCH  68  71
ATOM     71  C   UNL A   1      33.987  22.874  23.831  1.00  0.00     0.178 A 
ATOM     72  N   UNL A   1      33.423  22.807  22.561  1.00  0.00    -0.124 NA
ATOM     73  C   UNL A   1      33.825  24.194  24.273  1.00  0.00     0.122 A 
ATOM     74  N   UNL A   1      32.909  23.979  22.236  1.00  0.00    -0.061 NA
ATOM     75  N   UNL A   1      33.243  24.852  23.197  1.00  0.00    -0.213 N 
BRANCH  73  76
ATOM     76  C   UNL A   1      33.944  24.801  25.632  1.00  0.00     0.262 C 
ATOM     77  C   UNL A   1      32.686  24.449  26.460  1.00  0.00     0.281 C 
ATOM     78  O   UNL A   1      34.285  26.190  25.629  1.00  0.00    -0.477 OA
ATOM     79  O   UNL A   1      31.618  25.364  26.221  1.00  0.00    -0.485 OA
ATOM     80  C   UNL A   1      33.408  26.977  26.331  1.00  0.00     0.162 A 
ATOM     81  C   UNL A   1      32.078  26.609  26.552  1.00  0.00     0.161 A 
ATOM     82  C   UNL A   1      33.862  28.216  26.764  1.00  0.00     0.050 A 
ATOM     83  C   UNL A   1      31.176  27.500  27.115  1.00  0.00     0.050 A 
ATOM     84  C   UNL A   1      32.973  29.095  27.387  1.00  0.00     0.004 A 
ATOM     85  C   UNL A   1      31.627  28.747  27.539  1.00  0.00     0.004 A 
ENDBRANCH  73  76
BRANCH  75  86
ATOM     86  C   UNL A   1      32.971  26.223  23.036  1.00  0.00     0.067 A 
ATOM     87  C   UNL A   1      33.949  27.061  22.496  1.00  0.00     0.028 A 
ATOM     88  C   UNL A   1      31.672  26.688  23.276  1.00  0.00     0.041 A 
ATOM     89  C   UNL A   1      33.586  28.347  22.091  1.00  0.00     0.003 A 
ATOM     90  C   UNL A   1      31.313  27.987  22.892  1.00  0.00     0.058 A 
ATOM     91  C   UNL A   1      32.275  28.799  22.271  1.00  0.00     0.013 A 
BRANCH  90  92
ATOM     92  C   UNL A   1      29.893  28.467  23.055  1.00  0.00     0.416 C 
ATOM     93  F   UNL A   1      29.790  29.552  23.872  1.00  0.00    -0.166 F 
ATOM     94  F   UNL A   1      29.327  28.836  21.872  1.00  0.00    -0.166 F 
ATOM     95  F   UNL A   1      29.061  27.524  23.583  1.00  0.00    -0.166 F 
ENDBRANCH  90  92
ENDBRANCH  75  86
ENDBRANCH  68  71
ENDBRANCH  66  67
ENDBRANCH  65  66
ENDBRANCH  64  65
ENDBRANCH   1  64
TORSDOF 16
ENDMDL
MODEL 2
REMARK VINA RESULT:     -12.4      2.033      2.927
REMARK SMILES O=C(NCCCCCCNC(=O)c1nnn(-c2cccc(C(F)(F)F)c2)c1[C@@H]1COc2ccccc2O1)c1ccc(-c2c3nc(c(-c4c(F)cccc4F)c4ccc([nH]4)c(-c4c(F)cccc4F)c4nc(c(-c5c(F)cccc5F)c5ccc2[nH]5)C=C4)C=C3)cc1
REMARK SMILES IDX 6 1 5 2 4 3 3 4 1 5 2 6 38 8 39 9 91 10 40 11 90 12 41 13
REMARK SMILES IDX 42 14 43 15 84 16 44 17 89 18 83 19 85 20 45 21 88 22 82 23
REMARK SMILES IDX 81 24 46 26 72 27 55 28 71 29 56 30 59 31 70 32 86 33 57 34
REMARK SMILES IDX 58 35 69 37 87 38 60 39 47 40 48 41 53 42 49 43 50 44 52 45
REMARK SMILES IDX 54 46 51 47 73 48 74 49 79 50 75 51 76 52 78 53 80 54 77 55
REMARK SMILES IDX 61 56 62 57 67 58 63 59 64 60 66 61 68 62 65 63 7 64 8 65
REMARK SMILES IDX 9 66 10 67 11 68 12 70 13 71 14 72 27 73 15 74 16 75 28 76
REMARK SMILES IDX 29 77 37 78 30 79 36 80 31 81 35 82 32 83 34 84 33 85 17 86
REMARK SMILES IDX 18 87 26 88 19 89 21 90 20 91 22 92 23 93 24 94 25 95
REMARK H PARENT 3 7 85 25 59 36 10 69
REMARK Flexibility Score: inf
ROOT
ATOM      1  C   UNL A   1      38.723  23.211  26.456  1.00  0.00     0.002 C 
ENDROOT
BRANCH   1   2
ATOM      2  C   UNL A   1      39.336  21.855  26.071  1.00  0.00     0.021 C 
BRANCH   2   3
ATOM      3  C   UNL A   1      40.743  21.577  26.599  1.00  0.00     0.116 C 
BRANCH   3   4
ATOM      4  N   UNL A   1      41.806  22.030  25.726  1.00  0.00    -0.352 N 
ATOM      5  O   UNL A   1      43.390  23.134  24.678  1.00  0.00    -0.269 OA
ATOM      6  C   UNL A   1      42.468  23.202  25.496  1.00  0.00     0.251 C 
ATOM      7  H   UNL A   1      42.137  21.304  25.150  1.00  0.00     0.163 HD
BRANCH   6   8
ATOM      8  C   UNL A   1      42.163  24.529  26.103  1.00  0.00     0.039 A 
ATOM      9  C   UNL A   1      41.341  25.518  25.563  1.00  0.00     0.014 A 
ATOM     10  C   UNL A   1      42.769  24.780  27.353  1.00  0.00     0.014 A 
ATOM     11  C   UNL A   1      41.166  26.735  26.235  1.00  0.00     0.010 A 
ATOM     12  C   UNL A   1      42.591  25.986  28.027  1.00  0.00     0.010 A 
ATOM     13  C   UNL A   1      41.804  26.980  27.458  1.00  0.00    -0.014 A 
BRANCH  13  14
ATOM     14  C   UNL A   1      41.523  28.236  28.163  1.00  0.00     0.031 A 
ATOM     15  C   UNL A   1      42.554  29.309  28.015  1.00  0.00     0.074 A 
ATOM     16  C   UNL A   1      40.359  28.532  28.779  1.00  0.00     0.049 A 
ATOM     17  N   UNL A   1      43.246  29.898  28.939  1.00  0.00    -0.248 NA
ATOM     18  C   UNL A   1      42.887  29.748  26.651  1.00  0.00     0.031 C 
ATOM     19  C   UNL A   1      39.102  27.779  28.761  1.00  0.00     0.029 A 
ATOM     20  N   UNL A   1      40.037  29.649  29.497  1.00  0.00    -0.354 N 
ATOM     21  C   UNL A   1      43.993  30.889  28.297  1.00  0.00     0.074 A 
ATOM     22  C   UNL A   1      43.807  30.685  26.883  1.00  0.00     0.031 C 
ATOM     23  C   UNL A   1      38.110  28.552  29.262  1.00  0.00     0.029 A 
ATOM     24  C   UNL A   1      38.682  29.790  29.764  1.00  0.00     0.049 A 
ATOM     25  H   UNL A   1      40.710  30.302  29.800  1.00  0.00     0.167 HD
ATOM     26  C   UNL A   1      44.586  31.911  28.976  1.00  0.00     0.037 A 
ATOM     27  C   UNL A   1      38.067  30.863  30.320  1.00  0.00     0.037 A 
ATOM     28  C   UNL A   1      44.713  31.618  30.378  1.00  0.00     0.049 A 
ATOM     29  C   UNL A   1      39.093  31.666  31.025  1.00  0.00     0.074 A 
ATOM     30  C   UNL A   1      45.359  30.648  31.119  1.00  0.00     0.029 A 
ATOM     31  N   UNL A   1      43.852  32.233  31.250  1.00  0.00    -0.354 N 
ATOM     32  N   UNL A   1      39.702  31.294  32.116  1.00  0.00    -0.248 NA
ATOM     33  C   UNL A   1      39.727  32.753  30.295  1.00  0.00     0.031 C 
ATOM     34  C   UNL A   1      44.497  30.401  32.227  1.00  0.00     0.029 A 
ATOM     35  C   UNL A   1      43.406  31.261  32.106  1.00  0.00     0.049 A 
ATOM     36  H   UNL A   1      43.603  33.186  31.260  1.00  0.00     0.167 HD
ATOM     37  C   UNL A   1      40.988  31.792  31.988  1.00  0.00     0.074 A 
ATOM     38  C   UNL A   1      40.912  32.768  30.905  1.00  0.00     0.031 C 
ATOM     39  C   UNL A   1      42.047  31.173  32.583  1.00  0.00     0.037 A 
BRANCH  26  40
ATOM     40  C   UNL A   1      44.782  33.308  28.440  1.00  0.00     0.057 A 
ATOM     41  C   UNL A   1      43.661  34.118  28.176  1.00  0.00     0.134 A 
ATOM     42  C   UNL A   1      45.996  33.773  27.897  1.00  0.00     0.134 A 
ATOM     43  F   UNL A   1      42.443  33.778  28.625  1.00  0.00    -0.206 F 
ATOM     44  C   UNL A   1      43.730  35.262  27.370  1.00  0.00     0.040 A 
ATOM     45  C   UNL A   1      46.086  34.942  27.134  1.00  0.00     0.040 A 
ATOM     46  F   UNL A   1      47.133  33.074  27.993  1.00  0.00    -0.206 F 
ATOM     47  C   UNL A   1      44.946  35.673  26.839  1.00  0.00     0.006 A 
ENDBRANCH  26  40
BRANCH  27  48
ATOM     48  C   UNL A   1      36.708  31.395  30.072  1.00  0.00     0.057 A 
ATOM     49  C   UNL A   1      35.935  31.940  31.108  1.00  0.00     0.134 A 
ATOM     50  C   UNL A   1      36.254  31.643  28.766  1.00  0.00     0.134 A 
ATOM     51  F   UNL A   1      36.309  31.794  32.387  1.00  0.00    -0.206 F 
ATOM     52  C   UNL A   1      34.792  32.710  30.858  1.00  0.00     0.040 A 
ATOM     53  C   UNL A   1      35.111  32.405  28.503  1.00  0.00     0.040 A 
ATOM     54  F   UNL A   1      36.958  31.234  27.700  1.00  0.00    -0.206 F 
ATOM     55  C   UNL A   1      34.383  32.955  29.550  1.00  0.00     0.006 A 
ENDBRANCH  27  48
BRANCH  39  56
ATOM     56  C   UNL A   1      41.766  30.113  33.608  1.00  0.00     0.057 A 
ATOM     57  C   UNL A   1      41.576  28.758  33.299  1.00  0.00     0.134 A 
ATOM     58  C   UNL A   1      41.867  30.447  34.963  1.00  0.00     0.134 A 
ATOM     59  F   UNL A   1      41.566  28.329  32.029  1.00  0.00    -0.206 F 
ATOM     60  C   UNL A   1      41.459  27.785  34.296  1.00  0.00     0.040 A 
ATOM     61  C   UNL A   1      41.785  29.481  35.968  1.00  0.00     0.040 A 
ATOM     62  F   UNL A   1      42.105  31.716  35.331  1.00  0.00    -0.206 F 
ATOM     63  C   UNL A   1      41.573  28.145  35.637  1.00  0.00     0.006 A 
ENDBRANCH  39  56
ENDBRANCH  13  14
ENDBRANCH   6   8
ENDBRANCH   3   4
ENDBRANCH   2   3
ENDBRANCH   1   2
BRANCH   1  64
ATOM     64  C   UNL A   1      37.478  23.680  25.689  1.00  0.00     0.002 C 
BRANCH  64  65
ATOM     65  C   UNL A   1      36.595  22.597  25.075  1.00  0.00     0.021 C 
BRANCH  65  66
ATOM     66  C   UNL A   1      35.601  21.909  26.008  1.00  0.00     0.116 C 
BRANCH  66  67
ATOM     67  N   UNL A   1      34.514  21.198  25.378  1.00  0.00    -0.351 N 
ATOM     68  C   UNL A   1      33.487  21.525  24.512  1.00  0.00     0.273 C 
ATOM     69  H   UNL A   1      34.501  20.245  25.626  1.00  0.00     0.163 HD
ATOM     70  O   UNL A   1      32.792  20.543  24.214  1.00  0.00    -0.267 OA
BRANCH  68  71
ATOM     71  C   UNL A   1      33.139  22.853  23.948  1.00  0.00     0.178 A 
ATOM     72  N   UNL A   1      32.517  22.842  22.703  1.00  0.00    -0.124 NA
ATOM     73  C   UNL A   1      33.209  24.194  24.349  1.00  0.00     0.122 A 
ATOM     74  N   UNL A   1      32.183  24.072  22.358  1.00  0.00    -0.061 NA
ATOM     75  N   UNL A   1      32.693  24.906  23.273  1.00  0.00    -0.213 N 
BRANCH  73  76
ATOM     76  C   UNL A   1      33.483  24.812  25.680  1.00  0.00     0.262 C 
ATOM     77  C   UNL A   1      32.191  24.782  26.531  1.00  0.00     0.281 C 
ATOM     78  O   UNL A   1      34.124  26.089  25.617  1.00  0.00    -0.477 OA
ATOM     79  O   UNL A   1      31.350  25.902  26.262  1.00  0.00    -0.485 OA
ATOM     80  C   UNL A   1      33.455  27.079  26.291  1.00  0.00     0.162 A 
ATOM     81  C   UNL A   1      32.081  27.025  26.537  1.00  0.00     0.161 A 
ATOM     82  C   UNL A   1      34.180  28.202  26.668  1.00  0.00     0.050 A 
ATOM     83  C   UNL A   1      31.408  28.116  27.068  1.00  0.00     0.050 A 
ATOM     84  C   UNL A   1      33.519  29.280  27.260  1.00  0.00     0.004 A 
ATOM     85  C   UNL A   1      32.132  29.247  27.436  1.00  0.00     0.004 A 
ENDBRANCH  73  76
BRANCH  75  86
ATOM     86  C   UNL A   1      32.637  26.298  23.075  1.00  0.00     0.067 A 
ATOM     87  C   UNL A   1      33.770  26.975  22.619  1.00  0.00     0.028 A 
ATOM     88  C   UNL A   1      31.403  26.948  23.190  1.00  0.00     0.041 A 
ATOM     89  C   UNL A   1      33.634  28.290  22.170  1.00  0.00     0.003 A 
ATOM     90  C   UNL A   1      31.270  28.277  22.763  1.00  0.00     0.058 A 
ATOM     91  C   UNL A   1      32.391  28.929  22.225  1.00  0.00     0.013 A 
BRANCH  90  92
ATOM     92  C   UNL A   1      29.925  28.957  22.790  1.00  0.00     0.416 C 
ATOM     93  F   UNL A   1      28.887  28.079  22.867  1.00  0.00    -0.166 F 
ATOM     94  F   UNL A   1      29.785  29.794  23.857  1.00  0.00    -0.166 F 
ATOM     95  F   UNL A   1      29.684  29.722  21.688  1.00  0.00    -0.166 F 
ENDBRANCH  90  92
ENDBRANCH  75  86
ENDBRANCH  68  71
ENDBRANCH  66  67
ENDBRANCH  65  66
ENDBRANCH  64  65
ENDBRANCH   1  64
TORSDOF 16
ENDMDL
MODEL 3
REMARK VINA RESULT:     -12.4      1.045      1.800
REMARK SMILES O=C(NCCCCCCNC(=O)c1nnn(-c2cccc(C(F)(F)F)c2)c1[C@@H]1COc2ccccc2O1)c1ccc(-c2c3nc(c(-c4c(F)cccc4F)c4ccc([nH]4)c(-c4c(F)cccc4F)c4nc(c(-c5c(F)cccc5F)c5ccc2[nH]5)C=C4)C=C3)cc1
REMARK SMILES IDX 6 1 5 2 4 3 3 4 1 5 2 6 38 8 39 9 91 10 40 11 90 12 41 13
REMARK SMILES IDX 42 14 43 15 84 16 44 17 89 18 83 19 85 20 45 21 88 22 82 23
REMARK SMILES IDX 81 24 46 26 72 27 55 28 71 29 56 30 59 31 70 32 86 33 57 34
REMARK SMILES IDX 58 35 69 37 87 38 60 39 47 40 48 41 53 42 49 43 50 44 52 45
REMARK SMILES IDX 54 46 51 47 73 48 74 49 79 50 75 51 76 52 78 53 80 54 77 55
REMARK SMILES IDX 61 56 62 57 67 58 63 59 64 60 66 61 68 62 65 63 7 64 8 65
REMARK SMILES IDX 9 66 10 67 11 68 12 70 13 71 14 72 27 73 15 74 16 75 28 76
REMARK SMILES IDX 29 77 37 78 30 79 36 80 31 81 35 82 32 83 34 84 33 85 17 86
REMARK SMILES IDX 18 87 26 88 19 89 21 90 20 91 22 92 23 93 24 94 25 95
REMARK H PARENT 3 7 85 25 59 36 10 69
REMARK Flexibility Score: inf
ROOT
ATOM      1  C   UNL A   1      40.489  21.056  26.578  1.00  0.00     0.002 C 
ENDROOT
BRANCH   1   2
ATOM      2  C   UNL A   1      40.871  19.785  25.802  1.00  0.00     0.021 C 
BRANCH   2   3
ATOM      3  C   UNL A   1      42.191  19.125  26.199  1.00  0.00     0.116 C 
BRANCH   3   4
ATOM      4  N   UNL A   1      43.310  19.476  25.349  1.00  0.00    -0.352 N 
ATOM      5  O   UNL A   1      44.988  20.440  24.308  1.00  0.00    -0.269 OA
ATOM      6  C   UNL A   1      44.036  20.601  25.079  1.00  0.00     0.251 C 
ATOM      7  H   UNL A   1      43.629  18.702  24.831  1.00  0.00     0.163 HD
BRANCH   6   8
ATOM      8  C   UNL A   1      43.770  21.975  25.593  1.00  0.00     0.039 A 
ATOM      9  C   UNL A   1      43.104  22.997  24.918  1.00  0.00     0.014 A 
ATOM     10  C   UNL A   1      44.240  22.238  26.897  1.00  0.00     0.014 A 
ATOM     11  C   UNL A   1      42.949  24.255  25.515  1.00  0.00     0.010 A 
ATOM     12  C   UNL A   1      44.082  23.485  27.497  1.00  0.00     0.010 A 
ATOM     13  C   UNL A   1      43.453  24.508  26.798  1.00  0.00    -0.014 A 
BRANCH  13  14
ATOM     14  C   UNL A   1      43.194  25.814  27.414  1.00  0.00     0.031 A 
ATOM     15  C   UNL A   1      44.170  26.896  27.079  1.00  0.00     0.074 A 
ATOM     16  C   UNL A   1      42.080  26.133  28.106  1.00  0.00     0.049 A 
ATOM     17  N   UNL A   1      44.921  27.584  27.882  1.00  0.00    -0.248 NA
ATOM     18  C   UNL A   1      44.365  27.220  25.659  1.00  0.00     0.031 C 
ATOM     19  C   UNL A   1      40.853  25.350  28.268  1.00  0.00     0.029 A 
ATOM     20  N   UNL A   1      41.784  27.302  28.751  1.00  0.00    -0.354 N 
ATOM     21  C   UNL A   1      45.574  28.532  27.091  1.00  0.00     0.074 A 
ATOM     22  C   UNL A   1      45.270  28.198  25.723  1.00  0.00     0.031 C 
ATOM     23  C   UNL A   1      39.883  26.138  28.789  1.00  0.00     0.029 A 
ATOM     24  C   UNL A   1      40.455  27.430  29.127  1.00  0.00     0.049 A 
ATOM     25  H   UNL A   1      42.459  27.996  28.933  1.00  0.00     0.167 HD
ATOM     26  C   UNL A   1      46.190  29.626  27.622  1.00  0.00     0.037 A 
ATOM     27  C   UNL A   1      39.855  28.533  29.642  1.00  0.00     0.037 A 
ATOM     28  C   UNL A   1      46.450  29.463  29.026  1.00  0.00     0.049 A 
ATOM     29  C   UNL A   1      40.912  29.421  30.178  1.00  0.00     0.074 A 
ATOM     30  C   UNL A   1      47.192  28.581  29.787  1.00  0.00     0.029 A 
ATOM     31  N   UNL A   1      45.650  30.131  29.917  1.00  0.00    -0.354 N 
ATOM     32  N   UNL A   1      41.627  29.164  31.236  1.00  0.00    -0.248 NA
ATOM     33  C   UNL A   1      41.440  30.455  29.302  1.00  0.00     0.031 C 
ATOM     34  C   UNL A   1      46.441  28.411  30.986  1.00  0.00     0.029 A 
ATOM     35  C   UNL A   1      45.315  29.228  30.891  1.00  0.00     0.049 A 
ATOM     36  H   UNL A   1      45.370  31.074  29.867  1.00  0.00     0.167 HD
ATOM     37  C   UNL A   1      42.879  29.683  30.949  1.00  0.00     0.074 A 
ATOM     38  C   UNL A   1      42.675  30.556  29.797  1.00  0.00     0.031 C 
ATOM     39  C   UNL A   1      44.007  29.147  31.497  1.00  0.00     0.037 A 
BRANCH  26  40
ATOM     40  C   UNL A   1      46.290  30.975  26.951  1.00  0.00     0.057 A 
ATOM     41  C   UNL A   1      47.526  31.647  26.917  1.00  0.00     0.134 A 
ATOM     42  C   UNL A   1      45.172  31.760  26.609  1.00  0.00     0.134 A 
ATOM     43  F   UNL A   1      48.665  31.014  27.237  1.00  0.00    -0.206 F 
ATOM     44  C   UNL A   1      47.632  33.016  26.637  1.00  0.00     0.040 A 
ATOM     45  C   UNL A   1      45.272  33.116  26.278  1.00  0.00     0.040 A 
ATOM     46  F   UNL A   1      43.922  31.287  26.672  1.00  0.00    -0.206 F 
ATOM     47  C   UNL A   1      46.500  33.757  26.324  1.00  0.00     0.006 A 
ENDBRANCH  26  40
BRANCH  27  48
ATOM     48  C   UNL A   1      38.462  29.005  29.473  1.00  0.00     0.057 A 
ATOM     49  C   UNL A   1      37.594  29.128  30.569  1.00  0.00     0.134 A 
ATOM     50  C   UNL A   1      38.043  29.616  28.280  1.00  0.00     0.134 A 
ATOM     51  F   UNL A   1      37.925  28.614  31.763  1.00  0.00    -0.206 F 
ATOM     52  C   UNL A   1      36.392  29.843  30.489  1.00  0.00     0.040 A 
ATOM     53  C   UNL A   1      36.842  30.327  28.186  1.00  0.00     0.040 A 
ATOM     54  F   UNL A   1      38.830  29.624  27.195  1.00  0.00    -0.206 F 
ATOM     55  C   UNL A   1      36.018  30.456  29.296  1.00  0.00     0.006 A 
ENDBRANCH  27  48
BRANCH  39  56
ATOM     56  C   UNL A   1      43.855  28.176  32.631  1.00  0.00     0.057 A 
ATOM     57  C   UNL A   1      43.663  28.558  33.966  1.00  0.00     0.134 A 
ATOM     58  C   UNL A   1      43.720  26.815  32.334  1.00  0.00     0.134 A 
ATOM     59  F   UNL A   1      43.674  29.848  34.329  1.00  0.00    -0.206 F 
ATOM     60  C   UNL A   1      43.384  27.622  34.967  1.00  0.00     0.040 A 
ATOM     61  C   UNL A   1      43.409  25.874  33.317  1.00  0.00     0.040 A 
ATOM     62  F   UNL A   1      43.835  26.384  31.068  1.00  0.00    -0.206 F 
ATOM     63  C   UNL A   1      43.246  26.275  34.641  1.00  0.00     0.006 A 
ENDBRANCH  39  56
ENDBRANCH  13  14
ENDBRANCH   6   8
ENDBRANCH   3   4
ENDBRANCH   2   3
ENDBRANCH   1   2
BRANCH   1  64
ATOM     64  C   UNL A   1      39.212  21.798  26.155  1.00  0.00     0.002 C 
BRANCH  64  65
ATOM     65  C   UNL A   1      38.163  20.993  25.394  1.00  0.00     0.021 C 
BRANCH  65  66
ATOM     66  C   UNL A   1      36.785  21.632  25.238  1.00  0.00     0.116 C 
BRANCH  66  67
ATOM     67  N   UNL A   1      35.649  20.754  25.378  1.00  0.00    -0.351 N 
ATOM     68  C   UNL A   1      34.307  20.809  25.047  1.00  0.00     0.273 C 
ATOM     69  H   UNL A   1      35.888  19.906  25.817  1.00  0.00     0.163 HD
ATOM     70  O   UNL A   1      33.705  19.768  25.347  1.00  0.00    -0.267 OA
BRANCH  68  71
ATOM     71  C   UNL A   1      33.553  21.923  24.420  1.00  0.00     0.178 A 
ATOM     72  N   UNL A   1      32.802  21.595  23.296  1.00  0.00    -0.124 NA
ATOM     73  C   UNL A   1      33.320  23.282  24.675  1.00  0.00     0.122 A 
ATOM     74  N   UNL A   1      32.115  22.647  22.892  1.00  0.00    -0.061 NA
ATOM     75  N   UNL A   1      32.501  23.696  23.632  1.00  0.00    -0.213 N 
BRANCH  73  76
ATOM     76  C   UNL A   1      33.589  24.119  25.881  1.00  0.00     0.262 C 
ATOM     77  C   UNL A   1      32.384  24.027  26.846  1.00  0.00     0.281 C 
ATOM     78  O   UNL A   1      34.017  25.452  25.589  1.00  0.00    -0.477 OA
ATOM     79  O   UNL A   1      31.361  24.963  26.511  1.00  0.00    -0.485 OA
ATOM     80  C   UNL A   1      33.254  26.423  26.186  1.00  0.00     0.162 A 
ATOM     81  C   UNL A   1      31.926  26.208  26.564  1.00  0.00     0.161 A 
ATOM     82  C   UNL A   1      33.820  27.681  26.341  1.00  0.00     0.050 A 
ATOM     83  C   UNL A   1      31.132  27.256  27.007  1.00  0.00     0.050 A 
ATOM     84  C   UNL A   1      33.045  28.727  26.844  1.00  0.00     0.004 A 
ATOM     85  C   UNL A   1      31.696  28.521  27.153  1.00  0.00     0.004 A 
ENDBRANCH  73  76
BRANCH  75  86
ATOM     86  C   UNL A   1      32.056  24.992  23.312  1.00  0.00     0.067 A 
ATOM     87  C   UNL A   1      30.709  25.319  23.482  1.00  0.00     0.028 A 
ATOM     88  C   UNL A   1      33.002  25.969  22.981  1.00  0.00     0.041 A 
ATOM     89  C   UNL A   1      30.329  26.661  23.424  1.00  0.00     0.003 A 
ATOM     90  C   UNL A   1      32.617  27.314  22.899  1.00  0.00     0.058 A 
ATOM     91  C   UNL A   1      31.278  27.652  23.152  1.00  0.00     0.013 A 
BRANCH  90  92
ATOM     92  C   UNL A   1      33.644  28.388  22.638  1.00  0.00     0.416 C 
ATOM     93  F   UNL A   1      33.158  29.645  22.836  1.00  0.00    -0.166 F 
ATOM     94  F   UNL A   1      34.732  28.277  23.450  1.00  0.00    -0.166 F 
ATOM     95  F   UNL A   1      34.130  28.373  21.365  1.00  0.00    -0.166 F 
ENDBRANCH  90  92
ENDBRANCH  75  86
ENDBRANCH  68  71
ENDBRANCH  66  67
ENDBRANCH  65  66
ENDBRANCH  64  65
ENDBRANCH   1  64
TORSDOF 16
ENDMDL
