MODEL 1
REMARK VINA RESULT:     -10.4      0.000      0.000
REMARK SMILES CCc1cc(C[NH+]2CCC(CC(=O)NCCCCCCNC(=O)c3ccc(-c4c5nc(c(-c6c(F)cccc6F)c6ccc([nH]6)c(-c6c(F)cccc6F)c6nc(c(-c7c(F)cccc7F)c7ccc4[nH]7)C=C6)C=C5)cc3)CC2)n(C)n1
REMARK SMILES IDX 16 1 15 2 14 3 12 4 13 5 11 7 10 8 7 9 8 10 79 11 9 13 78 14
REMARK SMILES IDX 6 15 5 16 3 17 4 18 82 19 80 20 81 21 2 22 1 23 17 24 18 25
REMARK SMILES IDX 19 26 20 27 21 28 22 29 23 31 24 32 25 33 77 34 26 35 76 36
REMARK SMILES IDX 27 37 28 38 29 39 70 40 30 41 75 42 69 43 71 44 31 45 74 46
REMARK SMILES IDX 68 47 67 48 32 50 58 51 41 52 57 53 42 54 45 55 56 56 72 57
REMARK SMILES IDX 43 58 44 59 55 61 73 62 46 63 33 64 34 65 39 66 35 67 36 68
REMARK SMILES IDX 38 69 40 70 37 71 59 72 60 73 65 74 61 75 62 76 64 77 66 78
REMARK SMILES IDX 63 79 47 80 48 81 53 82 49 83 50 84 52 85 54 86 51 87
REMARK H PARENT 14 6 7 12 21 30 71 49 45 60
REMARK Flexibility Score: inf
ROOT
ATOM      1  C   UNL A   1      31.912  30.046  25.333  1.00  0.00     0.021 C 
ENDROOT
BRANCH   1   2
ATOM      2  C   UNL A   1      30.595  29.992  24.546  1.00  0.00     0.116 C 
BRANCH   2   3
ATOM      3  N   UNL A   1      30.789  29.382  23.240  1.00  0.00    -0.356 N 
ATOM      4  C   UNL A   1      30.657  28.089  22.825  1.00  0.00     0.220 C 
ATOM      5  O   UNL A   1      30.966  27.820  21.662  1.00  0.00    -0.275 OA
ATOM      6  H   UNL A   1      31.064  30.011  22.533  1.00  0.00     0.163 HD
BRANCH   4   7
ATOM      7  C   UNL A   1      30.150  27.002  23.761  1.00  0.00     0.104 C 
BRANCH   7   8
ATOM      8  C   UNL A   1      31.242  26.452  24.697  1.00  0.00     0.009 C 
ATOM      9  N   UNL A   1      32.589  24.091  25.850  1.00  0.00    -0.330 N 
ATOM     10  C   UNL A   1      31.652  24.875  26.653  1.00  0.00     0.262 C 
ATOM     11  C   UNL A   1      33.288  24.948  24.882  1.00  0.00     0.262 C 
ATOM     12  H   UNL A   1      32.054  23.412  25.309  1.00  0.00     0.348 HD
ATOM     13  C   UNL A   1      30.628  25.576  25.784  1.00  0.00     0.066 C 
ATOM     14  C   UNL A   1      32.296  25.638  23.931  1.00  0.00     0.066 C 
BRANCH   9  15
ATOM     15  C   UNL A   1      33.501  23.286  26.686  1.00  0.00     0.319 C 
BRANCH  15  16
ATOM     16  C   UNL A   1      34.643  22.690  25.930  1.00  0.00     0.093 A 
ATOM     17  C   UNL A   1      36.613  21.859  25.349  1.00  0.00     0.063 A 
ATOM     18  C   UNL A   1      35.999  22.883  26.097  1.00  0.00     0.055 A 
ATOM     19  N   UNL A   1      35.722  21.176  24.626  1.00  0.00    -0.178 NA
ATOM     20  N   UNL A   1      34.533  21.712  24.968  1.00  0.00    -0.267 N 
ATOM     21  C   UNL A   1      33.349  21.111  24.399  1.00  0.00     0.174 C 
BRANCH  17  22
ATOM     22  C   UNL A   1      38.045  21.453  25.380  1.00  0.00     0.055 C 
ATOM     23  C   UNL A   1      38.895  22.477  26.126  1.00  0.00     0.011 C 
ENDBRANCH  17  22
ENDBRANCH  15  16
ENDBRANCH   9  15
ENDBRANCH   7   8
ENDBRANCH   4   7
ENDBRANCH   2   3
ENDBRANCH   1   2
BRANCH   1  24
ATOM     24  C   UNL A   1      31.763  30.049  26.854  1.00  0.00     0.002 C 
BRANCH  24  25
ATOM     25  C   UNL A   1      32.390  28.855  27.574  1.00  0.00     0.002 C 
BRANCH  25  26
ATOM     26  C   UNL A   1      33.603  28.214  26.888  1.00  0.00     0.021 C 
BRANCH  26  27
ATOM     27  C   UNL A   1      34.937  28.936  27.072  1.00  0.00     0.116 C 
BRANCH  27  28
ATOM     28  N   UNL A   1      34.946  29.802  28.238  1.00  0.00    -0.352 N 
ATOM     29  C   UNL A   1      35.948  30.094  29.128  1.00  0.00     0.251 C 
ATOM     30  H   UNL A   1      34.090  30.255  28.419  1.00  0.00     0.163 HD
ATOM     31  O   UNL A   1      35.683  30.716  30.153  1.00  0.00    -0.269 OA
BRANCH  29  32
ATOM     32  C   UNL A   1      37.342  29.663  28.880  1.00  0.00     0.039 A 
ATOM     33  C   UNL A   1      38.087  29.174  29.958  1.00  0.00     0.014 A 
ATOM     34  C   UNL A   1      37.945  29.803  27.626  1.00  0.00     0.014 A 
ATOM     35  C   UNL A   1      39.416  28.789  29.771  1.00  0.00     0.010 A 
ATOM     36  C   UNL A   1      39.255  29.363  27.426  1.00  0.00     0.010 A 
ATOM     37  C   UNL A   1      40.007  28.864  28.500  1.00  0.00    -0.014 A 
BRANCH  37  38
ATOM     38  C   UNL A   1      41.413  28.434  28.298  1.00  0.00     0.031 A 
ATOM     39  C   UNL A   1      41.736  27.009  27.941  1.00  0.00     0.074 A 
ATOM     40  C   UNL A   1      42.410  29.327  28.454  1.00  0.00     0.049 A 
ATOM     41  N   UNL A   1      42.898  26.463  27.687  1.00  0.00    -0.248 NA
ATOM     42  C   UNL A   1      40.606  26.069  27.887  1.00  0.00     0.031 C 
ATOM     43  C   UNL A   1      42.234  30.726  28.846  1.00  0.00     0.029 A 
ATOM     44  N   UNL A   1      43.765  29.192  28.293  1.00  0.00    -0.354 N 
ATOM     45  C   UNL A   1      42.644  25.118  27.455  1.00  0.00     0.074 A 
ATOM     46  C   UNL A   1      41.223  24.920  27.648  1.00  0.00     0.031 C 
ATOM     47  C   UNL A   1      43.433  31.332  28.852  1.00  0.00     0.029 A 
ATOM     48  C   UNL A   1      44.459  30.361  28.487  1.00  0.00     0.049 A 
ATOM     49  H   UNL A   1      44.198  28.339  28.061  1.00  0.00     0.167 HD
ATOM     50  C   UNL A   1      43.508  24.139  27.093  1.00  0.00     0.037 A 
ATOM     51  C   UNL A   1      45.773  30.625  28.363  1.00  0.00     0.037 A 
ATOM     52  C   UNL A   1      44.916  24.340  26.873  1.00  0.00     0.049 A 
ATOM     53  C   UNL A   1      46.710  29.531  27.937  1.00  0.00     0.074 A 
ATOM     54  C   UNL A   1      45.862  23.430  26.436  1.00  0.00     0.029 A 
ATOM     55  N   UNL A   1      45.581  25.541  27.073  1.00  0.00    -0.354 N 
ATOM     56  N   UNL A   1      46.443  28.281  27.646  1.00  0.00    -0.248 NA
ATOM     57  C   UNL A   1      48.130  29.888  27.815  1.00  0.00     0.031 C 
ATOM     58  C   UNL A   1      47.107  24.071  26.405  1.00  0.00     0.029 A 
ATOM     59  C   UNL A   1      46.928  25.390  26.787  1.00  0.00     0.049 A 
ATOM     60  H   UNL A   1      45.159  26.377  27.375  1.00  0.00     0.167 HD
ATOM     61  C   UNL A   1      47.653  27.711  27.274  1.00  0.00     0.074 A 
ATOM     62  C   UNL A   1      48.654  28.754  27.370  1.00  0.00     0.031 C 
ATOM     63  C   UNL A   1      47.912  26.439  26.883  1.00  0.00     0.037 A 
BRANCH  50  64
ATOM     64  C   UNL A   1      42.946  22.759  26.915  1.00  0.00     0.057 A 
ATOM     65  C   UNL A   1      42.590  21.960  28.009  1.00  0.00     0.134 A 
ATOM     66  C   UNL A   1      42.750  22.226  25.635  1.00  0.00     0.134 A 
ATOM     67  F   UNL A   1      42.765  22.406  29.262  1.00  0.00    -0.206 F 
ATOM     68  C   UNL A   1      42.090  20.667  27.837  1.00  0.00     0.040 A 
ATOM     69  C   UNL A   1      42.226  20.945  25.450  1.00  0.00     0.040 A 
ATOM     70  F   UNL A   1      43.063  22.940  24.543  1.00  0.00    -0.206 F 
ATOM     71  C   UNL A   1      41.904  20.158  26.554  1.00  0.00     0.006 A 
ENDBRANCH  50  64
BRANCH  51  72
ATOM     72  C   UNL A   1      46.270  32.005  28.576  1.00  0.00     0.057 A 
ATOM     73  C   UNL A   1      46.711  32.417  29.839  1.00  0.00     0.134 A 
ATOM     74  C   UNL A   1      46.327  32.937  27.535  1.00  0.00     0.134 A 
ATOM     75  F   UNL A   1      46.663  31.571  30.879  1.00  0.00    -0.206 F 
ATOM     76  C   UNL A   1      47.181  33.712  30.063  1.00  0.00     0.040 A 
ATOM     77  C   UNL A   1      46.812  34.229  27.740  1.00  0.00     0.040 A 
ATOM     78  F   UNL A   1      45.924  32.598  26.301  1.00  0.00    -0.206 F 
ATOM     79  C   UNL A   1      47.237  34.621  29.008  1.00  0.00     0.006 A 
ENDBRANCH  51  72
BRANCH  63  80
ATOM     80  C   UNL A   1      49.326  26.119  26.500  1.00  0.00     0.057 A 
ATOM     81  C   UNL A   1      50.220  25.530  27.402  1.00  0.00     0.134 A 
ATOM     82  C   UNL A   1      49.792  26.391  25.207  1.00  0.00     0.134 A 
ATOM     83  F   UNL A   1      49.838  25.258  28.658  1.00  0.00    -0.206 F 
ATOM     84  C   UNL A   1      51.537  25.244  27.038  1.00  0.00     0.040 A 
ATOM     85  C   UNL A   1      51.100  26.090  24.826  1.00  0.00     0.040 A 
ATOM     86  F   UNL A   1      48.983  26.950  24.295  1.00  0.00    -0.206 F 
ATOM     87  C   UNL A   1      51.978  25.521  25.746  1.00  0.00     0.006 A 
ENDBRANCH  63  80
ENDBRANCH  37  38
ENDBRANCH  29  32
ENDBRANCH  27  28
ENDBRANCH  26  27
ENDBRANCH  25  26
ENDBRANCH  24  25
ENDBRANCH   1  24
TORSDOF 17
ENDMDL
MODEL 2
REMARK VINA RESULT:     -10.3      6.191      8.568
REMARK SMILES CCc1cc(C[NH+]2CCC(CC(=O)NCCCCCCNC(=O)c3ccc(-c4c5nc(c(-c6c(F)cccc6F)c6ccc([nH]6)c(-c6c(F)cccc6F)c6nc(c(-c7c(F)cccc7F)c7ccc4[nH]7)C=C6)C=C5)cc3)CC2)n(C)n1
REMARK SMILES IDX 16 1 15 2 14 3 12 4 13 5 11 7 10 8 7 9 8 10 79 11 9 13 78 14
REMARK SMILES IDX 6 15 5 16 3 17 4 18 82 19 80 20 81 21 2 22 1 23 17 24 18 25
REMARK SMILES IDX 19 26 20 27 21 28 22 29 23 31 24 32 25 33 77 34 26 35 76 36
REMARK SMILES IDX 27 37 28 38 29 39 70 40 30 41 75 42 69 43 71 44 31 45 74 46
REMARK SMILES IDX 68 47 67 48 32 50 58 51 41 52 57 53 42 54 45 55 56 56 72 57
REMARK SMILES IDX 43 58 44 59 55 61 73 62 46 63 33 64 34 65 39 66 35 67 36 68
REMARK SMILES IDX 38 69 40 70 37 71 59 72 60 73 65 74 61 75 62 76 64 77 66 78
REMARK SMILES IDX 63 79 47 80 48 81 53 82 49 83 50 84 52 85 54 86 51 87
REMARK H PARENT 14 6 7 12 21 30 71 49 45 60
REMARK Flexibility Score: inf
ROOT
ATOM      1  C   UNL A   1      34.204  32.050  27.692  1.00  0.00     0.021 C 
ENDROOT
BRANCH   1   2
ATOM      2  C   UNL A   1      33.833  30.561  27.628  1.00  0.00     0.116 C 
BRANCH   2   3
ATOM      3  N   UNL A   1      32.745  30.332  26.691  1.00  0.00    -0.356 N 
ATOM      4  C   UNL A   1      32.261  29.181  26.141  1.00  0.00     0.220 C 
ATOM      5  O   UNL A   1      31.367  29.275  25.297  1.00  0.00    -0.275 OA
ATOM      6  H   UNL A   1      32.275  31.149  26.404  1.00  0.00     0.163 HD
BRANCH   4   7
ATOM      7  C   UNL A   1      32.806  27.819  26.544  1.00  0.00     0.104 C 
BRANCH   7   8
ATOM      8  C   UNL A   1      32.568  26.733  25.478  1.00  0.00     0.009 C 
ATOM      9  N   UNL A   1      33.521  24.264  24.169  1.00  0.00    -0.330 N 
ATOM     10  C   UNL A   1      33.633  25.554  23.489  1.00  0.00     0.262 C 
ATOM     11  C   UNL A   1      32.336  24.236  25.038  1.00  0.00     0.262 C 
ATOM     12  H   UNL A   1      34.334  24.152  24.774  1.00  0.00     0.348 HD
ATOM     13  C   UNL A   1      33.720  26.697  24.479  1.00  0.00     0.066 C 
ATOM     14  C   UNL A   1      32.403  25.341  26.106  1.00  0.00     0.066 C 
BRANCH   9  15
ATOM     15  C   UNL A   1      33.583  23.131  23.225  1.00  0.00     0.319 C 
BRANCH  15  16
ATOM     16  C   UNL A   1      33.467  21.794  23.881  1.00  0.00     0.093 A 
ATOM     17  C   UNL A   1      33.039  19.665  24.321  1.00  0.00     0.063 A 
ATOM     18  C   UNL A   1      32.503  20.820  23.718  1.00  0.00     0.055 A 
ATOM     19  N   UNL A   1      34.178  19.930  24.965  1.00  0.00    -0.178 NA
ATOM     20  N   UNL A   1      34.409  21.234  24.713  1.00  0.00    -0.267 N 
ATOM     21  C   UNL A   1      35.639  21.797  25.219  1.00  0.00     0.174 C 
BRANCH  17  22
ATOM     22  C   UNL A   1      32.527  18.271  24.215  1.00  0.00     0.055 C 
ATOM     23  C   UNL A   1      32.541  17.784  22.770  1.00  0.00     0.011 C 
ENDBRANCH  17  22
ENDBRANCH  15  16
ENDBRANCH   9  15
ENDBRANCH   7   8
ENDBRANCH   4   7
ENDBRANCH   2   3
ENDBRANCH   1   2
BRANCH   1  24
ATOM     24  C   UNL A   1      34.662  32.550  29.061  1.00  0.00     0.002 C 
BRANCH  24  25
ATOM     25  C   UNL A   1      34.632  34.067  29.247  1.00  0.00     0.002 C 
BRANCH  25  26
ATOM     26  C   UNL A   1      33.261  34.739  29.089  1.00  0.00     0.021 C 
BRANCH  26  27
ATOM     27  C   UNL A   1      33.158  36.178  29.594  1.00  0.00     0.116 C 
BRANCH  27  28
ATOM     28  N   UNL A   1      32.314  36.298  30.769  1.00  0.00    -0.352 N 
ATOM     29  C   UNL A   1      32.444  35.757  32.023  1.00  0.00     0.251 C 
ATOM     30  H   UNL A   1      31.516  36.861  30.646  1.00  0.00     0.163 HD
ATOM     31  O   UNL A   1      31.511  35.842  32.817  1.00  0.00    -0.269 OA
BRANCH  29  32
ATOM     32  C   UNL A   1      33.685  35.062  32.432  1.00  0.00     0.039 A 
ATOM     33  C   UNL A   1      33.588  33.742  32.887  1.00  0.00     0.014 A 
ATOM     34  C   UNL A   1      34.924  35.711  32.446  1.00  0.00     0.014 A 
ATOM     35  C   UNL A   1      34.731  33.064  33.314  1.00  0.00     0.010 A 
ATOM     36  C   UNL A   1      36.075  35.014  32.816  1.00  0.00     0.010 A 
ATOM     37  C   UNL A   1      35.988  33.688  33.266  1.00  0.00    -0.014 A 
BRANCH  37  38
ATOM     38  C   UNL A   1      37.206  32.959  33.700  1.00  0.00     0.031 A 
ATOM     39  C   UNL A   1      37.835  31.921  32.812  1.00  0.00     0.074 A 
ATOM     40  C   UNL A   1      37.741  33.219  34.908  1.00  0.00     0.049 A 
ATOM     41  N   UNL A   1      38.920  31.215  33.005  1.00  0.00    -0.248 NA
ATOM     42  C   UNL A   1      37.139  31.618  31.552  1.00  0.00     0.031 C 
ATOM     43  C   UNL A   1      37.200  34.167  35.884  1.00  0.00     0.029 A 
ATOM     44  N   UNL A   1      38.862  32.716  35.517  1.00  0.00    -0.354 N 
ATOM     45  C   UNL A   1      39.032  30.379  31.903  1.00  0.00     0.074 A 
ATOM     46  C   UNL A   1      37.876  30.630  31.067  1.00  0.00     0.031 C 
ATOM     47  C   UNL A   1      38.014  34.210  36.951  1.00  0.00     0.029 A 
ATOM     48  C   UNL A   1      39.120  33.279  36.743  1.00  0.00     0.049 A 
ATOM     49  H   UNL A   1      39.428  32.019  35.114  1.00  0.00     0.167 HD
ATOM     50  C   UNL A   1      40.016  29.498  31.599  1.00  0.00     0.037 A 
ATOM     51  C   UNL A   1      40.143  33.082  37.595  1.00  0.00     0.037 A 
ATOM     52  C   UNL A   1      41.180  29.269  32.415  1.00  0.00     0.049 A 
ATOM     53  C   UNL A   1      41.235  32.119  37.227  1.00  0.00     0.074 A 
ATOM     54  C   UNL A   1      42.267  28.451  32.160  1.00  0.00     0.029 A 
ATOM     55  N   UNL A   1      41.408  29.863  33.647  1.00  0.00    -0.354 N 
ATOM     56  N   UNL A   1      41.367  31.392  36.145  1.00  0.00    -0.248 NA
ATOM     57  C   UNL A   1      42.326  31.956  38.199  1.00  0.00     0.031 C 
ATOM     58  C   UNL A   1      43.137  28.524  33.255  1.00  0.00     0.029 A 
ATOM     59  C   UNL A   1      42.609  29.416  34.174  1.00  0.00     0.049 A 
ATOM     60  H   UNL A   1      40.805  30.508  34.083  1.00  0.00     0.167 HD
ATOM     61  C   UNL A   1      42.568  30.712  36.288  1.00  0.00     0.074 A 
ATOM     62  C   UNL A   1      43.131  31.118  37.560  1.00  0.00     0.031 C 
ATOM     63  C   UNL A   1      43.157  29.833  35.440  1.00  0.00     0.037 A 
BRANCH  50  64
ATOM     64  C   UNL A   1      39.869  28.716  30.327  1.00  0.00     0.057 A 
ATOM     65  C   UNL A   1      39.142  27.520  30.275  1.00  0.00     0.134 A 
ATOM     66  C   UNL A   1      40.452  29.169  29.137  1.00  0.00     0.134 A 
ATOM     67  F   UNL A   1      38.569  27.024  31.382  1.00  0.00    -0.206 F 
ATOM     68  C   UNL A   1      39.028  26.785  29.093  1.00  0.00     0.040 A 
ATOM     69  C   UNL A   1      40.325  28.456  27.943  1.00  0.00     0.040 A 
ATOM     70  F   UNL A   1      41.157  30.310  29.114  1.00  0.00    -0.206 F 
ATOM     71  C   UNL A   1      39.618  27.255  27.922  1.00  0.00     0.006 A 
ENDBRANCH  50  64
BRANCH  51  72
ATOM     72  C   UNL A   1      40.219  33.869  38.849  1.00  0.00     0.057 A 
ATOM     73  C   UNL A   1      39.543  33.445  39.999  1.00  0.00     0.134 A 
ATOM     74  C   UNL A   1      40.967  35.048  38.935  1.00  0.00     0.134 A 
ATOM     75  F   UNL A   1      38.796  32.331  39.970  1.00  0.00    -0.206 F 
ATOM     76  C   UNL A   1      39.599  34.171  41.190  1.00  0.00     0.040 A 
ATOM     77  C   UNL A   1      41.047  35.774  40.124  1.00  0.00     0.040 A 
ATOM     78  F   UNL A   1      41.640  35.501  37.868  1.00  0.00    -0.206 F 
ATOM     79  C   UNL A   1      40.359  35.338  41.255  1.00  0.00     0.006 A 
ENDBRANCH  51  72
BRANCH  63  80
ATOM     80  C   UNL A   1      44.490  29.281  35.848  1.00  0.00     0.057 A 
ATOM     81  C   UNL A   1      44.603  28.101  36.594  1.00  0.00     0.134 A 
ATOM     82  C   UNL A   1      45.674  29.931  35.478  1.00  0.00     0.134 A 
ATOM     83  F   UNL A   1      43.507  27.439  36.991  1.00  0.00    -0.206 F 
ATOM     84  C   UNL A   1      45.848  27.600  36.978  1.00  0.00     0.040 A 
ATOM     85  C   UNL A   1      46.924  29.429  35.838  1.00  0.00     0.040 A 
ATOM     86  F   UNL A   1      45.633  31.063  34.759  1.00  0.00    -0.206 F 
ATOM     87  C   UNL A   1      47.013  28.262  36.596  1.00  0.00     0.006 A 
ENDBRANCH  63  80
ENDBRANCH  37  38
ENDBRANCH  29  32
ENDBRANCH  27  28
ENDBRANCH  26  27
ENDBRANCH  25  26
ENDBRANCH  24  25
ENDBRANCH   1  24
TORSDOF 17
ENDMDL
MODEL 3
REMARK VINA RESULT:     -10.2      4.120      8.217
REMARK SMILES CCc1cc(C[NH+]2CCC(CC(=O)NCCCCCCNC(=O)c3ccc(-c4c5nc(c(-c6c(F)cccc6F)c6ccc([nH]6)c(-c6c(F)cccc6F)c6nc(c(-c7c(F)cccc7F)c7ccc4[nH]7)C=C6)C=C5)cc3)CC2)n(C)n1
REMARK SMILES IDX 16 1 15 2 14 3 12 4 13 5 11 7 10 8 7 9 8 10 79 11 9 13 78 14
REMARK SMILES IDX 6 15 5 16 3 17 4 18 82 19 80 20 81 21 2 22 1 23 17 24 18 25
REMARK SMILES IDX 19 26 20 27 21 28 22 29 23 31 24 32 25 33 77 34 26 35 76 36
REMARK SMILES IDX 27 37 28 38 29 39 70 40 30 41 75 42 69 43 71 44 31 45 74 46
REMARK SMILES IDX 68 47 67 48 32 50 58 51 41 52 57 53 42 54 45 55 56 56 72 57
REMARK SMILES IDX 43 58 44 59 55 61 73 62 46 63 33 64 34 65 39 66 35 67 36 68
REMARK SMILES IDX 38 69 40 70 37 71 59 72 60 73 65 74 61 75 62 76 64 77 66 78
REMARK SMILES IDX 63 79 47 80 48 81 53 82 49 83 50 84 52 85 54 86 51 87
REMARK H PARENT 14 6 7 12 21 30 71 49 45 60
REMARK Flexibility Score: inf
ROOT
ATOM      1  C   UNL A   1      32.517  29.475  25.187  1.00  0.00     0.021 C 
ENDROOT
BRANCH   1   2
ATOM      2  C   UNL A   1      31.020  29.806  25.094  1.00  0.00     0.116 C 
BRANCH   2   3
ATOM      3  N   UNL A   1      30.612  30.002  23.711  1.00  0.00    -0.356 N 
ATOM      4  C   UNL A   1      30.055  29.143  22.810  1.00  0.00     0.220 C 
ATOM      5  O   UNL A   1      29.879  29.548  21.658  1.00  0.00    -0.275 OA
ATOM      6  H   UNL A   1      30.764  30.912  23.367  1.00  0.00     0.163 HD
BRANCH   4   7
ATOM      7  C   UNL A   1      29.666  27.725  23.200  1.00  0.00     0.104 C 
BRANCH   7   8
ATOM      8  C   UNL A   1      30.869  26.769  23.287  1.00  0.00     0.009 C 
ATOM      9  N   UNL A   1      32.256  24.392  22.218  1.00  0.00    -0.330 N 
ATOM     10  C   UNL A   1      31.520  24.315  23.479  1.00  0.00     0.262 C 
ATOM     11  C   UNL A   1      32.826  25.734  22.029  1.00  0.00     0.262 C 
ATOM     12  H   UNL A   1      31.597  24.242  21.454  1.00  0.00     0.348 HD
ATOM     13  C   UNL A   1      30.404  25.338  23.532  1.00  0.00     0.066 C 
ATOM     14  C   UNL A   1      31.725  26.808  22.013  1.00  0.00     0.066 C 
BRANCH   9  15
ATOM     15  C   UNL A   1      33.251  23.309  22.087  1.00  0.00     0.319 C 
BRANCH  15  16
ATOM     16  C   UNL A   1      33.067  22.200  23.071  1.00  0.00     0.093 A 
ATOM     17  C   UNL A   1      32.761  20.222  24.022  1.00  0.00     0.063 A 
ATOM     18  C   UNL A   1      32.341  21.032  22.948  1.00  0.00     0.055 A 
ATOM     19  N   UNL A   1      33.561  20.888  24.858  1.00  0.00    -0.178 NA
ATOM     20  N   UNL A   1      33.714  22.098  24.281  1.00  0.00    -0.267 N 
ATOM     21  C   UNL A   1      34.612  23.027  24.925  1.00  0.00     0.174 C 
BRANCH  17  22
ATOM     22  C   UNL A   1      32.484  18.773  24.221  1.00  0.00     0.055 C 
ATOM     23  C   UNL A   1      32.350  18.046  22.886  1.00  0.00     0.011 C 
ENDBRANCH  17  22
ENDBRANCH  15  16
ENDBRANCH   9  15
ENDBRANCH   7   8
ENDBRANCH   4   7
ENDBRANCH   2   3
ENDBRANCH   1   2
BRANCH   1  24
ATOM     24  C   UNL A   1      33.073  29.363  26.606  1.00  0.00     0.002 C 
BRANCH  24  25
ATOM     25  C   UNL A   1      33.616  30.662  27.201  1.00  0.00     0.002 C 
BRANCH  25  26
ATOM     26  C   UNL A   1      32.570  31.716  27.586  1.00  0.00     0.021 C 
BRANCH  26  27
ATOM     27  C   UNL A   1      32.704  33.075  26.899  1.00  0.00     0.116 C 
BRANCH  27  28
ATOM     28  N   UNL A   1      32.474  34.184  27.807  1.00  0.00    -0.352 N 
ATOM     29  C   UNL A   1      33.150  34.569  28.937  1.00  0.00     0.251 C 
ATOM     30  H   UNL A   1      31.706  34.754  27.573  1.00  0.00     0.163 HD
ATOM     31  O   UNL A   1      32.671  35.439  29.660  1.00  0.00    -0.269 OA
BRANCH  29  32
ATOM     32  C   UNL A   1      34.442  33.948  29.306  1.00  0.00     0.039 A 
ATOM     33  C   UNL A   1      35.564  34.236  28.523  1.00  0.00     0.014 A 
ATOM     34  C   UNL A   1      34.546  33.035  30.360  1.00  0.00     0.014 A 
ATOM     35  C   UNL A   1      36.793  33.643  28.818  1.00  0.00     0.010 A 
ATOM     36  C   UNL A   1      35.787  32.489  30.693  1.00  0.00     0.010 A 
ATOM     37  C   UNL A   1      36.920  32.778  29.916  1.00  0.00    -0.014 A 
BRANCH  37  38
ATOM     38  C   UNL A   1      38.232  32.166  30.244  1.00  0.00     0.031 A 
ATOM     39  C   UNL A   1      39.165  32.828  31.218  1.00  0.00     0.074 A 
ATOM     40  C   UNL A   1      38.595  31.014  29.646  1.00  0.00     0.049 A 
ATOM     41  N   UNL A   1      40.330  32.421  31.656  1.00  0.00    -0.248 NA
ATOM     42  C   UNL A   1      38.747  34.133  31.753  1.00  0.00     0.031 C 
ATOM     43  C   UNL A   1      37.802  30.296  28.647  1.00  0.00     0.029 A 
ATOM     44  N   UNL A   1      39.718  30.242  29.800  1.00  0.00    -0.354 N 
ATOM     45  C   UNL A   1      40.789  33.419  32.505  1.00  0.00     0.074 A 
ATOM     46  C   UNL A   1      39.799  34.475  32.483  1.00  0.00     0.031 C 
ATOM     47  C   UNL A   1      38.443  29.165  28.310  1.00  0.00     0.029 A 
ATOM     48  C   UNL A   1      39.698  29.091  29.051  1.00  0.00     0.049 A 
ATOM     49  H   UNL A   1      40.465  30.489  30.391  1.00  0.00     0.167 HD
ATOM     50  C   UNL A   1      41.918  33.447  33.253  1.00  0.00     0.037 A 
ATOM     51  C   UNL A   1      40.584  28.079  28.985  1.00  0.00     0.037 A 
ATOM     52  C   UNL A   1      42.888  32.385  33.298  1.00  0.00     0.049 A 
ATOM     53  C   UNL A   1      41.817  28.120  29.841  1.00  0.00     0.074 A 
ATOM     54  C   UNL A   1      44.028  32.287  34.077  1.00  0.00     0.029 A 
ATOM     55  N   UNL A   1      42.830  31.232  32.529  1.00  0.00    -0.354 N 
ATOM     56  N   UNL A   1      42.200  29.035  30.698  1.00  0.00    -0.248 NA
ATOM     57  C   UNL A   1      42.738  26.980  29.726  1.00  0.00     0.031 C 
ATOM     58  C   UNL A   1      44.679  31.090  33.754  1.00  0.00     0.029 A 
ATOM     59  C   UNL A   1      43.924  30.426  32.801  1.00  0.00     0.049 A 
ATOM     60  H   UNL A   1      42.118  31.018  31.885  1.00  0.00     0.167 HD
ATOM     61  C   UNL A   1      43.385  28.569  31.248  1.00  0.00     0.074 A 
ATOM     62  C   UNL A   1      43.656  27.285  30.633  1.00  0.00     0.031 C 
ATOM     63  C   UNL A   1      44.178  29.149  32.183  1.00  0.00     0.037 A 
BRANCH  50  64
ATOM     64  C   UNL A   1      42.161  34.674  34.083  1.00  0.00     0.057 A 
ATOM     65  C   UNL A   1      42.797  35.807  33.559  1.00  0.00     0.134 A 
ATOM     66  C   UNL A   1      41.746  34.727  35.419  1.00  0.00     0.134 A 
ATOM     67  F   UNL A   1      43.231  35.816  32.289  1.00  0.00    -0.206 F 
ATOM     68  C   UNL A   1      43.041  36.936  34.343  1.00  0.00     0.040 A 
ATOM     69  C   UNL A   1      41.962  35.860  36.207  1.00  0.00     0.040 A 
ATOM     70  F   UNL A   1      41.125  33.680  35.983  1.00  0.00    -0.206 F 
ATOM     71  C   UNL A   1      42.619  36.965  35.670  1.00  0.00     0.006 A 
ENDBRANCH  50  64
BRANCH  51  72
ATOM     72  C   UNL A   1      40.297  26.905  28.127  1.00  0.00     0.057 A 
ATOM     73  C   UNL A   1      40.842  26.813  26.841  1.00  0.00     0.134 A 
ATOM     74  C   UNL A   1      39.489  25.851  28.565  1.00  0.00     0.134 A 
ATOM     75  F   UNL A   1      41.611  27.801  26.361  1.00  0.00    -0.206 F 
ATOM     76  C   UNL A   1      40.584  25.718  26.015  1.00  0.00     0.040 A 
ATOM     77  C   UNL A   1      39.238  24.742  27.757  1.00  0.00     0.040 A 
ATOM     78  F   UNL A   1      38.944  25.881  29.790  1.00  0.00    -0.206 F 
ATOM     79  C   UNL A   1      39.783  24.674  26.476  1.00  0.00     0.006 A 
ENDBRANCH  51  72
BRANCH  63  80
ATOM     80  C   UNL A   1      45.390  28.382  32.618  1.00  0.00     0.057 A 
ATOM     81  C   UNL A   1      46.633  28.552  31.996  1.00  0.00     0.134 A 
ATOM     82  C   UNL A   1      45.316  27.474  33.682  1.00  0.00     0.134 A 
ATOM     83  F   UNL A   1      46.767  29.396  30.963  1.00  0.00    -0.206 F 
ATOM     84  C   UNL A   1      47.755  27.827  32.402  1.00  0.00     0.040 A 
ATOM     85  C   UNL A   1      46.435  26.759  34.110  1.00  0.00     0.040 A 
ATOM     86  F   UNL A   1      44.155  27.270  34.323  1.00  0.00    -0.206 F 
ATOM     87  C   UNL A   1      47.658  26.931  33.464  1.00  0.00     0.006 A 
ENDBRANCH  63  80
ENDBRANCH  37  38
ENDBRANCH  29  32
ENDBRANCH  27  28
ENDBRANCH  26  27
ENDBRANCH  25  26
ENDBRANCH  24  25
ENDBRANCH   1  24
TORSDOF 17
ENDMDL
