MODEL 1
REMARK VINA RESULT:     -11.2      0.000      0.000
REMARK SMILES CC[C@H](Oc1cccc(/C=C2\SC(=S)N(NC(=O)c3cccc(O)c3)C2=O)c1)C(=O)NCCCCCCNC(=O)c1ccc(-c2c3nc(c(-c4c(F)cccc4F)c4ccc([nH]4)c(-c4c(F)cccc4F)c4nc(c(-c5c(F)cccc5F)c5ccc2[nH]5)C=C4)C=C3)cc1
REMARK SMILES IDX 32 1 31 2 29 3 30 4 3 6 2 7 1 8 4 9 5 10 6 11 28 12 7 13
REMARK SMILES IDX 9 14 8 15 10 16 11 17 12 18 26 19 13 20 15 21 27 22 14 23
REMARK SMILES IDX 16 24 17 25 18 27 19 28 20 29 25 30 21 31 23 32 22 33 24 34
REMARK SMILES IDX 33 36 34 37 35 38 36 39 37 40 38 41 39 42 40 44 41 45 42 46
REMARK SMILES IDX 94 47 43 48 93 49 44 50 45 51 46 52 87 53 47 54 92 55 86 56
REMARK SMILES IDX 88 57 48 58 91 59 85 60 84 61 49 63 75 64 58 65 74 66 59 67
REMARK SMILES IDX 62 68 73 69 89 70 60 71 61 72 72 74 90 75 63 76 50 77 51 78
REMARK SMILES IDX 56 79 52 80 53 81 55 82 57 83 54 84 76 85 77 86 82 87 78 88
REMARK SMILES IDX 79 89 81 90 83 91 80 92 64 93 65 94 70 95 66 96 67 97 69 98
REMARK SMILES IDX 71 99 68 100
REMARK H PARENT 31 5 16 26 24 35 38 43 88 62 62 73
REMARK Flexibility Score: inf
ROOT
ATOM      1  C   UNL A   1      39.014  30.380  28.813  1.00  0.00     0.116 C 
ENDROOT
BRANCH   1   2
ATOM      2  N   UNL A   1      38.090  29.755  29.744  1.00  0.00    -0.353 N 
ATOM      3  C   UNL A   1      36.731  29.883  29.847  1.00  0.00     0.261 C 
ATOM      4  O   UNL A   1      36.171  29.310  30.786  1.00  0.00    -0.271 OA
ATOM      5  H   UNL A   1      38.503  29.149  30.399  1.00  0.00     0.163 HD
BRANCH   3   6
ATOM      6  C   UNL A   1      35.914  30.611  28.757  1.00  0.00     0.261 C 
BRANCH   6   7
ATOM      7  C   UNL A   1      35.622  32.017  29.302  1.00  0.00     0.052 C 
ATOM      8  C   UNL A   1      36.235  33.112  28.431  1.00  0.00     0.008 C 
ENDBRANCH   6   7
BRANCH   6   9
ATOM      9  O   UNL A   1      34.876  29.713  28.358  1.00  0.00    -0.481 OA
BRANCH   9  10
ATOM     10  C   UNL A   1      33.953  29.852  27.374  1.00  0.00     0.121 A 
ATOM     11  C   UNL A   1      32.908  30.763  27.301  1.00  0.00     0.046 A 
ATOM     12  C   UNL A   1      34.017  28.838  26.403  1.00  0.00     0.054 A 
ATOM     13  C   UNL A   1      31.969  30.703  26.271  1.00  0.00     0.004 A 
ATOM     14  C   UNL A   1      33.030  28.710  25.417  1.00  0.00    -0.021 A 
ATOM     15  C   UNL A   1      32.031  29.683  25.332  1.00  0.00     0.008 A 
BRANCH  14  16
ATOM     16  C   UNL A   1      32.900  27.583  24.488  1.00  0.00     0.029 C 
ATOM     17  C   UNL A   1      32.224  26.442  24.675  1.00  0.00     0.082 C 
ATOM     18  S   UNL A   1      31.509  25.799  26.100  1.00  0.00    -0.052 SA
ATOM     19  C   UNL A   1      31.957  25.537  23.525  1.00  0.00     0.285 C 
ATOM     20  C   UNL A   1      31.211  24.238  25.344  1.00  0.00     0.168 C 
ATOM     21  N   UNL A   1      31.592  24.295  24.016  1.00  0.00    -0.198 N 
ATOM     22  O   UNL A   1      31.976  25.909  22.362  1.00  0.00    -0.266 OA
ATOM     23  S   UNL A   1      30.538  22.945  26.155  1.00  0.00    -0.050 S 
BRANCH  21  24
ATOM     24  N   UNL A   1      31.384  23.194  23.170  1.00  0.00    -0.255 N 
ATOM     25  C   UNL A   1      32.246  22.139  22.944  1.00  0.00     0.270 C 
ATOM     26  H   UNL A   1      30.529  23.171  22.684  1.00  0.00     0.192 HD
ATOM     27  O   UNL A   1      31.893  21.201  22.235  1.00  0.00    -0.267 OA
BRANCH  25  28
ATOM     28  C   UNL A   1      33.622  22.145  23.481  1.00  0.00     0.045 A 
ATOM     29  C   UNL A   1      34.576  22.898  22.780  1.00  0.00     0.014 A 
ATOM     30  C   UNL A   1      33.964  21.489  24.668  1.00  0.00     0.060 A 
ATOM     31  C   UNL A   1      35.857  23.055  23.303  1.00  0.00     0.005 A 
ATOM     32  C   UNL A   1      35.246  21.668  25.182  1.00  0.00     0.116 A 
ATOM     33  C   UNL A   1      36.187  22.450  24.515  1.00  0.00     0.046 A 
BRANCH  32  34
ATOM     34  O   UNL A   1      35.624  21.110  26.367  1.00  0.00    -0.508 OA
ATOM     35  H   UNL A   1      35.039  21.127  27.100  1.00  0.00     0.293 HD
ENDBRANCH  32  34
ENDBRANCH  25  28
ENDBRANCH  21  24
ENDBRANCH  14  16
ENDBRANCH   9  10
ENDBRANCH   6   9
ENDBRANCH   3   6
ENDBRANCH   1   2
BRANCH   1  36
ATOM     36  C   UNL A   1      40.144  29.423  28.431  1.00  0.00     0.021 C 
BRANCH  36  37
ATOM     37  C   UNL A   1      39.680  28.193  27.638  1.00  0.00     0.002 C 
BRANCH  37  38
ATOM     38  C   UNL A   1      40.416  26.887  27.961  1.00  0.00     0.002 C 
BRANCH  38  39
ATOM     39  C   UNL A   1      39.608  25.603  27.750  1.00  0.00     0.021 C 
BRANCH  39  40
ATOM     40  C   UNL A   1      39.815  24.917  26.401  1.00  0.00     0.116 C 
BRANCH  40  41
ATOM     41  N   UNL A   1      40.552  23.671  26.521  1.00  0.00    -0.352 N 
ATOM     42  C   UNL A   1      41.904  23.437  26.481  1.00  0.00     0.251 C 
ATOM     43  H   UNL A   1      39.996  22.869  26.653  1.00  0.00     0.163 HD
ATOM     44  O   UNL A   1      42.323  22.283  26.442  1.00  0.00    -0.269 OA
BRANCH  42  45
ATOM     45  C   UNL A   1      42.866  24.562  26.459  1.00  0.00     0.039 A 
ATOM     46  C   UNL A   1      43.483  24.934  27.658  1.00  0.00     0.014 A 
ATOM     47  C   UNL A   1      43.132  25.277  25.288  1.00  0.00     0.014 A 
ATOM     48  C   UNL A   1      44.408  25.980  27.672  1.00  0.00     0.010 A 
ATOM     49  C   UNL A   1      44.095  26.289  25.291  1.00  0.00     0.010 A 
ATOM     50  C   UNL A   1      44.743  26.647  26.483  1.00  0.00    -0.014 A 
BRANCH  50  51
ATOM     51  C   UNL A   1      45.782  27.708  26.475  1.00  0.00     0.031 A 
ATOM     52  C   UNL A   1      45.401  29.154  26.622  1.00  0.00     0.074 A 
ATOM     53  C   UNL A   1      47.072  27.368  26.292  1.00  0.00     0.049 A 
ATOM     54  N   UNL A   1      46.166  30.215  26.597  1.00  0.00    -0.248 NA
ATOM     55  C   UNL A   1      43.970  29.448  26.802  1.00  0.00     0.031 C 
ATOM     56  C   UNL A   1      47.568  26.004  26.093  1.00  0.00     0.029 A 
ATOM     57  N   UNL A   1      48.202  28.144  26.236  1.00  0.00    -0.354 N 
ATOM     58  C   UNL A   1      45.315  31.301  26.750  1.00  0.00     0.074 A 
ATOM     59  C   UNL A   1      43.969  30.773  26.827  1.00  0.00     0.031 C 
ATOM     60  C   UNL A   1      48.904  26.040  25.953  1.00  0.00     0.029 A 
ATOM     61  C   UNL A   1      49.354  27.426  26.027  1.00  0.00     0.049 A 
ATOM     62  H   UNL A   1      48.188  29.124  26.334  1.00  0.00     0.167 HD
ATOM     63  C   UNL A   1      45.627  32.616  26.836  1.00  0.00     0.037 A 
ATOM     64  C   UNL A   1      50.630  27.838  25.909  1.00  0.00     0.037 A 
ATOM     65  C   UNL A   1      46.965  33.144  26.785  1.00  0.00     0.049 A 
ATOM     66  C   UNL A   1      50.949  29.301  26.027  1.00  0.00     0.074 A 
ATOM     67  C   UNL A   1      47.379  34.460  26.907  1.00  0.00     0.029 A 
ATOM     68  N   UNL A   1      48.106  32.381  26.601  1.00  0.00    -0.354 N 
ATOM     69  N   UNL A   1      50.135  30.311  26.218  1.00  0.00    -0.248 NA
ATOM     70  C   UNL A   1      52.364  29.680  25.918  1.00  0.00     0.031 C 
ATOM     71  C   UNL A   1      48.772  34.494  26.774  1.00  0.00     0.029 A 
ATOM     72  C   UNL A   1      49.226  33.199  26.597  1.00  0.00     0.049 A 
ATOM     73  H   UNL A   1      48.121  31.402  26.489  1.00  0.00     0.167 HD
ATOM     74  C   UNL A   1      50.940  31.440  26.272  1.00  0.00     0.074 A 
ATOM     75  C   UNL A   1      52.307  30.991  26.109  1.00  0.00     0.031 C 
ATOM     76  C   UNL A   1      50.578  32.735  26.438  1.00  0.00     0.037 A 
BRANCH  63  77
ATOM     77  C   UNL A   1      44.495  33.583  27.011  1.00  0.00     0.057 A 
ATOM     78  C   UNL A   1      44.060  33.980  28.282  1.00  0.00     0.134 A 
ATOM     79  C   UNL A   1      43.865  34.159  25.901  1.00  0.00     0.134 A 
ATOM     80  F   UNL A   1      44.617  33.455  29.384  1.00  0.00    -0.206 F 
ATOM     81  C   UNL A   1      43.029  34.905  28.443  1.00  0.00     0.040 A 
ATOM     82  C   UNL A   1      42.844  35.100  26.049  1.00  0.00     0.040 A 
ATOM     83  F   UNL A   1      44.238  33.824  24.656  1.00  0.00    -0.206 F 
ATOM     84  C   UNL A   1      42.422  35.473  27.324  1.00  0.00     0.006 A 
ENDBRANCH  63  77
BRANCH  64  85
ATOM     85  C   UNL A   1      51.711  26.848  25.687  1.00  0.00     0.057 A 
ATOM     86  C   UNL A   1      52.147  26.536  24.394  1.00  0.00     0.134 A 
ATOM     87  C   UNL A   1      52.318  26.180  26.755  1.00  0.00     0.134 A 
ATOM     88  F   UNL A   1      51.586  27.131  23.331  1.00  0.00    -0.206 F 
ATOM     89  C   UNL A   1      53.137  25.580  24.170  1.00  0.00     0.040 A 
ATOM     90  C   UNL A   1      53.323  25.235  26.547  1.00  0.00     0.040 A 
ATOM     91  F   UNL A   1      51.945  26.440  28.016  1.00  0.00    -0.206 F 
ATOM     92  C   UNL A   1      53.731  24.929  25.250  1.00  0.00     0.006 A 
ENDBRANCH  64  85
BRANCH  76  93
ATOM     93  C   UNL A   1      51.681  33.750  26.470  1.00  0.00     0.057 A 
ATOM     94  C   UNL A   1      52.151  34.359  25.301  1.00  0.00     0.134 A 
ATOM     95  C   UNL A   1      52.262  34.134  27.683  1.00  0.00     0.134 A 
ATOM     96  F   UNL A   1      51.643  34.021  24.105  1.00  0.00    -0.206 F 
ATOM     97  C   UNL A   1      53.179  35.303  25.335  1.00  0.00     0.040 A 
ATOM     98  C   UNL A   1      53.277  35.090  27.733  1.00  0.00     0.040 A 
ATOM     99  F   UNL A   1      51.852  33.589  28.839  1.00  0.00    -0.206 F 
ATOM    100  C   UNL A   1      53.742  35.674  26.555  1.00  0.00     0.006 A 
ENDBRANCH  76  93
ENDBRANCH  50  51
ENDBRANCH  42  45
ENDBRANCH  40  41
ENDBRANCH  39  40
ENDBRANCH  38  39
ENDBRANCH  37  38
ENDBRANCH  36  37
ENDBRANCH   1  36
TORSDOF 20
ENDMDL
MODEL 2
REMARK VINA RESULT:     -11.1      0.415      5.730
REMARK SMILES CC[C@H](Oc1cccc(/C=C2\SC(=S)N(NC(=O)c3cccc(O)c3)C2=O)c1)C(=O)NCCCCCCNC(=O)c1ccc(-c2c3nc(c(-c4c(F)cccc4F)c4ccc([nH]4)c(-c4c(F)cccc4F)c4nc(c(-c5c(F)cccc5F)c5ccc2[nH]5)C=C4)C=C3)cc1
REMARK SMILES IDX 32 1 31 2 29 3 30 4 3 6 2 7 1 8 4 9 5 10 6 11 28 12 7 13
REMARK SMILES IDX 9 14 8 15 10 16 11 17 12 18 26 19 13 20 15 21 27 22 14 23
REMARK SMILES IDX 16 24 17 25 18 27 19 28 20 29 25 30 21 31 23 32 22 33 24 34
REMARK SMILES IDX 33 36 34 37 35 38 36 39 37 40 38 41 39 42 40 44 41 45 42 46
REMARK SMILES IDX 94 47 43 48 93 49 44 50 45 51 46 52 87 53 47 54 92 55 86 56
REMARK SMILES IDX 88 57 48 58 91 59 85 60 84 61 49 63 75 64 58 65 74 66 59 67
REMARK SMILES IDX 62 68 73 69 89 70 60 71 61 72 72 74 90 75 63 76 50 77 51 78
REMARK SMILES IDX 56 79 52 80 53 81 55 82 57 83 54 84 76 85 77 86 82 87 78 88
REMARK SMILES IDX 79 89 81 90 83 91 80 92 64 93 65 94 70 95 66 96 67 97 69 98
REMARK SMILES IDX 71 99 68 100
REMARK H PARENT 31 5 16 26 24 35 38 43 88 62 62 73
REMARK Flexibility Score: inf
ROOT
ATOM      1  C   UNL A   1      39.170  29.438  28.064  1.00  0.00     0.116 C 
ENDROOT
BRANCH   1   2
ATOM      2  N   UNL A   1      38.230  29.217  29.149  1.00  0.00    -0.353 N 
ATOM      3  C   UNL A   1      36.940  29.651  29.292  1.00  0.00     0.261 C 
ATOM      4  O   UNL A   1      36.366  29.403  30.356  1.00  0.00    -0.271 OA
ATOM      5  H   UNL A   1      38.573  28.674  29.894  1.00  0.00     0.163 HD
BRANCH   3   6
ATOM      6  C   UNL A   1      36.188  30.315  28.118  1.00  0.00     0.261 C 
BRANCH   6   7
ATOM      7  C   UNL A   1      36.461  31.822  28.225  1.00  0.00     0.052 C 
ATOM      8  C   UNL A   1      35.375  32.551  29.015  1.00  0.00     0.008 C 
ENDBRANCH   6   7
BRANCH   6   9
ATOM      9  O   UNL A   1      34.865  29.774  28.123  1.00  0.00    -0.481 OA
BRANCH   9  10
ATOM     10  C   UNL A   1      33.887  29.890  27.191  1.00  0.00     0.121 A 
ATOM     11  C   UNL A   1      32.815  30.772  27.179  1.00  0.00     0.046 A 
ATOM     12  C   UNL A   1      33.926  28.882  26.213  1.00  0.00     0.054 A 
ATOM     13  C   UNL A   1      31.822  30.689  26.202  1.00  0.00     0.004 A 
ATOM     14  C   UNL A   1      32.891  28.731  25.280  1.00  0.00    -0.021 A 
ATOM     15  C   UNL A   1      31.862  29.676  25.255  1.00  0.00     0.008 A 
BRANCH  14  16
ATOM     16  C   UNL A   1      32.742  27.603  24.354  1.00  0.00     0.029 C 
ATOM     17  C   UNL A   1      32.110  26.443  24.572  1.00  0.00     0.082 C 
ATOM     18  S   UNL A   1      31.494  25.774  26.030  1.00  0.00    -0.052 SA
ATOM     19  C   UNL A   1      31.806  25.535  23.433  1.00  0.00     0.285 C 
ATOM     20  C   UNL A   1      31.199  24.208  25.283  1.00  0.00     0.168 C 
ATOM     21  N   UNL A   1      31.505  24.281  23.937  1.00  0.00    -0.198 N 
ATOM     22  O   UNL A   1      31.750  25.913  22.273  1.00  0.00    -0.266 OA
ATOM     23  S   UNL A   1      30.609  22.893  26.122  1.00  0.00    -0.050 S 
BRANCH  21  24
ATOM     24  N   UNL A   1      31.282  23.178  23.097  1.00  0.00    -0.255 N 
ATOM     25  C   UNL A   1      32.139  22.122  22.860  1.00  0.00     0.270 C 
ATOM     26  H   UNL A   1      30.418  23.154  22.625  1.00  0.00     0.192 HD
ATOM     27  O   UNL A   1      31.773  21.182  22.159  1.00  0.00    -0.267 OA
BRANCH  25  28
ATOM     28  C   UNL A   1      33.523  22.127  23.375  1.00  0.00     0.045 A 
ATOM     29  C   UNL A   1      34.412  23.049  22.801  1.00  0.00     0.014 A 
ATOM     30  C   UNL A   1      33.933  21.305  24.429  1.00  0.00     0.060 A 
ATOM     31  C   UNL A   1      35.692  23.200  23.329  1.00  0.00     0.005 A 
ATOM     32  C   UNL A   1      35.212  21.479  24.951  1.00  0.00     0.116 A 
ATOM     33  C   UNL A   1      36.087  22.422  24.417  1.00  0.00     0.046 A 
BRANCH  32  34
ATOM     34  O   UNL A   1      35.650  20.754  26.020  1.00  0.00    -0.508 OA
ATOM     35  H   UNL A   1      36.317  20.106  25.904  1.00  0.00     0.293 HD
ENDBRANCH  32  34
ENDBRANCH  25  28
ENDBRANCH  21  24
ENDBRANCH  14  16
ENDBRANCH   9  10
ENDBRANCH   6   9
ENDBRANCH   3   6
ENDBRANCH   1   2
BRANCH   1  36
ATOM     36  C   UNL A   1      39.790  28.121  27.593  1.00  0.00     0.021 C 
BRANCH  36  37
ATOM     37  C   UNL A   1      40.405  27.282  28.723  1.00  0.00     0.002 C 
BRANCH  37  38
ATOM     38  C   UNL A   1      40.236  25.765  28.581  1.00  0.00     0.002 C 
BRANCH  38  39
ATOM     39  C   UNL A   1      39.286  25.306  27.470  1.00  0.00     0.021 C 
BRANCH  39  40
ATOM     40  C   UNL A   1      39.967  24.797  26.200  1.00  0.00     0.116 C 
BRANCH  40  41
ATOM     41  N   UNL A   1      40.751  23.597  26.436  1.00  0.00    -0.352 N 
ATOM     42  C   UNL A   1      42.112  23.427  26.486  1.00  0.00     0.251 C 
ATOM     43  H   UNL A   1      40.224  22.778  26.583  1.00  0.00     0.163 HD
ATOM     44  O   UNL A   1      42.583  22.294  26.540  1.00  0.00    -0.269 OA
BRANCH  42  45
ATOM     45  C   UNL A   1      43.022  24.594  26.452  1.00  0.00     0.039 A 
ATOM     46  C   UNL A   1      43.562  25.053  27.658  1.00  0.00     0.014 A 
ATOM     47  C   UNL A   1      43.312  25.264  25.259  1.00  0.00     0.014 A 
ATOM     48  C   UNL A   1      44.437  26.141  27.662  1.00  0.00     0.010 A 
ATOM     49  C   UNL A   1      44.226  26.319  25.257  1.00  0.00     0.010 A 
ATOM     50  C   UNL A   1      44.799  26.765  26.458  1.00  0.00    -0.014 A 
BRANCH  50  51
ATOM     51  C   UNL A   1      45.788  27.872  26.445  1.00  0.00     0.031 A 
ATOM     52  C   UNL A   1      47.258  27.585  26.329  1.00  0.00     0.074 A 
ATOM     53  C   UNL A   1      45.360  29.142  26.581  1.00  0.00     0.049 A 
ATOM     54  N   UNL A   1      48.265  28.420  26.341  1.00  0.00    -0.248 NA
ATOM     55  C   UNL A   1      47.650  26.172  26.200  1.00  0.00     0.031 C 
ATOM     56  C   UNL A   1      43.963  29.551  26.746  1.00  0.00     0.029 A 
ATOM     57  N   UNL A   1      46.058  30.323  26.609  1.00  0.00    -0.354 N 
ATOM     58  C   UNL A   1      49.408  27.640  26.231  1.00  0.00     0.074 A 
ATOM     59  C   UNL A   1      48.972  26.259  26.192  1.00  0.00     0.031 C 
ATOM     60  C   UNL A   1      43.907  30.890  26.842  1.00  0.00     0.029 A 
ATOM     61  C   UNL A   1      45.261  31.430  26.771  1.00  0.00     0.049 A 
ATOM     62  H   UNL A   1      47.037  30.372  26.524  1.00  0.00     0.167 HD
ATOM     63  C   UNL A   1      50.701  28.036  26.151  1.00  0.00     0.037 A 
ATOM     64  C   UNL A   1      45.585  32.734  26.852  1.00  0.00     0.037 A 
ATOM     65  C   UNL A   1      51.137  29.408  26.164  1.00  0.00     0.049 A 
ATOM     66  C   UNL A   1      47.025  33.147  26.742  1.00  0.00     0.074 A 
ATOM     67  C   UNL A   1      52.423  29.906  26.046  1.00  0.00     0.029 A 
ATOM     68  N   UNL A   1      50.296  30.501  26.302  1.00  0.00    -0.354 N 
ATOM     69  N   UNL A   1      48.089  32.397  26.590  1.00  0.00    -0.248 NA
ATOM     70  C   UNL A   1      47.307  34.587  26.809  1.00  0.00     0.031 C 
ATOM     71  C   UNL A   1      52.363  31.302  26.133  1.00  0.00     0.029 A 
ATOM     72  C   UNL A   1      51.037  31.672  26.278  1.00  0.00     0.049 A 
ATOM     73  H   UNL A   1      49.317  30.453  26.400  1.00  0.00     0.167 HD
ATOM     74  C   UNL A   1      49.164  33.274  26.524  1.00  0.00     0.074 A 
ATOM     75  C   UNL A   1      48.621  34.612  26.637  1.00  0.00     0.031 C 
ATOM     76  C   UNL A   1      50.482  32.995  26.387  1.00  0.00     0.037 A 
BRANCH  63  77
ATOM     77  C   UNL A   1      51.743  26.967  26.026  1.00  0.00     0.057 A 
ATOM     78  C   UNL A   1      52.374  26.424  27.153  1.00  0.00     0.134 A 
ATOM     79  C   UNL A   1      52.084  26.440  24.775  1.00  0.00     0.134 A 
ATOM     80  F   UNL A   1      52.097  26.895  28.378  1.00  0.00    -0.206 F 
ATOM     81  C   UNL A   1      53.319  25.405  27.039  1.00  0.00     0.040 A 
ATOM     82  C   UNL A   1      53.015  25.407  24.649  1.00  0.00     0.040 A 
ATOM     83  F   UNL A   1      51.512  26.913  23.657  1.00  0.00    -0.206 F 
ATOM     84  C   UNL A   1      53.638  24.888  25.783  1.00  0.00     0.006 A 
ENDBRANCH  63  77
BRANCH  64  85
ATOM     85  C   UNL A   1      44.522  33.752  27.026  1.00  0.00     0.057 A 
ATOM     86  C   UNL A   1      44.081  34.122  28.301  1.00  0.00     0.134 A 
ATOM     87  C   UNL A   1      43.912  34.364  25.926  1.00  0.00     0.134 A 
ATOM     88  F   UNL A   1      44.616  33.553  29.392  1.00  0.00    -0.206 F 
ATOM     89  C   UNL A   1      43.056  35.052  28.477  1.00  0.00     0.040 A 
ATOM     90  C   UNL A   1      42.899  35.310  26.087  1.00  0.00     0.040 A 
ATOM     91  F   UNL A   1      44.296  34.054  24.679  1.00  0.00    -0.206 F 
ATOM     92  C   UNL A   1      42.464  35.651  27.367  1.00  0.00     0.006 A 
ENDBRANCH  64  85
BRANCH  76  93
ATOM     93  C   UNL A   1      51.421  34.161  26.332  1.00  0.00     0.057 A 
ATOM     94  C   UNL A   1      51.836  34.711  25.113  1.00  0.00     0.134 A 
ATOM     95  C   UNL A   1      51.898  34.750  27.508  1.00  0.00     0.134 A 
ATOM     96  F   UNL A   1      51.425  34.181  23.951  1.00  0.00    -0.206 F 
ATOM     97  C   UNL A   1      52.712  35.797  25.066  1.00  0.00     0.040 A 
ATOM     98  C   UNL A   1      52.759  35.848  27.475  1.00  0.00     0.040 A 
ATOM     99  F   UNL A   1      51.534  34.271  28.707  1.00  0.00    -0.206 F 
ATOM    100  C   UNL A   1      53.173  36.371  26.250  1.00  0.00     0.006 A 
ENDBRANCH  76  93
ENDBRANCH  50  51
ENDBRANCH  42  45
ENDBRANCH  40  41
ENDBRANCH  39  40
ENDBRANCH  38  39
ENDBRANCH  37  38
ENDBRANCH  36  37
ENDBRANCH   1  36
TORSDOF 20
ENDMDL
MODEL 3
REMARK VINA RESULT:     -11.1      7.076     10.526
REMARK SMILES CC[C@H](Oc1cccc(/C=C2\SC(=S)N(NC(=O)c3cccc(O)c3)C2=O)c1)C(=O)NCCCCCCNC(=O)c1ccc(-c2c3nc(c(-c4c(F)cccc4F)c4ccc([nH]4)c(-c4c(F)cccc4F)c4nc(c(-c5c(F)cccc5F)c5ccc2[nH]5)C=C4)C=C3)cc1
REMARK SMILES IDX 32 1 31 2 29 3 30 4 3 6 2 7 1 8 4 9 5 10 6 11 28 12 7 13
REMARK SMILES IDX 9 14 8 15 10 16 11 17 12 18 26 19 13 20 15 21 27 22 14 23
REMARK SMILES IDX 16 24 17 25 18 27 19 28 20 29 25 30 21 31 23 32 22 33 24 34
REMARK SMILES IDX 33 36 34 37 35 38 36 39 37 40 38 41 39 42 40 44 41 45 42 46
REMARK SMILES IDX 94 47 43 48 93 49 44 50 45 51 46 52 87 53 47 54 92 55 86 56
REMARK SMILES IDX 88 57 48 58 91 59 85 60 84 61 49 63 75 64 58 65 74 66 59 67
REMARK SMILES IDX 62 68 73 69 89 70 60 71 61 72 72 74 90 75 63 76 50 77 51 78
REMARK SMILES IDX 56 79 52 80 53 81 55 82 57 83 54 84 76 85 77 86 82 87 78 88
REMARK SMILES IDX 79 89 81 90 83 91 80 92 64 93 65 94 70 95 66 96 67 97 69 98
REMARK SMILES IDX 71 99 68 100
REMARK H PARENT 31 5 16 26 24 35 38 43 88 62 62 73
REMARK Flexibility Score: inf
ROOT
ATOM      1  C   UNL A   1      34.433  31.863  28.700  1.00  0.00     0.116 C 
ENDROOT
BRANCH   1   2
ATOM      2  N   UNL A   1      34.656  30.499  28.252  1.00  0.00    -0.353 N 
ATOM      3  C   UNL A   1      34.045  29.796  27.249  1.00  0.00     0.261 C 
ATOM      4  O   UNL A   1      34.350  28.607  27.114  1.00  0.00    -0.271 OA
ATOM      5  H   UNL A   1      35.351  30.006  28.745  1.00  0.00     0.163 HD
BRANCH   3   6
ATOM      6  C   UNL A   1      33.104  30.495  26.244  1.00  0.00     0.261 C 
BRANCH   6   7
ATOM      7  C   UNL A   1      31.839  30.876  27.028  1.00  0.00     0.052 C 
ATOM      8  C   UNL A   1      31.275  32.227  26.591  1.00  0.00     0.008 C 
ENDBRANCH   6   7
BRANCH   6   9
ATOM      9  O   UNL A   1      33.063  29.668  25.080  1.00  0.00    -0.481 OA
BRANCH   9  10
ATOM     10  C   UNL A   1      32.059  28.880  24.621  1.00  0.00     0.121 A 
ATOM     11  C   UNL A   1      30.916  29.264  23.933  1.00  0.00     0.046 A 
ATOM     12  C   UNL A   1      32.162  27.544  25.041  1.00  0.00     0.054 A 
ATOM     13  C   UNL A   1      29.913  28.342  23.628  1.00  0.00     0.004 A 
ATOM     14  C   UNL A   1      31.124  26.629  24.822  1.00  0.00    -0.021 A 
ATOM     15  C   UNL A   1      30.018  27.031  24.068  1.00  0.00     0.008 A 
BRANCH  14  16
ATOM     16  C   UNL A   1      31.051  25.277  25.387  1.00  0.00     0.029 C 
ATOM     17  C   UNL A   1      31.471  24.134  24.832  1.00  0.00     0.082 C 
ATOM     18  S   UNL A   1      31.989  23.807  23.226  1.00  0.00    -0.052 SA
ATOM     19  C   UNL A   1      31.585  22.902  25.658  1.00  0.00     0.285 C 
ATOM     20  C   UNL A   1      31.986  22.068  23.490  1.00  0.00     0.168 C 
ATOM     21  N   UNL A   1      31.670  21.809  24.812  1.00  0.00    -0.198 N 
ATOM     22  O   UNL A   1      31.683  22.919  26.875  1.00  0.00    -0.266 OA
ATOM     23  S   UNL A   1      32.351  20.963  22.297  1.00  0.00    -0.050 S 
BRANCH  21  24
ATOM     24  N   UNL A   1      31.676  20.492  25.298  1.00  0.00    -0.255 N 
ATOM     25  C   UNL A   1      32.757  19.789  25.792  1.00  0.00     0.270 C 
ATOM     26  H   UNL A   1      30.814  20.016  25.285  1.00  0.00     0.192 HD
ATOM     27  O   UNL A   1      32.594  18.665  26.260  1.00  0.00    -0.267 OA
BRANCH  25  28
ATOM     28  C   UNL A   1      34.128  20.332  25.707  1.00  0.00     0.045 A 
ATOM     29  C   UNL A   1      35.020  19.673  24.847  1.00  0.00     0.014 A 
ATOM     30  C   UNL A   1      34.520  21.485  26.393  1.00  0.00     0.060 A 
ATOM     31  C   UNL A   1      36.286  20.209  24.618  1.00  0.00     0.005 A 
ATOM     32  C   UNL A   1      35.785  22.013  26.141  1.00  0.00     0.116 A 
ATOM     33  C   UNL A   1      36.662  21.390  25.255  1.00  0.00     0.046 A 
BRANCH  32  34
ATOM     34  O   UNL A   1      36.204  23.169  26.728  1.00  0.00    -0.508 OA
ATOM     35  H   UNL A   1      36.735  23.773  26.245  1.00  0.00     0.293 HD
ENDBRANCH  32  34
ENDBRANCH  25  28
ENDBRANCH  21  24
ENDBRANCH  14  16
ENDBRANCH   9  10
ENDBRANCH   6   9
ENDBRANCH   3   6
ENDBRANCH   1   2
BRANCH   1  36
ATOM     36  C   UNL A   1      35.641  32.749  28.393  1.00  0.00     0.021 C 
BRANCH  36  37
ATOM     37  C   UNL A   1      35.442  34.225  28.763  1.00  0.00     0.002 C 
BRANCH  37  38
ATOM     38  C   UNL A   1      34.324  34.948  28.002  1.00  0.00     0.002 C 
BRANCH  38  39
ATOM     39  C   UNL A   1      33.099  35.336  28.837  1.00  0.00     0.021 C 
BRANCH  39  40
ATOM     40  C   UNL A   1      33.301  36.524  29.775  1.00  0.00     0.116 C 
BRANCH  40  41
ATOM     41  N   UNL A   1      32.439  36.461  30.942  1.00  0.00    -0.352 N 
ATOM     42  C   UNL A   1      32.561  35.719  32.091  1.00  0.00     0.251 C 
ATOM     43  H   UNL A   1      31.644  37.040  30.905  1.00  0.00     0.163 HD
ATOM     44  O   UNL A   1      31.635  35.688  32.898  1.00  0.00    -0.269 OA
BRANCH  42  45
ATOM     45  C   UNL A   1      33.788  34.936  32.359  1.00  0.00     0.039 A 
ATOM     46  C   UNL A   1      35.018  35.604  32.360  1.00  0.00     0.014 A 
ATOM     47  C   UNL A   1      33.746  33.554  32.564  1.00  0.00     0.014 A 
ATOM     48  C   UNL A   1      36.194  34.901  32.625  1.00  0.00     0.010 A 
ATOM     49  C   UNL A   1      34.916  32.860  32.880  1.00  0.00     0.010 A 
ATOM     50  C   UNL A   1      36.150  33.528  32.916  1.00  0.00    -0.014 A 
BRANCH  50  51
ATOM     51  C   UNL A   1      37.386  32.788  33.275  1.00  0.00     0.031 A 
ATOM     52  C   UNL A   1      38.113  33.087  34.556  1.00  0.00     0.074 A 
ATOM     53  C   UNL A   1      37.879  31.872  32.420  1.00  0.00     0.049 A 
ATOM     54  N   UNL A   1      39.226  32.571  35.012  1.00  0.00    -0.248 NA
ATOM     55  C   UNL A   1      37.522  34.112  35.430  1.00  0.00     0.031 C 
ATOM     56  C   UNL A   1      37.293  31.520  31.125  1.00  0.00     0.029 A 
ATOM     57  N   UNL A   1      38.991  31.073  32.510  1.00  0.00    -0.354 N 
ATOM     58  C   UNL A   1      39.475  33.211  36.218  1.00  0.00     0.074 A 
ATOM     59  C   UNL A   1      38.416  34.182  36.406  1.00  0.00     0.031 C 
ATOM     60  C   UNL A   1      38.042  30.566  30.549  1.00  0.00     0.029 A 
ATOM     61  C   UNL A   1      39.172  30.256  31.420  1.00  0.00     0.049 A 
ATOM     62  H   UNL A   1      39.603  31.085  33.281  1.00  0.00     0.167 HD
ATOM     63  C   UNL A   1      40.481  32.998  37.100  1.00  0.00     0.037 A 
ATOM     64  C   UNL A   1      40.138  29.359  31.153  1.00  0.00     0.037 A 
ATOM     65  C   UNL A   1      41.521  32.017  36.930  1.00  0.00     0.049 A 
ATOM     66  C   UNL A   1      41.232  29.129  32.156  1.00  0.00     0.074 A 
ATOM     67  C   UNL A   1      42.558  31.701  37.791  1.00  0.00     0.029 A 
ATOM     68  N   UNL A   1      41.652  31.191  35.826  1.00  0.00    -0.354 N 
ATOM     69  N   UNL A   1      41.426  29.710  33.315  1.00  0.00    -0.248 NA
ATOM     70  C   UNL A   1      42.239  28.114  31.816  1.00  0.00     0.031 C 
ATOM     71  C   UNL A   1      43.331  30.697  37.196  1.00  0.00     0.029 A 
ATOM     72  C   UNL A   1      42.758  30.370  35.979  1.00  0.00     0.049 A 
ATOM     73  H   UNL A   1      41.049  31.186  35.047  1.00  0.00     0.167 HD
ATOM     74  C   UNL A   1      42.562  29.119  33.850  1.00  0.00     0.074 A 
ATOM     75  C   UNL A   1      43.007  28.124  32.896  1.00  0.00     0.031 C 
ATOM     76  C   UNL A   1      43.184  29.382  35.024  1.00  0.00     0.037 A 
BRANCH  63  77
ATOM     77  C   UNL A   1      40.499  33.836  38.342  1.00  0.00     0.057 A 
ATOM     78  C   UNL A   1      39.768  33.473  39.480  1.00  0.00     0.134 A 
ATOM     79  C   UNL A   1      41.289  34.988  38.419  1.00  0.00     0.134 A 
ATOM     80  F   UNL A   1      38.983  32.385  39.465  1.00  0.00    -0.206 F 
ATOM     81  C   UNL A   1      39.812  34.235  40.648  1.00  0.00     0.040 A 
ATOM     82  C   UNL A   1      41.356  35.750  39.588  1.00  0.00     0.040 A 
ATOM     83  F   UNL A   1      42.017  35.388  37.364  1.00  0.00    -0.206 F 
ATOM     84  C   UNL A   1      40.613  35.374  40.706  1.00  0.00     0.006 A 
ENDBRANCH  63  77
BRANCH  64  85
ATOM     85  C   UNL A   1      40.105  28.588  29.886  1.00  0.00     0.057 A 
ATOM     86  C   UNL A   1      39.375  27.399  29.786  1.00  0.00     0.134 A 
ATOM     87  C   UNL A   1      40.815  29.011  28.757  1.00  0.00     0.134 A 
ATOM     88  F   UNL A   1      38.692  26.935  30.844  1.00  0.00    -0.206 F 
ATOM     89  C   UNL A   1      39.365  26.646  28.612  1.00  0.00     0.040 A 
ATOM     90  C   UNL A   1      40.799  28.279  27.570  1.00  0.00     0.040 A 
ATOM     91  F   UNL A   1      41.528  30.146  28.792  1.00  0.00    -0.206 F 
ATOM     92  C   UNL A   1      40.077  27.088  27.498  1.00  0.00     0.006 A 
ENDBRANCH  64  85
BRANCH  76  93
ATOM     93  C   UNL A   1      44.398  28.565  35.347  1.00  0.00     0.057 A 
ATOM     94  C   UNL A   1      45.682  28.980  34.973  1.00  0.00     0.134 A 
ATOM     95  C   UNL A   1      44.283  27.363  36.054  1.00  0.00     0.134 A 
ATOM     96  F   UNL A   1      45.856  30.116  34.280  1.00  0.00    -0.206 F 
ATOM     97  C   UNL A   1      46.810  28.215  35.275  1.00  0.00     0.040 A 
ATOM     98  C   UNL A   1      45.404  26.599  36.379  1.00  0.00     0.040 A 
ATOM     99  F   UNL A   1      43.080  26.914  36.444  1.00  0.00    -0.206 F 
ATOM    100  C   UNL A   1      46.673  27.023  35.984  1.00  0.00     0.006 A 
ENDBRANCH  76  93
ENDBRANCH  50  51
ENDBRANCH  42  45
ENDBRANCH  40  41
ENDBRANCH  39  40
ENDBRANCH  38  39
ENDBRANCH  37  38
ENDBRANCH  36  37
ENDBRANCH   1  36
TORSDOF 20
ENDMDL
