MODEL 1
REMARK VINA RESULT:     -11.4      0.000      0.000
REMARK SMILES CCc1cccc(-c2ccc([C@@H](C)C(=O)NCCCCCCNC(=O)c3ccc(-c4c5nc(c(-c6c(F)cccc6F)c6ccc([nH]6)c(-c6c(F)cccc6F)c6nc(c(-c7c(F)cccc7F)c7ccc4[nH]7)C=C6)C=C5)cc3)cc2)c1
REMARK SMILES IDX 19 1 18 2 17 3 16 4 14 5 15 6 12 8 13 9 11 10 8 11 9 12
REMARK SMILES IDX 81 13 10 14 80 15 7 16 3 17 4 18 82 19 5 20 6 21 2 22 1 23
REMARK SMILES IDX 20 24 21 25 22 26 23 27 24 28 25 30 26 31 27 32 79 33 28 34
REMARK SMILES IDX 78 35 29 36 30 37 31 38 72 39 32 40 77 41 71 42 73 43 33 44
REMARK SMILES IDX 76 45 70 46 69 47 34 49 60 50 43 51 59 52 44 53 47 54 58 55
REMARK SMILES IDX 74 56 45 57 46 58 57 60 75 61 48 62 35 63 36 64 41 65 37 66
REMARK SMILES IDX 38 67 40 68 42 69 39 70 61 71 62 72 67 73 63 74 64 75 66 76
REMARK SMILES IDX 68 77 65 78 49 79 50 80 55 81 51 82 52 83 54 84 56 85 53 86
REMARK H PARENT 16 7 23 29 73 48 47 59
REMARK Flexibility Score: inf
ROOT
ATOM      1  C   UNL A   1      34.000  25.458  23.760  1.00  0.00     0.002 C 
ENDROOT
BRANCH   1   2
ATOM      2  C   UNL A   1      34.374  25.151  25.213  1.00  0.00     0.021 C 
BRANCH   2   3
ATOM      3  C   UNL A   1      34.720  23.681  25.455  1.00  0.00     0.116 C 
BRANCH   3   4
ATOM      4  N   UNL A   1      34.141  23.196  26.687  1.00  0.00    -0.356 N 
ATOM      5  C   UNL A   1      32.901  22.709  26.968  1.00  0.00     0.227 C 
ATOM      6  O   UNL A   1      32.663  22.472  28.158  1.00  0.00    -0.274 OA
ATOM      7  H   UNL A   1      34.750  23.224  27.460  1.00  0.00     0.163 HD
BRANCH   5   8
ATOM      8  C   UNL A   1      31.834  22.425  25.899  1.00  0.00     0.105 C 
ATOM      9  C   UNL A   1      32.262  21.391  24.858  1.00  0.00     0.023 C 
BRANCH   8  10
ATOM     10  C   UNL A   1      31.163  23.677  25.355  1.00  0.00    -0.036 A 
ATOM     11  C   UNL A   1      29.741  25.909  24.273  1.00  0.00    -0.018 A 
ATOM     12  C   UNL A   1      30.052  25.827  25.637  1.00  0.00     0.009 A 
ATOM     13  C   UNL A   1      30.199  24.866  23.453  1.00  0.00     0.009 A 
ATOM     14  C   UNL A   1      30.785  24.755  26.158  1.00  0.00     0.005 A 
ATOM     15  C   UNL A   1      30.876  23.760  23.985  1.00  0.00     0.005 A 
BRANCH  11  16
ATOM     16  C   UNL A   1      28.970  27.052  23.731  1.00  0.00    -0.018 A 
ATOM     17  C   UNL A   1      28.889  29.186  22.504  1.00  0.00    -0.048 A 
ATOM     18  C   UNL A   1      27.504  29.234  22.709  1.00  0.00     0.004 A 
ATOM     19  C   UNL A   1      29.601  28.084  23.007  1.00  0.00     0.012 A 
ATOM     20  C   UNL A   1      26.852  28.220  23.405  1.00  0.00     0.001 A 
ATOM     21  C   UNL A   1      27.581  27.147  23.917  1.00  0.00     0.009 A 
BRANCH  17  22
ATOM     22  C   UNL A   1      29.543  30.347  21.790  1.00  0.00     0.032 C 
ATOM     23  C   UNL A   1      28.838  31.695  21.866  1.00  0.00     0.009 C 
ENDBRANCH  17  22
ENDBRANCH  11  16
ENDBRANCH   8  10
ENDBRANCH   5   8
ENDBRANCH   3   4
ENDBRANCH   2   3
ENDBRANCH   1   2
BRANCH   1  24
ATOM     24  C   UNL A   1      33.573  26.909  23.501  1.00  0.00     0.002 C 
BRANCH  24  25
ATOM     25  C   UNL A   1      33.068  27.663  24.732  1.00  0.00     0.021 C 
BRANCH  25  26
ATOM     26  C   UNL A   1      33.902  28.886  25.095  1.00  0.00     0.116 C 
BRANCH  26  27
ATOM     27  N   UNL A   1      33.063  29.999  25.511  1.00  0.00    -0.352 N 
ATOM     28  C   UNL A   1      33.142  30.758  26.653  1.00  0.00     0.251 C 
ATOM     29  H   UNL A   1      32.340  30.243  24.889  1.00  0.00     0.163 HD
ATOM     30  O   UNL A   1      32.222  31.494  26.984  1.00  0.00    -0.269 OA
BRANCH  28  31
ATOM     31  C   UNL A   1      34.360  30.671  27.482  1.00  0.00     0.039 A 
ATOM     32  C   UNL A   1      34.723  29.446  28.045  1.00  0.00     0.014 A 
ATOM     33  C   UNL A   1      35.145  31.809  27.683  1.00  0.00     0.014 A 
ATOM     34  C   UNL A   1      35.915  29.350  28.768  1.00  0.00     0.010 A 
ATOM     35  C   UNL A   1      36.366  31.693  28.331  1.00  0.00     0.010 A 
ATOM     36  C   UNL A   1      36.759  30.466  28.890  1.00  0.00    -0.014 A 
BRANCH  36  37
ATOM     37  C   UNL A   1      38.045  30.404  29.625  1.00  0.00     0.031 A 
ATOM     38  C   UNL A   1      39.201  29.655  29.023  1.00  0.00     0.074 A 
ATOM     39  C   UNL A   1      38.143  30.928  30.862  1.00  0.00     0.049 A 
ATOM     40  N   UNL A   1      40.353  29.340  29.558  1.00  0.00    -0.248 NA
ATOM     41  C   UNL A   1      39.024  29.165  27.645  1.00  0.00     0.031 C 
ATOM     42  C   UNL A   1      37.082  31.654  31.564  1.00  0.00     0.029 A 
ATOM     43  N   UNL A   1      39.181  30.908  31.760  1.00  0.00    -0.354 N 
ATOM     44  C   UNL A   1      41.021  28.592  28.595  1.00  0.00     0.074 A 
ATOM     45  C   UNL A   1      40.128  28.458  27.466  1.00  0.00     0.031 C 
ATOM     46  C   UNL A   1      37.530  32.023  32.775  1.00  0.00     0.029 A 
ATOM     47  C   UNL A   1      38.887  31.517  32.956  1.00  0.00     0.049 A 
ATOM     48  H   UNL A   1      40.054  30.498  31.563  1.00  0.00     0.167 HD
ATOM     49  C   UNL A   1      42.272  28.080  28.643  1.00  0.00     0.037 A 
ATOM     50  C   UNL A   1      39.625  31.635  34.077  1.00  0.00     0.037 A 
ATOM     51  C   UNL A   1      43.166  28.246  29.759  1.00  0.00     0.049 A 
ATOM     52  C   UNL A   1      41.006  31.038  34.113  1.00  0.00     0.074 A 
ATOM     53  C   UNL A   1      44.475  27.818  29.883  1.00  0.00     0.029 A 
ATOM     54  N   UNL A   1      42.838  28.891  30.941  1.00  0.00    -0.354 N 
ATOM     55  N   UNL A   1      41.646  30.379  33.177  1.00  0.00    -0.248 NA
ATOM     56  C   UNL A   1      41.768  31.201  35.359  1.00  0.00     0.031 C 
ATOM     57  C   UNL A   1      44.923  28.156  31.163  1.00  0.00     0.029 A 
ATOM     58  C   UNL A   1      43.915  28.852  31.811  1.00  0.00     0.049 A 
ATOM     59  H   UNL A   1      41.970  29.314  31.134  1.00  0.00     0.167 HD
ATOM     60  C   UNL A   1      42.900  30.092  33.703  1.00  0.00     0.074 A 
ATOM     61  C   UNL A   1      42.929  30.646  35.042  1.00  0.00     0.031 C 
ATOM     62  C   UNL A   1      43.937  29.437  33.128  1.00  0.00     0.037 A 
BRANCH  49  63
ATOM     63  C   UNL A   1      42.747  27.288  27.460  1.00  0.00     0.057 A 
ATOM     64  C   UNL A   1      42.556  25.903  27.366  1.00  0.00     0.134 A 
ATOM     65  C   UNL A   1      43.370  27.926  26.379  1.00  0.00     0.134 A 
ATOM     66  F   UNL A   1      41.976  25.227  28.370  1.00  0.00    -0.206 F 
ATOM     67  C   UNL A   1      42.993  25.178  26.257  1.00  0.00     0.040 A 
ATOM     68  C   UNL A   1      43.784  27.217  25.251  1.00  0.00     0.040 A 
ATOM     69  F   UNL A   1      43.579  29.251  26.399  1.00  0.00    -0.206 F 
ATOM     70  C   UNL A   1      43.602  25.837  25.190  1.00  0.00     0.006 A 
ENDBRANCH  49  63
BRANCH  50  71
ATOM     71  C   UNL A   1      39.084  32.360  35.256  1.00  0.00     0.057 A 
ATOM     72  C   UNL A   1      38.400  31.676  36.270  1.00  0.00     0.134 A 
ATOM     73  C   UNL A   1      39.215  33.747  35.393  1.00  0.00     0.134 A 
ATOM     74  F   UNL A   1      38.226  30.348  36.188  1.00  0.00    -0.206 F 
ATOM     75  C   UNL A   1      37.844  32.346  37.360  1.00  0.00     0.040 A 
ATOM     76  C   UNL A   1      38.688  34.427  36.492  1.00  0.00     0.040 A 
ATOM     77  F   UNL A   1      39.866  34.461  34.463  1.00  0.00    -0.206 F 
ATOM     78  C   UNL A   1      37.991  33.727  37.475  1.00  0.00     0.006 A 
ENDBRANCH  50  71
BRANCH  62  79
ATOM     79  C   UNL A   1      45.219  29.340  33.902  1.00  0.00     0.057 A 
ATOM     80  C   UNL A   1      45.507  28.253  34.736  1.00  0.00     0.134 A 
ATOM     81  C   UNL A   1      46.211  30.318  33.744  1.00  0.00     0.134 A 
ATOM     82  F   UNL A   1      44.596  27.290  34.938  1.00  0.00    -0.206 F 
ATOM     83  C   UNL A   1      46.734  28.149  35.395  1.00  0.00     0.040 A 
ATOM     84  C   UNL A   1      47.451  30.209  34.374  1.00  0.00     0.040 A 
ATOM     85  F   UNL A   1      46.001  31.379  32.950  1.00  0.00    -0.206 F 
ATOM     86  C   UNL A   1      47.713  29.122  35.205  1.00  0.00     0.006 A 
ENDBRANCH  62  79
ENDBRANCH  36  37
ENDBRANCH  28  31
ENDBRANCH  26  27
ENDBRANCH  25  26
ENDBRANCH  24  25
ENDBRANCH   1  24
TORSDOF 16
ENDMDL
MODEL 2
REMARK VINA RESULT:     -11.0      2.684      5.731
REMARK SMILES CCc1cccc(-c2ccc([C@@H](C)C(=O)NCCCCCCNC(=O)c3ccc(-c4c5nc(c(-c6c(F)cccc6F)c6ccc([nH]6)c(-c6c(F)cccc6F)c6nc(c(-c7c(F)cccc7F)c7ccc4[nH]7)C=C6)C=C5)cc3)cc2)c1
REMARK SMILES IDX 19 1 18 2 17 3 16 4 14 5 15 6 12 8 13 9 11 10 8 11 9 12
REMARK SMILES IDX 81 13 10 14 80 15 7 16 3 17 4 18 82 19 5 20 6 21 2 22 1 23
REMARK SMILES IDX 20 24 21 25 22 26 23 27 24 28 25 30 26 31 27 32 79 33 28 34
REMARK SMILES IDX 78 35 29 36 30 37 31 38 72 39 32 40 77 41 71 42 73 43 33 44
REMARK SMILES IDX 76 45 70 46 69 47 34 49 60 50 43 51 59 52 44 53 47 54 58 55
REMARK SMILES IDX 74 56 45 57 46 58 57 60 75 61 48 62 35 63 36 64 41 65 37 66
REMARK SMILES IDX 38 67 40 68 42 69 39 70 61 71 62 72 67 73 63 74 64 75 66 76
REMARK SMILES IDX 68 77 65 78 49 79 50 80 55 81 51 82 52 83 54 84 56 85 53 86
REMARK H PARENT 16 7 23 29 73 48 47 59
REMARK Flexibility Score: inf
ROOT
ATOM      1  C   UNL A   1      32.884  29.911  25.881  1.00  0.00     0.002 C 
ENDROOT
BRANCH   1   2
ATOM      2  C   UNL A   1      32.746  29.159  24.554  1.00  0.00     0.021 C 
BRANCH   2   3
ATOM      3  C   UNL A   1      33.906  28.203  24.272  1.00  0.00     0.116 C 
BRANCH   3   4
ATOM      4  N   UNL A   1      33.758  27.555  22.988  1.00  0.00    -0.356 N 
ATOM      5  C   UNL A   1      33.558  26.250  22.657  1.00  0.00     0.227 C 
ATOM      6  O   UNL A   1      33.581  25.982  21.450  1.00  0.00    -0.274 OA
ATOM      7  H   UNL A   1      33.813  28.165  22.218  1.00  0.00     0.163 HD
BRANCH   5   8
ATOM      8  C   UNL A   1      33.285  25.141  23.685  1.00  0.00     0.105 C 
ATOM      9  C   UNL A   1      32.417  25.589  24.861  1.00  0.00     0.023 C 
BRANCH   8  10
ATOM     10  C   UNL A   1      34.515  24.320  24.043  1.00  0.00    -0.036 A 
ATOM     11  C   UNL A   1      36.713  22.688  24.867  1.00  0.00    -0.018 A 
ATOM     12  C   UNL A   1      36.153  22.576  23.586  1.00  0.00     0.009 A 
ATOM     13  C   UNL A   1      36.173  23.669  25.712  1.00  0.00     0.009 A 
ATOM     14  C   UNL A   1      35.106  23.405  23.170  1.00  0.00     0.005 A 
ATOM     15  C   UNL A   1      35.081  24.455  25.318  1.00  0.00     0.005 A 
BRANCH  11  16
ATOM     16  C   UNL A   1      37.825  21.809  25.295  1.00  0.00    -0.018 A 
ATOM     17  C   UNL A   1      39.960  21.487  26.481  1.00  0.00    -0.048 A 
ATOM     18  C   UNL A   1      39.951  20.139  26.101  1.00  0.00     0.004 A 
ATOM     19  C   UNL A   1      38.886  22.301  26.083  1.00  0.00     0.012 A 
ATOM     20  C   UNL A   1      38.907  19.622  25.338  1.00  0.00     0.001 A 
ATOM     21  C   UNL A   1      37.863  20.452  24.932  1.00  0.00     0.009 A 
BRANCH  17  22
ATOM     22  C   UNL A   1      41.150  21.999  27.261  1.00  0.00     0.032 C 
ATOM     23  C   UNL A   1      42.237  22.719  26.473  1.00  0.00     0.009 C 
ENDBRANCH  17  22
ENDBRANCH  11  16
ENDBRANCH   8  10
ENDBRANCH   5   8
ENDBRANCH   3   4
ENDBRANCH   2   3
ENDBRANCH   1   2
BRANCH   1  24
ATOM     24  C   UNL A   1      31.563  30.424  26.468  1.00  0.00     0.002 C 
BRANCH  24  25
ATOM     25  C   UNL A   1      31.463  31.945  26.599  1.00  0.00     0.021 C 
BRANCH  25  26
ATOM     26  C   UNL A   1      32.674  32.590  27.262  1.00  0.00     0.116 C 
BRANCH  26  27
ATOM     27  N   UNL A   1      32.434  33.995  27.557  1.00  0.00    -0.352 N 
ATOM     28  C   UNL A   1      33.027  34.788  28.509  1.00  0.00     0.251 C 
ATOM     29  H   UNL A   1      31.755  34.438  26.999  1.00  0.00     0.163 HD
ATOM     30  O   UNL A   1      32.550  35.876  28.806  1.00  0.00    -0.269 OA
BRANCH  28  31
ATOM     31  C   UNL A   1      34.252  34.306  29.175  1.00  0.00     0.039 A 
ATOM     32  C   UNL A   1      34.157  33.662  30.410  1.00  0.00     0.014 A 
ATOM     33  C   UNL A   1      35.493  34.484  28.558  1.00  0.00     0.014 A 
ATOM     34  C   UNL A   1      35.309  33.141  31.003  1.00  0.00     0.010 A 
ATOM     35  C   UNL A   1      36.622  33.895  29.108  1.00  0.00     0.010 A 
ATOM     36  C   UNL A   1      36.544  33.228  30.341  1.00  0.00    -0.014 A 
BRANCH  36  37
ATOM     37  C   UNL A   1      37.789  32.667  30.921  1.00  0.00     0.031 A 
ATOM     38  C   UNL A   1      38.405  31.445  30.297  1.00  0.00     0.074 A 
ATOM     39  C   UNL A   1      38.304  33.189  32.050  1.00  0.00     0.049 A 
ATOM     40  N   UNL A   1      39.390  30.701  30.730  1.00  0.00    -0.248 NA
ATOM     41  C   UNL A   1      37.809  30.979  29.034  1.00  0.00     0.031 C 
ATOM     42  C   UNL A   1      37.782  34.356  32.764  1.00  0.00     0.029 A 
ATOM     43  N   UNL A   1      39.373  32.786  32.812  1.00  0.00    -0.354 N 
ATOM     44  C   UNL A   1      39.510  29.666  29.811  1.00  0.00     0.074 A 
ATOM     45  C   UNL A   1      38.467  29.849  28.826  1.00  0.00     0.031 C 
ATOM     46  C   UNL A   1      38.540  34.584  33.848  1.00  0.00     0.029 A 
ATOM     47  C   UNL A   1      39.568  33.552  33.936  1.00  0.00     0.049 A 
ATOM     48  H   UNL A   1      39.946  32.022  32.574  1.00  0.00     0.167 HD
ATOM     49  C   UNL A   1      40.419  28.664  29.782  1.00  0.00     0.037 A 
ATOM     50  C   UNL A   1      40.463  33.421  34.934  1.00  0.00     0.037 A 
ATOM     51  C   UNL A   1      41.473  28.508  30.749  1.00  0.00     0.049 A 
ATOM     52  C   UNL A   1      41.450  32.285  34.890  1.00  0.00     0.074 A 
ATOM     53  C   UNL A   1      42.481  27.562  30.776  1.00  0.00     0.029 A 
ATOM     54  N   UNL A   1      41.651  29.319  31.859  1.00  0.00    -0.354 N 
ATOM     55  N   UNL A   1      41.588  31.344  33.987  1.00  0.00    -0.248 NA
ATOM     56  C   UNL A   1      42.408  32.194  36.001  1.00  0.00     0.031 C 
ATOM     57  C   UNL A   1      43.238  27.767  31.933  1.00  0.00     0.029 A 
ATOM     58  C   UNL A   1      42.741  28.881  32.591  1.00  0.00     0.049 A 
ATOM     59  H   UNL A   1      41.086  30.092  32.091  1.00  0.00     0.167 HD
ATOM     60  C   UNL A   1      42.674  30.580  34.396  1.00  0.00     0.074 A 
ATOM     61  C   UNL A   1      43.158  31.165  35.630  1.00  0.00     0.031 C 
ATOM     62  C   UNL A   1      43.227  29.495  33.800  1.00  0.00     0.037 A 
BRANCH  49  63
ATOM     63  C   UNL A   1      40.311  27.657  28.674  1.00  0.00     0.057 A 
ATOM     64  C   UNL A   1      40.975  27.821  27.451  1.00  0.00     0.134 A 
ATOM     65  C   UNL A   1      39.562  26.485  28.847  1.00  0.00     0.134 A 
ATOM     66  F   UNL A   1      41.700  28.925  27.215  1.00  0.00    -0.206 F 
ATOM     67  C   UNL A   1      40.876  26.873  26.432  1.00  0.00     0.040 A 
ATOM     68  C   UNL A   1      39.481  25.515  27.848  1.00  0.00     0.040 A 
ATOM     69  F   UNL A   1      38.906  26.259  29.996  1.00  0.00    -0.206 F 
ATOM     70  C   UNL A   1      40.133  25.711  26.632  1.00  0.00     0.006 A 
ENDBRANCH  49  63
BRANCH  50  71
ATOM     71  C   UNL A   1      40.484  34.396  36.054  1.00  0.00     0.057 A 
ATOM     72  C   UNL A   1      41.262  35.559  35.982  1.00  0.00     0.134 A 
ATOM     73  C   UNL A   1      39.748  34.188  37.227  1.00  0.00     0.134 A 
ATOM     74  F   UNL A   1      42.003  35.807  34.891  1.00  0.00    -0.206 F 
ATOM     75  C   UNL A   1      41.331  36.462  37.043  1.00  0.00     0.040 A 
ATOM     76  C   UNL A   1      39.785  35.098  38.286  1.00  0.00     0.040 A 
ATOM     77  F   UNL A   1      38.975  33.100  37.358  1.00  0.00    -0.206 F 
ATOM     78  C   UNL A   1      40.587  36.234  38.199  1.00  0.00     0.006 A 
ENDBRANCH  50  71
BRANCH  62  79
ATOM     79  C   UNL A   1      44.460  28.908  34.422  1.00  0.00     0.057 A 
ATOM     80  C   UNL A   1      45.746  29.355  34.098  1.00  0.00     0.134 A 
ATOM     81  C   UNL A   1      44.346  27.931  35.422  1.00  0.00     0.134 A 
ATOM     82  F   UNL A   1      45.924  30.279  33.142  1.00  0.00    -0.206 F 
ATOM     83  C   UNL A   1      46.876  28.842  34.736  1.00  0.00     0.040 A 
ATOM     84  C   UNL A   1      45.465  27.433  36.087  1.00  0.00     0.040 A 
ATOM     85  F   UNL A   1      43.141  27.467  35.787  1.00  0.00    -0.206 F 
ATOM     86  C   UNL A   1      46.736  27.888  35.742  1.00  0.00     0.006 A 
ENDBRANCH  62  79
ENDBRANCH  36  37
ENDBRANCH  28  31
ENDBRANCH  26  27
ENDBRANCH  25  26
ENDBRANCH  24  25
ENDBRANCH   1  24
TORSDOF 16
ENDMDL
MODEL 3
REMARK VINA RESULT:     -10.8      2.341      5.027
REMARK SMILES CCc1cccc(-c2ccc([C@@H](C)C(=O)NCCCCCCNC(=O)c3ccc(-c4c5nc(c(-c6c(F)cccc6F)c6ccc([nH]6)c(-c6c(F)cccc6F)c6nc(c(-c7c(F)cccc7F)c7ccc4[nH]7)C=C6)C=C5)cc3)cc2)c1
REMARK SMILES IDX 19 1 18 2 17 3 16 4 14 5 15 6 12 8 13 9 11 10 8 11 9 12
REMARK SMILES IDX 81 13 10 14 80 15 7 16 3 17 4 18 82 19 5 20 6 21 2 22 1 23
REMARK SMILES IDX 20 24 21 25 22 26 23 27 24 28 25 30 26 31 27 32 79 33 28 34
REMARK SMILES IDX 78 35 29 36 30 37 31 38 72 39 32 40 77 41 71 42 73 43 33 44
REMARK SMILES IDX 76 45 70 46 69 47 34 49 60 50 43 51 59 52 44 53 47 54 58 55
REMARK SMILES IDX 74 56 45 57 46 58 57 60 75 61 48 62 35 63 36 64 41 65 37 66
REMARK SMILES IDX 38 67 40 68 42 69 39 70 61 71 62 72 67 73 63 74 64 75 66 76
REMARK SMILES IDX 68 77 65 78 49 79 50 80 55 81 51 82 52 83 54 84 56 85 53 86
REMARK H PARENT 16 7 23 29 73 48 47 59
REMARK Flexibility Score: inf
ROOT
ATOM      1  C   UNL A   1      32.480  29.693  25.181  1.00  0.00     0.002 C 
ENDROOT
BRANCH   1   2
ATOM      2  C   UNL A   1      31.623  29.157  24.031  1.00  0.00     0.021 C 
BRANCH   2   3
ATOM      3  C   UNL A   1      31.587  27.630  23.958  1.00  0.00     0.116 C 
BRANCH   3   4
ATOM      4  N   UNL A   1      30.699  27.072  24.953  1.00  0.00    -0.356 N 
ATOM      5  C   UNL A   1      30.880  26.075  25.862  1.00  0.00     0.227 C 
ATOM      6  O   UNL A   1      29.884  25.743  26.516  1.00  0.00    -0.274 OA
ATOM      7  H   UNL A   1      29.807  27.487  24.978  1.00  0.00     0.163 HD
BRANCH   5   8
ATOM      8  C   UNL A   1      32.230  25.387  26.116  1.00  0.00     0.105 C 
ATOM      9  C   UNL A   1      33.438  26.293  25.879  1.00  0.00     0.023 C 
BRANCH   8  10
ATOM     10  C   UNL A   1      32.325  23.986  25.533  1.00  0.00    -0.036 A 
ATOM     11  C   UNL A   1      32.705  21.349  24.496  1.00  0.00    -0.018 A 
ATOM     12  C   UNL A   1      31.801  21.607  25.536  1.00  0.00     0.009 A 
ATOM     13  C   UNL A   1      33.383  22.452  23.956  1.00  0.00     0.009 A 
ATOM     14  C   UNL A   1      31.585  22.904  26.013  1.00  0.00     0.005 A 
ATOM     15  C   UNL A   1      33.215  23.742  24.478  1.00  0.00     0.005 A 
BRANCH  11  16
ATOM     16  C   UNL A   1      32.921  19.972  23.994  1.00  0.00    -0.018 A 
ATOM     17  C   UNL A   1      34.114  17.820  24.103  1.00  0.00    -0.048 A 
ATOM     18  C   UNL A   1      33.343  17.355  23.030  1.00  0.00     0.004 A 
ATOM     19  C   UNL A   1      33.880  19.121  24.579  1.00  0.00     0.012 A 
ATOM     20  C   UNL A   1      32.376  18.167  22.444  1.00  0.00     0.001 A 
ATOM     21  C   UNL A   1      32.177  19.465  22.916  1.00  0.00     0.009 A 
BRANCH  17  22
ATOM     22  C   UNL A   1      35.185  16.908  24.657  1.00  0.00     0.032 C 
ATOM     23  C   UNL A   1      34.723  15.611  25.310  1.00  0.00     0.009 C 
ENDBRANCH  17  22
ENDBRANCH  11  16
ENDBRANCH   8  10
ENDBRANCH   5   8
ENDBRANCH   3   4
ENDBRANCH   2   3
ENDBRANCH   1   2
BRANCH   1  24
ATOM     24  C   UNL A   1      31.685  30.195  26.394  1.00  0.00     0.002 C 
BRANCH  24  25
ATOM     25  C   UNL A   1      31.569  31.716  26.504  1.00  0.00     0.021 C 
BRANCH  25  26
ATOM     26  C   UNL A   1      32.739  32.374  27.226  1.00  0.00     0.116 C 
BRANCH  26  27
ATOM     27  N   UNL A   1      32.473  33.778  27.502  1.00  0.00    -0.352 N 
ATOM     28  C   UNL A   1      33.042  34.593  28.450  1.00  0.00     0.251 C 
ATOM     29  H   UNL A   1      31.793  34.203  26.931  1.00  0.00     0.163 HD
ATOM     30  O   UNL A   1      32.544  35.676  28.728  1.00  0.00    -0.269 OA
BRANCH  28  31
ATOM     31  C   UNL A   1      34.268  34.139  29.136  1.00  0.00     0.039 A 
ATOM     32  C   UNL A   1      34.164  33.388  30.308  1.00  0.00     0.014 A 
ATOM     33  C   UNL A   1      35.519  34.451  28.598  1.00  0.00     0.014 A 
ATOM     34  C   UNL A   1      35.323  32.897  30.913  1.00  0.00     0.010 A 
ATOM     35  C   UNL A   1      36.662  33.895  29.154  1.00  0.00     0.010 A 
ATOM     36  C   UNL A   1      36.577  33.122  30.324  1.00  0.00    -0.014 A 
BRANCH  36  37
ATOM     37  C   UNL A   1      37.831  32.599  30.917  1.00  0.00     0.031 A 
ATOM     38  C   UNL A   1      38.496  31.403  30.294  1.00  0.00     0.074 A 
ATOM     39  C   UNL A   1      38.313  33.130  32.057  1.00  0.00     0.049 A 
ATOM     40  N   UNL A   1      39.499  30.688  30.737  1.00  0.00    -0.248 NA
ATOM     41  C   UNL A   1      37.934  30.925  29.020  1.00  0.00     0.031 C 
ATOM     42  C   UNL A   1      37.742  34.274  32.770  1.00  0.00     0.029 A 
ATOM     43  N   UNL A   1      39.384  32.758  32.831  1.00  0.00    -0.354 N 
ATOM     44  C   UNL A   1      39.666  29.663  29.813  1.00  0.00     0.074 A 
ATOM     45  C   UNL A   1      38.631  29.819  28.814  1.00  0.00     0.031 C 
ATOM     46  C   UNL A   1      38.477  34.520  33.866  1.00  0.00     0.029 A 
ATOM     47  C   UNL A   1      39.538  33.522  33.963  1.00  0.00     0.049 A 
ATOM     48  H   UNL A   1      39.985  32.015  32.596  1.00  0.00     0.167 HD
ATOM     49  C   UNL A   1      40.608  28.693  29.790  1.00  0.00     0.037 A 
ATOM     50  C   UNL A   1      40.423  33.414  34.972  1.00  0.00     0.037 A 
ATOM     51  C   UNL A   1      41.653  28.565  30.771  1.00  0.00     0.049 A 
ATOM     52  C   UNL A   1      41.448  32.312  34.935  1.00  0.00     0.074 A 
ATOM     53  C   UNL A   1      42.692  27.653  30.807  1.00  0.00     0.029 A 
ATOM     54  N   UNL A   1      41.788  29.375  31.889  1.00  0.00    -0.354 N 
ATOM     55  N   UNL A   1      41.629  31.382  34.029  1.00  0.00    -0.248 NA
ATOM     56  C   UNL A   1      42.393  32.245  36.059  1.00  0.00     0.031 C 
ATOM     57  C   UNL A   1      43.425  27.875  31.976  1.00  0.00     0.029 A 
ATOM     58  C   UNL A   1      42.882  28.967  32.633  1.00  0.00     0.049 A 
ATOM     59  H   UNL A   1      41.195  30.126  32.118  1.00  0.00     0.167 HD
ATOM     60  C   UNL A   1      42.735  30.651  34.448  1.00  0.00     0.074 A 
ATOM     61  C   UNL A   1      43.181  31.244  35.692  1.00  0.00     0.031 C 
ATOM     62  C   UNL A   1      43.331  29.590  33.853  1.00  0.00     0.037 A 
BRANCH  49  63
ATOM     63  C   UNL A   1      40.548  27.689  28.675  1.00  0.00     0.057 A 
ATOM     64  C   UNL A   1      39.725  26.557  28.737  1.00  0.00     0.134 A 
ATOM     65  C   UNL A   1      41.296  27.879  27.506  1.00  0.00     0.134 A 
ATOM     66  F   UNL A   1      38.991  26.308  29.832  1.00  0.00    -0.206 F 
ATOM     67  C   UNL A   1      39.671  25.636  27.689  1.00  0.00     0.040 A 
ATOM     68  C   UNL A   1      41.227  26.982  26.440  1.00  0.00     0.040 A 
ATOM     69  F   UNL A   1      42.101  28.946  27.377  1.00  0.00    -0.206 F 
ATOM     70  C   UNL A   1      40.417  25.852  26.533  1.00  0.00     0.006 A 
ENDBRANCH  49  63
BRANCH  50  71
ATOM     71  C   UNL A   1      40.396  34.382  36.098  1.00  0.00     0.057 A 
ATOM     72  C   UNL A   1      41.193  35.534  36.077  1.00  0.00     0.134 A 
ATOM     73  C   UNL A   1      39.594  34.178  37.228  1.00  0.00     0.134 A 
ATOM     74  F   UNL A   1      41.997  35.778  35.030  1.00  0.00    -0.206 F 
ATOM     75  C   UNL A   1      41.216  36.430  37.147  1.00  0.00     0.040 A 
ATOM     76  C   UNL A   1      39.585  35.080  38.293  1.00  0.00     0.040 A 
ATOM     77  F   UNL A   1      38.799  33.100  37.309  1.00  0.00    -0.206 F 
ATOM     78  C   UNL A   1      40.407  36.205  38.258  1.00  0.00     0.006 A 
ENDBRANCH  50  71
BRANCH  62  79
ATOM     79  C   UNL A   1      44.573  29.039  34.489  1.00  0.00     0.057 A 
ATOM     80  C   UNL A   1      45.846  29.548  34.204  1.00  0.00     0.134 A 
ATOM     81  C   UNL A   1      44.479  28.035  35.462  1.00  0.00     0.134 A 
ATOM     82  F   UNL A   1      46.006  30.501  33.274  1.00  0.00    -0.206 F 
ATOM     83  C   UNL A   1      46.984  29.067  34.856  1.00  0.00     0.040 A 
ATOM     84  C   UNL A   1      45.604  27.568  36.141  1.00  0.00     0.040 A 
ATOM     85  F   UNL A   1      43.287  27.512  35.789  1.00  0.00    -0.206 F 
ATOM     86  C   UNL A   1      46.862  28.083  35.835  1.00  0.00     0.006 A 
ENDBRANCH  62  79
ENDBRANCH  36  37
ENDBRANCH  28  31
ENDBRANCH  26  27
ENDBRANCH  25  26
ENDBRANCH  24  25
ENDBRANCH   1  24
TORSDOF 16
ENDMDL
