MODEL 1
REMARK VINA RESULT:      -9.3      0.000      0.000
REMARK SMILES O=C(NCCCCCCNC(=O)[C@H]1CSC2(CCCCC2)[NH2+]1)c1ccc(-c2c3nc(c(-c4c(F)cccc4F)c4ccc([nH]4)c(-c4c(F)cccc4F)c4nc(c(-c5c(F)cccc5F)c5ccc2[nH]5)C=C4)C=C3)cc1
REMARK SMILES IDX 5 1 4 2 3 3 1 4 2 5 23 7 24 8 76 9 25 10 75 11 26 12 27 13
REMARK SMILES IDX 28 14 69 15 29 16 74 17 68 18 70 19 30 20 73 21 67 22 66 23
REMARK SMILES IDX 31 25 57 26 40 27 56 28 41 29 44 30 55 31 71 32 42 33 43 34
REMARK SMILES IDX 54 36 72 37 45 38 32 39 33 40 38 41 34 42 35 43 37 44 39 45
REMARK SMILES IDX 36 46 58 47 59 48 64 49 60 50 61 51 63 52 65 53 62 54 46 55
REMARK SMILES IDX 47 56 52 57 48 58 49 59 51 60 53 61 50 62 6 63 7 64 8 65
REMARK SMILES IDX 9 66 10 67 11 68 12 70 13 71 14 72 22 73 15 74 16 75 17 78
REMARK SMILES IDX 21 79 18 80 20 81 19 82
REMARK H PARENT 3 6 70 24 44 35 10 69 22 76 22 77
REMARK Flexibility Score: inf
ROOT
ATOM      1  C   UNL A   1      32.991  36.693  30.991  1.00  0.00     0.021 C 
ENDROOT
BRANCH   1   2
ATOM      2  C   UNL A   1      33.497  36.478  29.570  1.00  0.00     0.116 C 
BRANCH   2   3
ATOM      3  N   UNL A   1      32.711  35.488  28.853  1.00  0.00    -0.352 N 
ATOM      4  O   UNL A   1      32.382  33.630  27.606  1.00  0.00    -0.269 OA
ATOM      5  C   UNL A   1      33.111  34.270  28.355  1.00  0.00     0.251 C 
ATOM      6  H   UNL A   1      31.765  35.719  28.703  1.00  0.00     0.163 HD
BRANCH   5   7
ATOM      7  C   UNL A   1      34.444  33.745  28.722  1.00  0.00     0.039 A 
ATOM      8  C   UNL A   1      35.591  34.253  28.110  1.00  0.00     0.014 A 
ATOM      9  C   UNL A   1      34.545  32.731  29.680  1.00  0.00     0.014 A 
ATOM     10  C   UNL A   1      36.821  33.658  28.354  1.00  0.00     0.010 A 
ATOM     11  C   UNL A   1      35.798  32.195  29.991  1.00  0.00     0.010 A 
ATOM     12  C   UNL A   1      36.943  32.637  29.311  1.00  0.00    -0.014 A 
BRANCH  12  13
ATOM     13  C   UNL A   1      38.296  32.116  29.629  1.00  0.00     0.031 A 
ATOM     14  C   UNL A   1      39.257  32.891  30.484  1.00  0.00     0.074 A 
ATOM     15  C   UNL A   1      38.628  30.891  29.173  1.00  0.00     0.049 A 
ATOM     16  N   UNL A   1      40.450  32.543  30.899  1.00  0.00    -0.248 NA
ATOM     17  C   UNL A   1      38.835  34.228  30.926  1.00  0.00     0.031 C 
ATOM     18  C   UNL A   1      37.781  30.057  28.314  1.00  0.00     0.029 A 
ATOM     19  N   UNL A   1      39.742  30.123  29.386  1.00  0.00    -0.354 N 
ATOM     20  C   UNL A   1      40.923  33.616  31.644  1.00  0.00     0.074 A 
ATOM     21  C   UNL A   1      39.902  34.641  31.598  1.00  0.00     0.031 C 
ATOM     22  C   UNL A   1      38.382  28.875  28.121  1.00  0.00     0.029 A 
ATOM     23  C   UNL A   1      39.677  28.889  28.788  1.00  0.00     0.049 A 
ATOM     24  H   UNL A   1      40.514  30.427  29.917  1.00  0.00     0.167 HD
ATOM     25  C   UNL A   1      42.096  33.728  32.312  1.00  0.00     0.037 A 
ATOM     26  C   UNL A   1      40.566  27.880  28.770  1.00  0.00     0.037 A 
ATOM     27  C   UNL A   1      43.109  32.703  32.355  1.00  0.00     0.049 A 
ATOM     28  C   UNL A   1      41.858  28.036  29.514  1.00  0.00     0.074 A 
ATOM     29  C   UNL A   1      44.331  32.722  33.006  1.00  0.00     0.029 A 
ATOM     30  N   UNL A   1      43.016  31.473  31.720  1.00  0.00    -0.354 N 
ATOM     31  N   UNL A   1      42.280  29.050  30.230  1.00  0.00    -0.248 NA
ATOM     32  C   UNL A   1      42.798  26.910  29.447  1.00  0.00     0.031 C 
ATOM     33  C   UNL A   1      44.990  31.516  32.739  1.00  0.00     0.029 A 
ATOM     34  C   UNL A   1      44.162  30.729  31.956  1.00  0.00     0.049 A 
ATOM     35  H   UNL A   1      42.249  31.172  31.182  1.00  0.00     0.167 HD
ATOM     36  C   UNL A   1      43.531  28.683  30.704  1.00  0.00     0.074 A 
ATOM     37  C   UNL A   1      43.784  27.341  30.221  1.00  0.00     0.031 C 
ATOM     38  C   UNL A   1      44.397  29.397  31.463  1.00  0.00     0.037 A 
BRANCH  25  39
ATOM     39  C   UNL A   1      42.357  35.009  33.052  1.00  0.00     0.057 A 
ATOM     40  C   UNL A   1      41.985  35.171  34.393  1.00  0.00     0.134 A 
ATOM     41  C   UNL A   1      43.035  36.069  32.437  1.00  0.00     0.134 A 
ATOM     42  F   UNL A   1      41.323  34.199  35.038  1.00  0.00    -0.206 F 
ATOM     43  C   UNL A   1      42.267  36.348  35.091  1.00  0.00     0.040 A 
ATOM     44  C   UNL A   1      43.341  37.241  33.131  1.00  0.00     0.040 A 
ATOM     45  F   UNL A   1      43.424  35.976  31.157  1.00  0.00    -0.206 F 
ATOM     46  C   UNL A   1      42.954  37.384  34.462  1.00  0.00     0.006 A 
ENDBRANCH  25  39
BRANCH  26  47
ATOM     47  C   UNL A   1      40.261  26.642  28.011  1.00  0.00     0.057 A 
ATOM     48  C   UNL A   1      39.427  25.651  28.537  1.00  0.00     0.134 A 
ATOM     49  C   UNL A   1      40.793  26.427  26.733  1.00  0.00     0.134 A 
ATOM     50  F   UNL A   1      38.898  25.794  29.763  1.00  0.00    -0.206 F 
ATOM     51  C   UNL A   1      39.145  24.482  27.829  1.00  0.00     0.040 A 
ATOM     52  C   UNL A   1      40.497  25.277  26.003  1.00  0.00     0.040 A 
ATOM     53  F   UNL A   1      41.591  27.345  26.168  1.00  0.00    -0.206 F 
ATOM     54  C   UNL A   1      39.677  24.296  26.555  1.00  0.00     0.006 A 
ENDBRANCH  26  47
BRANCH  38  55
ATOM     55  C   UNL A   1      45.688  28.725  31.824  1.00  0.00     0.057 A 
ATOM     56  C   UNL A   1      45.816  27.955  32.987  1.00  0.00     0.134 A 
ATOM     57  C   UNL A   1      46.812  28.850  31.000  1.00  0.00     0.134 A 
ATOM     58  F   UNL A   1      44.778  27.812  33.825  1.00  0.00    -0.206 F 
ATOM     59  C   UNL A   1      47.027  27.355  33.333  1.00  0.00     0.040 A 
ATOM     60  C   UNL A   1      48.022  28.233  31.323  1.00  0.00     0.040 A 
ATOM     61  F   UNL A   1      46.754  29.569  29.869  1.00  0.00    -0.206 F 
ATOM     62  C   UNL A   1      48.134  27.490  32.496  1.00  0.00     0.006 A 
ENDBRANCH  38  55
ENDBRANCH  12  13
ENDBRANCH   5   7
ENDBRANCH   2   3
ENDBRANCH   1   2
BRANCH   1  63
ATOM     63  C   UNL A   1      33.228  35.508  31.926  1.00  0.00     0.002 C 
BRANCH  63  64
ATOM     64  C   UNL A   1      34.458  35.641  32.831  1.00  0.00     0.002 C 
BRANCH  64  65
ATOM     65  C   UNL A   1      35.507  34.531  32.670  1.00  0.00     0.021 C 
BRANCH  65  66
ATOM     66  C   UNL A   1      36.691  34.656  33.634  1.00  0.00     0.116 C 
BRANCH  66  67
ATOM     67  N   UNL A   1      36.279  34.270  34.967  1.00  0.00    -0.351 N 
ATOM     68  C   UNL A   1      36.908  33.537  35.931  1.00  0.00     0.279 C 
ATOM     69  H   UNL A   1      35.385  34.593  35.223  1.00  0.00     0.163 HD
ATOM     70  O   UNL A   1      36.244  33.285  36.939  1.00  0.00    -0.268 OA
BRANCH  68  71
ATOM     71  C   UNL A   1      38.405  33.175  35.804  1.00  0.00     0.283 C 
ATOM     72  C   UNL A   1      38.818  32.115  36.820  1.00  0.00     0.151 C 
ATOM     73  N   UNL A   1      38.809  32.711  34.458  1.00  0.00    -0.322 N 
ATOM     74  S   UNL A   1      38.468  30.551  35.989  1.00  0.00    -0.089 SA
ATOM     75  C   UNL A   1      38.738  31.249  34.329  1.00  0.00     0.143 C 
ATOM     76  H   UNL A   1      39.769  33.009  34.283  1.00  0.00     0.348 HD
ATOM     77  H   UNL A   1      38.165  33.116  33.780  1.00  0.00     0.348 HD
ATOM     78  C   UNL A   1      37.608  30.853  33.356  1.00  0.00     0.081 C 
ATOM     79  C   UNL A   1      40.103  30.779  33.781  1.00  0.00     0.081 C 
ATOM     80  C   UNL A   1      37.636  29.381  32.942  1.00  0.00     0.007 C 
ATOM     81  C   UNL A   1      40.123  29.302  33.379  1.00  0.00     0.007 C 
ATOM     82  C   UNL A   1      39.003  28.978  32.396  1.00  0.00     0.001 C 
ENDBRANCH  68  71
ENDBRANCH  66  67
ENDBRANCH  65  66
ENDBRANCH  64  65
ENDBRANCH  63  64
ENDBRANCH   1  63
TORSDOF 13
ENDMDL
MODEL 2
REMARK VINA RESULT:      -9.3      2.781      7.778
REMARK SMILES O=C(NCCCCCCNC(=O)[C@H]1CSC2(CCCCC2)[NH2+]1)c1ccc(-c2c3nc(c(-c4c(F)cccc4F)c4ccc([nH]4)c(-c4c(F)cccc4F)c4nc(c(-c5c(F)cccc5F)c5ccc2[nH]5)C=C4)C=C3)cc1
REMARK SMILES IDX 5 1 4 2 3 3 1 4 2 5 23 7 24 8 76 9 25 10 75 11 26 12 27 13
REMARK SMILES IDX 28 14 69 15 29 16 74 17 68 18 70 19 30 20 73 21 67 22 66 23
REMARK SMILES IDX 31 25 57 26 40 27 56 28 41 29 44 30 55 31 71 32 42 33 43 34
REMARK SMILES IDX 54 36 72 37 45 38 32 39 33 40 38 41 34 42 35 43 37 44 39 45
REMARK SMILES IDX 36 46 58 47 59 48 64 49 60 50 61 51 63 52 65 53 62 54 46 55
REMARK SMILES IDX 47 56 52 57 48 58 49 59 51 60 53 61 50 62 6 63 7 64 8 65
REMARK SMILES IDX 9 66 10 67 11 68 12 70 13 71 14 72 22 73 15 74 16 75 17 78
REMARK SMILES IDX 21 79 18 80 20 81 19 82
REMARK H PARENT 3 6 70 24 44 35 10 69 22 76 22 77
REMARK Flexibility Score: inf
ROOT
ATOM      1  C   UNL A   1      33.087  34.842  28.999  1.00  0.00     0.021 C 
ENDROOT
BRANCH   1   2
ATOM      2  C   UNL A   1      33.372  36.175  29.679  1.00  0.00     0.116 C 
BRANCH   2   3
ATOM      3  N   UNL A   1      32.452  36.439  30.773  1.00  0.00    -0.352 N 
ATOM      4  O   UNL A   1      31.506  36.091  32.797  1.00  0.00    -0.269 OA
ATOM      5  C   UNL A   1      32.459  35.918  32.045  1.00  0.00     0.251 C 
ATOM      6  H   UNL A   1      31.728  37.077  30.578  1.00  0.00     0.163 HD
BRANCH   5   7
ATOM      7  C   UNL A   1      33.626  35.129  32.495  1.00  0.00     0.039 A 
ATOM      8  C   UNL A   1      34.895  35.711  32.532  1.00  0.00     0.014 A 
ATOM      9  C   UNL A   1      33.450  33.796  32.878  1.00  0.00     0.014 A 
ATOM     10  C   UNL A   1      36.003  34.926  32.818  1.00  0.00     0.010 A 
ATOM     11  C   UNL A   1      34.558  33.031  33.254  1.00  0.00     0.010 A 
ATOM     12  C   UNL A   1      35.847  33.584  33.202  1.00  0.00    -0.014 A 
BRANCH  12  13
ATOM     13  C   UNL A   1      37.048  32.818  33.619  1.00  0.00     0.031 A 
ATOM     14  C   UNL A   1      37.650  31.759  32.740  1.00  0.00     0.074 A 
ATOM     15  C   UNL A   1      37.628  33.135  34.793  1.00  0.00     0.049 A 
ATOM     16  N   UNL A   1      38.731  31.046  32.937  1.00  0.00    -0.248 NA
ATOM     17  C   UNL A   1      36.950  31.452  31.484  1.00  0.00     0.031 C 
ATOM     18  C   UNL A   1      37.118  34.132  35.739  1.00  0.00     0.029 A 
ATOM     19  N   UNL A   1      38.780  32.681  35.380  1.00  0.00    -0.354 N 
ATOM     20  C   UNL A   1      38.839  30.204  31.837  1.00  0.00     0.074 A 
ATOM     21  C   UNL A   1      37.695  30.471  30.990  1.00  0.00     0.031 C 
ATOM     22  C   UNL A   1      37.980  34.253  36.758  1.00  0.00     0.029 A 
ATOM     23  C   UNL A   1      39.069  33.304  36.569  1.00  0.00     0.049 A 
ATOM     24  H   UNL A   1      39.345  31.977  34.987  1.00  0.00     0.167 HD
ATOM     25  C   UNL A   1      39.809  29.301  31.557  1.00  0.00     0.037 A 
ATOM     26  C   UNL A   1      40.094  33.124  37.421  1.00  0.00     0.037 A 
ATOM     27  C   UNL A   1      40.946  29.040  32.404  1.00  0.00     0.049 A 
ATOM     28  C   UNL A   1      41.149  32.113  37.088  1.00  0.00     0.074 A 
ATOM     29  C   UNL A   1      41.984  28.145  32.206  1.00  0.00     0.029 A 
ATOM     30  N   UNL A   1      41.195  29.676  33.611  1.00  0.00    -0.354 N 
ATOM     31  N   UNL A   1      41.246  31.340  36.033  1.00  0.00    -0.248 NA
ATOM     32  C   UNL A   1      42.236  31.948  38.060  1.00  0.00     0.031 C 
ATOM     33  C   UNL A   1      42.843  28.217  33.309  1.00  0.00     0.029 A 
ATOM     34  C   UNL A   1      42.364  29.187  34.173  1.00  0.00     0.049 A 
ATOM     35  H   UNL A   1      40.626  30.374  34.010  1.00  0.00     0.167 HD
ATOM     36  C   UNL A   1      42.406  30.601  36.211  1.00  0.00     0.074 A 
ATOM     37  C   UNL A   1      42.995  31.042  37.459  1.00  0.00     0.031 C 
ATOM     38  C   UNL A   1      42.931  29.636  35.419  1.00  0.00     0.037 A 
BRANCH  25  39
ATOM     39  C   UNL A   1      39.685  28.518  30.281  1.00  0.00     0.057 A 
ATOM     40  C   UNL A   1      40.211  28.994  29.074  1.00  0.00     0.134 A 
ATOM     41  C   UNL A   1      39.085  27.253  30.270  1.00  0.00     0.134 A 
ATOM     42  F   UNL A   1      40.789  30.203  29.012  1.00  0.00    -0.206 F 
ATOM     43  C   UNL A   1      40.132  28.245  27.897  1.00  0.00     0.040 A 
ATOM     44  C   UNL A   1      39.019  26.485  29.105  1.00  0.00     0.040 A 
ATOM     45  F   UNL A   1      38.566  26.736  31.394  1.00  0.00    -0.206 F 
ATOM     46  C   UNL A   1      39.541  26.983  27.913  1.00  0.00     0.006 A 
ENDBRANCH  25  39
BRANCH  26  47
ATOM     47  C   UNL A   1      40.158  33.916  38.675  1.00  0.00     0.057 A 
ATOM     48  C   UNL A   1      40.871  35.117  38.741  1.00  0.00     0.134 A 
ATOM     49  C   UNL A   1      39.497  33.491  39.834  1.00  0.00     0.134 A 
ATOM     50  F   UNL A   1      41.536  35.569  37.667  1.00  0.00    -0.206 F 
ATOM     51  C   UNL A   1      40.940  35.860  39.920  1.00  0.00     0.040 A 
ATOM     52  C   UNL A   1      39.535  34.238  41.011  1.00  0.00     0.040 A 
ATOM     53  F   UNL A   1      38.788  32.354  39.831  1.00  0.00    -0.206 F 
ATOM     54  C   UNL A   1      40.265  35.422  41.059  1.00  0.00     0.006 A 
ENDBRANCH  26  47
BRANCH  38  55
ATOM     55  C   UNL A   1      44.214  29.011  35.879  1.00  0.00     0.057 A 
ATOM     56  C   UNL A   1      45.460  29.561  35.550  1.00  0.00     0.134 A 
ATOM     57  C   UNL A   1      44.202  27.849  36.659  1.00  0.00     0.134 A 
ATOM     58  F   UNL A   1      45.537  30.664  34.791  1.00  0.00    -0.206 F 
ATOM     59  C   UNL A   1      46.651  28.959  35.957  1.00  0.00     0.040 A 
ATOM     60  C   UNL A   1      45.387  27.253  37.093  1.00  0.00     0.040 A 
ATOM     61  F   UNL A   1      43.042  27.275  37.013  1.00  0.00    -0.206 F 
ATOM     62  C   UNL A   1      46.616  27.803  36.735  1.00  0.00     0.006 A 
ENDBRANCH  38  55
ENDBRANCH  12  13
ENDBRANCH   5   7
ENDBRANCH   2   3
ENDBRANCH   1   2
BRANCH   1  63
ATOM     63  C   UNL A   1      34.180  33.793  29.192  1.00  0.00     0.002 C 
BRANCH  63  64
ATOM     64  C   UNL A   1      35.611  34.338  29.133  1.00  0.00     0.002 C 
BRANCH  64  65
ATOM     65  C   UNL A   1      36.677  33.325  28.690  1.00  0.00     0.021 C 
BRANCH  65  66
ATOM     66  C   UNL A   1      38.107  33.868  28.748  1.00  0.00     0.116 C 
BRANCH  66  67
ATOM     67  N   UNL A   1      38.340  34.497  30.031  1.00  0.00    -0.351 N 
ATOM     68  C   UNL A   1      39.295  34.286  30.982  1.00  0.00     0.279 C 
ATOM     69  H   UNL A   1      37.692  35.203  30.258  1.00  0.00     0.163 HD
ATOM     70  O   UNL A   1      39.163  34.917  32.033  1.00  0.00    -0.268 OA
BRANCH  68  71
ATOM     71  C   UNL A   1      40.533  33.409  30.684  1.00  0.00     0.283 C 
ATOM     72  C   UNL A   1      41.644  34.211  30.014  1.00  0.00     0.151 C 
ATOM     73  N   UNL A   1      41.100  32.730  31.871  1.00  0.00    -0.322 N 
ATOM     74  S   UNL A   1      42.582  34.899  31.395  1.00  0.00    -0.089 SA
ATOM     75  C   UNL A   1      42.165  33.518  32.507  1.00  0.00     0.143 C 
ATOM     76  H   UNL A   1      41.486  31.831  31.581  1.00  0.00     0.348 HD
ATOM     77  H   UNL A   1      40.351  32.610  32.552  1.00  0.00     0.348 HD
ATOM     78  C   UNL A   1      41.703  34.022  33.890  1.00  0.00     0.081 C 
ATOM     79  C   UNL A   1      43.385  32.584  32.659  1.00  0.00     0.081 C 
ATOM     80  C   UNL A   1      42.830  34.608  34.741  1.00  0.00     0.007 C 
ATOM     81  C   UNL A   1      44.511  33.184  33.505  1.00  0.00     0.007 C 
ATOM     82  C   UNL A   1      44.001  33.637  34.869  1.00  0.00     0.001 C 
ENDBRANCH  68  71
ENDBRANCH  66  67
ENDBRANCH  65  66
ENDBRANCH  64  65
ENDBRANCH  63  64
ENDBRANCH   1  63
TORSDOF 13
ENDMDL
MODEL 3
REMARK VINA RESULT:      -9.2      2.755      7.712
REMARK SMILES O=C(NCCCCCCNC(=O)[C@H]1CSC2(CCCCC2)[NH2+]1)c1ccc(-c2c3nc(c(-c4c(F)cccc4F)c4ccc([nH]4)c(-c4c(F)cccc4F)c4nc(c(-c5c(F)cccc5F)c5ccc2[nH]5)C=C4)C=C3)cc1
REMARK SMILES IDX 5 1 4 2 3 3 1 4 2 5 23 7 24 8 76 9 25 10 75 11 26 12 27 13
REMARK SMILES IDX 28 14 69 15 29 16 74 17 68 18 70 19 30 20 73 21 67 22 66 23
REMARK SMILES IDX 31 25 57 26 40 27 56 28 41 29 44 30 55 31 71 32 42 33 43 34
REMARK SMILES IDX 54 36 72 37 45 38 32 39 33 40 38 41 34 42 35 43 37 44 39 45
REMARK SMILES IDX 36 46 58 47 59 48 64 49 60 50 61 51 63 52 65 53 62 54 46 55
REMARK SMILES IDX 47 56 52 57 48 58 49 59 51 60 53 61 50 62 6 63 7 64 8 65
REMARK SMILES IDX 9 66 10 67 11 68 12 70 13 71 14 72 22 73 15 74 16 75 17 78
REMARK SMILES IDX 21 79 18 80 20 81 19 82
REMARK H PARENT 3 6 70 24 44 35 10 69 22 76 22 77
REMARK Flexibility Score: inf
ROOT
ATOM      1  C   UNL A   1      35.471  33.569  28.357  1.00  0.00     0.021 C 
ENDROOT
BRANCH   1   2
ATOM      2  C   UNL A   1      35.126  32.475  29.360  1.00  0.00     0.116 C 
BRANCH   2   3
ATOM      3  N   UNL A   1      34.390  31.381  28.746  1.00  0.00    -0.352 N 
ATOM      4  O   UNL A   1      34.151  29.474  27.555  1.00  0.00    -0.269 OA
ATOM      5  C   UNL A   1      34.878  30.214  28.209  1.00  0.00     0.251 C 
ATOM      6  H   UNL A   1      33.412  31.491  28.710  1.00  0.00     0.163 HD
BRANCH   5   7
ATOM      7  C   UNL A   1      36.300  29.865  28.414  1.00  0.00     0.039 A 
ATOM      8  C   UNL A   1      37.227  30.064  27.389  1.00  0.00     0.014 A 
ATOM      9  C   UNL A   1      36.708  29.328  29.639  1.00  0.00     0.014 A 
ATOM     10  C   UNL A   1      38.527  29.603  27.539  1.00  0.00     0.010 A 
ATOM     11  C   UNL A   1      38.041  28.948  29.819  1.00  0.00     0.010 A 
ATOM     12  C   UNL A   1      38.955  29.059  28.761  1.00  0.00    -0.014 A 
BRANCH  12  13
ATOM     13  C   UNL A   1      40.386  28.694  28.916  1.00  0.00     0.031 A 
ATOM     14  C   UNL A   1      40.907  27.353  28.484  1.00  0.00     0.074 A 
ATOM     15  C   UNL A   1      41.229  29.623  29.407  1.00  0.00     0.049 A 
ATOM     16  N   UNL A   1      42.138  26.907  28.499  1.00  0.00    -0.248 NA
ATOM     17  C   UNL A   1      39.924  26.383  27.978  1.00  0.00     0.031 C 
ATOM     18  C   UNL A   1      40.830  30.952  29.880  1.00  0.00     0.029 A 
ATOM     19  N   UNL A   1      42.590  29.609  29.566  1.00  0.00    -0.354 N 
ATOM     20  C   UNL A   1      42.081  25.607  28.011  1.00  0.00     0.074 A 
ATOM     21  C   UNL A   1      40.687  25.323  27.739  1.00  0.00     0.031 C 
ATOM     22  C   UNL A   1      41.926  31.643  30.223  1.00  0.00     0.029 A 
ATOM     23  C   UNL A   1      43.095  30.791  30.052  1.00  0.00     0.049 A 
ATOM     24  H   UNL A   1      43.150  28.829  29.353  1.00  0.00     0.167 HD
ATOM     25  C   UNL A   1      43.098  24.738  27.801  1.00  0.00     0.037 A 
ATOM     26  C   UNL A   1      44.359  31.146  30.339  1.00  0.00     0.037 A 
ATOM     27  C   UNL A   1      44.484  25.028  28.074  1.00  0.00     0.049 A 
ATOM     28  C   UNL A   1      45.464  30.161  30.101  1.00  0.00     0.074 A 
ATOM     29  C   UNL A   1      45.589  24.214  27.892  1.00  0.00     0.029 A 
ATOM     30  N   UNL A   1      44.955  26.229  28.584  1.00  0.00    -0.354 N 
ATOM     31  N   UNL A   1      45.393  28.943  29.621  1.00  0.00    -0.248 NA
ATOM     32  C   UNL A   1      46.823  30.597  30.446  1.00  0.00     0.031 C 
ATOM     33  C   UNL A   1      46.724  24.910  28.323  1.00  0.00     0.029 A 
ATOM     34  C   UNL A   1      46.333  26.173  28.733  1.00  0.00     0.049 A 
ATOM     35  H   UNL A   1      44.394  27.007  28.807  1.00  0.00     0.167 HD
ATOM     36  C   UNL A   1      46.696  28.469  29.599  1.00  0.00     0.074 A 
ATOM     37  C   UNL A   1      47.540  29.542  30.085  1.00  0.00     0.031 C 
ATOM     38  C   UNL A   1      47.154  27.251  29.222  1.00  0.00     0.037 A 
BRANCH  25  39
ATOM     39  C   UNL A   1      42.755  23.383  27.253  1.00  0.00     0.057 A 
ATOM     40  C   UNL A   1      42.851  23.098  25.885  1.00  0.00     0.134 A 
ATOM     41  C   UNL A   1      42.379  22.337  28.106  1.00  0.00     0.134 A 
ATOM     42  F   UNL A   1      43.195  24.057  25.012  1.00  0.00    -0.206 F 
ATOM     43  C   UNL A   1      42.572  21.825  25.383  1.00  0.00     0.040 A 
ATOM     44  C   UNL A   1      42.119  21.055  27.619  1.00  0.00     0.040 A 
ATOM     45  F   UNL A   1      42.274  22.541  29.427  1.00  0.00    -0.206 F 
ATOM     46  C   UNL A   1      42.212  20.797  26.253  1.00  0.00     0.006 A 
ENDBRANCH  25  39
BRANCH  26  47
ATOM     47  C   UNL A   1      44.639  32.495  30.891  1.00  0.00     0.057 A 
ATOM     48  C   UNL A   1      44.874  33.591  30.055  1.00  0.00     0.134 A 
ATOM     49  C   UNL A   1      44.668  32.719  32.274  1.00  0.00     0.134 A 
ATOM     50  F   UNL A   1      44.874  33.435  28.722  1.00  0.00    -0.206 F 
ATOM     51  C   UNL A   1      45.145  34.858  30.571  1.00  0.00     0.040 A 
ATOM     52  C   UNL A   1      44.909  33.986  32.803  1.00  0.00     0.040 A 
ATOM     53  F   UNL A   1      44.438  31.712  33.128  1.00  0.00    -0.206 F 
ATOM     54  C   UNL A   1      45.158  35.059  31.950  1.00  0.00     0.006 A 
ENDBRANCH  26  47
BRANCH  38  55
ATOM     55  C   UNL A   1      48.634  27.031  29.308  1.00  0.00     0.057 A 
ATOM     56  C   UNL A   1      49.493  27.388  28.260  1.00  0.00     0.134 A 
ATOM     57  C   UNL A   1      49.206  26.457  30.450  1.00  0.00     0.134 A 
ATOM     58  F   UNL A   1      49.003  27.927  27.133  1.00  0.00    -0.206 F 
ATOM     59  C   UNL A   1      50.866  27.155  28.334  1.00  0.00     0.040 A 
ATOM     60  C   UNL A   1      50.581  26.243  30.545  1.00  0.00     0.040 A 
ATOM     61  F   UNL A   1      48.439  26.098  31.490  1.00  0.00    -0.206 F 
ATOM     62  C   UNL A   1      51.414  26.584  29.482  1.00  0.00     0.006 A 
ENDBRANCH  38  55
ENDBRANCH  12  13
ENDBRANCH   5   7
ENDBRANCH   2   3
ENDBRANCH   1   2
BRANCH   1  63
ATOM     63  C   UNL A   1      34.266  34.362  27.855  1.00  0.00     0.002 C 
BRANCH  63  64
ATOM     64  C   UNL A   1      34.176  35.798  28.385  1.00  0.00     0.002 C 
BRANCH  64  65
ATOM     65  C   UNL A   1      32.903  36.119  29.181  1.00  0.00     0.021 C 
BRANCH  65  66
ATOM     66  C   UNL A   1      33.137  36.271  30.687  1.00  0.00     0.116 C 
BRANCH  66  67
ATOM     67  N   UNL A   1      33.129  34.967  31.316  1.00  0.00    -0.351 N 
ATOM     68  C   UNL A   1      34.000  34.377  32.186  1.00  0.00     0.279 C 
ATOM     69  H   UNL A   1      32.358  34.406  31.073  1.00  0.00     0.163 HD
ATOM     70  O   UNL A   1      33.771  33.198  32.464  1.00  0.00    -0.268 OA
BRANCH  68  71
ATOM     71  C   UNL A   1      35.115  35.198  32.872  1.00  0.00     0.283 C 
ATOM     72  C   UNL A   1      35.154  34.949  34.377  1.00  0.00     0.151 C 
ATOM     73  N   UNL A   1      36.471  34.962  32.328  1.00  0.00    -0.322 N 
ATOM     74  S   UNL A   1      36.232  33.512  34.557  1.00  0.00    -0.089 SA
ATOM     75  C   UNL A   1      37.189  33.908  33.058  1.00  0.00     0.143 C 
ATOM     76  H   UNL A   1      37.006  35.828  32.392  1.00  0.00     0.348 HD
ATOM     77  H   UNL A   1      36.371  34.658  31.359  1.00  0.00     0.348 HD
ATOM     78  C   UNL A   1      37.376  32.668  32.160  1.00  0.00     0.081 C 
ATOM     79  C   UNL A   1      38.561  34.492  33.455  1.00  0.00     0.081 C 
ATOM     80  C   UNL A   1      38.348  31.634  32.730  1.00  0.00     0.007 C 
ATOM     81  C   UNL A   1      39.523  33.451  34.033  1.00  0.00     0.007 C 
ATOM     82  C   UNL A   1      39.691  32.264  33.090  1.00  0.00     0.001 C 
ENDBRANCH  68  71
ENDBRANCH  66  67
ENDBRANCH  65  66
ENDBRANCH  64  65
ENDBRANCH  63  64
ENDBRANCH   1  63
TORSDOF 13
ENDMDL
