MODEL 1
REMARK VINA RESULT:     -10.7      0.000      0.000
REMARK SMILES Cc1cccc(OCC[N@H+]2CCO[C@@H](CC(=O)NCCCCCCNC(=O)c3ccc(-c4c5nc(c(-c6c(F)cccc6F)c6ccc([nH]6)c(-c6c(F)cccc6F)c6nc(c(-c7c(F)cccc7F)c7ccc4[nH]7)C=C6)C=C5)cc3)C2)c1
REMARK SMILES IDX 20 1 19 2 18 3 16 4 17 5 15 7 14 8 10 9 11 10 82 11 12 13
REMARK SMILES IDX 13 14 9 15 8 16 7 17 6 18 1 19 2 20 3 21 83 22 4 23 5 24
REMARK SMILES IDX 21 25 22 26 23 27 24 28 25 29 26 30 27 32 28 33 29 34 81 35
REMARK SMILES IDX 30 36 80 37 31 38 32 39 33 40 74 41 34 42 79 43 73 44 75 45
REMARK SMILES IDX 35 46 78 47 72 48 71 49 36 51 62 52 45 53 61 54 46 55 49 56
REMARK SMILES IDX 60 57 76 58 47 59 48 60 59 62 77 63 50 64 37 65 38 66 43 67
REMARK SMILES IDX 39 68 40 69 42 70 44 71 41 72 63 73 64 74 69 75 65 76 66 77
REMARK SMILES IDX 68 78 70 79 67 80 51 81 52 82 57 83 53 84 54 85 56 86 58 87
REMARK SMILES IDX 55 88
REMARK H PARENT 18 6 10 12 25 31 75 50 49 61
REMARK Flexibility Score: inf
ROOT
ATOM      1  C   UNL A   1      39.064  23.005  26.479  1.00  0.00     0.021 C 
ENDROOT
BRANCH   1   2
ATOM      2  C   UNL A   1      37.684  23.578  26.148  1.00  0.00     0.116 C 
BRANCH   2   3
ATOM      3  N   UNL A   1      37.452  23.597  24.718  1.00  0.00    -0.356 N 
ATOM      4  C   UNL A   1      36.592  22.838  23.979  1.00  0.00     0.222 C 
ATOM      5  O   UNL A   1      36.581  22.975  22.757  1.00  0.00    -0.275 OA
ATOM      6  H   UNL A   1      37.989  24.246  24.210  1.00  0.00     0.163 HD
BRANCH   4   7
ATOM      7  C   UNL A   1      35.683  21.860  24.681  1.00  0.00     0.138 C 
BRANCH   7   8
ATOM      8  C   UNL A   1      34.228  22.305  24.784  1.00  0.00     0.182 C 
ATOM      9  N   UNL A   1      32.514  23.917  25.353  1.00  0.00    -0.328 N 
ATOM     10  C   UNL A   1      31.823  23.689  24.089  1.00  0.00     0.291 C 
ATOM     11  C   UNL A   1      33.963  23.765  25.203  1.00  0.00     0.295 C 
ATOM     12  H   UNL A   1      32.211  23.158  25.962  1.00  0.00     0.348 HD
ATOM     13  C   UNL A   1      32.174  22.278  23.580  1.00  0.00     0.222 C 
ATOM     14  O   UNL A   1      33.593  22.058  23.502  1.00  0.00    -0.366 OA
BRANCH   9  15
ATOM     15  C   UNL A   1      32.058  25.024  26.175  1.00  0.00     0.304 C 
BRANCH  15  16
ATOM     16  C   UNL A   1      31.559  26.165  25.259  1.00  0.00     0.290 C 
BRANCH  16  17
ATOM     17  O   UNL A   1      32.608  27.064  24.873  1.00  0.00    -0.488 OA
BRANCH  17  18
ATOM     18  C   UNL A   1      32.825  28.220  25.573  1.00  0.00     0.119 A 
ATOM     19  C   UNL A   1      31.400  31.637  26.493  1.00  0.00     0.044 C 
ATOM     20  C   UNL A   1      32.338  30.466  26.392  1.00  0.00    -0.047 A 
ATOM     21  C   UNL A   1      33.434  30.388  27.256  1.00  0.00     0.003 A 
ATOM     22  C   UNL A   1      32.060  29.386  25.531  1.00  0.00     0.049 A 
ATOM     23  C   UNL A   1      34.236  29.251  27.263  1.00  0.00     0.004 A 
ATOM     24  C   UNL A   1      33.927  28.172  26.432  1.00  0.00     0.046 A 
ENDBRANCH  17  18
ENDBRANCH  16  17
ENDBRANCH  15  16
ENDBRANCH   9  15
ENDBRANCH   7   8
ENDBRANCH   4   7
ENDBRANCH   2   3
ENDBRANCH   1   2
BRANCH   1  25
ATOM     25  C   UNL A   1      39.416  21.715  25.736  1.00  0.00     0.002 C 
BRANCH  25  26
ATOM     26  C   UNL A   1      39.979  20.570  26.592  1.00  0.00     0.002 C 
BRANCH  26  27
ATOM     27  C   UNL A   1      41.014  19.670  25.917  1.00  0.00     0.021 C 
BRANCH  27  28
ATOM     28  C   UNL A   1      42.283  19.461  26.729  1.00  0.00     0.116 C 
BRANCH  28  29
ATOM     29  N   UNL A   1      43.460  20.052  26.110  1.00  0.00    -0.352 N 
ATOM     30  C   UNL A   1      43.794  21.375  25.899  1.00  0.00     0.251 C 
ATOM     31  H   UNL A   1      44.126  19.402  25.789  1.00  0.00     0.163 HD
ATOM     32  O   UNL A   1      44.820  21.648  25.299  1.00  0.00    -0.269 OA
BRANCH  30  33
ATOM     33  C   UNL A   1      42.998  22.458  26.534  1.00  0.00     0.039 A 
ATOM     34  C   UNL A   1      42.774  23.613  25.772  1.00  0.00     0.014 A 
ATOM     35  C   UNL A   1      42.653  22.437  27.882  1.00  0.00     0.014 A 
ATOM     36  C   UNL A   1      42.458  24.807  26.411  1.00  0.00     0.010 A 
ATOM     37  C   UNL A   1      42.421  23.631  28.533  1.00  0.00     0.010 A 
ATOM     38  C   UNL A   1      42.399  24.822  27.802  1.00  0.00    -0.014 A 
BRANCH  38  39
ATOM     39  C   UNL A   1      42.416  26.049  28.581  1.00  0.00     0.031 A 
ATOM     40  C   UNL A   1      41.227  26.915  28.622  1.00  0.00     0.074 A 
ATOM     41  C   UNL A   1      43.518  26.348  29.301  1.00  0.00     0.049 A 
ATOM     42  N   UNL A   1      41.256  28.177  28.877  1.00  0.00    -0.248 NA
ATOM     43  C   UNL A   1      39.891  26.414  28.326  1.00  0.00     0.031 C 
ATOM     44  C   UNL A   1      43.668  27.379  30.322  1.00  0.00     0.029 A 
ATOM     45  N   UNL A   1      44.822  25.890  29.070  1.00  0.00    -0.354 N 
ATOM     46  C   UNL A   1      39.957  28.602  29.038  1.00  0.00     0.074 A 
ATOM     47  C   UNL A   1      39.144  27.481  28.623  1.00  0.00     0.031 C 
ATOM     48  C   UNL A   1      44.972  27.685  30.436  1.00  0.00     0.029 A 
ATOM     49  C   UNL A   1      45.671  26.973  29.380  1.00  0.00     0.049 A 
ATOM     50  H   UNL A   1      45.090  24.996  28.757  1.00  0.00     0.167 HD
ATOM     51  C   UNL A   1      39.718  29.805  29.636  1.00  0.00     0.037 A 
ATOM     52  C   UNL A   1      46.444  27.561  28.421  1.00  0.00     0.037 A 
ATOM     53  C   UNL A   1      40.968  30.496  29.940  1.00  0.00     0.049 A 
ATOM     54  C   UNL A   1      46.172  29.036  28.246  1.00  0.00     0.074 A 
ATOM     55  C   UNL A   1      41.742  30.554  31.089  1.00  0.00     0.029 A 
ATOM     56  N   UNL A   1      41.761  30.979  28.906  1.00  0.00    -0.354 N 
ATOM     57  N   UNL A   1      45.054  29.615  28.590  1.00  0.00    -0.248 NA
ATOM     58  C   UNL A   1      47.124  29.967  27.647  1.00  0.00     0.031 C 
ATOM     59  C   UNL A   1      43.030  31.020  30.728  1.00  0.00     0.029 A 
ATOM     60  C   UNL A   1      43.031  31.268  29.367  1.00  0.00     0.049 A 
ATOM     61  H   UNL A   1      41.461  31.098  27.975  1.00  0.00     0.167 HD
ATOM     62  C   UNL A   1      45.109  30.944  28.258  1.00  0.00     0.074 A 
ATOM     63  C   UNL A   1      46.432  31.119  27.688  1.00  0.00     0.031 C 
ATOM     64  C   UNL A   1      44.054  31.784  28.471  1.00  0.00     0.037 A 
BRANCH  51  65
ATOM     65  C   UNL A   1      38.381  30.183  30.231  1.00  0.00     0.057 A 
ATOM     66  C   UNL A   1      37.697  31.338  29.800  1.00  0.00     0.134 A 
ATOM     67  C   UNL A   1      37.747  29.495  31.279  1.00  0.00     0.134 A 
ATOM     68  F   UNL A   1      38.100  32.041  28.734  1.00  0.00    -0.206 F 
ATOM     69  C   UNL A   1      36.560  31.839  30.448  1.00  0.00     0.040 A 
ATOM     70  C   UNL A   1      36.642  30.011  31.972  1.00  0.00     0.040 A 
ATOM     71  F   UNL A   1      38.140  28.268  31.646  1.00  0.00    -0.206 F 
ATOM     72  C   UNL A   1      36.053  31.200  31.567  1.00  0.00     0.006 A 
ENDBRANCH  51  65
BRANCH  52  73
ATOM     73  C   UNL A   1      46.828  26.640  27.316  1.00  0.00     0.057 A 
ATOM     74  C   UNL A   1      46.052  26.625  26.143  1.00  0.00     0.134 A 
ATOM     75  C   UNL A   1      48.100  26.066  27.243  1.00  0.00     0.134 A 
ATOM     76  F   UNL A   1      44.819  27.159  26.143  1.00  0.00    -0.206 F 
ATOM     77  C   UNL A   1      46.561  26.170  24.924  1.00  0.00     0.040 A 
ATOM     78  C   UNL A   1      48.615  25.591  26.030  1.00  0.00     0.040 A 
ATOM     79  F   UNL A   1      48.906  26.051  28.314  1.00  0.00    -0.206 F 
ATOM     80  C   UNL A   1      47.861  25.680  24.861  1.00  0.00     0.006 A 
ENDBRANCH  52  73
BRANCH  64  81
ATOM     81  C   UNL A   1      43.912  33.189  27.941  1.00  0.00     0.057 A 
ATOM     82  C   UNL A   1      43.774  33.510  26.583  1.00  0.00     0.134 A 
ATOM     83  C   UNL A   1      43.751  34.277  28.831  1.00  0.00     0.134 A 
ATOM     84  F   UNL A   1      43.794  32.566  25.633  1.00  0.00    -0.206 F 
ATOM     85  C   UNL A   1      43.543  34.819  26.139  1.00  0.00     0.040 A 
ATOM     86  C   UNL A   1      43.467  35.576  28.402  1.00  0.00     0.040 A 
ATOM     87  F   UNL A   1      43.835  34.118  30.160  1.00  0.00    -0.206 F 
ATOM     88  C   UNL A   1      43.375  35.855  27.049  1.00  0.00     0.006 A 
ENDBRANCH  64  81
ENDBRANCH  38  39
ENDBRANCH  30  33
ENDBRANCH  28  29
ENDBRANCH  27  28
ENDBRANCH  26  27
ENDBRANCH  25  26
ENDBRANCH   1  25
TORSDOF 18
ENDMDL
MODEL 2
REMARK VINA RESULT:     -10.5      1.538      2.609
REMARK SMILES Cc1cccc(OCC[N@H+]2CCO[C@@H](CC(=O)NCCCCCCNC(=O)c3ccc(-c4c5nc(c(-c6c(F)cccc6F)c6ccc([nH]6)c(-c6c(F)cccc6F)c6nc(c(-c7c(F)cccc7F)c7ccc4[nH]7)C=C6)C=C5)cc3)C2)c1
REMARK SMILES IDX 20 1 19 2 18 3 16 4 17 5 15 7 14 8 10 9 11 10 82 11 12 13
REMARK SMILES IDX 13 14 9 15 8 16 7 17 6 18 1 19 2 20 3 21 83 22 4 23 5 24
REMARK SMILES IDX 21 25 22 26 23 27 24 28 25 29 26 30 27 32 28 33 29 34 81 35
REMARK SMILES IDX 30 36 80 37 31 38 32 39 33 40 74 41 34 42 79 43 73 44 75 45
REMARK SMILES IDX 35 46 78 47 72 48 71 49 36 51 62 52 45 53 61 54 46 55 49 56
REMARK SMILES IDX 60 57 76 58 47 59 48 60 59 62 77 63 50 64 37 65 38 66 43 67
REMARK SMILES IDX 39 68 40 69 42 70 44 71 41 72 63 73 64 74 69 75 65 76 66 77
REMARK SMILES IDX 68 78 70 79 67 80 51 81 52 82 57 83 53 84 54 85 56 86 58 87
REMARK SMILES IDX 55 88
REMARK H PARENT 18 6 10 12 25 31 75 50 49 61
REMARK Flexibility Score: inf
ROOT
ATOM      1  C   UNL A   1      36.164  23.000  23.676  1.00  0.00     0.021 C 
ENDROOT
BRANCH   1   2
ATOM      2  C   UNL A   1      34.640  22.963  23.817  1.00  0.00     0.116 C 
BRANCH   2   3
ATOM      3  N   UNL A   1      34.209  21.794  24.558  1.00  0.00    -0.356 N 
ATOM      4  C   UNL A   1      33.941  21.674  25.890  1.00  0.00     0.222 C 
ATOM      5  O   UNL A   1      33.632  20.571  26.337  1.00  0.00    -0.275 OA
ATOM      6  H   UNL A   1      34.093  20.974  24.026  1.00  0.00     0.163 HD
BRANCH   4   7
ATOM      7  C   UNL A   1      34.031  22.895  26.772  1.00  0.00     0.138 C 
BRANCH   7   8
ATOM      8  C   UNL A   1      32.746  23.712  26.861  1.00  0.00     0.182 C 
ATOM      9  N   UNL A   1      31.461  25.732  26.504  1.00  0.00    -0.328 N 
ATOM     10  C   UNL A   1      30.339  24.971  25.967  1.00  0.00     0.291 C 
ATOM     11  C   UNL A   1      32.739  25.095  26.181  1.00  0.00     0.295 C 
ATOM     12  H   UNL A   1      31.362  25.671  27.517  1.00  0.00     0.348 HD
ATOM     13  C   UNL A   1      30.394  23.539  26.532  1.00  0.00     0.222 C 
ATOM     14  O   UNL A   1      31.668  22.909  26.311  1.00  0.00    -0.366 OA
BRANCH   9  15
ATOM     15  C   UNL A   1      31.406  27.178  26.386  1.00  0.00     0.304 C 
BRANCH  15  16
ATOM     16  C   UNL A   1      32.712  27.784  26.948  1.00  0.00     0.290 C 
BRANCH  16  17
ATOM     17  O   UNL A   1      32.717  29.218  26.917  1.00  0.00    -0.488 OA
BRANCH  17  18
ATOM     18  C   UNL A   1      33.825  29.918  27.308  1.00  0.00     0.119 A 
ATOM     19  C   UNL A   1      37.616  29.806  27.716  1.00  0.00     0.044 C 
ATOM     20  C   UNL A   1      36.194  30.290  27.759  1.00  0.00    -0.047 A 
ATOM     21  C   UNL A   1      35.938  31.647  27.981  1.00  0.00     0.003 A 
ATOM     22  C   UNL A   1      35.124  29.428  27.452  1.00  0.00     0.049 A 
ATOM     23  C   UNL A   1      34.637  32.133  27.895  1.00  0.00     0.004 A 
ATOM     24  C   UNL A   1      33.591  31.274  27.553  1.00  0.00     0.046 A 
ENDBRANCH  17  18
ENDBRANCH  16  17
ENDBRANCH  15  16
ENDBRANCH   9  15
ENDBRANCH   7   8
ENDBRANCH   4   7
ENDBRANCH   2   3
ENDBRANCH   1   2
BRANCH   1  25
ATOM     25  C   UNL A   1      36.870  21.688  24.024  1.00  0.00     0.002 C 
BRANCH  25  26
ATOM     26  C   UNL A   1      37.661  21.672  25.341  1.00  0.00     0.002 C 
BRANCH  26  27
ATOM     27  C   UNL A   1      38.056  23.037  25.906  1.00  0.00     0.021 C 
BRANCH  27  28
ATOM     28  C   UNL A   1      39.426  23.066  26.565  1.00  0.00     0.116 C 
BRANCH  28  29
ATOM     29  N   UNL A   1      40.303  22.001  26.107  1.00  0.00    -0.352 N 
ATOM     30  C   UNL A   1      41.681  21.950  26.011  1.00  0.00     0.251 C 
ATOM     31  H   UNL A   1      39.840  21.182  25.816  1.00  0.00     0.163 HD
ATOM     32  O   UNL A   1      42.214  20.962  25.535  1.00  0.00    -0.269 OA
BRANCH  30  33
ATOM     33  C   UNL A   1      42.512  23.018  26.625  1.00  0.00     0.039 A 
ATOM     34  C   UNL A   1      42.873  22.848  27.969  1.00  0.00     0.014 A 
ATOM     35  C   UNL A   1      42.764  24.228  25.985  1.00  0.00     0.014 A 
ATOM     36  C   UNL A   1      43.234  23.957  28.728  1.00  0.00     0.010 A 
ATOM     37  C   UNL A   1      43.042  25.344  26.747  1.00  0.00     0.010 A 
ATOM     38  C   UNL A   1      43.201  25.213  28.129  1.00  0.00    -0.014 A 
BRANCH  38  39
ATOM     39  C   UNL A   1      43.225  26.452  28.888  1.00  0.00     0.031 A 
ATOM     40  C   UNL A   1      41.980  27.199  29.125  1.00  0.00     0.074 A 
ATOM     41  C   UNL A   1      44.398  26.873  29.410  1.00  0.00     0.049 A 
ATOM     42  N   UNL A   1      41.925  28.463  29.367  1.00  0.00    -0.248 NA
ATOM     43  C   UNL A   1      40.670  26.563  29.062  1.00  0.00     0.031 C 
ATOM     44  C   UNL A   1      44.613  27.935  30.387  1.00  0.00     0.029 A 
ATOM     45  N   UNL A   1      45.684  26.540  28.965  1.00  0.00    -0.354 N 
ATOM     46  C   UNL A   1      40.636  28.762  29.743  1.00  0.00     0.074 A 
ATOM     47  C   UNL A   1      39.881  27.558  29.476  1.00  0.00     0.031 C 
ATOM     48  C   UNL A   1      45.880  28.369  30.278  1.00  0.00     0.029 A 
ATOM     49  C   UNL A   1      46.460  27.706  29.122  1.00  0.00     0.049 A 
ATOM     50  H   UNL A   1      45.983  25.670  28.614  1.00  0.00     0.167 HD
ATOM     51  C   UNL A   1      40.381  29.948  30.367  1.00  0.00     0.037 A 
ATOM     52  C   UNL A   1      46.999  28.347  28.044  1.00  0.00     0.037 A 
ATOM     53  C   UNL A   1      41.589  30.764  30.452  1.00  0.00     0.049 A 
ATOM     54  C   UNL A   1      46.555  29.785  27.911  1.00  0.00     0.074 A 
ATOM     55  C   UNL A   1      42.535  30.922  31.454  1.00  0.00     0.029 A 
ATOM     56  N   UNL A   1      42.145  31.300  29.297  1.00  0.00    -0.354 N 
ATOM     57  N   UNL A   1      45.458  30.258  28.436  1.00  0.00    -0.248 NA
ATOM     58  C   UNL A   1      47.295  30.791  27.156  1.00  0.00     0.031 C 
ATOM     59  C   UNL A   1      43.691  31.503  30.879  1.00  0.00     0.029 A 
ATOM     60  C   UNL A   1      43.439  31.722  29.537  1.00  0.00     0.049 A 
ATOM     61  H   UNL A   1      41.683  31.369  28.431  1.00  0.00     0.167 HD
ATOM     62  C   UNL A   1      45.324  31.579  28.093  1.00  0.00     0.074 A 
ATOM     63  C   UNL A   1      46.509  31.871  27.308  1.00  0.00     0.031 C 
ATOM     64  C   UNL A   1      44.241  32.316  28.478  1.00  0.00     0.037 A 
BRANCH  51  65
ATOM     65  C   UNL A   1      39.132  30.206  31.178  1.00  0.00     0.057 A 
ATOM     66  C   UNL A   1      38.321  31.331  30.921  1.00  0.00     0.134 A 
ATOM     67  C   UNL A   1      38.710  29.428  32.269  1.00  0.00     0.134 A 
ATOM     68  F   UNL A   1      38.512  32.108  29.847  1.00  0.00    -0.206 F 
ATOM     69  C   UNL A   1      37.270  31.722  31.761  1.00  0.00     0.040 A 
ATOM     70  C   UNL A   1      37.696  29.836  33.149  1.00  0.00     0.040 A 
ATOM     71  F   UNL A   1      39.227  28.216  32.503  1.00  0.00    -0.206 F 
ATOM     72  C   UNL A   1      36.982  30.999  32.905  1.00  0.00     0.006 A 
ENDBRANCH  51  65
BRANCH  52  73
ATOM     73  C   UNL A   1      47.282  27.444  26.894  1.00  0.00     0.057 A 
ATOM     74  C   UNL A   1      48.440  26.647  26.925  1.00  0.00     0.134 A 
ATOM     75  C   UNL A   1      46.291  27.089  25.975  1.00  0.00     0.134 A 
ATOM     76  F   UNL A   1      49.433  26.931  27.784  1.00  0.00    -0.206 F 
ATOM     77  C   UNL A   1      48.557  25.482  26.162  1.00  0.00     0.040 A 
ATOM     78  C   UNL A   1      46.405  25.933  25.193  1.00  0.00     0.040 A 
ATOM     79  F   UNL A   1      45.152  27.791  25.891  1.00  0.00    -0.206 F 
ATOM     80  C   UNL A   1      47.520  25.106  25.315  1.00  0.00     0.006 A 
ENDBRANCH  52  73
BRANCH  64  81
ATOM     81  C   UNL A   1      43.872  33.689  27.973  1.00  0.00     0.057 A 
ATOM     82  C   UNL A   1      43.840  34.841  28.772  1.00  0.00     0.134 A 
ATOM     83  C   UNL A   1      43.683  33.916  26.590  1.00  0.00     0.134 A 
ATOM     84  F   UNL A   1      44.109  34.794  30.083  1.00  0.00    -0.206 F 
ATOM     85  C   UNL A   1      43.590  36.115  28.245  1.00  0.00     0.040 A 
ATOM     86  C   UNL A   1      43.487  35.188  26.046  1.00  0.00     0.040 A 
ATOM     87  F   UNL A   1      43.709  32.911  25.701  1.00  0.00    -0.206 F 
ATOM     88  C   UNL A   1      43.427  36.294  26.876  1.00  0.00     0.006 A 
ENDBRANCH  64  81
ENDBRANCH  38  39
ENDBRANCH  30  33
ENDBRANCH  28  29
ENDBRANCH  27  28
ENDBRANCH  26  27
ENDBRANCH  25  26
ENDBRANCH   1  25
TORSDOF 18
ENDMDL
MODEL 3
REMARK VINA RESULT:     -10.4      3.724      9.484
REMARK SMILES Cc1cccc(OCC[N@H+]2CCO[C@@H](CC(=O)NCCCCCCNC(=O)c3ccc(-c4c5nc(c(-c6c(F)cccc6F)c6ccc([nH]6)c(-c6c(F)cccc6F)c6nc(c(-c7c(F)cccc7F)c7ccc4[nH]7)C=C6)C=C5)cc3)C2)c1
REMARK SMILES IDX 20 1 19 2 18 3 16 4 17 5 15 7 14 8 10 9 11 10 82 11 12 13
REMARK SMILES IDX 13 14 9 15 8 16 7 17 6 18 1 19 2 20 3 21 83 22 4 23 5 24
REMARK SMILES IDX 21 25 22 26 23 27 24 28 25 29 26 30 27 32 28 33 29 34 81 35
REMARK SMILES IDX 30 36 80 37 31 38 32 39 33 40 74 41 34 42 79 43 73 44 75 45
REMARK SMILES IDX 35 46 78 47 72 48 71 49 36 51 62 52 45 53 61 54 46 55 49 56
REMARK SMILES IDX 60 57 76 58 47 59 48 60 59 62 77 63 50 64 37 65 38 66 43 67
REMARK SMILES IDX 39 68 40 69 42 70 44 71 41 72 63 73 64 74 69 75 65 76 66 77
REMARK SMILES IDX 68 78 70 79 67 80 51 81 52 82 57 83 53 84 54 85 56 86 58 87
REMARK SMILES IDX 55 88
REMARK H PARENT 18 6 10 12 25 31 75 50 49 61
REMARK Flexibility Score: inf
ROOT
ATOM      1  C   UNL A   1      35.246  30.928  28.441  1.00  0.00     0.021 C 
ENDROOT
BRANCH   1   2
ATOM      2  C   UNL A   1      34.945  29.946  27.306  1.00  0.00     0.116 C 
BRANCH   2   3
ATOM      3  N   UNL A   1      33.724  30.303  26.611  1.00  0.00    -0.356 N 
ATOM      4  C   UNL A   1      32.568  29.590  26.487  1.00  0.00     0.222 C 
ATOM      5  O   UNL A   1      31.655  30.054  25.806  1.00  0.00    -0.275 OA
ATOM      6  H   UNL A   1      33.731  31.182  26.167  1.00  0.00     0.163 HD
BRANCH   4   7
ATOM      7  C   UNL A   1      32.445  28.260  27.188  1.00  0.00     0.138 C 
BRANCH   7   8
ATOM      8  C   UNL A   1      32.027  27.102  26.286  1.00  0.00     0.182 C 
ATOM      9  N   UNL A   1      32.444  24.993  25.174  1.00  0.00    -0.328 N 
ATOM     10  C   UNL A   1      31.144  24.474  25.586  1.00  0.00     0.291 C 
ATOM     11  C   UNL A   1      32.994  25.906  26.178  1.00  0.00     0.295 C 
ATOM     12  H   UNL A   1      32.254  25.560  24.349  1.00  0.00     0.348 HD
ATOM     13  C   UNL A   1      30.190  25.659  25.826  1.00  0.00     0.222 C 
ATOM     14  O   UNL A   1      30.734  26.626  26.742  1.00  0.00    -0.366 OA
BRANCH   9  15
ATOM     15  C   UNL A   1      33.374  24.060  24.564  1.00  0.00     0.304 C 
BRANCH  15  16
ATOM     16  C   UNL A   1      33.989  24.707  23.303  1.00  0.00     0.290 C 
BRANCH  16  17
ATOM     17  O   UNL A   1      32.995  25.147  22.366  1.00  0.00    -0.488 OA
BRANCH  17  18
ATOM     18  C   UNL A   1      32.509  26.425  22.420  1.00  0.00     0.119 A 
ATOM     19  C   UNL A   1      29.366  28.568  22.703  1.00  0.00     0.044 C 
ATOM     20  C   UNL A   1      30.806  28.169  22.549  1.00  0.00    -0.047 A 
ATOM     21  C   UNL A   1      31.807  29.132  22.712  1.00  0.00     0.003 A 
ATOM     22  C   UNL A   1      31.171  26.819  22.374  1.00  0.00     0.049 A 
ATOM     23  C   UNL A   1      33.146  28.754  22.701  1.00  0.00     0.004 A 
ATOM     24  C   UNL A   1      33.492  27.408  22.564  1.00  0.00     0.046 A 
ENDBRANCH  17  18
ENDBRANCH  16  17
ENDBRANCH  15  16
ENDBRANCH   9  15
ENDBRANCH   7   8
ENDBRANCH   4   7
ENDBRANCH   2   3
ENDBRANCH   1   2
BRANCH   1  25
ATOM     25  C   UNL A   1      35.488  32.370  27.990  1.00  0.00     0.002 C 
BRANCH  25  26
ATOM     26  C   UNL A   1      34.276  33.313  28.053  1.00  0.00     0.002 C 
BRANCH  26  27
ATOM     27  C   UNL A   1      34.430  34.550  28.937  1.00  0.00     0.021 C 
BRANCH  27  28
ATOM     28  C   UNL A   1      33.736  34.444  30.286  1.00  0.00     0.116 C 
BRANCH  28  29
ATOM     29  N   UNL A   1      34.496  35.048  31.368  1.00  0.00    -0.352 N 
ATOM     30  C   UNL A   1      35.717  34.697  31.913  1.00  0.00     0.251 C 
ATOM     31  H   UNL A   1      34.072  35.835  31.781  1.00  0.00     0.163 HD
ATOM     32  O   UNL A   1      36.148  35.317  32.871  1.00  0.00    -0.269 OA
BRANCH  30  33
ATOM     33  C   UNL A   1      36.569  33.680  31.243  1.00  0.00     0.039 A 
ATOM     34  C   UNL A   1      36.495  32.368  31.731  1.00  0.00     0.014 A 
ATOM     35  C   UNL A   1      37.548  34.022  30.315  1.00  0.00     0.014 A 
ATOM     36  C   UNL A   1      37.545  31.487  31.493  1.00  0.00     0.010 A 
ATOM     37  C   UNL A   1      38.630  33.185  30.141  1.00  0.00     0.010 A 
ATOM     38  C   UNL A   1      38.656  31.950  30.793  1.00  0.00    -0.014 A 
BRANCH  38  39
ATOM     39  C   UNL A   1      39.929  31.247  30.778  1.00  0.00     0.031 A 
ATOM     40  C   UNL A   1      40.101  30.046  29.945  1.00  0.00     0.074 A 
ATOM     41  C   UNL A   1      40.957  31.746  31.498  1.00  0.00     0.049 A 
ATOM     42  N   UNL A   1      40.967  29.121  30.175  1.00  0.00    -0.248 NA
ATOM     43  C   UNL A   1      39.255  29.776  28.790  1.00  0.00     0.031 C 
ATOM     44  C   UNL A   1      42.361  31.354  31.444  1.00  0.00     0.029 A 
ATOM     45  N   UNL A   1      40.870  32.589  32.613  1.00  0.00    -0.354 N 
ATOM     46  C   UNL A   1      40.981  28.280  29.086  1.00  0.00     0.074 A 
ATOM     47  C   UNL A   1      39.854  28.695  28.281  1.00  0.00     0.031 C 
ATOM     48  C   UNL A   1      42.949  31.702  32.601  1.00  0.00     0.029 A 
ATOM     49  C   UNL A   1      41.900  32.182  33.486  1.00  0.00     0.049 A 
ATOM     50  H   UNL A   1      40.223  33.317  32.758  1.00  0.00     0.167 HD
ATOM     51  C   UNL A   1      42.026  27.420  28.920  1.00  0.00     0.037 A 
ATOM     52  C   UNL A   1      41.620  31.663  34.716  1.00  0.00     0.037 A 
ATOM     53  C   UNL A   1      42.954  27.502  30.045  1.00  0.00     0.049 A 
ATOM     54  C   UNL A   1      42.165  30.269  34.924  1.00  0.00     0.074 A 
ATOM     55  C   UNL A   1      44.124  28.222  30.235  1.00  0.00     0.029 A 
ATOM     56  N   UNL A   1      42.563  27.049  31.299  1.00  0.00    -0.354 N 
ATOM     57  N   UNL A   1      42.455  29.450  33.950  1.00  0.00    -0.248 NA
ATOM     58  C   UNL A   1      42.401  29.683  36.239  1.00  0.00     0.031 C 
ATOM     59  C   UNL A   1      44.402  28.252  31.623  1.00  0.00     0.029 A 
ATOM     60  C   UNL A   1      43.418  27.529  32.273  1.00  0.00     0.049 A 
ATOM     61  H   UNL A   1      41.786  26.468  31.470  1.00  0.00     0.167 HD
ATOM     62  C   UNL A   1      42.882  28.256  34.473  1.00  0.00     0.074 A 
ATOM     63  C   UNL A   1      42.849  28.459  35.909  1.00  0.00     0.031 C 
ATOM     64  C   UNL A   1      43.216  27.199  33.676  1.00  0.00     0.037 A 
BRANCH  51  65
ATOM     65  C   UNL A   1      42.362  26.768  27.599  1.00  0.00     0.057 A 
ATOM     66  C   UNL A   1      41.812  25.518  27.247  1.00  0.00     0.134 A 
ATOM     67  C   UNL A   1      43.272  27.282  26.660  1.00  0.00     0.134 A 
ATOM     68  F   UNL A   1      40.841  24.946  27.970  1.00  0.00    -0.206 F 
ATOM     69  C   UNL A   1      42.237  24.783  26.133  1.00  0.00     0.040 A 
ATOM     70  C   UNL A   1      43.747  26.535  25.571  1.00  0.00     0.040 A 
ATOM     71  F   UNL A   1      43.704  28.547  26.728  1.00  0.00    -0.206 F 
ATOM     72  C   UNL A   1      43.241  25.270  25.314  1.00  0.00     0.006 A 
ENDBRANCH  51  65
BRANCH  52  73
ATOM     73  C   UNL A   1      40.342  32.160  35.296  1.00  0.00     0.057 A 
ATOM     74  C   UNL A   1      40.317  33.432  35.896  1.00  0.00     0.134 A 
ATOM     75  C   UNL A   1      39.110  31.593  34.959  1.00  0.00     0.134 A 
ATOM     76  F   UNL A   1      41.464  34.036  36.246  1.00  0.00    -0.206 F 
ATOM     77  C   UNL A   1      39.131  34.157  36.044  1.00  0.00     0.040 A 
ATOM     78  C   UNL A   1      37.914  32.303  35.119  1.00  0.00     0.040 A 
ATOM     79  F   UNL A   1      39.048  30.389  34.373  1.00  0.00    -0.206 F 
ATOM     80  C   UNL A   1      37.927  33.603  35.624  1.00  0.00     0.006 A 
ENDBRANCH  52  73
BRANCH  64  81
ATOM     81  C   UNL A   1      43.469  25.784  34.131  1.00  0.00     0.057 A 
ATOM     82  C   UNL A   1      42.534  24.997  34.819  1.00  0.00     0.134 A 
ATOM     83  C   UNL A   1      44.646  25.105  33.739  1.00  0.00     0.134 A 
ATOM     84  F   UNL A   1      41.329  25.474  35.159  1.00  0.00    -0.206 F 
ATOM     85  C   UNL A   1      42.770  23.653  35.137  1.00  0.00     0.040 A 
ATOM     86  C   UNL A   1      44.870  23.752  34.002  1.00  0.00     0.040 A 
ATOM     87  F   UNL A   1      45.621  25.724  33.056  1.00  0.00    -0.206 F 
ATOM     88  C   UNL A   1      43.935  23.022  34.716  1.00  0.00     0.006 A 
ENDBRANCH  64  81
ENDBRANCH  38  39
ENDBRANCH  30  33
ENDBRANCH  28  29
ENDBRANCH  27  28
ENDBRANCH  26  27
ENDBRANCH  25  26
ENDBRANCH   1  25
TORSDOF 18
ENDMDL
