MODEL 1
REMARK VINA RESULT:     -10.6      0.000      0.000
REMARK SMILES COC[C@@H](C)N(C)C(=O)N1CCC(CC(=O)NCCCCCCNC(=O)c2ccc(-c3c4nc(c(-c5c(F)cccc5F)c5ccc([nH]5)c(-c5c(F)cccc5F)c5nc(c(-c6c(F)cccc6F)c6ccc3[nH]6)C=C5)C=C4)cc2)CC1
REMARK SMILES IDX 19 1 18 2 17 3 15 4 16 5 14 7 13 8 8 9 9 10 10 11 11 12
REMARK SMILES IDX 82 13 12 14 81 15 6 16 7 17 4 18 5 19 3 20 2 21 1 22 20 23
REMARK SMILES IDX 21 24 22 25 23 26 24 27 25 28 26 30 27 31 28 32 80 33 29 34
REMARK SMILES IDX 79 35 30 36 31 37 32 38 73 39 33 40 78 41 72 42 74 43 34 44
REMARK SMILES IDX 77 45 71 46 70 47 35 49 61 50 44 51 60 52 45 53 48 54 59 55
REMARK SMILES IDX 75 56 46 57 47 58 58 60 76 61 49 62 36 63 37 64 42 65 38 66
REMARK SMILES IDX 39 67 41 68 43 69 40 70 62 71 63 72 68 73 64 74 65 75 67 76
REMARK SMILES IDX 69 77 66 78 50 79 51 80 56 81 52 82 53 83 55 84 57 85 54 86
REMARK H PARENT 17 6 24 29 74 48 48 59
REMARK Flexibility Score: inf
ROOT
ATOM      1  C   UNL A   1      37.080  23.216  25.436  1.00  0.00     0.021 C 
ENDROOT
BRANCH   1   2
ATOM      2  C   UNL A   1      35.702  23.835  25.713  1.00  0.00     0.116 C 
BRANCH   2   3
ATOM      3  N   UNL A   1      35.109  23.276  26.918  1.00  0.00    -0.356 N 
ATOM      4  C   UNL A   1      34.127  22.343  27.085  1.00  0.00     0.220 C 
ATOM      5  O   UNL A   1      33.729  22.119  28.230  1.00  0.00    -0.275 OA
ATOM      6  H   UNL A   1      35.481  23.631  27.758  1.00  0.00     0.163 HD
BRANCH   4   7
ATOM      7  C   UNL A   1      33.528  21.597  25.898  1.00  0.00     0.103 C 
BRANCH   7   8
ATOM      8  C   UNL A   1      32.236  22.233  25.346  1.00  0.00     0.002 C 
ATOM      9  C   UNL A   1      30.955  25.982  24.457  1.00  0.00     0.320 C 
ATOM     10  O   UNL A   1      31.711  26.569  25.228  1.00  0.00    -0.248 OA
ATOM     11  N   UNL A   1      30.775  24.617  24.530  1.00  0.00    -0.325 N 
ATOM     12  C   UNL A   1      30.487  24.028  25.812  1.00  0.00     0.121 C 
ATOM     13  C   UNL A   1      31.262  23.715  23.496  1.00  0.00     0.121 C 
ATOM     14  C   UNL A   1      31.673  23.251  26.336  1.00  0.00     0.026 C 
ATOM     15  C   UNL A   1      32.480  22.912  23.981  1.00  0.00     0.026 C 
BRANCH   9  16
ATOM     16  N   UNL A   1      30.135  26.632  23.543  1.00  0.00    -0.323 N 
ATOM     17  C   UNL A   1      28.697  26.750  23.742  1.00  0.00     0.149 C 
BRANCH  16  18
ATOM     18  C   UNL A   1      30.727  27.382  22.413  1.00  0.00     0.109 C 
ATOM     19  C   UNL A   1      32.200  27.017  22.227  1.00  0.00     0.033 C 
BRANCH  18  20
ATOM     20  C   UNL A   1      30.486  28.906  22.538  1.00  0.00     0.184 C 
BRANCH  20  21
ATOM     21  O   UNL A   1      29.614  29.429  21.530  1.00  0.00    -0.383 OA
ATOM     22  C   UNL A   1      28.442  30.045  22.045  1.00  0.00     0.194 C 
ENDBRANCH  20  21
ENDBRANCH  18  20
ENDBRANCH  16  18
ENDBRANCH   9  16
ENDBRANCH   7   8
ENDBRANCH   4   7
ENDBRANCH   2   3
ENDBRANCH   1   2
BRANCH   1  23
ATOM     23  C   UNL A   1      37.097  22.105  24.388  1.00  0.00     0.002 C 
BRANCH  23  24
ATOM     24  C   UNL A   1      36.836  20.700  24.929  1.00  0.00     0.002 C 
BRANCH  24  25
ATOM     25  C   UNL A   1      38.032  19.742  24.892  1.00  0.00     0.021 C 
BRANCH  25  26
ATOM     26  C   UNL A   1      39.244  20.175  25.714  1.00  0.00     0.116 C 
BRANCH  26  27
ATOM     27  N   UNL A   1      40.214  19.102  25.871  1.00  0.00    -0.352 N 
ATOM     28  C   UNL A   1      41.565  19.164  26.110  1.00  0.00     0.251 C 
ATOM     29  H   UNL A   1      39.846  18.192  25.792  1.00  0.00     0.163 HD
ATOM     30  O   UNL A   1      42.260  18.161  25.992  1.00  0.00    -0.269 OA
BRANCH  28  31
ATOM     31  C   UNL A   1      42.187  20.447  26.496  1.00  0.00     0.039 A 
ATOM     32  C   UNL A   1      42.799  21.225  25.510  1.00  0.00     0.014 A 
ATOM     33  C   UNL A   1      42.175  20.875  27.827  1.00  0.00     0.014 A 
ATOM     34  C   UNL A   1      43.329  22.474  25.845  1.00  0.00     0.010 A 
ATOM     35  C   UNL A   1      42.648  22.145  28.148  1.00  0.00     0.010 A 
ATOM     36  C   UNL A   1      43.217  22.960  27.158  1.00  0.00    -0.014 A 
BRANCH  36  37
ATOM     37  C   UNL A   1      43.643  24.339  27.506  1.00  0.00     0.031 A 
ATOM     38  C   UNL A   1      42.629  25.378  27.889  1.00  0.00     0.074 A 
ATOM     39  C   UNL A   1      44.943  24.673  27.393  1.00  0.00     0.049 A 
ATOM     40  N   UNL A   1      42.805  26.651  28.137  1.00  0.00    -0.248 NA
ATOM     41  C   UNL A   1      41.231  24.933  27.985  1.00  0.00     0.031 C 
ATOM     42  C   UNL A   1      46.018  23.763  26.990  1.00  0.00     0.029 A 
ATOM     43  N   UNL A   1      45.581  25.872  27.590  1.00  0.00    -0.354 N 
ATOM     44  C   UNL A   1      41.541  27.161  28.410  1.00  0.00     0.074 A 
ATOM     45  C   UNL A   1      40.604  26.070  28.252  1.00  0.00     0.031 C 
ATOM     46  C   UNL A   1      47.181  24.432  26.983  1.00  0.00     0.029 A 
ATOM     47  C   UNL A   1      46.930  25.826  27.337  1.00  0.00     0.049 A 
ATOM     48  H   UNL A   1      45.116  26.689  27.885  1.00  0.00     0.167 HD
ATOM     49  C   UNL A   1      41.199  28.420  28.777  1.00  0.00     0.037 A 
ATOM     50  C   UNL A   1      47.860  26.800  27.367  1.00  0.00     0.037 A 
ATOM     51  C   UNL A   1      42.139  29.498  28.941  1.00  0.00     0.049 A 
ATOM     52  C   UNL A   1      47.447  28.197  27.733  1.00  0.00     0.074 A 
ATOM     53  C   UNL A   1      41.900  30.790  29.378  1.00  0.00     0.029 A 
ATOM     54  N   UNL A   1      43.495  29.415  28.663  1.00  0.00    -0.354 N 
ATOM     55  N   UNL A   1      46.261  28.648  28.063  1.00  0.00    -0.248 NA
ATOM     56  C   UNL A   1      48.500  29.223  27.724  1.00  0.00     0.031 C 
ATOM     57  C   UNL A   1      43.102  31.503  29.312  1.00  0.00     0.029 A 
ATOM     58  C   UNL A   1      44.098  30.644  28.880  1.00  0.00     0.049 A 
ATOM     59  H   UNL A   1      43.960  28.604  28.356  1.00  0.00     0.167 HD
ATOM     60  C   UNL A   1      46.427  30.004  28.313  1.00  0.00     0.074 A 
ATOM     61  C   UNL A   1      47.831  30.298  28.119  1.00  0.00     0.031 C 
ATOM     62  C   UNL A   1      45.497  30.924  28.669  1.00  0.00     0.037 A 
BRANCH  49  63
ATOM     63  C   UNL A   1      39.745  28.697  29.020  1.00  0.00     0.057 A 
ATOM     64  C   UNL A   1      39.161  28.529  30.282  1.00  0.00     0.134 A 
ATOM     65  C   UNL A   1      38.925  29.174  27.989  1.00  0.00     0.134 A 
ATOM     66  F   UNL A   1      39.888  28.068  31.311  1.00  0.00    -0.206 F 
ATOM     67  C   UNL A   1      37.809  28.797  30.504  1.00  0.00     0.040 A 
ATOM     68  C   UNL A   1      37.578  29.472  28.204  1.00  0.00     0.040 A 
ATOM     69  F   UNL A   1      39.421  29.368  26.757  1.00  0.00    -0.206 F 
ATOM     70  C   UNL A   1      37.014  29.276  29.464  1.00  0.00     0.006 A 
ENDBRANCH  49  63
BRANCH  50  71
ATOM     71  C   UNL A   1      49.273  26.485  27.041  1.00  0.00     0.057 A 
ATOM     72  C   UNL A   1      49.762  26.637  25.738  1.00  0.00     0.134 A 
ATOM     73  C   UNL A   1      50.167  26.032  28.017  1.00  0.00     0.134 A 
ATOM     74  F   UNL A   1      48.948  27.048  24.755  1.00  0.00    -0.206 F 
ATOM     75  C   UNL A   1      51.087  26.337  25.415  1.00  0.00     0.040 A 
ATOM     76  C   UNL A   1      51.501  25.752  27.714  1.00  0.00     0.040 A 
ATOM     77  F   UNL A   1      49.761  25.870  29.285  1.00  0.00    -0.206 F 
ATOM     78  C   UNL A   1      51.962  25.900  26.407  1.00  0.00     0.006 A 
ENDBRANCH  50  71
BRANCH  62  79
ATOM     79  C   UNL A   1      45.969  32.333  28.871  1.00  0.00     0.057 A 
ATOM     80  C   UNL A   1      46.459  32.774  30.106  1.00  0.00     0.134 A 
ATOM     81  C   UNL A   1      45.973  33.247  27.809  1.00  0.00     0.134 A 
ATOM     82  F   UNL A   1      46.466  31.952  31.167  1.00  0.00    -0.206 F 
ATOM     83  C   UNL A   1      46.922  34.078  30.284  1.00  0.00     0.040 A 
ATOM     84  C   UNL A   1      46.458  34.546  27.967  1.00  0.00     0.040 A 
ATOM     85  F   UNL A   1      45.523  32.887  26.598  1.00  0.00    -0.206 F 
ATOM     86  C   UNL A   1      46.930  34.966  29.210  1.00  0.00     0.006 A 
ENDBRANCH  62  79
ENDBRANCH  36  37
ENDBRANCH  28  31
ENDBRANCH  26  27
ENDBRANCH  25  26
ENDBRANCH  24  25
ENDBRANCH  23  24
ENDBRANCH   1  23
TORSDOF 18
ENDMDL
MODEL 2
REMARK VINA RESULT:     -10.4      6.404     10.954
REMARK SMILES COC[C@@H](C)N(C)C(=O)N1CCC(CC(=O)NCCCCCCNC(=O)c2ccc(-c3c4nc(c(-c5c(F)cccc5F)c5ccc([nH]5)c(-c5c(F)cccc5F)c5nc(c(-c6c(F)cccc6F)c6ccc3[nH]6)C=C5)C=C4)cc2)CC1
REMARK SMILES IDX 19 1 18 2 17 3 15 4 16 5 14 7 13 8 8 9 9 10 10 11 11 12
REMARK SMILES IDX 82 13 12 14 81 15 6 16 7 17 4 18 5 19 3 20 2 21 1 22 20 23
REMARK SMILES IDX 21 24 22 25 23 26 24 27 25 28 26 30 27 31 28 32 80 33 29 34
REMARK SMILES IDX 79 35 30 36 31 37 32 38 73 39 33 40 78 41 72 42 74 43 34 44
REMARK SMILES IDX 77 45 71 46 70 47 35 49 61 50 44 51 60 52 45 53 48 54 59 55
REMARK SMILES IDX 75 56 46 57 47 58 58 60 76 61 49 62 36 63 37 64 42 65 38 66
REMARK SMILES IDX 39 67 41 68 43 69 40 70 62 71 63 72 68 73 64 74 65 75 67 76
REMARK SMILES IDX 69 77 66 78 50 79 51 80 56 81 52 82 53 83 55 84 57 85 54 86
REMARK H PARENT 17 6 24 29 74 48 48 59
REMARK Flexibility Score: inf
ROOT
ATOM      1  C   UNL A   1      35.643  33.833  29.022  1.00  0.00     0.021 C 
ENDROOT
BRANCH   1   2
ATOM      2  C   UNL A   1      35.899  33.062  27.719  1.00  0.00     0.116 C 
BRANCH   2   3
ATOM      3  N   UNL A   1      36.345  31.705  27.993  1.00  0.00    -0.356 N 
ATOM      4  C   UNL A   1      35.662  30.524  28.014  1.00  0.00     0.220 C 
ATOM      5  O   UNL A   1      36.263  29.513  28.385  1.00  0.00    -0.275 OA
ATOM      6  H   UNL A   1      37.304  31.625  28.199  1.00  0.00     0.163 HD
BRANCH   4   7
ATOM      7  C   UNL A   1      34.198  30.443  27.597  1.00  0.00     0.103 C 
BRANCH   7   8
ATOM      8  C   UNL A   1      33.720  29.015  27.261  1.00  0.00     0.002 C 
ATOM      9  C   UNL A   1      31.415  27.286  24.402  1.00  0.00     0.320 C 
ATOM     10  O   UNL A   1      30.759  28.290  24.133  1.00  0.00    -0.248 OA
ATOM     11  N   UNL A   1      32.207  27.229  25.528  1.00  0.00    -0.325 N 
ATOM     12  C   UNL A   1      31.639  27.620  26.792  1.00  0.00     0.121 C 
ATOM     13  C   UNL A   1      33.662  27.204  25.450  1.00  0.00     0.121 C 
ATOM     14  C   UNL A   1      32.194  28.948  27.254  1.00  0.00     0.026 C 
ATOM     15  C   UNL A   1      34.270  28.542  25.899  1.00  0.00     0.026 C 
BRANCH   9  16
ATOM     16  N   UNL A   1      31.327  26.098  23.687  1.00  0.00    -0.323 N 
ATOM     17  C   UNL A   1      30.143  25.251  23.736  1.00  0.00     0.149 C 
BRANCH  16  18
ATOM     18  C   UNL A   1      32.378  25.738  22.709  1.00  0.00     0.109 C 
ATOM     19  C   UNL A   1      31.886  25.948  21.277  1.00  0.00     0.033 C 
BRANCH  18  20
ATOM     20  C   UNL A   1      32.942  24.318  22.961  1.00  0.00     0.184 C 
BRANCH  20  21
ATOM     21  O   UNL A   1      34.343  24.207  22.691  1.00  0.00    -0.383 OA
ATOM     22  C   UNL A   1      34.949  23.051  23.253  1.00  0.00     0.194 C 
ENDBRANCH  20  21
ENDBRANCH  18  20
ENDBRANCH  16  18
ENDBRANCH   9  16
ENDBRANCH   7   8
ENDBRANCH   4   7
ENDBRANCH   2   3
ENDBRANCH   1   2
BRANCH   1  23
ATOM     23  C   UNL A   1      34.232  33.701  29.591  1.00  0.00     0.002 C 
BRANCH  23  24
ATOM     24  C   UNL A   1      33.154  34.480  28.839  1.00  0.00     0.002 C 
BRANCH  24  25
ATOM     25  C   UNL A   1      33.344  36.001  28.793  1.00  0.00     0.021 C 
BRANCH  25  26
ATOM     26  C   UNL A   1      33.616  36.668  30.141  1.00  0.00     0.116 C 
BRANCH  26  27
ATOM     27  N   UNL A   1      32.520  36.481  31.079  1.00  0.00    -0.352 N 
ATOM     28  C   UNL A   1      32.431  35.664  32.179  1.00  0.00     0.251 C 
ATOM     29  H   UNL A   1      31.719  37.023  30.896  1.00  0.00     0.163 HD
ATOM     30  O   UNL A   1      31.349  35.474  32.722  1.00  0.00    -0.269 OA
BRANCH  28  31
ATOM     31  C   UNL A   1      33.642  34.998  32.702  1.00  0.00     0.039 A 
ATOM     32  C   UNL A   1      33.529  33.710  33.232  1.00  0.00     0.014 A 
ATOM     33  C   UNL A   1      34.881  35.645  32.677  1.00  0.00     0.014 A 
ATOM     34  C   UNL A   1      34.675  33.038  33.664  1.00  0.00     0.010 A 
ATOM     35  C   UNL A   1      36.029  34.952  33.051  1.00  0.00     0.010 A 
ATOM     36  C   UNL A   1      35.938  33.638  33.536  1.00  0.00    -0.014 A 
BRANCH  36  37
ATOM     37  C   UNL A   1      37.181  32.892  33.854  1.00  0.00     0.031 A 
ATOM     38  C   UNL A   1      37.954  33.193  35.106  1.00  0.00     0.074 A 
ATOM     39  C   UNL A   1      37.655  31.996  32.966  1.00  0.00     0.049 A 
ATOM     40  N   UNL A   1      39.103  32.708  35.504  1.00  0.00    -0.248 NA
ATOM     41  C   UNL A   1      37.370  34.186  36.020  1.00  0.00     0.031 C 
ATOM     42  C   UNL A   1      37.016  31.647  31.696  1.00  0.00     0.029 A 
ATOM     43  N   UNL A   1      38.793  31.230  32.987  1.00  0.00    -0.354 N 
ATOM     44  C   UNL A   1      39.383  33.341  36.708  1.00  0.00     0.074 A 
ATOM     45  C   UNL A   1      38.308  34.278  36.952  1.00  0.00     0.031 C 
ATOM     46  C   UNL A   1      37.763  30.726  31.067  1.00  0.00     0.029 A 
ATOM     47  C   UNL A   1      38.954  30.453  31.866  1.00  0.00     0.049 A 
ATOM     48  H   UNL A   1      39.434  31.236  33.735  1.00  0.00     0.167 HD
ATOM     49  C   UNL A   1      40.434  33.144  37.541  1.00  0.00     0.037 A 
ATOM     50  C   UNL A   1      39.957  29.628  31.510  1.00  0.00     0.037 A 
ATOM     51  C   UNL A   1      41.496  32.204  37.297  1.00  0.00     0.049 A 
ATOM     52  C   UNL A   1      41.132  29.461  32.431  1.00  0.00     0.074 A 
ATOM     53  C   UNL A   1      42.566  31.880  38.113  1.00  0.00     0.029 A 
ATOM     54  N   UNL A   1      41.630  31.445  36.143  1.00  0.00    -0.354 N 
ATOM     55  N   UNL A   1      41.347  30.008  33.602  1.00  0.00    -0.248 NA
ATOM     56  C   UNL A   1      42.207  28.567  31.978  1.00  0.00     0.031 C 
ATOM     57  C   UNL A   1      43.376  30.966  37.431  1.00  0.00     0.029 A 
ATOM     58  C   UNL A   1      42.786  30.684  36.210  1.00  0.00     0.049 A 
ATOM     59  H   UNL A   1      40.998  31.447  35.389  1.00  0.00     0.167 HD
ATOM     60  C   UNL A   1      42.572  29.517  34.032  1.00  0.00     0.074 A 
ATOM     61  C   UNL A   1      43.043  28.610  33.006  1.00  0.00     0.031 C 
ATOM     62  C   UNL A   1      43.249  29.795  35.173  1.00  0.00     0.037 A 
BRANCH  49  63
ATOM     63  C   UNL A   1      40.485  33.968  38.795  1.00  0.00     0.057 A 
ATOM     64  C   UNL A   1      41.180  35.183  38.853  1.00  0.00     0.134 A 
ATOM     65  C   UNL A   1      39.802  33.560  39.947  1.00  0.00     0.134 A 
ATOM     66  F   UNL A   1      41.862  35.628  37.786  1.00  0.00    -0.206 F 
ATOM     67  C   UNL A   1      41.217  35.949  40.020  1.00  0.00     0.040 A 
ATOM     68  C   UNL A   1      39.809  34.330  41.113  1.00  0.00     0.040 A 
ATOM     69  F   UNL A   1      39.108  32.412  39.959  1.00  0.00    -0.206 F 
ATOM     70  C   UNL A   1      40.525  35.525  41.153  1.00  0.00     0.006 A 
ENDBRANCH  49  63
BRANCH  50  71
ATOM     71  C   UNL A   1      39.891  28.896  30.220  1.00  0.00     0.057 A 
ATOM     72  C   UNL A   1      40.496  29.412  29.068  1.00  0.00     0.134 A 
ATOM     73  C   UNL A   1      39.231  27.667  30.107  1.00  0.00     0.134 A 
ATOM     74  F   UNL A   1      41.125  30.595  29.109  1.00  0.00    -0.206 F 
ATOM     75  C   UNL A   1      40.436  28.739  27.847  1.00  0.00     0.040 A 
ATOM     76  C   UNL A   1      39.184  26.971  28.898  1.00  0.00     0.040 A 
ATOM     77  F   UNL A   1      38.636  27.117  31.176  1.00  0.00    -0.206 F 
ATOM     78  C   UNL A   1      39.783  27.510  27.762  1.00  0.00     0.006 A 
ENDBRANCH  50  71
BRANCH  62  79
ATOM     79  C   UNL A   1      44.569  29.111  35.371  1.00  0.00     0.057 A 
ATOM     80  C   UNL A   1      44.660  27.854  35.980  1.00  0.00     0.134 A 
ATOM     81  C   UNL A   1      45.756  29.696  34.912  1.00  0.00     0.134 A 
ATOM     82  F   UNL A   1      43.562  27.248  36.457  1.00  0.00    -0.206 F 
ATOM     83  C   UNL A   1      45.887  27.208  36.140  1.00  0.00     0.040 A 
ATOM     84  C   UNL A   1      46.986  29.049  35.042  1.00  0.00     0.040 A 
ATOM     85  F   UNL A   1      45.738  30.897  34.314  1.00  0.00    -0.206 F 
ATOM     86  C   UNL A   1      47.054  27.803  35.663  1.00  0.00     0.006 A 
ENDBRANCH  62  79
ENDBRANCH  36  37
ENDBRANCH  28  31
ENDBRANCH  26  27
ENDBRANCH  25  26
ENDBRANCH  24  25
ENDBRANCH  23  24
ENDBRANCH   1  23
TORSDOF 18
ENDMDL
MODEL 3
REMARK VINA RESULT:     -10.2      6.476     11.328
REMARK SMILES COC[C@@H](C)N(C)C(=O)N1CCC(CC(=O)NCCCCCCNC(=O)c2ccc(-c3c4nc(c(-c5c(F)cccc5F)c5ccc([nH]5)c(-c5c(F)cccc5F)c5nc(c(-c6c(F)cccc6F)c6ccc3[nH]6)C=C5)C=C4)cc2)CC1
REMARK SMILES IDX 19 1 18 2 17 3 15 4 16 5 14 7 13 8 8 9 9 10 10 11 11 12
REMARK SMILES IDX 82 13 12 14 81 15 6 16 7 17 4 18 5 19 3 20 2 21 1 22 20 23
REMARK SMILES IDX 21 24 22 25 23 26 24 27 25 28 26 30 27 31 28 32 80 33 29 34
REMARK SMILES IDX 79 35 30 36 31 37 32 38 73 39 33 40 78 41 72 42 74 43 34 44
REMARK SMILES IDX 77 45 71 46 70 47 35 49 61 50 44 51 60 52 45 53 48 54 59 55
REMARK SMILES IDX 75 56 46 57 47 58 58 60 76 61 49 62 36 63 37 64 42 65 38 66
REMARK SMILES IDX 39 67 41 68 43 69 40 70 62 71 63 72 68 73 64 74 65 75 67 76
REMARK SMILES IDX 69 77 66 78 50 79 51 80 56 81 52 82 53 83 55 84 57 85 54 86
REMARK H PARENT 17 6 24 29 74 48 48 59
REMARK Flexibility Score: inf
ROOT
ATOM      1  C   UNL A   1      35.534  33.798  28.906  1.00  0.00     0.021 C 
ENDROOT
BRANCH   1   2
ATOM      2  C   UNL A   1      35.818  32.875  27.712  1.00  0.00     0.116 C 
BRANCH   2   3
ATOM      3  N   UNL A   1      36.183  31.540  28.158  1.00  0.00    -0.356 N 
ATOM      4  C   UNL A   1      35.473  30.374  28.174  1.00  0.00     0.220 C 
ATOM      5  O   UNL A   1      35.987  29.390  28.710  1.00  0.00    -0.275 OA
ATOM      6  H   UNL A   1      37.100  31.463  28.509  1.00  0.00     0.163 HD
BRANCH   4   7
ATOM      7  C   UNL A   1      34.084  30.280  27.553  1.00  0.00     0.103 C 
BRANCH   7   8
ATOM      8  C   UNL A   1      33.615  28.835  27.284  1.00  0.00     0.002 C 
ATOM      9  C   UNL A   1      31.611  26.899  24.332  1.00  0.00     0.320 C 
ATOM     10  O   UNL A   1      31.013  27.886  23.906  1.00  0.00    -0.248 OA
ATOM     11  N   UNL A   1      32.269  26.928  25.542  1.00  0.00    -0.325 N 
ATOM     12  C   UNL A   1      31.570  27.432  26.696  1.00  0.00     0.121 C 
ATOM     13  C   UNL A   1      33.722  26.877  25.635  1.00  0.00     0.121 C 
ATOM     14  C   UNL A   1      32.098  28.787  27.106  1.00  0.00     0.026 C 
ATOM     15  C   UNL A   1      34.306  28.241  26.038  1.00  0.00     0.026 C 
BRANCH   9  16
ATOM     16  N   UNL A   1      31.578  25.656  23.712  1.00  0.00    -0.323 N 
ATOM     17  C   UNL A   1      30.550  24.669  24.013  1.00  0.00     0.149 C 
BRANCH  16  18
ATOM     18  C   UNL A   1      32.496  25.359  22.591  1.00  0.00     0.109 C 
ATOM     19  C   UNL A   1      31.971  25.950  21.282  1.00  0.00     0.033 C 
BRANCH  18  20
ATOM     20  C   UNL A   1      32.822  23.848  22.493  1.00  0.00     0.184 C 
BRANCH  20  21
ATOM     21  O   UNL A   1      34.223  23.573  22.403  1.00  0.00    -0.383 OA
ATOM     22  C   UNL A   1      34.933  23.797  23.614  1.00  0.00     0.194 C 
ENDBRANCH  20  21
ENDBRANCH  18  20
ENDBRANCH  16  18
ENDBRANCH   9  16
ENDBRANCH   7   8
ENDBRANCH   4   7
ENDBRANCH   2   3
ENDBRANCH   1   2
BRANCH   1  23
ATOM     23  C   UNL A   1      34.144  33.655  29.524  1.00  0.00     0.002 C 
BRANCH  23  24
ATOM     24  C   UNL A   1      33.069  34.556  28.917  1.00  0.00     0.002 C 
BRANCH  24  25
ATOM     25  C   UNL A   1      33.411  36.049  28.857  1.00  0.00     0.021 C 
BRANCH  25  26
ATOM     26  C   UNL A   1      33.561  36.742  30.210  1.00  0.00     0.116 C 
BRANCH  26  27
ATOM     27  N   UNL A   1      32.481  36.404  31.124  1.00  0.00    -0.352 N 
ATOM     28  C   UNL A   1      32.466  35.533  32.185  1.00  0.00     0.251 C 
ATOM     29  H   UNL A   1      31.631  36.871  30.956  1.00  0.00     0.163 HD
ATOM     30  O   UNL A   1      31.403  35.210  32.705  1.00  0.00    -0.269 OA
BRANCH  28  31
ATOM     31  C   UNL A   1      33.733  34.967  32.693  1.00  0.00     0.039 A 
ATOM     32  C   UNL A   1      33.723  33.691  33.262  1.00  0.00     0.014 A 
ATOM     33  C   UNL A   1      34.922  35.697  32.617  1.00  0.00     0.014 A 
ATOM     34  C   UNL A   1      34.924  33.113  33.682  1.00  0.00     0.010 A 
ATOM     35  C   UNL A   1      36.125  35.097  32.978  1.00  0.00     0.010 A 
ATOM     36  C   UNL A   1      36.139  33.795  33.502  1.00  0.00    -0.014 A 
BRANCH  36  37
ATOM     37  C   UNL A   1      37.438  33.145  33.807  1.00  0.00     0.031 A 
ATOM     38  C   UNL A   1      38.005  32.102  32.888  1.00  0.00     0.074 A 
ATOM     39  C   UNL A   1      38.065  33.441  34.963  1.00  0.00     0.049 A 
ATOM     40  N   UNL A   1      39.077  31.366  33.037  1.00  0.00    -0.248 NA
ATOM     41  C   UNL A   1      37.257  31.835  31.651  1.00  0.00     0.031 C 
ATOM     42  C   UNL A   1      37.592  34.407  35.957  1.00  0.00     0.029 A 
ATOM     43  N   UNL A   1      39.224  32.946  35.505  1.00  0.00    -0.354 N 
ATOM     44  C   UNL A   1      39.129  30.544  31.918  1.00  0.00     0.074 A 
ATOM     45  C   UNL A   1      37.956  30.839  31.123  1.00  0.00     0.031 C 
ATOM     46  C   UNL A   1      38.460  34.445  36.979  1.00  0.00     0.029 A 
ATOM     47  C   UNL A   1      39.525  33.476  36.736  1.00  0.00     0.049 A 
ATOM     48  H   UNL A   1      39.787  32.276  35.055  1.00  0.00     0.167 HD
ATOM     49  C   UNL A   1      40.078  29.639  31.577  1.00  0.00     0.037 A 
ATOM     50  C   UNL A   1      40.533  33.199  37.585  1.00  0.00     0.037 A 
ATOM     51  C   UNL A   1      41.247  29.356  32.368  1.00  0.00     0.049 A 
ATOM     52  C   UNL A   1      41.548  32.159  37.204  1.00  0.00     0.074 A 
ATOM     53  C   UNL A   1      42.302  28.509  32.075  1.00  0.00     0.029 A 
ATOM     54  N   UNL A   1      41.509  29.903  33.616  1.00  0.00    -0.354 N 
ATOM     55  N   UNL A   1      41.627  31.445  36.108  1.00  0.00    -0.248 NA
ATOM     56  C   UNL A   1      42.611  31.883  38.180  1.00  0.00     0.031 C 
ATOM     57  C   UNL A   1      43.175  28.503  33.168  1.00  0.00     0.029 A 
ATOM     58  C   UNL A   1      42.689  29.382  34.122  1.00  0.00     0.049 A 
ATOM     59  H   UNL A   1      40.941  30.564  34.074  1.00  0.00     0.167 HD
ATOM     60  C   UNL A   1      42.751  30.644  36.256  1.00  0.00     0.074 A 
ATOM     61  C   UNL A   1      43.337  30.977  37.538  1.00  0.00     0.031 C 
ATOM     62  C   UNL A   1      43.252  29.714  35.407  1.00  0.00     0.037 A 
BRANCH  49  63
ATOM     63  C   UNL A   1      39.886  28.885  30.294  1.00  0.00     0.057 A 
ATOM     64  C   UNL A   1      39.172  27.681  30.243  1.00  0.00     0.134 A 
ATOM     65  C   UNL A   1      40.389  29.388  29.087  1.00  0.00     0.134 A 
ATOM     66  F   UNL A   1      38.670  27.141  31.364  1.00  0.00    -0.206 F 
ATOM     67  C   UNL A   1      38.990  26.989  29.044  1.00  0.00     0.040 A 
ATOM     68  C   UNL A   1      40.190  28.719  27.877  1.00  0.00     0.040 A 
ATOM     69  F   UNL A   1      41.074  30.542  29.061  1.00  0.00    -0.206 F 
ATOM     70  C   UNL A   1      39.495  27.512  27.855  1.00  0.00     0.006 A 
ENDBRANCH  49  63
BRANCH  50  71
ATOM     71  C   UNL A   1      40.631  33.920  38.879  1.00  0.00     0.057 A 
ATOM     72  C   UNL A   1      41.425  35.066  39.006  1.00  0.00     0.134 A 
ATOM     73  C   UNL A   1      39.934  33.488  40.013  1.00  0.00     0.134 A 
ATOM     74  F   UNL A   1      42.132  35.516  37.959  1.00  0.00    -0.206 F 
ATOM     75  C   UNL A   1      41.533  35.749  40.218  1.00  0.00     0.040 A 
ATOM     76  C   UNL A   1      40.013  34.176  41.225  1.00  0.00     0.040 A 
ATOM     77  F   UNL A   1      39.153  32.400  39.955  1.00  0.00    -0.206 F 
ATOM     78  C   UNL A   1      40.819  35.308  41.331  1.00  0.00     0.006 A 
ENDBRANCH  50  71
BRANCH  62  79
ATOM     79  C   UNL A   1      44.494  28.991  35.838  1.00  0.00     0.057 A 
ATOM     80  C   UNL A   1      44.433  27.781  36.541  1.00  0.00     0.134 A 
ATOM     81  C   UNL A   1      45.763  29.486  35.511  1.00  0.00     0.134 A 
ATOM     82  F   UNL A   1      43.248  27.263  36.899  1.00  0.00    -0.206 F 
ATOM     83  C   UNL A   1      45.589  27.098  36.918  1.00  0.00     0.040 A 
ATOM     84  C   UNL A   1      46.926  28.798  35.859  1.00  0.00     0.040 A 
ATOM     85  F   UNL A   1      45.892  30.636  34.833  1.00  0.00    -0.206 F 
ATOM     86  C   UNL A   1      46.841  27.602  36.570  1.00  0.00     0.006 A 
ENDBRANCH  62  79
ENDBRANCH  36  37
ENDBRANCH  28  31
ENDBRANCH  26  27
ENDBRANCH  25  26
ENDBRANCH  24  25
ENDBRANCH  23  24
ENDBRANCH   1  23
TORSDOF 18
ENDMDL
