MODEL 1
REMARK VINA RESULT:     -11.7      0.000      0.000
REMARK SMILES Cc1cc2c(c(C)c1Br)C=C(C(=O)NCCCCCCNC(=O)c1ccc(-c3c4nc(c(-c5c(F)cccc5F)c5ccc([nH]5)c(-c5c(F)cccc5F)c5nc(c(-c6c(F)cccc6F)c6ccc3[nH]6)C=C5)C=C4)cc1)[C@@H](C(F)(F)F)O2
REMARK SMILES IDX 18 1 17 2 16 3 15 4 14 5 12 6 13 7 11 9 1 10 2 11 3 12 8 13
REMARK SMILES IDX 4 14 6 15 9 16 5 17 83 18 7 19 10 20 78 21 79 22 80 23 81 24
REMARK SMILES IDX 82 25 19 26 20 27 21 28 22 29 23 31 24 32 25 33 77 34 26 35
REMARK SMILES IDX 76 36 27 37 28 38 29 39 70 40 30 41 75 42 69 43 71 44 31 45
REMARK SMILES IDX 74 46 68 47 67 48 32 50 58 51 41 52 57 53 42 54 45 55 56 56
REMARK SMILES IDX 72 57 43 58 44 59 55 61 73 62 46 63 33 64 34 65 39 66 35 67
REMARK SMILES IDX 36 68 38 69 40 70 37 71 59 72 60 73 65 74 61 75 62 76 64 77
REMARK SMILES IDX 66 78 63 79 47 80 48 81 53 82 49 83 50 84 52 85 54 86 51 87
REMARK H PARENT 14 8 21 30 71 49 45 60
REMARK Flexibility Score: inf
ROOT
ATOM      1  C   UNL A   1      36.628  20.174  25.007  1.00  0.00     0.002 C 
ENDROOT
BRANCH   1   2
ATOM      2  C   UNL A   1      36.031  21.409  24.318  1.00  0.00     0.002 C 
BRANCH   2   3
ATOM      3  C   UNL A   1      36.985  22.597  24.180  1.00  0.00     0.021 C 
BRANCH   3   4
ATOM      4  C   UNL A   1      36.800  23.654  25.263  1.00  0.00     0.116 C 
BRANCH   4   5
ATOM      5  N   UNL A   1      35.941  23.183  26.332  1.00  0.00    -0.352 N 
ATOM      6  C   UNL A   1      34.648  23.326  26.702  1.00  0.00     0.251 C 
ATOM      7  O   UNL A   1      34.318  22.702  27.716  1.00  0.00    -0.270 OA
ATOM      8  H   UNL A   1      36.432  22.602  26.959  1.00  0.00     0.163 HD
BRANCH   6   9
ATOM      9  C   UNL A   1      33.636  24.163  25.987  1.00  0.00     0.067 C 
ATOM     10  C   UNL A   1      29.945  28.827  23.344  1.00  0.00     0.046 C 
ATOM     11  C   UNL A   1      30.925  28.025  24.158  1.00  0.00    -0.033 A 
ATOM     12  C   UNL A   1      31.052  26.667  23.863  1.00  0.00     0.051 A 
ATOM     13  C   UNL A   1      31.693  28.568  25.210  1.00  0.00     0.024 A 
ATOM     14  C   UNL A   1      31.931  25.865  24.580  1.00  0.00     0.128 A 
ATOM     15  C   UNL A   1      32.607  27.762  25.940  1.00  0.00    -0.026 A 
ATOM     16  Br  UNL A   1      31.468  30.423  25.628  1.00  0.00    -0.050 Br
ATOM     17  C   UNL A   1      32.726  26.391  25.601  1.00  0.00     0.021 A 
ATOM     18  O   UNL A   1      31.974  24.566  24.173  1.00  0.00    -0.475 OA
ATOM     19  C   UNL A   1      33.460  28.314  27.059  1.00  0.00     0.046 C 
ATOM     20  C   UNL A   1      33.683  25.484  26.242  1.00  0.00     0.026 C 
ATOM     21  C   UNL A   1      32.597  23.611  25.063  1.00  0.00     0.314 C 
BRANCH  21  22
ATOM     22  C   UNL A   1      31.502  22.815  25.795  1.00  0.00     0.429 C 
ATOM     23  F   UNL A   1      31.788  21.489  25.775  1.00  0.00    -0.167 F 
ATOM     24  F   UNL A   1      31.389  23.157  27.100  1.00  0.00    -0.167 F 
ATOM     25  F   UNL A   1      30.281  22.977  25.238  1.00  0.00    -0.167 F 
ENDBRANCH  21  22
ENDBRANCH   6   9
ENDBRANCH   4   5
ENDBRANCH   3   4
ENDBRANCH   2   3
ENDBRANCH   1   2
BRANCH   1  26
ATOM     26  C   UNL A   1      38.113  19.929  24.728  1.00  0.00     0.021 C 
BRANCH  26  27
ATOM     27  C   UNL A   1      39.020  20.157  25.931  1.00  0.00     0.116 C 
BRANCH  27  28
ATOM     28  N   UNL A   1      40.132  19.223  25.951  1.00  0.00    -0.352 N 
ATOM     29  C   UNL A   1      41.469  19.472  26.117  1.00  0.00     0.251 C 
ATOM     30  H   UNL A   1      39.891  18.276  25.827  1.00  0.00     0.163 HD
ATOM     31  O   UNL A   1      42.300  18.600  25.877  1.00  0.00    -0.269 OA
BRANCH  29  32
ATOM     32  C   UNL A   1      41.905  20.803  26.577  1.00  0.00     0.039 A 
ATOM     33  C   UNL A   1      42.269  21.762  25.630  1.00  0.00     0.014 A 
ATOM     34  C   UNL A   1      41.962  21.098  27.944  1.00  0.00     0.014 A 
ATOM     35  C   UNL A   1      42.648  23.035  26.053  1.00  0.00     0.010 A 
ATOM     36  C   UNL A   1      42.265  22.389  28.359  1.00  0.00     0.010 A 
ATOM     37  C   UNL A   1      42.628  23.364  27.420  1.00  0.00    -0.014 A 
BRANCH  37  38
ATOM     38  C   UNL A   1      43.024  24.715  27.881  1.00  0.00     0.031 A 
ATOM     39  C   UNL A   1      41.970  25.753  28.146  1.00  0.00     0.074 A 
ATOM     40  C   UNL A   1      44.327  25.012  28.040  1.00  0.00     0.049 A 
ATOM     41  N   UNL A   1      42.113  26.994  28.534  1.00  0.00    -0.248 NA
ATOM     42  C   UNL A   1      40.571  25.351  27.924  1.00  0.00     0.031 C 
ATOM     43  C   UNL A   1      45.440  24.096  27.785  1.00  0.00     0.029 A 
ATOM     44  N   UNL A   1      44.938  26.168  28.457  1.00  0.00    -0.354 N 
ATOM     45  C   UNL A   1      40.828  27.516  28.607  1.00  0.00     0.074 A 
ATOM     46  C   UNL A   1      39.923  26.483  28.155  1.00  0.00     0.031 C 
ATOM     47  C   UNL A   1      46.594  24.712  28.089  1.00  0.00     0.029 A 
ATOM     48  C   UNL A   1      46.306  26.076  28.522  1.00  0.00     0.049 A 
ATOM     49  H   UNL A   1      44.440  26.986  28.689  1.00  0.00     0.167 HD
ATOM     50  C   UNL A   1      40.435  28.734  29.044  1.00  0.00     0.037 A 
ATOM     51  C   UNL A   1      47.224  26.990  28.890  1.00  0.00     0.037 A 
ATOM     52  C   UNL A   1      41.338  29.751  29.512  1.00  0.00     0.049 A 
ATOM     53  C   UNL A   1      46.766  28.354  29.329  1.00  0.00     0.074 A 
ATOM     54  C   UNL A   1      41.036  31.002  30.016  1.00  0.00     0.029 A 
ATOM     55  N   UNL A   1      42.720  29.629  29.534  1.00  0.00    -0.354 N 
ATOM     56  N   UNL A   1      45.543  28.815  29.447  1.00  0.00    -0.248 NA
ATOM     57  C   UNL A   1      47.810  29.325  29.683  1.00  0.00     0.031 C 
ATOM     58  C   UNL A   1      42.237  31.660  30.296  1.00  0.00     0.029 A 
ATOM     59  C   UNL A   1      43.286  30.798  30.015  1.00  0.00     0.049 A 
ATOM     60  H   UNL A   1      43.222  28.832  29.250  1.00  0.00     0.167 HD
ATOM     61  C   UNL A   1      45.670  30.120  29.906  1.00  0.00     0.074 A 
ATOM     62  C   UNL A   1      47.088  30.370  30.064  1.00  0.00     0.031 C 
ATOM     63  C   UNL A   1      44.701  31.031  30.166  1.00  0.00     0.037 A 
BRANCH  50  64
ATOM     64  C   UNL A   1      38.965  29.029  29.056  1.00  0.00     0.057 A 
ATOM     65  C   UNL A   1      38.195  28.880  30.218  1.00  0.00     0.134 A 
ATOM     66  C   UNL A   1      38.320  29.519  27.913  1.00  0.00     0.134 A 
ATOM     67  F   UNL A   1      38.748  28.402  31.342  1.00  0.00    -0.206 F 
ATOM     68  C   UNL A   1      36.834  29.192  30.237  1.00  0.00     0.040 A 
ATOM     69  C   UNL A   1      36.967  29.861  27.929  1.00  0.00     0.040 A 
ATOM     70  F   UNL A   1      38.998  29.690  26.768  1.00  0.00    -0.206 F 
ATOM     71  C   UNL A   1      36.219  29.693  29.093  1.00  0.00     0.006 A 
ENDBRANCH  50  64
BRANCH  51  72
ATOM     72  C   UNL A   1      48.666  26.634  28.891  1.00  0.00     0.057 A 
ATOM     73  C   UNL A   1      49.451  26.808  27.746  1.00  0.00     0.134 A 
ATOM     74  C   UNL A   1      49.297  26.127  30.034  1.00  0.00     0.134 A 
ATOM     75  F   UNL A   1      48.900  27.272  26.615  1.00  0.00    -0.206 F 
ATOM     76  C   UNL A   1      50.808  26.482  27.731  1.00  0.00     0.040 A 
ATOM     77  C   UNL A   1      50.659  25.821  30.042  1.00  0.00     0.040 A 
ATOM     78  F   UNL A   1      48.603  25.942  31.166  1.00  0.00    -0.206 F 
ATOM     79  C   UNL A   1      51.418  25.993  28.885  1.00  0.00     0.006 A 
ENDBRANCH  51  72
BRANCH  63  80
ATOM     80  C   UNL A   1      45.130  32.384  30.650  1.00  0.00     0.057 A 
ATOM     81  C   UNL A   1      45.353  32.638  32.010  1.00  0.00     0.134 A 
ATOM     82  C   UNL A   1      45.407  33.415  29.744  1.00  0.00     0.134 A 
ATOM     83  F   UNL A   1      45.096  31.695  32.928  1.00  0.00    -0.206 F 
ATOM     84  C   UNL A   1      45.827  33.874  32.452  1.00  0.00     0.040 A 
ATOM     85  C   UNL A   1      45.909  34.645  30.171  1.00  0.00     0.040 A 
ATOM     86  F   UNL A   1      45.228  33.233  28.427  1.00  0.00    -0.206 F 
ATOM     87  C   UNL A   1      46.118  34.877  31.529  1.00  0.00     0.006 A 
ENDBRANCH  63  80
ENDBRANCH  37  38
ENDBRANCH  29  32
ENDBRANCH  27  28
ENDBRANCH  26  27
ENDBRANCH   1  26
TORSDOF 14
ENDMDL
MODEL 2
REMARK VINA RESULT:     -11.6      0.339      6.117
REMARK SMILES Cc1cc2c(c(C)c1Br)C=C(C(=O)NCCCCCCNC(=O)c1ccc(-c3c4nc(c(-c5c(F)cccc5F)c5ccc([nH]5)c(-c5c(F)cccc5F)c5nc(c(-c6c(F)cccc6F)c6ccc3[nH]6)C=C5)C=C4)cc1)[C@@H](C(F)(F)F)O2
REMARK SMILES IDX 18 1 17 2 16 3 15 4 14 5 12 6 13 7 11 9 1 10 2 11 3 12 8 13
REMARK SMILES IDX 4 14 6 15 9 16 5 17 83 18 7 19 10 20 78 21 79 22 80 23 81 24
REMARK SMILES IDX 82 25 19 26 20 27 21 28 22 29 23 31 24 32 25 33 77 34 26 35
REMARK SMILES IDX 76 36 27 37 28 38 29 39 70 40 30 41 75 42 69 43 71 44 31 45
REMARK SMILES IDX 74 46 68 47 67 48 32 50 58 51 41 52 57 53 42 54 45 55 56 56
REMARK SMILES IDX 72 57 43 58 44 59 55 61 73 62 46 63 33 64 34 65 39 66 35 67
REMARK SMILES IDX 36 68 38 69 40 70 37 71 59 72 60 73 65 74 61 75 62 76 64 77
REMARK SMILES IDX 66 78 63 79 47 80 48 81 53 82 49 83 50 84 52 85 54 86 51 87
REMARK H PARENT 14 8 21 30 71 49 45 60
REMARK Flexibility Score: inf
ROOT
ATOM      1  C   UNL A   1      36.720  19.765  24.999  1.00  0.00     0.002 C 
ENDROOT
BRANCH   1   2
ATOM      2  C   UNL A   1      36.031  21.086  24.629  1.00  0.00     0.002 C 
BRANCH   2   3
ATOM      3  C   UNL A   1      36.979  22.260  24.376  1.00  0.00     0.021 C 
BRANCH   3   4
ATOM      4  C   UNL A   1      36.835  23.387  25.392  1.00  0.00     0.116 C 
BRANCH   4   5
ATOM      5  N   UNL A   1      35.890  23.049  26.439  1.00  0.00    -0.352 N 
ATOM      6  C   UNL A   1      34.597  23.317  26.732  1.00  0.00     0.251 C 
ATOM      7  O   UNL A   1      34.169  22.782  27.760  1.00  0.00    -0.270 OA
ATOM      8  H   UNL A   1      36.301  22.470  27.122  1.00  0.00     0.163 HD
BRANCH   6   9
ATOM      9  C   UNL A   1      33.693  24.188  25.920  1.00  0.00     0.067 C 
ATOM     10  C   UNL A   1      30.371  28.976  23.021  1.00  0.00     0.046 C 
ATOM     11  C   UNL A   1      31.227  28.133  23.928  1.00  0.00    -0.033 A 
ATOM     12  C   UNL A   1      31.424  26.798  23.575  1.00  0.00     0.051 A 
ATOM     13  C   UNL A   1      31.813  28.616  25.118  1.00  0.00     0.024 A 
ATOM     14  C   UNL A   1      32.196  25.960  24.370  1.00  0.00     0.128 A 
ATOM     15  C   UNL A   1      32.617  27.774  25.931  1.00  0.00    -0.026 A 
ATOM     16  Br  UNL A   1      31.491  30.438  25.608  1.00  0.00    -0.050 Br
ATOM     17  C   UNL A   1      32.813  26.428  25.532  1.00  0.00     0.021 A 
ATOM     18  O   UNL A   1      32.326  24.689  23.897  1.00  0.00    -0.475 OA
ATOM     19  C   UNL A   1      33.276  28.262  27.202  1.00  0.00     0.046 C 
ATOM     20  C   UNL A   1      33.676  25.491  26.259  1.00  0.00     0.026 C 
ATOM     21  C   UNL A   1      32.820  23.686  24.813  1.00  0.00     0.314 C 
BRANCH  21  22
ATOM     22  C   UNL A   1      31.640  22.836  25.315  1.00  0.00     0.429 C 
ATOM     23  F   UNL A   1      30.580  22.957  24.477  1.00  0.00    -0.167 F 
ATOM     24  F   UNL A   1      31.930  21.515  25.368  1.00  0.00    -0.167 F 
ATOM     25  F   UNL A   1      31.227  23.199  26.550  1.00  0.00    -0.167 F 
ENDBRANCH  21  22
ENDBRANCH   6   9
ENDBRANCH   4   5
ENDBRANCH   3   4
ENDBRANCH   2   3
ENDBRANCH   1   2
BRANCH   1  26
ATOM     26  C   UNL A   1      38.219  19.705  24.696  1.00  0.00     0.021 C 
BRANCH  26  27
ATOM     27  C   UNL A   1      39.111  19.967  25.904  1.00  0.00     0.116 C 
BRANCH  27  28
ATOM     28  N   UNL A   1      40.285  19.112  25.900  1.00  0.00    -0.352 N 
ATOM     29  C   UNL A   1      41.602  19.450  26.074  1.00  0.00     0.251 C 
ATOM     30  H   UNL A   1      40.110  18.155  25.752  1.00  0.00     0.163 HD
ATOM     31  O   UNL A   1      42.491  18.644  25.812  1.00  0.00    -0.269 OA
BRANCH  29  32
ATOM     32  C   UNL A   1      41.945  20.795  26.569  1.00  0.00     0.039 A 
ATOM     33  C   UNL A   1      42.251  21.799  25.648  1.00  0.00     0.014 A 
ATOM     34  C   UNL A   1      41.972  21.060  27.942  1.00  0.00     0.014 A 
ATOM     35  C   UNL A   1      42.542  23.083  26.104  1.00  0.00     0.010 A 
ATOM     36  C   UNL A   1      42.185  22.358  28.391  1.00  0.00     0.010 A 
ATOM     37  C   UNL A   1      42.489  23.377  27.478  1.00  0.00    -0.014 A 
BRANCH  37  38
ATOM     38  C   UNL A   1      42.791  24.740  27.974  1.00  0.00     0.031 A 
ATOM     39  C   UNL A   1      44.217  25.144  28.226  1.00  0.00     0.074 A 
ATOM     40  C   UNL A   1      41.786  25.602  28.217  1.00  0.00     0.049 A 
ATOM     41  N   UNL A   1      44.686  26.278  28.678  1.00  0.00    -0.248 NA
ATOM     42  C   UNL A   1      45.252  24.132  27.957  1.00  0.00     0.031 C 
ATOM     43  C   UNL A   1      40.363  25.313  28.038  1.00  0.00     0.029 A 
ATOM     44  N   UNL A   1      41.808  26.899  28.665  1.00  0.00    -0.354 N 
ATOM     45  C   UNL A   1      46.063  26.117  28.742  1.00  0.00     0.074 A 
ATOM     46  C   UNL A   1      46.352  24.755  28.352  1.00  0.00     0.031 C 
ATOM     47  C   UNL A   1      39.651  26.412  28.334  1.00  0.00     0.029 A 
ATOM     48  C   UNL A   1      40.562  27.470  28.761  1.00  0.00     0.049 A 
ATOM     49  H   UNL A   1      42.639  27.376  28.894  1.00  0.00     0.167 HD
ATOM     50  C   UNL A   1      47.006  27.033  29.062  1.00  0.00     0.037 A 
ATOM     51  C   UNL A   1      40.199  28.707  29.148  1.00  0.00     0.037 A 
ATOM     52  C   UNL A   1      46.716  28.393  29.429  1.00  0.00     0.049 A 
ATOM     53  C   UNL A   1      41.263  29.694  29.544  1.00  0.00     0.074 A 
ATOM     54  C   UNL A   1      47.603  29.410  29.730  1.00  0.00     0.029 A 
ATOM     55  N   UNL A   1      45.439  28.924  29.543  1.00  0.00    -0.354 N 
ATOM     56  N   UNL A   1      42.566  29.546  29.544  1.00  0.00    -0.248 NA
ATOM     57  C   UNL A   1      40.809  31.016  29.994  1.00  0.00     0.031 C 
ATOM     58  C   UNL A   1      46.863  30.544  30.077  1.00  0.00     0.029 A 
ATOM     59  C   UNL A   1      45.516  30.248  29.942  1.00  0.00     0.049 A 
ATOM     60  H   UNL A   1      44.605  28.433  29.368  1.00  0.00     0.167 HD
ATOM     61  C   UNL A   1      43.088  30.759  29.976  1.00  0.00     0.074 A 
ATOM     62  C   UNL A   1      41.961  31.638  30.208  1.00  0.00     0.031 C 
ATOM     63  C   UNL A   1      44.383  31.110  30.169  1.00  0.00     0.037 A 
BRANCH  50  64
ATOM     64  C   UNL A   1      48.442  26.601  29.012  1.00  0.00     0.057 A 
ATOM     65  C   UNL A   1      49.077  26.031  30.123  1.00  0.00     0.134 A 
ATOM     66  C   UNL A   1      49.182  26.703  27.827  1.00  0.00     0.134 A 
ATOM     67  F   UNL A   1      48.429  25.916  31.292  1.00  0.00    -0.206 F 
ATOM     68  C   UNL A   1      50.402  25.594  30.063  1.00  0.00     0.040 A 
ATOM     69  C   UNL A   1      50.498  26.244  27.747  1.00  0.00     0.040 A 
ATOM     70  F   UNL A   1      48.634  27.235  26.724  1.00  0.00    -0.206 F 
ATOM     71  C   UNL A   1      51.113  25.692  28.869  1.00  0.00     0.006 A 
ENDBRANCH  50  64
BRANCH  51  72
ATOM     72  C   UNL A   1      38.764  29.092  29.148  1.00  0.00     0.057 A 
ATOM     73  C   UNL A   1      37.993  28.993  30.310  1.00  0.00     0.134 A 
ATOM     74  C   UNL A   1      38.135  29.580  27.996  1.00  0.00     0.134 A 
ATOM     75  F   UNL A   1      38.534  28.516  31.440  1.00  0.00    -0.206 F 
ATOM     76  C   UNL A   1      36.644  29.355  30.329  1.00  0.00     0.040 A 
ATOM     77  C   UNL A   1      36.794  29.970  28.005  1.00  0.00     0.040 A 
ATOM     78  F   UNL A   1      38.819  29.704  26.849  1.00  0.00    -0.206 F 
ATOM     79  C   UNL A   1      36.043  29.852  29.173  1.00  0.00     0.006 A 
ENDBRANCH  51  72
BRANCH  63  80
ATOM     80  C   UNL A   1      44.661  32.502  30.653  1.00  0.00     0.057 A 
ATOM     81  C   UNL A   1      44.839  32.782  32.014  1.00  0.00     0.134 A 
ATOM     82  C   UNL A   1      44.839  33.554  29.746  1.00  0.00     0.134 A 
ATOM     83  F   UNL A   1      44.672  31.819  32.933  1.00  0.00    -0.206 F 
ATOM     84  C   UNL A   1      45.176  34.062  32.456  1.00  0.00     0.040 A 
ATOM     85  C   UNL A   1      45.203  34.831  30.174  1.00  0.00     0.040 A 
ATOM     86  F   UNL A   1      44.695  33.350  28.428  1.00  0.00    -0.206 F 
ATOM     87  C   UNL A   1      45.370  35.088  31.533  1.00  0.00     0.006 A 
ENDBRANCH  63  80
ENDBRANCH  37  38
ENDBRANCH  29  32
ENDBRANCH  27  28
ENDBRANCH  26  27
ENDBRANCH   1  26
TORSDOF 14
ENDMDL
MODEL 3
REMARK VINA RESULT:     -11.6      4.704     10.155
REMARK SMILES Cc1cc2c(c(C)c1Br)C=C(C(=O)NCCCCCCNC(=O)c1ccc(-c3c4nc(c(-c5c(F)cccc5F)c5ccc([nH]5)c(-c5c(F)cccc5F)c5nc(c(-c6c(F)cccc6F)c6ccc3[nH]6)C=C5)C=C4)cc1)[C@@H](C(F)(F)F)O2
REMARK SMILES IDX 18 1 17 2 16 3 15 4 14 5 12 6 13 7 11 9 1 10 2 11 3 12 8 13
REMARK SMILES IDX 4 14 6 15 9 16 5 17 83 18 7 19 10 20 78 21 79 22 80 23 81 24
REMARK SMILES IDX 82 25 19 26 20 27 21 28 22 29 23 31 24 32 25 33 77 34 26 35
REMARK SMILES IDX 76 36 27 37 28 38 29 39 70 40 30 41 75 42 69 43 71 44 31 45
REMARK SMILES IDX 74 46 68 47 67 48 32 50 58 51 41 52 57 53 42 54 45 55 56 56
REMARK SMILES IDX 72 57 43 58 44 59 55 61 73 62 46 63 33 64 34 65 39 66 35 67
REMARK SMILES IDX 36 68 38 69 40 70 37 71 59 72 60 73 65 74 61 75 62 76 64 77
REMARK SMILES IDX 66 78 63 79 47 80 48 81 53 82 49 83 50 84 52 85 54 86 51 87
REMARK H PARENT 14 8 21 30 71 49 45 60
REMARK Flexibility Score: inf
ROOT
ATOM      1  C   UNL A   1      42.715  19.501  26.078  1.00  0.00     0.002 C 
ENDROOT
BRANCH   1   2
ATOM      2  C   UNL A   1      43.861  19.520  25.057  1.00  0.00     0.002 C 
BRANCH   2   3
ATOM      3  C   UNL A   1      45.258  19.325  25.650  1.00  0.00     0.021 C 
BRANCH   3   4
ATOM      4  C   UNL A   1      46.312  20.238  25.035  1.00  0.00     0.116 C 
BRANCH   4   5
ATOM      5  N   UNL A   1      45.711  21.351  24.326  1.00  0.00    -0.352 N 
ATOM      6  C   UNL A   1      45.574  22.685  24.506  1.00  0.00     0.251 C 
ATOM      7  O   UNL A   1      44.982  23.280  23.602  1.00  0.00    -0.270 OA
ATOM      8  H   UNL A   1      45.288  21.057  23.486  1.00  0.00     0.163 HD
BRANCH   6   9
ATOM      9  C   UNL A   1      46.076  23.448  25.690  1.00  0.00     0.067 C 
ATOM     10  C   UNL A   1      47.277  26.149  31.489  1.00  0.00     0.046 C 
ATOM     11  C   UNL A   1      46.680  25.438  30.304  1.00  0.00    -0.033 A 
ATOM     12  C   UNL A   1      47.471  25.309  29.162  1.00  0.00     0.051 A 
ATOM     13  C   UNL A   1      45.365  24.926  30.283  1.00  0.00     0.024 A 
ATOM     14  C   UNL A   1      46.981  24.672  28.029  1.00  0.00     0.128 A 
ATOM     15  C   UNL A   1      44.858  24.259  29.136  1.00  0.00    -0.026 A 
ATOM     16  Br  UNL A   1      44.281  25.158  31.844  1.00  0.00    -0.050 Br
ATOM     17  C   UNL A   1      45.695  24.128  28.000  1.00  0.00     0.021 A 
ATOM     18  O   UNL A   1      47.865  24.594  26.995  1.00  0.00    -0.475 OA
ATOM     19  C   UNL A   1      43.462  23.681  29.085  1.00  0.00     0.046 C 
ATOM     20  C   UNL A   1      45.299  23.402  26.788  1.00  0.00     0.026 C 
ATOM     21  C   UNL A   1      47.337  24.255  25.692  1.00  0.00     0.314 C 
BRANCH  21  22
ATOM     22  C   UNL A   1      47.235  25.533  24.842  1.00  0.00     0.429 C 
ATOM     23  F   UNL A   1      47.983  26.525  25.387  1.00  0.00    -0.167 F 
ATOM     24  F   UNL A   1      47.697  25.362  23.580  1.00  0.00    -0.167 F 
ATOM     25  F   UNL A   1      45.967  25.989  24.738  1.00  0.00    -0.167 F 
ENDBRANCH  21  22
ENDBRANCH   6   9
ENDBRANCH   4   5
ENDBRANCH   3   4
ENDBRANCH   2   3
ENDBRANCH   1   2
BRANCH   1  26
ATOM     26  C   UNL A   1      42.516  20.803  26.857  1.00  0.00     0.021 C 
BRANCH  26  27
ATOM     27  C   UNL A   1      42.000  21.962  26.014  1.00  0.00     0.116 C 
BRANCH  27  28
ATOM     28  N   UNL A   1      40.567  21.871  25.795  1.00  0.00    -0.352 N 
ATOM     29  C   UNL A   1      39.574  22.728  26.193  1.00  0.00     0.251 C 
ATOM     30  H   UNL A   1      40.266  21.082  25.289  1.00  0.00     0.163 HD
ATOM     31  O   UNL A   1      38.396  22.389  26.129  1.00  0.00    -0.269 OA
BRANCH  29  32
ATOM     32  C   UNL A   1      39.933  24.061  26.710  1.00  0.00     0.039 A 
ATOM     33  C   UNL A   1      39.922  24.279  28.089  1.00  0.00     0.014 A 
ATOM     34  C   UNL A   1      40.271  25.096  25.831  1.00  0.00     0.014 A 
ATOM     35  C   UNL A   1      40.295  25.525  28.591  1.00  0.00     0.010 A 
ATOM     36  C   UNL A   1      40.717  26.312  26.336  1.00  0.00     0.010 A 
ATOM     37  C   UNL A   1      40.716  26.543  27.718  1.00  0.00    -0.014 A 
BRANCH  37  38
ATOM     38  C   UNL A   1      41.119  27.871  28.239  1.00  0.00     0.031 A 
ATOM     39  C   UNL A   1      42.572  28.252  28.266  1.00  0.00     0.074 A 
ATOM     40  C   UNL A   1      40.183  28.718  28.706  1.00  0.00     0.049 A 
ATOM     41  N   UNL A   1      43.128  29.354  28.700  1.00  0.00    -0.248 NA
ATOM     42  C   UNL A   1      43.531  27.257  27.759  1.00  0.00     0.031 C 
ATOM     43  C   UNL A   1      38.746  28.445  28.758  1.00  0.00     0.029 A 
ATOM     44  N   UNL A   1      40.300  29.984  29.223  1.00  0.00    -0.354 N 
ATOM     45  C   UNL A   1      44.494  29.185  28.515  1.00  0.00     0.074 A 
ATOM     46  C   UNL A   1      44.691  27.850  27.996  1.00  0.00     0.031 C 
ATOM     47  C   UNL A   1      38.111  29.526  29.241  1.00  0.00     0.029 A 
ATOM     48  C   UNL A   1      39.098  30.551  29.569  1.00  0.00     0.049 A 
ATOM     49  H   UNL A   1      41.165  30.442  29.335  1.00  0.00     0.167 HD
ATOM     50  C   UNL A   1      45.491  30.075  28.724  1.00  0.00     0.037 A 
ATOM     51  C   UNL A   1      38.824  31.762  30.090  1.00  0.00     0.037 A 
ATOM     52  C   UNL A   1      45.287  31.409  29.221  1.00  0.00     0.049 A 
ATOM     53  C   UNL A   1      39.955  32.718  30.357  1.00  0.00     0.074 A 
ATOM     54  C   UNL A   1      46.227  32.402  29.427  1.00  0.00     0.029 A 
ATOM     55  N   UNL A   1      44.057  31.936  29.586  1.00  0.00    -0.354 N 
ATOM     56  N   UNL A   1      41.236  32.566  30.123  1.00  0.00    -0.248 NA
ATOM     57  C   UNL A   1      39.604  34.010  30.962  1.00  0.00     0.031 C 
ATOM     58  C   UNL A   1      45.575  33.514  29.966  1.00  0.00     0.029 A 
ATOM     59  C   UNL A   1      44.220  33.231  30.048  1.00  0.00     0.049 A 
ATOM     60  H   UNL A   1      43.198  31.460  29.528  1.00  0.00     0.167 HD
ATOM     61  C   UNL A   1      41.842  33.747  30.533  1.00  0.00     0.074 A 
ATOM     62  C   UNL A   1      40.784  34.613  31.012  1.00  0.00     0.031 C 
ATOM     63  C   UNL A   1      43.155  34.081  30.521  1.00  0.00     0.037 A 
BRANCH  50  64
ATOM     64  C   UNL A   1      46.890  29.643  28.399  1.00  0.00     0.057 A 
ATOM     65  C   UNL A   1      47.754  29.150  29.386  1.00  0.00     0.134 A 
ATOM     66  C   UNL A   1      47.361  29.665  27.080  1.00  0.00     0.134 A 
ATOM     67  F   UNL A   1      47.369  29.114  30.670  1.00  0.00    -0.206 F 
ATOM     68  C   UNL A   1      49.043  28.712  29.075  1.00  0.00     0.040 A 
ATOM     69  C   UNL A   1      48.637  29.203  26.754  1.00  0.00     0.040 A 
ATOM     70  F   UNL A   1      46.584  30.121  26.086  1.00  0.00    -0.206 F 
ATOM     71  C   UNL A   1      49.484  28.729  27.754  1.00  0.00     0.006 A 
ENDBRANCH  50  64
BRANCH  51  72
ATOM     72  C   UNL A   1      37.417  32.150  30.362  1.00  0.00     0.057 A 
ATOM     73  C   UNL A   1      36.801  31.823  31.575  1.00  0.00     0.134 A 
ATOM     74  C   UNL A   1      36.659  32.869  29.429  1.00  0.00     0.134 A 
ATOM     75  F   UNL A   1      37.469  31.120  32.501  1.00  0.00    -0.206 F 
ATOM     76  C   UNL A   1      35.481  32.184  31.848  1.00  0.00     0.040 A 
ATOM     77  C   UNL A   1      35.346  33.260  29.698  1.00  0.00     0.040 A 
ATOM     78  F   UNL A   1      37.192  33.220  28.249  1.00  0.00    -0.206 F 
ATOM     79  C   UNL A   1      34.752  32.912  30.909  1.00  0.00     0.006 A 
ENDBRANCH  51  72
BRANCH  63  80
ATOM     80  C   UNL A   1      43.533  35.438  31.036  1.00  0.00     0.057 A 
ATOM     81  C   UNL A   1      43.641  36.541  30.181  1.00  0.00     0.134 A 
ATOM     82  C   UNL A   1      43.702  35.662  32.408  1.00  0.00     0.134 A 
ATOM     83  F   UNL A   1      43.500  36.390  28.856  1.00  0.00    -0.206 F 
ATOM     84  C   UNL A   1      43.915  37.819  30.671  1.00  0.00     0.040 A 
ATOM     85  C   UNL A   1      43.948  36.940  32.913  1.00  0.00     0.040 A 
ATOM     86  F   UNL A   1      43.598  34.650  33.283  1.00  0.00    -0.206 F 
ATOM     87  C   UNL A   1      44.057  38.022  32.042  1.00  0.00     0.006 A 
ENDBRANCH  63  80
ENDBRANCH  37  38
ENDBRANCH  29  32
ENDBRANCH  27  28
ENDBRANCH  26  27
ENDBRANCH   1  26
TORSDOF 14
ENDMDL
