MODEL 1
REMARK VINA RESULT:     -12.1      0.000      0.000
REMARK SMILES O=C(NCCCCCCNC(=O)c1ccc(-c2c3nc(c(-c4c(F)cccc4F)c4ccc([nH]4)c(-c4c(F)cccc4F)c4nc(c(-c5c(F)cccc5F)c5ccc2[nH]5)C=C4)C=C3)cc1)C1=Cc2c(ccc(Cl)c2-c2ccccc2)O[C@H]1C(F)(F)F
REMARK SMILES IDX 7 1 6 2 5 3 4 4 3 5 1 6 2 7 67 9 68 10 83 11 69 12 82 13
REMARK SMILES IDX 70 14 75 15 71 16 73 17 72 18 74 19 84 20 85 21 86 22 87 23
REMARK SMILES IDX 76 24 77 25 81 26 78 27 80 28 79 29 8 30 9 31 10 32 11 33
REMARK SMILES IDX 12 35 13 36 14 37 66 38 15 39 65 40 16 41 17 42 18 43 59 44
REMARK SMILES IDX 19 45 64 46 58 47 60 48 20 49 63 50 57 51 56 52 21 54 47 55
REMARK SMILES IDX 30 56 46 57 31 58 34 59 45 60 61 61 32 62 33 63 44 65 62 66
REMARK SMILES IDX 35 67 22 68 23 69 28 70 24 71 25 72 27 73 29 74 26 75 48 76
REMARK SMILES IDX 49 77 54 78 50 79 51 80 53 81 55 82 52 83 36 84 37 85 42 86
REMARK SMILES IDX 38 87 39 88 41 89 43 90 40 91
REMARK H PARENT 3 8 10 34 60 53 34 64
REMARK Flexibility Score: inf
ROOT
ATOM      1  C   UNL A   1      36.044  19.866  25.044  1.00  0.00     0.002 C 
ENDROOT
BRANCH   1   2
ATOM      2  C   UNL A   1      34.889  18.933  24.663  1.00  0.00     0.002 C 
BRANCH   2   3
ATOM      3  C   UNL A   1      33.466  19.495  24.755  1.00  0.00     0.021 C 
BRANCH   3   4
ATOM      4  C   UNL A   1      33.298  20.985  24.464  1.00  0.00     0.116 C 
BRANCH   4   5
ATOM      5  N   UNL A   1      33.161  21.835  25.632  1.00  0.00    -0.352 N 
ATOM      6  O   UNL A   1      33.536  23.596  26.976  1.00  0.00    -0.270 OA
ATOM      7  C   UNL A   1      33.737  23.047  25.896  1.00  0.00     0.251 C 
ATOM      8  H   UNL A   1      32.566  21.488  26.335  1.00  0.00     0.163 HD
BRANCH   7   9
ATOM      9  C   UNL A   1      34.582  23.733  24.894  1.00  0.00     0.067 C 
ATOM     10  C   UNL A   1      34.590  25.071  24.903  1.00  0.00     0.026 C 
ATOM     11  C   UNL A   1      35.058  23.050  23.652  1.00  0.00     0.314 C 
ATOM     12  C   UNL A   1      33.742  25.554  23.778  1.00  0.00     0.027 A 
ATOM     13  O   UNL A   1      34.440  23.627  22.445  1.00  0.00    -0.475 OA
ATOM     14  C   UNL A   1      33.706  24.783  22.603  1.00  0.00     0.128 A 
ATOM     15  C   UNL A   1      32.865  26.649  24.000  1.00  0.00     0.011 A 
ATOM     16  C   UNL A   1      32.787  25.100  21.612  1.00  0.00     0.049 A 
ATOM     17  C   UNL A   1      31.926  26.925  22.999  1.00  0.00     0.049 A 
ATOM     18  C   UNL A   1      31.891  26.158  21.817  1.00  0.00     0.025 A 
ATOM     19  Cl  UNL A   1      30.723  28.148  23.196  1.00  0.00    -0.084 Cl
BRANCH  11  20
ATOM     20  C   UNL A   1      36.603  23.064  23.540  1.00  0.00     0.429 C 
ATOM     21  F   UNL A   1      37.086  24.161  22.906  1.00  0.00    -0.167 F 
ATOM     22  F   UNL A   1      37.181  23.032  24.764  1.00  0.00    -0.167 F 
ATOM     23  F   UNL A   1      37.069  21.993  22.853  1.00  0.00    -0.167 F 
ENDBRANCH  11  20
BRANCH  15  24
ATOM     24  C   UNL A   1      32.919  27.267  25.346  1.00  0.00    -0.016 A 
ATOM     25  C   UNL A   1      33.632  28.465  25.517  1.00  0.00     0.009 A 
ATOM     26  C   UNL A   1      31.934  26.939  26.295  1.00  0.00     0.009 A 
ATOM     27  C   UNL A   1      33.253  29.390  26.490  1.00  0.00     0.001 A 
ATOM     28  C   UNL A   1      31.547  27.871  27.260  1.00  0.00     0.001 A 
ATOM     29  C   UNL A   1      32.181  29.110  27.332  1.00  0.00     0.000 A 
ENDBRANCH  15  24
ENDBRANCH   7   9
ENDBRANCH   4   5
ENDBRANCH   3   4
ENDBRANCH   2   3
ENDBRANCH   1   2
BRANCH   1  30
ATOM     30  C   UNL A   1      37.463  19.396  24.731  1.00  0.00     0.021 C 
BRANCH  30  31
ATOM     31  C   UNL A   1      38.573  20.020  25.567  1.00  0.00     0.116 C 
BRANCH  31  32
ATOM     32  N   UNL A   1      39.745  19.170  25.687  1.00  0.00    -0.352 N 
ATOM     33  C   UNL A   1      41.028  19.474  26.064  1.00  0.00     0.251 C 
ATOM     34  H   UNL A   1      39.594  18.223  25.460  1.00  0.00     0.163 HD
ATOM     35  O   UNL A   1      41.907  18.613  25.968  1.00  0.00    -0.269 OA
BRANCH  33  36
ATOM     36  C   UNL A   1      41.384  20.822  26.563  1.00  0.00     0.039 A 
ATOM     37  C   UNL A   1      41.273  21.081  27.933  1.00  0.00     0.014 A 
ATOM     38  C   UNL A   1      41.791  21.842  25.699  1.00  0.00     0.014 A 
ATOM     39  C   UNL A   1      41.621  22.336  28.440  1.00  0.00     0.010 A 
ATOM     40  C   UNL A   1      42.218  23.065  26.214  1.00  0.00     0.010 A 
ATOM     41  C   UNL A   1      42.129  23.330  27.588  1.00  0.00    -0.014 A 
BRANCH  41  42
ATOM     42  C   UNL A   1      42.553  24.653  28.117  1.00  0.00     0.031 A 
ATOM     43  C   UNL A   1      41.542  25.746  28.331  1.00  0.00     0.074 A 
ATOM     44  C   UNL A   1      43.858  24.891  28.355  1.00  0.00     0.049 A 
ATOM     45  N   UNL A   1      41.727  26.981  28.726  1.00  0.00    -0.248 NA
ATOM     46  C   UNL A   1      40.138  25.415  28.037  1.00  0.00     0.031 C 
ATOM     47  C   UNL A   1      44.945  23.934  28.144  1.00  0.00     0.029 A 
ATOM     48  N   UNL A   1      44.493  26.018  28.817  1.00  0.00    -0.354 N 
ATOM     49  C   UNL A   1      40.470  27.573  28.720  1.00  0.00     0.074 A 
ATOM     50  C   UNL A   1      39.541  26.584  28.218  1.00  0.00     0.031 C 
ATOM     51  C   UNL A   1      46.108  24.506  28.493  1.00  0.00     0.029 A 
ATOM     52  C   UNL A   1      45.856  25.881  28.915  1.00  0.00     0.049 A 
ATOM     53  H   UNL A   1      44.016  26.845  29.056  1.00  0.00     0.167 HD
ATOM     54  C   UNL A   1      40.114  28.817  29.122  1.00  0.00     0.037 A 
ATOM     55  C   UNL A   1      46.801  26.764  29.290  1.00  0.00     0.037 A 
ATOM     56  C   UNL A   1      41.037  29.797  29.630  1.00  0.00     0.049 A 
ATOM     57  C   UNL A   1      46.386  28.146  29.716  1.00  0.00     0.074 A 
ATOM     58  C   UNL A   1      40.771  31.071  30.103  1.00  0.00     0.029 A 
ATOM     59  N   UNL A   1      42.409  29.614  29.728  1.00  0.00    -0.354 N 
ATOM     60  N   UNL A   1      45.186  28.671  29.764  1.00  0.00    -0.248 NA
ATOM     61  C   UNL A   1      47.457  29.056  30.148  1.00  0.00     0.031 C 
ATOM     62  C   UNL A   1      41.987  31.676  30.440  1.00  0.00     0.029 A 
ATOM     63  C   UNL A   1      43.005  30.759  30.233  1.00  0.00     0.049 A 
ATOM     64  H   UNL A   1      42.888  28.791  29.478  1.00  0.00     0.167 HD
ATOM     65  C   UNL A   1      45.353  29.961  30.253  1.00  0.00     0.074 A 
ATOM     66  C   UNL A   1      46.769  30.131  30.504  1.00  0.00     0.031 C 
ATOM     67  C   UNL A   1      44.417  30.916  30.477  1.00  0.00     0.037 A 
BRANCH  54  68
ATOM     68  C   UNL A   1      38.659  29.182  29.027  1.00  0.00     0.057 A 
ATOM     69  C   UNL A   1      37.807  29.124  30.138  1.00  0.00     0.134 A 
ATOM     70  C   UNL A   1      38.104  29.613  27.815  1.00  0.00     0.134 A 
ATOM     71  F   UNL A   1      38.270  28.709  31.328  1.00  0.00    -0.206 F 
ATOM     72  C   UNL A   1      36.451  29.443  30.042  1.00  0.00     0.040 A 
ATOM     73  C   UNL A   1      36.757  29.967  27.712  1.00  0.00     0.040 A 
ATOM     74  F   UNL A   1      38.860  29.702  26.711  1.00  0.00    -0.206 F 
ATOM     75  C   UNL A   1      35.924  29.872  28.826  1.00  0.00     0.006 A 
ENDBRANCH  54  68
BRANCH  55  76
ATOM     76  C   UNL A   1      48.230  26.362  29.292  1.00  0.00     0.057 A 
ATOM     77  C   UNL A   1      48.822  25.787  30.423  1.00  0.00     0.134 A 
ATOM     78  C   UNL A   1      49.038  26.537  28.162  1.00  0.00     0.134 A 
ATOM     79  F   UNL A   1      48.105  25.610  31.543  1.00  0.00    -0.206 F 
ATOM     80  C   UNL A   1      50.167  25.416  30.437  1.00  0.00     0.040 A 
ATOM     81  C   UNL A   1      50.378  26.145  28.152  1.00  0.00     0.040 A 
ATOM     82  F   UNL A   1      48.530  27.075  27.043  1.00  0.00    -0.206 F 
ATOM     83  C   UNL A   1      50.947  25.589  29.295  1.00  0.00     0.006 A 
ENDBRANCH  55  76
BRANCH  67  84
ATOM     84  C   UNL A   1      44.890  32.222  31.047  1.00  0.00     0.057 A 
ATOM     85  C   UNL A   1      45.254  33.301  30.232  1.00  0.00     0.134 A 
ATOM     86  C   UNL A   1      44.944  32.414  32.435  1.00  0.00     0.134 A 
ATOM     87  F   UNL A   1      45.237  33.179  28.896  1.00  0.00    -0.206 F 
ATOM     88  C   UNL A   1      45.679  34.515  30.775  1.00  0.00     0.040 A 
ATOM     89  C   UNL A   1      45.337  33.633  32.989  1.00  0.00     0.040 A 
ATOM     90  F   UNL A   1      44.599  31.426  33.274  1.00  0.00    -0.206 F 
ATOM     91  C   UNL A   1      45.713  34.685  32.157  1.00  0.00     0.006 A 
ENDBRANCH  67  84
ENDBRANCH  41  42
ENDBRANCH  33  36
ENDBRANCH  31  32
ENDBRANCH  30  31
ENDBRANCH   1  30
TORSDOF 15
ENDMDL
MODEL 2
REMARK VINA RESULT:     -12.0      0.322      5.991
REMARK SMILES O=C(NCCCCCCNC(=O)c1ccc(-c2c3nc(c(-c4c(F)cccc4F)c4ccc([nH]4)c(-c4c(F)cccc4F)c4nc(c(-c5c(F)cccc5F)c5ccc2[nH]5)C=C4)C=C3)cc1)C1=Cc2c(ccc(Cl)c2-c2ccccc2)O[C@H]1C(F)(F)F
REMARK SMILES IDX 7 1 6 2 5 3 4 4 3 5 1 6 2 7 67 9 68 10 83 11 69 12 82 13
REMARK SMILES IDX 70 14 75 15 71 16 73 17 72 18 74 19 84 20 85 21 86 22 87 23
REMARK SMILES IDX 76 24 77 25 81 26 78 27 80 28 79 29 8 30 9 31 10 32 11 33
REMARK SMILES IDX 12 35 13 36 14 37 66 38 15 39 65 40 16 41 17 42 18 43 59 44
REMARK SMILES IDX 19 45 64 46 58 47 60 48 20 49 63 50 57 51 56 52 21 54 47 55
REMARK SMILES IDX 30 56 46 57 31 58 34 59 45 60 61 61 32 62 33 63 44 65 62 66
REMARK SMILES IDX 35 67 22 68 23 69 28 70 24 71 25 72 27 73 29 74 26 75 48 76
REMARK SMILES IDX 49 77 54 78 50 79 51 80 53 81 55 82 52 83 36 84 37 85 42 86
REMARK SMILES IDX 38 87 39 88 41 89 43 90 40 91
REMARK H PARENT 3 8 10 34 60 53 34 64
REMARK Flexibility Score: inf
ROOT
ATOM      1  C   UNL A   1      36.102  19.860  25.175  1.00  0.00     0.002 C 
ENDROOT
BRANCH   1   2
ATOM      2  C   UNL A   1      34.984  18.969  24.622  1.00  0.00     0.002 C 
BRANCH   2   3
ATOM      3  C   UNL A   1      33.544  19.480  24.745  1.00  0.00     0.021 C 
BRANCH   3   4
ATOM      4  C   UNL A   1      33.313  20.956  24.428  1.00  0.00     0.116 C 
BRANCH   4   5
ATOM      5  N   UNL A   1      33.110  21.815  25.580  1.00  0.00    -0.352 N 
ATOM      6  O   UNL A   1      33.395  23.597  26.920  1.00  0.00    -0.270 OA
ATOM      7  C   UNL A   1      33.652  23.041  25.855  1.00  0.00     0.251 C 
ATOM      8  H   UNL A   1      32.493  21.464  26.261  1.00  0.00     0.163 HD
BRANCH   7   9
ATOM      9  C   UNL A   1      34.526  23.732  24.883  1.00  0.00     0.067 C 
ATOM     10  C   UNL A   1      34.546  25.070  24.912  1.00  0.00     0.026 C 
ATOM     11  C   UNL A   1      35.023  23.064  23.641  1.00  0.00     0.314 C 
ATOM     12  C   UNL A   1      33.728  25.578  23.775  1.00  0.00     0.027 A 
ATOM     13  O   UNL A   1      34.438  23.665  22.430  1.00  0.00    -0.475 OA
ATOM     14  C   UNL A   1      33.711  24.825  22.588  1.00  0.00     0.128 A 
ATOM     15  C   UNL A   1      32.857  26.679  23.994  1.00  0.00     0.011 A 
ATOM     16  C   UNL A   1      32.817  25.166  21.582  1.00  0.00     0.049 A 
ATOM     17  C   UNL A   1      31.943  26.979  22.976  1.00  0.00     0.049 A 
ATOM     18  C   UNL A   1      31.927  26.229  21.783  1.00  0.00     0.025 A 
ATOM     19  Cl  UNL A   1      30.748  28.211  23.166  1.00  0.00    -0.084 Cl
BRANCH  11  20
ATOM     20  C   UNL A   1      36.570  23.063  23.563  1.00  0.00     0.429 C 
ATOM     21  F   UNL A   1      37.075  21.974  22.933  1.00  0.00    -0.167 F 
ATOM     22  F   UNL A   1      37.025  24.150  22.895  1.00  0.00    -0.167 F 
ATOM     23  F   UNL A   1      37.138  23.087  24.793  1.00  0.00    -0.167 F 
ENDBRANCH  11  20
BRANCH  15  24
ATOM     24  C   UNL A   1      32.887  27.276  25.350  1.00  0.00    -0.016 A 
ATOM     25  C   UNL A   1      33.581  28.481  25.548  1.00  0.00     0.009 A 
ATOM     26  C   UNL A   1      31.896  26.919  26.283  1.00  0.00     0.009 A 
ATOM     27  C   UNL A   1      33.178  29.386  26.531  1.00  0.00     0.001 A 
ATOM     28  C   UNL A   1      31.485  27.831  27.257  1.00  0.00     0.001 A 
ATOM     29  C   UNL A   1      32.100  29.077  27.355  1.00  0.00     0.000 A 
ENDBRANCH  15  24
ENDBRANCH   7   9
ENDBRANCH   4   5
ENDBRANCH   3   4
ENDBRANCH   2   3
ENDBRANCH   1   2
BRANCH   1  30
ATOM     30  C   UNL A   1      37.528  19.573  24.710  1.00  0.00     0.021 C 
BRANCH  30  31
ATOM     31  C   UNL A   1      38.641  20.124  25.592  1.00  0.00     0.116 C 
BRANCH  31  32
ATOM     32  N   UNL A   1      39.794  19.244  25.674  1.00  0.00    -0.352 N 
ATOM     33  C   UNL A   1      41.087  19.507  26.051  1.00  0.00     0.251 C 
ATOM     34  H   UNL A   1      39.621  18.309  25.415  1.00  0.00     0.163 HD
ATOM     35  O   UNL A   1      41.945  18.630  25.919  1.00  0.00    -0.269 OA
BRANCH  33  36
ATOM     36  C   UNL A   1      41.477  20.828  26.594  1.00  0.00     0.039 A 
ATOM     37  C   UNL A   1      41.976  21.794  25.714  1.00  0.00     0.014 A 
ATOM     38  C   UNL A   1      41.392  21.116  27.959  1.00  0.00     0.014 A 
ATOM     39  C   UNL A   1      42.334  23.058  26.191  1.00  0.00     0.010 A 
ATOM     40  C   UNL A   1      41.669  22.402  28.420  1.00  0.00     0.010 A 
ATOM     41  C   UNL A   1      42.153  23.385  27.544  1.00  0.00    -0.014 A 
BRANCH  41  42
ATOM     42  C   UNL A   1      42.479  24.741  28.059  1.00  0.00     0.031 A 
ATOM     43  C   UNL A   1      43.887  25.081  28.466  1.00  0.00     0.074 A 
ATOM     44  C   UNL A   1      41.498  25.652  28.212  1.00  0.00     0.049 A 
ATOM     45  N   UNL A   1      44.354  26.185  28.992  1.00  0.00    -0.248 NA
ATOM     46  C   UNL A   1      44.900  24.029  28.283  1.00  0.00     0.031 C 
ATOM     47  C   UNL A   1      40.085  25.435  27.900  1.00  0.00     0.029 A 
ATOM     48  N   UNL A   1      41.541  26.943  28.678  1.00  0.00    -0.354 N 
ATOM     49  C   UNL A   1      45.708  25.959  29.209  1.00  0.00     0.074 A 
ATOM     50  C   UNL A   1      45.973  24.591  28.821  1.00  0.00     0.031 C 
ATOM     51  C   UNL A   1      39.399  26.558  28.165  1.00  0.00     0.029 A 
ATOM     52  C   UNL A   1      40.314  27.561  28.701  1.00  0.00     0.049 A 
ATOM     53  H   UNL A   1      42.371  27.384  28.968  1.00  0.00     0.167 HD
ATOM     54  C   UNL A   1      46.651  26.819  29.662  1.00  0.00     0.037 A 
ATOM     55  C   UNL A   1      39.960  28.791  29.118  1.00  0.00     0.037 A 
ATOM     56  C   UNL A   1      46.388  28.183  30.038  1.00  0.00     0.049 A 
ATOM     57  C   UNL A   1      41.021  29.725  29.634  1.00  0.00     0.074 A 
ATOM     58  C   UNL A   1      47.282  29.148  30.469  1.00  0.00     0.029 A 
ATOM     59  N   UNL A   1      45.134  28.776  30.032  1.00  0.00    -0.354 N 
ATOM     60  N   UNL A   1      42.308  29.517  29.775  1.00  0.00    -0.248 NA
ATOM     61  C   UNL A   1      40.581  31.067  30.042  1.00  0.00     0.031 C 
ATOM     62  C   UNL A   1      46.562  30.309  30.772  1.00  0.00     0.029 A 
ATOM     63  C   UNL A   1      45.227  30.086  30.474  1.00  0.00     0.049 A 
ATOM     64  H   UNL A   1      44.300  28.332  29.754  1.00  0.00     0.167 HD
ATOM     65  C   UNL A   1      42.835  30.706  30.262  1.00  0.00     0.074 A 
ATOM     66  C   UNL A   1      41.731  31.636  30.377  1.00  0.00     0.031 C 
ATOM     67  C   UNL A   1      44.119  31.001  30.584  1.00  0.00     0.037 A 
BRANCH  54  68
ATOM     68  C   UNL A   1      48.059  26.303  29.771  1.00  0.00     0.057 A 
ATOM     69  C   UNL A   1      48.547  25.729  30.953  1.00  0.00     0.134 A 
ATOM     70  C   UNL A   1      48.933  26.364  28.678  1.00  0.00     0.134 A 
ATOM     71  F   UNL A   1      47.767  25.649  32.043  1.00  0.00    -0.206 F 
ATOM     72  C   UNL A   1      49.862  25.271  31.058  1.00  0.00     0.040 A 
ATOM     73  C   UNL A   1      50.241  25.879  28.760  1.00  0.00     0.040 A 
ATOM     74  F   UNL A   1      48.533  26.892  27.512  1.00  0.00    -0.206 F 
ATOM     75  C   UNL A   1      50.711  25.339  29.956  1.00  0.00     0.006 A 
ENDBRANCH  54  68
BRANCH  55  76
ATOM     76  C   UNL A   1      38.538  29.214  29.051  1.00  0.00     0.057 A 
ATOM     77  C   UNL A   1      37.974  29.679  27.857  1.00  0.00     0.134 A 
ATOM     78  C   UNL A   1      37.708  29.160  30.177  1.00  0.00     0.134 A 
ATOM     79  F   UNL A   1      38.723  29.772  26.748  1.00  0.00    -0.206 F 
ATOM     80  C   UNL A   1      36.642  30.089  27.788  1.00  0.00     0.040 A 
ATOM     81  C   UNL A   1      36.366  29.540  30.117  1.00  0.00     0.040 A 
ATOM     82  F   UNL A   1      38.185  28.717  31.350  1.00  0.00    -0.206 F 
ATOM     83  C   UNL A   1      35.832  30.013  28.920  1.00  0.00     0.006 A 
ENDBRANCH  55  76
BRANCH  67  84
ATOM     84  C   UNL A   1      44.404  32.396  31.063  1.00  0.00     0.057 A 
ATOM     85  C   UNL A   1      44.698  33.441  30.177  1.00  0.00     0.134 A 
ATOM     86  C   UNL A   1      44.345  32.705  32.429  1.00  0.00     0.134 A 
ATOM     87  F   UNL A   1      44.784  33.209  28.858  1.00  0.00    -0.206 F 
ATOM     88  C   UNL A   1      44.947  34.736  30.633  1.00  0.00     0.040 A 
ATOM     89  C   UNL A   1      44.562  34.002  32.894  1.00  0.00     0.040 A 
ATOM     90  F   UNL A   1      44.058  31.754  33.331  1.00  0.00    -0.206 F 
ATOM     91  C   UNL A   1      44.871  35.021  31.995  1.00  0.00     0.006 A 
ENDBRANCH  67  84
ENDBRANCH  41  42
ENDBRANCH  33  36
ENDBRANCH  31  32
ENDBRANCH  30  31
ENDBRANCH   1  30
TORSDOF 15
ENDMDL
MODEL 3
REMARK VINA RESULT:     -11.9      3.488      8.578
REMARK SMILES O=C(NCCCCCCNC(=O)c1ccc(-c2c3nc(c(-c4c(F)cccc4F)c4ccc([nH]4)c(-c4c(F)cccc4F)c4nc(c(-c5c(F)cccc5F)c5ccc2[nH]5)C=C4)C=C3)cc1)C1=Cc2c(ccc(Cl)c2-c2ccccc2)O[C@H]1C(F)(F)F
REMARK SMILES IDX 7 1 6 2 5 3 4 4 3 5 1 6 2 7 67 9 68 10 83 11 69 12 82 13
REMARK SMILES IDX 70 14 75 15 71 16 73 17 72 18 74 19 84 20 85 21 86 22 87 23
REMARK SMILES IDX 76 24 77 25 81 26 78 27 80 28 79 29 8 30 9 31 10 32 11 33
REMARK SMILES IDX 12 35 13 36 14 37 66 38 15 39 65 40 16 41 17 42 18 43 59 44
REMARK SMILES IDX 19 45 64 46 58 47 60 48 20 49 63 50 57 51 56 52 21 54 47 55
REMARK SMILES IDX 30 56 46 57 31 58 34 59 45 60 61 61 32 62 33 63 44 65 62 66
REMARK SMILES IDX 35 67 22 68 23 69 28 70 24 71 25 72 27 73 29 74 26 75 48 76
REMARK SMILES IDX 49 77 54 78 50 79 51 80 53 81 55 82 52 83 36 84 37 85 42 86
REMARK SMILES IDX 38 87 39 88 41 89 43 90 40 91
REMARK H PARENT 3 8 10 34 60 53 34 64
REMARK Flexibility Score: inf
ROOT
ATOM      1  C   UNL A   1      31.461  29.770  25.466  1.00  0.00     0.002 C 
ENDROOT
BRANCH   1   2
ATOM      2  C   UNL A   1      32.178  28.731  26.336  1.00  0.00     0.002 C 
BRANCH   2   3
ATOM      3  C   UNL A   1      31.309  27.705  27.072  1.00  0.00     0.021 C 
BRANCH   3   4
ATOM      4  C   UNL A   1      30.896  26.465  26.283  1.00  0.00     0.116 C 
BRANCH   4   5
ATOM      5  N   UNL A   1      31.313  25.198  26.853  1.00  0.00    -0.352 N 
ATOM      6  O   UNL A   1      32.264  23.162  26.923  1.00  0.00    -0.270 OA
ATOM      7  C   UNL A   1      32.055  24.195  26.291  1.00  0.00     0.251 C 
ATOM      8  H   UNL A   1      31.019  25.037  27.779  1.00  0.00     0.163 HD
BRANCH   7   9
ATOM      9  C   UNL A   1      32.639  24.334  24.940  1.00  0.00     0.067 C 
ATOM     10  C   UNL A   1      32.808  23.219  24.220  1.00  0.00     0.026 C 
ATOM     11  C   UNL A   1      33.421  25.542  24.529  1.00  0.00     0.314 C 
ATOM     12  C   UNL A   1      34.250  22.848  24.257  1.00  0.00     0.027 A 
ATOM     13  O   UNL A   1      34.841  25.219  24.310  1.00  0.00    -0.475 OA
ATOM     14  C   UNL A   1      35.195  23.887  24.315  1.00  0.00     0.128 A 
ATOM     15  C   UNL A   1      34.604  21.483  24.426  1.00  0.00     0.011 A 
ATOM     16  C   UNL A   1      36.529  23.577  24.541  1.00  0.00     0.049 A 
ATOM     17  C   UNL A   1      35.951  21.203  24.686  1.00  0.00     0.049 A 
ATOM     18  C   UNL A   1      36.903  22.241  24.740  1.00  0.00     0.025 A 
ATOM     19  Cl  UNL A   1      36.493  19.601  25.033  1.00  0.00    -0.084 Cl
BRANCH  11  20
ATOM     20  C   UNL A   1      32.813  26.229  23.281  1.00  0.00     0.429 C 
ATOM     21  F   UNL A   1      32.902  27.581  23.317  1.00  0.00    -0.167 F 
ATOM     22  F   UNL A   1      33.437  25.824  22.149  1.00  0.00    -0.167 F 
ATOM     23  F   UNL A   1      31.498  25.938  23.135  1.00  0.00    -0.167 F 
ENDBRANCH  11  20
BRANCH  15  24
ATOM     24  C   UNL A   1      33.479  20.520  24.492  1.00  0.00    -0.016 A 
ATOM     25  C   UNL A   1      32.981  19.974  23.297  1.00  0.00     0.009 A 
ATOM     26  C   UNL A   1      33.232  19.829  25.691  1.00  0.00     0.009 A 
ATOM     27  C   UNL A   1      32.418  18.698  23.274  1.00  0.00     0.001 A 
ATOM     28  C   UNL A   1      32.681  18.545  25.665  1.00  0.00     0.001 A 
ATOM     29  C   UNL A   1      32.310  17.967  24.453  1.00  0.00     0.000 A 
ENDBRANCH  15  24
ENDBRANCH   7   9
ENDBRANCH   4   5
ENDBRANCH   3   4
ENDBRANCH   2   3
ENDBRANCH   1   2
BRANCH   1  30
ATOM     30  C   UNL A   1      31.265  31.166  26.053  1.00  0.00     0.021 C 
BRANCH  30  31
ATOM     31  C   UNL A   1      32.410  31.699  26.904  1.00  0.00     0.116 C 
BRANCH  31  32
ATOM     32  N   UNL A   1      32.210  33.073  27.334  1.00  0.00    -0.352 N 
ATOM     33  C   UNL A   1      32.987  33.876  28.129  1.00  0.00     0.251 C 
ATOM     34  H   UNL A   1      31.383  33.494  27.003  1.00  0.00     0.163 HD
ATOM     35  O   UNL A   1      32.558  34.980  28.477  1.00  0.00    -0.269 OA
BRANCH  33  36
ATOM     36  C   UNL A   1      34.323  33.438  28.594  1.00  0.00     0.039 A 
ATOM     37  C   UNL A   1      34.416  32.738  29.802  1.00  0.00     0.014 A 
ATOM     38  C   UNL A   1      35.486  33.736  27.879  1.00  0.00     0.014 A 
ATOM     39  C   UNL A   1      35.658  32.292  30.260  1.00  0.00     0.010 A 
ATOM     40  C   UNL A   1      36.712  33.219  28.292  1.00  0.00     0.010 A 
ATOM     41  C   UNL A   1      36.815  32.500  29.492  1.00  0.00    -0.014 A 
BRANCH  41  42
ATOM     42  C   UNL A   1      38.137  31.987  29.938  1.00  0.00     0.031 A 
ATOM     43  C   UNL A   1      38.642  30.658  29.445  1.00  0.00     0.074 A 
ATOM     44  C   UNL A   1      38.863  32.691  30.829  1.00  0.00     0.049 A 
ATOM     45  N   UNL A   1      39.738  30.017  29.765  1.00  0.00    -0.248 NA
ATOM     46  C   UNL A   1      37.788  29.941  28.484  1.00  0.00     0.031 C 
ATOM     47  C   UNL A   1      38.467  33.969  31.420  1.00  0.00     0.029 A 
ATOM     48  N   UNL A   1      40.083  32.425  31.400  1.00  0.00    -0.354 N 
ATOM     49  C   UNL A   1      39.701  28.824  29.054  1.00  0.00     0.074 A 
ATOM     50  C   UNL A   1      38.444  28.799  28.339  1.00  0.00     0.031 C 
ATOM     51  C   UNL A   1      39.432  34.385  32.256  1.00  0.00     0.029 A 
ATOM     52  C   UNL A   1      40.497  33.386  32.289  1.00  0.00     0.049 A 
ATOM     53  H   UNL A   1      40.611  31.620  31.192  1.00  0.00     0.167 HD
ATOM     54  C   UNL A   1      40.639  27.849  28.980  1.00  0.00     0.037 A 
ATOM     55  C   UNL A   1      41.602  33.454  33.056  1.00  0.00     0.037 A 
ATOM     56  C   UNL A   1      41.894  27.879  29.684  1.00  0.00     0.049 A 
ATOM     57  C   UNL A   1      42.623  32.352  32.971  1.00  0.00     0.074 A 
ATOM     58  C   UNL A   1      42.929  26.961  29.643  1.00  0.00     0.029 A 
ATOM     59  N   UNL A   1      42.282  28.879  30.563  1.00  0.00    -0.354 N 
ATOM     60  N   UNL A   1      42.602  31.260  32.246  1.00  0.00    -0.248 NA
ATOM     61  C   UNL A   1      43.825  32.497  33.804  1.00  0.00     0.031 C 
ATOM     62  C   UNL A   1      43.922  27.381  30.535  1.00  0.00     0.029 A 
ATOM     63  C   UNL A   1      43.532  28.590  31.088  1.00  0.00     0.049 A 
ATOM     64  H   UNL A   1      41.749  29.678  30.781  1.00  0.00     0.167 HD
ATOM     65  C   UNL A   1      43.794  30.600  32.516  1.00  0.00     0.074 A 
ATOM     66  C   UNL A   1      44.523  31.425  33.457  1.00  0.00     0.031 C 
ATOM     67  C   UNL A   1      44.246  29.419  32.025  1.00  0.00     0.037 A 
BRANCH  54  68
ATOM     68  C   UNL A   1      40.337  26.668  28.099  1.00  0.00     0.057 A 
ATOM     69  C   UNL A   1      39.494  25.629  28.518  1.00  0.00     0.134 A 
ATOM     70  C   UNL A   1      40.882  26.574  26.812  1.00  0.00     0.134 A 
ATOM     71  F   UNL A   1      38.947  25.649  29.744  1.00  0.00    -0.206 F 
ATOM     72  C   UNL A   1      39.234  24.524  27.706  1.00  0.00     0.040 A 
ATOM     73  C   UNL A   1      40.603  25.489  25.978  1.00  0.00     0.040 A 
ATOM     74  F   UNL A   1      41.690  27.535  26.341  1.00  0.00    -0.206 F 
ATOM     75  C   UNL A   1      39.785  24.455  26.428  1.00  0.00     0.006 A 
ENDBRANCH  54  68
BRANCH  55  76
ATOM     76  C   UNL A   1      41.805  34.614  33.960  1.00  0.00     0.057 A 
ATOM     77  C   UNL A   1      41.361  34.588  35.287  1.00  0.00     0.134 A 
ATOM     78  C   UNL A   1      42.451  35.776  33.520  1.00  0.00     0.134 A 
ATOM     79  F   UNL A   1      40.719  33.510  35.762  1.00  0.00    -0.206 F 
ATOM     80  C   UNL A   1      41.538  35.678  36.140  1.00  0.00     0.040 A 
ATOM     81  C   UNL A   1      42.660  36.864  34.370  1.00  0.00     0.040 A 
ATOM     82  F   UNL A   1      42.906  35.863  32.262  1.00  0.00    -0.206 F 
ATOM     83  C   UNL A   1      42.196  36.818  35.682  1.00  0.00     0.006 A 
ENDBRANCH  55  76
BRANCH  67  84
ATOM     84  C   UNL A   1      45.604  28.962  32.476  1.00  0.00     0.057 A 
ATOM     85  C   UNL A   1      45.776  28.133  33.592  1.00  0.00     0.134 A 
ATOM     86  C   UNL A   1      46.751  29.325  31.757  1.00  0.00     0.134 A 
ATOM     87  F   UNL A   1      44.720  27.760  34.331  1.00  0.00    -0.206 F 
ATOM     88  C   UNL A   1      47.043  27.703  33.992  1.00  0.00     0.040 A 
ATOM     89  C   UNL A   1      48.019  28.876  32.130  1.00  0.00     0.040 A 
ATOM     90  F   UNL A   1      46.656  30.108  30.672  1.00  0.00    -0.206 F 
ATOM     91  C   UNL A   1      48.167  28.068  33.255  1.00  0.00     0.006 A 
ENDBRANCH  67  84
ENDBRANCH  41  42
ENDBRANCH  33  36
ENDBRANCH  31  32
ENDBRANCH  30  31
ENDBRANCH   1  30
TORSDOF 15
ENDMDL
