MODEL 1
REMARK VINA RESULT:     -13.1      0.000      0.000
REMARK SMILES CC(=O)O[C@@H]1CC[C@@]23C(=O)O[C@]4(CC[C@]2(O)C1)[C@H]3CC[C@]1(C)[C@H](C(=O)NCCCCCCNC(=O)c2ccc(-c3c5nc(c(-c6c(F)cccc6F)c6ccc([nH]6)c(-c6c(F)cccc6F)c6nc(c(-c7c(F)cccc7F)c7ccc3[nH]7)C=C6)C=C5)cc2)CC[C@@H]14
REMARK SMILES IDX 29 1 28 2 27 3 26 4 24 5 25 6 23 8 5 9 6 10 17 11 7 12 15 13
REMARK SMILES IDX 8 14 14 15 9 16 18 17 13 18 10 19 11 20 12 21 19 22 92 23
REMARK SMILES IDX 20 24 21 25 91 26 22 27 90 28 4 29 2 30 1 31 3 32 16 33
REMARK SMILES IDX 30 35 31 36 32 37 33 38 34 39 35 41 36 42 37 43 89 44 38 45
REMARK SMILES IDX 88 46 39 47 40 48 41 49 82 50 42 51 87 52 81 53 83 54 43 55
REMARK SMILES IDX 86 56 80 57 79 58 44 60 70 61 53 62 69 63 54 64 57 65 68 66
REMARK SMILES IDX 84 67 55 68 56 69 67 71 85 72 58 73 45 74 46 75 51 76 47 77
REMARK SMILES IDX 48 78 50 79 52 80 49 81 71 82 72 83 77 84 73 85 74 86 76 87
REMARK SMILES IDX 78 88 75 89 59 90 60 91 65 92 61 93 62 94 64 95 66 96 63 97
REMARK H PARENT 26 7 16 34 33 40 83 59 57 70
REMARK Flexibility Score: inf
ROOT
ATOM      1  C   UNL A   1      37.505  22.222  25.355  1.00  0.00     0.002 C 
ENDROOT
BRANCH   1   2
ATOM      2  C   UNL A   1      36.677  21.169  24.621  1.00  0.00     0.021 C 
BRANCH   2   3
ATOM      3  C   UNL A   1      35.515  20.591  25.452  1.00  0.00     0.116 C 
BRANCH   3   4
ATOM      4  N   UNL A   1      34.347  20.463  24.603  1.00  0.00    -0.356 N 
ATOM      5  C   UNL A   1      33.054  20.841  24.732  1.00  0.00     0.223 C 
ATOM      6  O   UNL A   1      32.269  20.287  23.949  1.00  0.00    -0.275 OA
ATOM      7  H   UNL A   1      34.534  20.004  23.751  1.00  0.00     0.163 HD
BRANCH   5   8
ATOM      8  C   UNL A   1      32.503  21.926  25.671  1.00  0.00     0.085 C 
ATOM      9  C   UNL A   1      30.127  29.111  22.956  1.00  0.00     0.179 C 
ATOM     10  C   UNL A   1      29.616  27.692  23.109  1.00  0.00     0.047 C 
ATOM     11  C   UNL A   1      31.497  29.428  23.585  1.00  0.00     0.081 C 
ATOM     12  C   UNL A   1      30.282  26.960  24.251  1.00  0.00     0.026 C 
ATOM     13  C   UNL A   1      32.231  28.396  24.465  1.00  0.00     0.085 C 
ATOM     14  C   UNL A   1      32.026  26.976  24.140  1.00  0.00     0.103 C 
ATOM     15  C   UNL A   1      31.775  28.338  26.017  1.00  0.00     0.041 C 
ATOM     16  C   UNL A   1      31.992  25.749  23.394  1.00  0.00     0.316 C 
ATOM     17  C   UNL A   1      33.144  26.225  25.226  1.00  0.00     0.054 C 
ATOM     18  C   UNL A   1      31.490  26.757  26.646  1.00  0.00     0.052 C 
ATOM     19  O   UNL A   1      32.058  25.480  22.208  1.00  0.00    -0.251 OA
ATOM     20  O   UNL A   1      31.619  24.921  24.455  1.00  0.00    -0.458 OA
ATOM     21  C   UNL A   1      32.047  25.464  25.790  1.00  0.00     0.120 C 
ATOM     22  C   UNL A   1      34.356  25.356  24.856  1.00  0.00     0.009 C 
ATOM     23  C   UNL A   1      32.174  24.202  26.622  1.00  0.00     0.040 C 
ATOM     24  C   UNL A   1      34.228  23.837  25.077  1.00  0.00     0.008 C 
ATOM     25  C   UNL A   1      33.290  23.218  26.137  1.00  0.00    -0.014 C 
ATOM     26  C   UNL A   1      30.841  23.405  26.472  1.00  0.00     0.009 C 
ATOM     27  C   UNL A   1      34.138  22.797  27.358  1.00  0.00     0.012 C 
ATOM     28  C   UNL A   1      31.081  22.368  25.370  1.00  0.00     0.014 C 
BRANCH   9  29
ATOM     29  O   UNL A   1      29.179  30.069  23.488  1.00  0.00    -0.462 OA
BRANCH  29  30
ATOM     30  C   UNL A   1      27.984  30.139  22.831  1.00  0.00     0.302 C 
ATOM     31  C   UNL A   1      28.192  30.640  21.433  1.00  0.00     0.139 C 
ATOM     32  O   UNL A   1      26.903  29.786  23.279  1.00  0.00    -0.253 OA
ENDBRANCH  29  30
ENDBRANCH   9  29
BRANCH  13  33
ATOM     33  O   UNL A   1      33.622  28.722  24.400  1.00  0.00    -0.389 OA
ATOM     34  H   UNL A   1      33.915  29.064  25.259  1.00  0.00     0.211 HD
ENDBRANCH  13  33
ENDBRANCH   5   8
ENDBRANCH   3   4
ENDBRANCH   2   3
ENDBRANCH   1   2
BRANCH   1  35
ATOM     35  C   UNL A   1      38.851  21.707  25.860  1.00  0.00     0.002 C 
BRANCH  35  36
ATOM     36  C   UNL A   1      39.202  20.287  25.404  1.00  0.00     0.021 C 
BRANCH  36  37
ATOM     37  C   UNL A   1      39.904  19.444  26.466  1.00  0.00     0.116 C 
BRANCH  37  38
ATOM     38  N   UNL A   1      41.205  18.982  26.003  1.00  0.00    -0.352 N 
ATOM     39  C   UNL A   1      42.342  19.703  25.750  1.00  0.00     0.251 C 
ATOM     40  H   UNL A   1      41.278  18.012  25.849  1.00  0.00     0.163 HD
ATOM     41  O   UNL A   1      43.257  19.215  25.098  1.00  0.00    -0.269 OA
BRANCH  39  42
ATOM     42  C   UNL A   1      42.457  21.080  26.271  1.00  0.00     0.039 A 
ATOM     43  C   UNL A   1      42.371  21.294  27.647  1.00  0.00     0.014 A 
ATOM     44  C   UNL A   1      42.639  22.154  25.396  1.00  0.00     0.014 A 
ATOM     45  C   UNL A   1      42.525  22.586  28.152  1.00  0.00     0.010 A 
ATOM     46  C   UNL A   1      42.868  23.428  25.905  1.00  0.00     0.010 A 
ATOM     47  C   UNL A   1      42.810  23.657  27.288  1.00  0.00    -0.014 A 
BRANCH  47  48
ATOM     48  C   UNL A   1      43.065  25.020  27.813  1.00  0.00     0.031 A 
ATOM     49  C   UNL A   1      44.460  25.441  28.185  1.00  0.00     0.074 A 
ATOM     50  C   UNL A   1      42.027  25.855  28.016  1.00  0.00     0.049 A 
ATOM     51  N   UNL A   1      44.868  26.560  28.727  1.00  0.00    -0.248 NA
ATOM     52  C   UNL A   1      45.536  24.467  27.935  1.00  0.00     0.031 C 
ATOM     53  C   UNL A   1      40.624  25.545  27.735  1.00  0.00     0.029 A 
ATOM     54  N   UNL A   1      41.991  27.132  28.518  1.00  0.00    -0.354 N 
ATOM     55  C   UNL A   1      46.240  26.421  28.891  1.00  0.00     0.074 A 
ATOM     56  C   UNL A   1      46.589  25.092  28.441  1.00  0.00     0.031 C 
ATOM     57  C   UNL A   1      39.868  26.609  28.048  1.00  0.00     0.029 A 
ATOM     58  C   UNL A   1      40.722  27.655  28.597  1.00  0.00     0.049 A 
ATOM     59  H   UNL A   1      42.796  27.625  28.796  1.00  0.00     0.167 HD
ATOM     60  C   UNL A   1      47.131  27.329  29.356  1.00  0.00     0.037 A 
ATOM     61  C   UNL A   1      40.296  28.840  29.074  1.00  0.00     0.037 A 
ATOM     62  C   UNL A   1      46.779  28.657  29.790  1.00  0.00     0.049 A 
ATOM     63  C   UNL A   1      41.305  29.817  29.613  1.00  0.00     0.074 A 
ATOM     64  C   UNL A   1      47.615  29.669  30.227  1.00  0.00     0.029 A 
ATOM     65  N   UNL A   1      45.485  29.153  29.849  1.00  0.00    -0.354 N 
ATOM     66  N   UNL A   1      42.607  29.700  29.699  1.00  0.00    -0.248 NA
ATOM     67  C   UNL A   1      40.783  31.094  30.120  1.00  0.00     0.031 C 
ATOM     68  C   UNL A   1      46.824  30.756  30.607  1.00  0.00     0.029 A 
ATOM     69  C   UNL A   1      45.498  30.447  30.345  1.00  0.00     0.049 A 
ATOM     70  H   UNL A   1      44.677  28.659  29.577  1.00  0.00     0.167 HD
ATOM     71  C   UNL A   1      43.063  30.896  30.237  1.00  0.00     0.074 A 
ATOM     72  C   UNL A   1      41.899  31.732  30.441  1.00  0.00     0.031 C 
ATOM     73  C   UNL A   1      44.331  31.269  30.536  1.00  0.00     0.037 A 
BRANCH  60  74
ATOM     74  C   UNL A   1      48.575  26.921  29.424  1.00  0.00     0.057 A 
ATOM     75  C   UNL A   1      49.101  26.241  30.531  1.00  0.00     0.134 A 
ATOM     76  C   UNL A   1      49.436  27.160  28.346  1.00  0.00     0.134 A 
ATOM     77  F   UNL A   1      48.334  25.989  31.602  1.00  0.00    -0.206 F 
ATOM     78  C   UNL A   1      50.435  25.832  30.569  1.00  0.00     0.040 A 
ATOM     79  C   UNL A   1      50.763  26.728  28.360  1.00  0.00     0.040 A 
ATOM     80  F   UNL A   1      48.996  27.800  27.251  1.00  0.00    -0.206 F 
ATOM     81  C   UNL A   1      51.268  26.066  29.477  1.00  0.00     0.006 A 
ENDBRANCH  60  74
BRANCH  61  82
ATOM     82  C   UNL A   1      38.848  29.174  29.068  1.00  0.00     0.057 A 
ATOM     83  C   UNL A   1      38.076  29.070  30.231  1.00  0.00     0.134 A 
ATOM     84  C   UNL A   1      38.195  29.576  27.896  1.00  0.00     0.134 A 
ATOM     85  F   UNL A   1      38.639  28.673  31.382  1.00  0.00    -0.206 F 
ATOM     86  C   UNL A   1      36.702  29.323  30.224  1.00  0.00     0.040 A 
ATOM     87  C   UNL A   1      36.829  29.863  27.880  1.00  0.00     0.040 A 
ATOM     88  F   UNL A   1      38.878  29.701  26.748  1.00  0.00    -0.206 F 
ATOM     89  C   UNL A   1      36.077  29.724  29.044  1.00  0.00     0.006 A 
ENDBRANCH  61  82
BRANCH  73  90
ATOM     90  C   UNL A   1      44.531  32.657  31.077  1.00  0.00     0.057 A 
ATOM     91  C   UNL A   1      44.557  32.922  32.452  1.00  0.00     0.134 A 
ATOM     92  C   UNL A   1      44.735  33.736  30.207  1.00  0.00     0.134 A 
ATOM     93  F   UNL A   1      44.356  31.936  33.339  1.00  0.00    -0.206 F 
ATOM     94  C   UNL A   1      44.749  34.216  32.942  1.00  0.00     0.040 A 
ATOM     95  C   UNL A   1      44.960  35.028  30.685  1.00  0.00     0.040 A 
ATOM     96  F   UNL A   1      44.733  33.551  28.878  1.00  0.00    -0.206 F 
ATOM     97  C   UNL A   1      44.958  35.272  32.057  1.00  0.00     0.006 A 
ENDBRANCH  73  90
ENDBRANCH  47  48
ENDBRANCH  39  42
ENDBRANCH  37  38
ENDBRANCH  36  37
ENDBRANCH  35  36
ENDBRANCH   1  35
TORSDOF 16
ENDMDL
MODEL 2
REMARK VINA RESULT:     -13.1      0.475      5.808
REMARK SMILES CC(=O)O[C@@H]1CC[C@@]23C(=O)O[C@]4(CC[C@]2(O)C1)[C@H]3CC[C@]1(C)[C@H](C(=O)NCCCCCCNC(=O)c2ccc(-c3c5nc(c(-c6c(F)cccc6F)c6ccc([nH]6)c(-c6c(F)cccc6F)c6nc(c(-c7c(F)cccc7F)c7ccc3[nH]7)C=C6)C=C5)cc2)CC[C@@H]14
REMARK SMILES IDX 29 1 28 2 27 3 26 4 24 5 25 6 23 8 5 9 6 10 17 11 7 12 15 13
REMARK SMILES IDX 8 14 14 15 9 16 18 17 13 18 10 19 11 20 12 21 19 22 92 23
REMARK SMILES IDX 20 24 21 25 91 26 22 27 90 28 4 29 2 30 1 31 3 32 16 33
REMARK SMILES IDX 30 35 31 36 32 37 33 38 34 39 35 41 36 42 37 43 89 44 38 45
REMARK SMILES IDX 88 46 39 47 40 48 41 49 82 50 42 51 87 52 81 53 83 54 43 55
REMARK SMILES IDX 86 56 80 57 79 58 44 60 70 61 53 62 69 63 54 64 57 65 68 66
REMARK SMILES IDX 84 67 55 68 56 69 67 71 85 72 58 73 45 74 46 75 51 76 47 77
REMARK SMILES IDX 48 78 50 79 52 80 49 81 71 82 72 83 77 84 73 85 74 86 76 87
REMARK SMILES IDX 78 88 75 89 59 90 60 91 65 92 61 93 62 94 64 95 66 96 63 97
REMARK H PARENT 26 7 16 34 33 40 83 59 57 70
REMARK Flexibility Score: inf
ROOT
ATOM      1  C   UNL A   1      37.484  22.603  25.348  1.00  0.00     0.002 C 
ENDROOT
BRANCH   1   2
ATOM      2  C   UNL A   1      36.668  21.600  24.535  1.00  0.00     0.021 C 
BRANCH   2   3
ATOM      3  C   UNL A   1      35.602  20.846  25.353  1.00  0.00     0.116 C 
BRANCH   3   4
ATOM      4  N   UNL A   1      34.402  20.711  24.551  1.00  0.00    -0.356 N 
ATOM      5  C   UNL A   1      33.116  21.095  24.725  1.00  0.00     0.223 C 
ATOM      6  O   UNL A   1      32.300  20.533  23.980  1.00  0.00    -0.275 OA
ATOM      7  H   UNL A   1      34.554  20.240  23.700  1.00  0.00     0.163 HD
BRANCH   5   8
ATOM      8  C   UNL A   1      32.605  22.195  25.669  1.00  0.00     0.085 C 
ATOM      9  C   UNL A   1      29.417  29.041  22.912  1.00  0.00     0.179 C 
ATOM     10  C   UNL A   1      29.030  27.603  23.197  1.00  0.00     0.047 C 
ATOM     11  C   UNL A   1      30.826  29.482  23.351  1.00  0.00     0.081 C 
ATOM     12  C   UNL A   1      29.878  26.984  24.284  1.00  0.00     0.026 C 
ATOM     13  C   UNL A   1      31.731  28.552  24.185  1.00  0.00     0.085 C 
ATOM     14  C   UNL A   1      31.590  27.106  23.958  1.00  0.00     0.103 C 
ATOM     15  C   UNL A   1      31.468  28.556  25.782  1.00  0.00     0.041 C 
ATOM     16  C   UNL A   1      31.555  25.838  23.285  1.00  0.00     0.316 C 
ATOM     17  C   UNL A   1      32.881  26.493  24.935  1.00  0.00     0.054 C 
ATOM     18  C   UNL A   1      31.374  26.999  26.519  1.00  0.00     0.052 C 
ATOM     19  O   UNL A   1      31.498  25.506  22.114  1.00  0.00    -0.251 OA
ATOM     20  O   UNL A   1      31.372  25.051  24.424  1.00  0.00    -0.458 OA
ATOM     21  C   UNL A   1      31.916  25.697  25.667  1.00  0.00     0.120 C 
ATOM     22  C   UNL A   1      34.098  25.685  24.463  1.00  0.00     0.009 C 
ATOM     23  C   UNL A   1      32.231  24.496  26.539  1.00  0.00     0.040 C 
ATOM     24  C   UNL A   1      34.107  24.176  24.773  1.00  0.00     0.008 C 
ATOM     25  C   UNL A   1      33.348  23.560  25.970  1.00  0.00    -0.014 C 
ATOM     26  C   UNL A   1      30.949  23.607  26.594  1.00  0.00     0.009 C 
ATOM     27  C   UNL A   1      34.364  23.267  27.097  1.00  0.00     0.012 C 
ATOM     28  C   UNL A   1      31.129  22.526  25.524  1.00  0.00     0.014 C 
BRANCH   9  29
ATOM     29  O   UNL A   1      28.473  29.966  23.507  1.00  0.00    -0.462 OA
BRANCH  29  30
ATOM     30  C   UNL A   1      28.014  30.950  22.680  1.00  0.00     0.302 C 
ATOM     31  C   UNL A   1      28.095  30.504  21.252  1.00  0.00     0.139 C 
ATOM     32  O   UNL A   1      27.541  32.019  23.039  1.00  0.00    -0.253 OA
ENDBRANCH  29  30
ENDBRANCH   9  29
BRANCH  13  33
ATOM     33  O   UNL A   1      33.078  28.964  23.933  1.00  0.00    -0.389 OA
ATOM     34  H   UNL A   1      33.110  29.928  23.842  1.00  0.00     0.211 HD
ENDBRANCH  13  33
ENDBRANCH   5   8
ENDBRANCH   3   4
ENDBRANCH   2   3
ENDBRANCH   1   2
BRANCH   1  35
ATOM     35  C   UNL A   1      38.681  21.986  26.067  1.00  0.00     0.002 C 
BRANCH  35  36
ATOM     36  C   UNL A   1      39.333  20.812  25.329  1.00  0.00     0.021 C 
BRANCH  36  37
ATOM     37  C   UNL A   1      39.581  19.584  26.202  1.00  0.00     0.116 C 
BRANCH  37  38
ATOM     38  N   UNL A   1      40.873  18.978  25.911  1.00  0.00    -0.352 N 
ATOM     39  C   UNL A   1      42.108  19.566  25.835  1.00  0.00     0.251 C 
ATOM     40  H   UNL A   1      40.857  18.007  25.746  1.00  0.00     0.163 HD
ATOM     41  O   UNL A   1      43.045  18.980  25.305  1.00  0.00    -0.269 OA
BRANCH  39  42
ATOM     42  C   UNL A   1      42.305  20.916  26.400  1.00  0.00     0.039 A 
ATOM     43  C   UNL A   1      42.181  21.099  27.778  1.00  0.00     0.014 A 
ATOM     44  C   UNL A   1      42.600  21.996  25.564  1.00  0.00     0.014 A 
ATOM     45  C   UNL A   1      42.409  22.363  28.326  1.00  0.00     0.010 A 
ATOM     46  C   UNL A   1      42.902  23.235  26.119  1.00  0.00     0.010 A 
ATOM     47  C   UNL A   1      42.807  23.431  27.504  1.00  0.00    -0.014 A 
BRANCH  47  48
ATOM     48  C   UNL A   1      43.141  24.758  28.078  1.00  0.00     0.031 A 
ATOM     49  C   UNL A   1      42.059  25.775  28.315  1.00  0.00     0.074 A 
ATOM     50  C   UNL A   1      44.429  25.066  28.324  1.00  0.00     0.049 A 
ATOM     51  N   UNL A   1      42.164  27.009  28.738  1.00  0.00    -0.248 NA
ATOM     52  C   UNL A   1      40.679  25.358  28.016  1.00  0.00     0.031 C 
ATOM     53  C   UNL A   1      45.570  24.178  28.095  1.00  0.00     0.029 A 
ATOM     54  N   UNL A   1      44.996  26.217  28.810  1.00  0.00    -0.354 N 
ATOM     55  C   UNL A   1      40.872  27.517  28.746  1.00  0.00     0.074 A 
ATOM     56  C   UNL A   1      40.005  26.477  28.238  1.00  0.00     0.031 C 
ATOM     57  C   UNL A   1      46.698  24.809  28.459  1.00  0.00     0.029 A 
ATOM     58  C   UNL A   1      46.367  26.159  28.900  1.00  0.00     0.049 A 
ATOM     59  H   UNL A   1      44.472  27.009  29.069  1.00  0.00     0.167 HD
ATOM     60  C   UNL A   1      40.446  28.734  29.161  1.00  0.00     0.037 A 
ATOM     61  C   UNL A   1      47.256  27.095  29.279  1.00  0.00     0.037 A 
ATOM     62  C   UNL A   1      41.314  29.760  29.679  1.00  0.00     0.049 A 
ATOM     63  C   UNL A   1      46.756  28.449  29.705  1.00  0.00     0.074 A 
ATOM     64  C   UNL A   1      40.972  31.006  30.175  1.00  0.00     0.029 A 
ATOM     65  N   UNL A   1      42.695  29.661  29.761  1.00  0.00    -0.354 N 
ATOM     66  N   UNL A   1      45.525  28.893  29.774  1.00  0.00    -0.248 NA
ATOM     67  C   UNL A   1      47.772  29.431  30.110  1.00  0.00     0.031 C 
ATOM     68  C   UNL A   1      42.149  31.684  30.501  1.00  0.00     0.029 A 
ATOM     69  C   UNL A   1      43.222  30.838  30.271  1.00  0.00     0.049 A 
ATOM     70  H   UNL A   1      43.222  28.873  29.497  1.00  0.00     0.167 HD
ATOM     71  C   UNL A   1      45.615  30.191  30.259  1.00  0.00     0.074 A 
ATOM     72  C   UNL A   1      47.020  30.456  30.485  1.00  0.00     0.031 C 
ATOM     73  C   UNL A   1      44.623  31.084  30.496  1.00  0.00     0.037 A 
BRANCH  60  74
ATOM     74  C   UNL A   1      38.975  29.029  29.070  1.00  0.00     0.057 A 
ATOM     75  C   UNL A   1      38.134  28.945  30.188  1.00  0.00     0.134 A 
ATOM     76  C   UNL A   1      38.406  29.459  27.865  1.00  0.00     0.134 A 
ATOM     77  F   UNL A   1      38.612  28.531  31.370  1.00  0.00    -0.206 F 
ATOM     78  C   UNL A   1      36.776  29.258  30.103  1.00  0.00     0.040 A 
ATOM     79  C   UNL A   1      37.057  29.803  27.776  1.00  0.00     0.040 A 
ATOM     80  F   UNL A   1      39.157  29.568  26.758  1.00  0.00    -0.206 F 
ATOM     81  C   UNL A   1      36.236  29.699  28.897  1.00  0.00     0.006 A 
ENDBRANCH  60  74
BRANCH  61  82
ATOM     82  C   UNL A   1      48.711  26.793  29.275  1.00  0.00     0.057 A 
ATOM     83  C   UNL A   1      49.344  26.262  30.404  1.00  0.00     0.134 A 
ATOM     84  C   UNL A   1      49.509  27.054  28.153  1.00  0.00     0.134 A 
ATOM     85  F   UNL A   1      48.639  26.007  31.516  1.00  0.00    -0.206 F 
ATOM     86  C   UNL A   1      50.722  26.031  30.432  1.00  0.00     0.040 A 
ATOM     87  C   UNL A   1      50.881  26.798  28.155  1.00  0.00     0.040 A 
ATOM     88  F   UNL A   1      48.964  27.558  27.036  1.00  0.00    -0.206 F 
ATOM     89  C   UNL A   1      51.492  26.296  29.302  1.00  0.00     0.006 A 
ENDBRANCH  61  82
BRANCH  73  90
ATOM     90  C   UNL A   1      45.019  32.417  31.066  1.00  0.00     0.057 A 
ATOM     91  C   UNL A   1      45.301  33.520  30.251  1.00  0.00     0.134 A 
ATOM     92  C   UNL A   1      45.084  32.606  32.453  1.00  0.00     0.134 A 
ATOM     93  F   UNL A   1      45.270  33.404  28.914  1.00  0.00    -0.206 F 
ATOM     94  C   UNL A   1      45.663  34.755  30.793  1.00  0.00     0.040 A 
ATOM     95  C   UNL A   1      45.412  33.843  33.008  1.00  0.00     0.040 A 
ATOM     96  F   UNL A   1      44.815  31.594  33.292  1.00  0.00    -0.206 F 
ATOM     97  C   UNL A   1      45.711  34.921  32.176  1.00  0.00     0.006 A 
ENDBRANCH  73  90
ENDBRANCH  47  48
ENDBRANCH  39  42
ENDBRANCH  37  38
ENDBRANCH  36  37
ENDBRANCH  35  36
ENDBRANCH   1  35
TORSDOF 16
ENDMDL
MODEL 3
REMARK VINA RESULT:     -13.0      1.471      6.410
REMARK SMILES CC(=O)O[C@@H]1CC[C@@]23C(=O)O[C@]4(CC[C@]2(O)C1)[C@H]3CC[C@]1(C)[C@H](C(=O)NCCCCCCNC(=O)c2ccc(-c3c5nc(c(-c6c(F)cccc6F)c6ccc([nH]6)c(-c6c(F)cccc6F)c6nc(c(-c7c(F)cccc7F)c7ccc3[nH]7)C=C6)C=C5)cc2)CC[C@@H]14
REMARK SMILES IDX 29 1 28 2 27 3 26 4 24 5 25 6 23 8 5 9 6 10 17 11 7 12 15 13
REMARK SMILES IDX 8 14 14 15 9 16 18 17 13 18 10 19 11 20 12 21 19 22 92 23
REMARK SMILES IDX 20 24 21 25 91 26 22 27 90 28 4 29 2 30 1 31 3 32 16 33
REMARK SMILES IDX 30 35 31 36 32 37 33 38 34 39 35 41 36 42 37 43 89 44 38 45
REMARK SMILES IDX 88 46 39 47 40 48 41 49 82 50 42 51 87 52 81 53 83 54 43 55
REMARK SMILES IDX 86 56 80 57 79 58 44 60 70 61 53 62 69 63 54 64 57 65 68 66
REMARK SMILES IDX 84 67 55 68 56 69 67 71 85 72 58 73 45 74 46 75 51 76 47 77
REMARK SMILES IDX 48 78 50 79 52 80 49 81 71 82 72 83 77 84 73 85 74 86 76 87
REMARK SMILES IDX 78 88 75 89 59 90 60 91 65 92 61 93 62 94 64 95 66 96 63 97
REMARK H PARENT 26 7 16 34 33 40 83 59 57 70
REMARK Flexibility Score: inf
ROOT
ATOM      1  C   UNL A   1      35.287  19.277  24.663  1.00  0.00     0.002 C 
ENDROOT
BRANCH   1   2
ATOM      2  C   UNL A   1      33.923  19.368  25.344  1.00  0.00     0.021 C 
BRANCH   2   3
ATOM      3  C   UNL A   1      32.748  19.590  24.373  1.00  0.00     0.116 C 
BRANCH   3   4
ATOM      4  N   UNL A   1      31.799  20.501  24.983  1.00  0.00    -0.356 N 
ATOM      5  C   UNL A   1      31.848  21.811  25.319  1.00  0.00     0.223 C 
ATOM      6  O   UNL A   1      30.967  22.178  26.111  1.00  0.00    -0.275 OA
ATOM      7  H   UNL A   1      30.937  20.077  25.199  1.00  0.00     0.163 HD
BRANCH   5   8
ATOM      8  C   UNL A   1      32.809  22.870  24.757  1.00  0.00     0.085 C 
ATOM      9  C   UNL A   1      32.544  30.552  27.110  1.00  0.00     0.179 C 
ATOM     10  C   UNL A   1      33.112  29.216  27.545  1.00  0.00     0.047 C 
ATOM     11  C   UNL A   1      31.865  30.603  25.728  1.00  0.00     0.081 C 
ATOM     12  C   UNL A   1      33.358  28.289  26.377  1.00  0.00     0.026 C 
ATOM     13  C   UNL A   1      31.909  29.395  24.771  1.00  0.00     0.085 C 
ATOM     14  C   UNL A   1      31.938  28.059  25.385  1.00  0.00     0.103 C 
ATOM     15  C   UNL A   1      33.245  29.257  23.869  1.00  0.00     0.041 C 
ATOM     16  C   UNL A   1      31.559  26.927  26.184  1.00  0.00     0.316 C 
ATOM     17  C   UNL A   1      31.801  27.050  23.985  1.00  0.00     0.054 C 
ATOM     18  C   UNL A   1      33.948  27.681  23.825  1.00  0.00     0.052 C 
ATOM     19  O   UNL A   1      30.774  26.767  27.101  1.00  0.00    -0.251 OA
ATOM     20  O   UNL A   1      32.563  26.065  25.736  1.00  0.00    -0.458 OA
ATOM     21  C   UNL A   1      33.046  26.409  24.355  1.00  0.00     0.120 C 
ATOM     22  C   UNL A   1      30.676  26.053  23.667  1.00  0.00     0.009 C 
ATOM     23  C   UNL A   1      33.541  25.067  23.847  1.00  0.00     0.040 C 
ATOM     24  C   UNL A   1      30.996  24.555  23.830  1.00  0.00     0.008 C 
ATOM     25  C   UNL A   1      32.425  23.982  23.696  1.00  0.00    -0.014 C 
ATOM     26  C   UNL A   1      34.520  24.493  24.918  1.00  0.00     0.009 C 
ATOM     27  C   UNL A   1      32.563  23.325  22.304  1.00  0.00     0.012 C 
ATOM     28  C   UNL A   1      33.694  23.543  25.791  1.00  0.00     0.014 C 
BRANCH   9  29
ATOM     29  O   UNL A   1      33.561  31.584  27.126  1.00  0.00    -0.462 OA
BRANCH  29  30
ATOM     30  C   UNL A   1      33.227  32.728  27.794  1.00  0.00     0.302 C 
ATOM     31  C   UNL A   1      34.216  32.996  28.887  1.00  0.00     0.139 C 
ATOM     32  O   UNL A   1      32.299  33.472  27.511  1.00  0.00    -0.253 OA
ENDBRANCH  29  30
ENDBRANCH   9  29
BRANCH  13  33
ATOM     33  O   UNL A   1      30.775  29.518  23.909  1.00  0.00    -0.389 OA
ATOM     34  H   UNL A   1      31.054  29.889  23.058  1.00  0.00     0.211 HD
ENDBRANCH  13  33
ENDBRANCH   5   8
ENDBRANCH   3   4
ENDBRANCH   2   3
ENDBRANCH   1   2
BRANCH   1  35
ATOM     35  C   UNL A   1      36.234  20.421  25.021  1.00  0.00     0.002 C 
BRANCH  35  36
ATOM     36  C   UNL A   1      37.699  20.177  24.646  1.00  0.00     0.021 C 
BRANCH  36  37
ATOM     37  C   UNL A   1      38.691  20.480  25.766  1.00  0.00     0.116 C 
BRANCH  37  38
ATOM     38  N   UNL A   1      39.722  19.455  25.854  1.00  0.00    -0.352 N 
ATOM     39  C   UNL A   1      41.068  19.596  26.066  1.00  0.00     0.251 C 
ATOM     40  H   UNL A   1      39.406  18.529  25.745  1.00  0.00     0.163 HD
ATOM     41  O   UNL A   1      41.835  18.670  25.830  1.00  0.00    -0.269 OA
BRANCH  39  42
ATOM     42  C   UNL A   1      41.591  20.875  26.585  1.00  0.00     0.039 A 
ATOM     43  C   UNL A   1      42.054  21.834  25.683  1.00  0.00     0.014 A 
ATOM     44  C   UNL A   1      41.631  21.117  27.961  1.00  0.00     0.014 A 
ATOM     45  C   UNL A   1      42.508  23.064  26.162  1.00  0.00     0.010 A 
ATOM     46  C   UNL A   1      42.012  22.370  28.430  1.00  0.00     0.010 A 
ATOM     47  C   UNL A   1      42.457  23.354  27.536  1.00  0.00    -0.014 A 
BRANCH  47  48
ATOM     48  C   UNL A   1      42.850  24.687  28.054  1.00  0.00     0.031 A 
ATOM     49  C   UNL A   1      41.807  25.740  28.306  1.00  0.00     0.074 A 
ATOM     50  C   UNL A   1      44.155  24.966  28.236  1.00  0.00     0.049 A 
ATOM     51  N   UNL A   1      41.964  26.983  28.686  1.00  0.00    -0.248 NA
ATOM     52  C   UNL A   1      40.405  25.354  28.078  1.00  0.00     0.031 C 
ATOM     53  C   UNL A   1      45.262  24.041  27.985  1.00  0.00     0.029 A 
ATOM     54  N   UNL A   1      44.774  26.115  28.662  1.00  0.00    -0.354 N 
ATOM     55  C   UNL A   1      40.687  27.527  28.734  1.00  0.00     0.074 A 
ATOM     56  C   UNL A   1      39.771  26.497  28.295  1.00  0.00     0.031 C 
ATOM     57  C   UNL A   1      46.421  24.650  28.282  1.00  0.00     0.029 A 
ATOM     58  C   UNL A   1      46.145  26.021  28.695  1.00  0.00     0.049 A 
ATOM     59  H   UNL A   1      44.283  26.929  28.919  1.00  0.00     0.167 HD
ATOM     60  C   UNL A   1      40.311  28.767  29.129  1.00  0.00     0.037 A 
ATOM     61  C   UNL A   1      47.075  26.943  29.008  1.00  0.00     0.037 A 
ATOM     62  C   UNL A   1      41.228  29.783  29.579  1.00  0.00     0.049 A 
ATOM     63  C   UNL A   1      46.630  28.322  29.413  1.00  0.00     0.074 A 
ATOM     64  C   UNL A   1      40.941  31.052  30.051  1.00  0.00     0.029 A 
ATOM     65  N   UNL A   1      42.608  29.648  29.605  1.00  0.00    -0.354 N 
ATOM     66  N   UNL A   1      45.415  28.802  29.521  1.00  0.00    -0.248 NA
ATOM     67  C   UNL A   1      47.688  29.287  29.744  1.00  0.00     0.031 C 
ATOM     68  C   UNL A   1      42.149  31.706  30.305  1.00  0.00     0.029 A 
ATOM     69  C   UNL A   1      43.188  30.824  30.056  1.00  0.00     0.049 A 
ATOM     70  H   UNL A   1      43.102  28.838  29.343  1.00  0.00     0.167 HD
ATOM     71  C   UNL A   1      45.560  30.111  29.962  1.00  0.00     0.074 A 
ATOM     72  C   UNL A   1      46.980  30.343  30.119  1.00  0.00     0.031 C 
ATOM     73  C   UNL A   1      44.603  31.038  30.214  1.00  0.00     0.037 A 
BRANCH  60  74
ATOM     74  C   UNL A   1      38.847  29.100  29.092  1.00  0.00     0.057 A 
ATOM     75  C   UNL A   1      38.037  29.004  30.232  1.00  0.00     0.134 A 
ATOM     76  C   UNL A   1      38.253  29.578  27.918  1.00  0.00     0.134 A 
ATOM     77  F   UNL A   1      38.540  28.543  31.387  1.00  0.00    -0.206 F 
ATOM     78  C   UNL A   1      36.686  29.352  30.199  1.00  0.00     0.040 A 
ATOM     79  C   UNL A   1      36.911  29.958  27.880  1.00  0.00     0.040 A 
ATOM     80  F   UNL A   1      38.972  29.702  26.791  1.00  0.00    -0.206 F 
ATOM     81  C   UNL A   1      36.121  29.840  29.022  1.00  0.00     0.006 A 
ENDBRANCH  60  74
BRANCH  61  82
ATOM     82  C   UNL A   1      48.519  26.601  28.951  1.00  0.00     0.057 A 
ATOM     83  C   UNL A   1      49.263  26.791  27.780  1.00  0.00     0.134 A 
ATOM     84  C   UNL A   1      49.185  26.049  30.053  1.00  0.00     0.134 A 
ATOM     85  F   UNL A   1      48.679  27.299  26.684  1.00  0.00    -0.206 F 
ATOM     86  C   UNL A   1      50.606  26.417  27.696  1.00  0.00     0.040 A 
ATOM     87  C   UNL A   1      50.536  25.700  29.994  1.00  0.00     0.040 A 
ATOM     88  F   UNL A   1      48.532  25.846  31.207  1.00  0.00    -0.206 F 
ATOM     89  C   UNL A   1      51.246  25.873  28.808  1.00  0.00     0.006 A 
ENDBRANCH  61  82
BRANCH  73  90
ATOM     90  C   UNL A   1      45.059  32.375  30.725  1.00  0.00     0.057 A 
ATOM     91  C   UNL A   1      45.334  33.446  29.866  1.00  0.00     0.134 A 
ATOM     92  C   UNL A   1      45.190  32.602  32.102  1.00  0.00     0.134 A 
ATOM     93  F   UNL A   1      45.241  33.292  28.536  1.00  0.00    -0.206 F 
ATOM     94  C   UNL A   1      45.751  34.685  30.355  1.00  0.00     0.040 A 
ATOM     95  C   UNL A   1      45.574  33.846  32.604  1.00  0.00     0.040 A 
ATOM     96  F   UNL A   1      44.932  31.623  32.982  1.00  0.00    -0.206 F 
ATOM     97  C   UNL A   1      45.865  34.890  31.728  1.00  0.00     0.006 A 
ENDBRANCH  73  90
ENDBRANCH  47  48
ENDBRANCH  39  42
ENDBRANCH  37  38
ENDBRANCH  36  37
ENDBRANCH  35  36
ENDBRANCH   1  35
TORSDOF 16
ENDMDL
