MODEL 1
REMARK VINA RESULT:     -10.7      0.000      0.000
REMARK SMILES CCC[NH2+][C@@]1(C(=O)NCCCCCCNC(=O)c2ccc(-c3c4nc(c(-c5c(F)cccc5F)c5ccc([nH]5)c(-c5c(F)cccc5F)c5nc(c(-c6c(F)cccc6F)c6ccc3[nH]6)C=C5)C=C4)cc2)CC[C@@H](SC2CCCC2)C1
REMARK SMILES IDX 11 1 10 2 9 3 8 4 6 5 7 6 5 8 72 9 81 10 73 11 74 12 4 13
REMARK SMILES IDX 3 16 2 17 1 18 75 19 76 20 77 21 80 22 78 23 79 24 12 25
REMARK SMILES IDX 13 26 14 27 15 28 16 29 17 31 18 32 19 33 71 34 20 35 70 36
REMARK SMILES IDX 21 37 22 38 23 39 64 40 24 41 69 42 63 43 65 44 25 45 68 46
REMARK SMILES IDX 62 47 61 48 26 50 52 51 35 52 51 53 36 54 39 55 50 56 66 57
REMARK SMILES IDX 37 58 38 59 49 61 67 62 40 63 27 64 28 65 33 66 29 67 30 68
REMARK SMILES IDX 32 69 34 70 31 71 53 72 54 73 59 74 55 75 56 76 58 77 60 78
REMARK SMILES IDX 57 79 41 80 42 81 47 82 43 83 44 84 46 85 48 86 45 87
REMARK H PARENT 8 7 4 14 4 15 15 30 65 49 39 60
REMARK Flexibility Score: inf
ROOT
ATOM      1  C   UNL A   1      32.400  29.937  26.812  1.00  0.00     0.002 C 
ENDROOT
BRANCH   1   2
ATOM      2  C   UNL A   1      31.790  28.676  27.417  1.00  0.00     0.021 C 
BRANCH   2   3
ATOM      3  C   UNL A   1      31.882  27.441  26.539  1.00  0.00     0.116 C 
BRANCH   3   4
ATOM      4  N   UNL A   1      30.742  26.571  26.613  1.00  0.00    -0.351 N 
ATOM      5  C   UNL A   1      30.577  25.282  26.216  1.00  0.00     0.281 C 
ATOM      6  O   UNL A   1      29.466  24.795  26.487  1.00  0.00    -0.268 OA
ATOM      7  H   UNL A   1      29.944  26.979  27.020  1.00  0.00     0.163 HD
BRANCH   5   8
ATOM      8  C   UNL A   1      31.679  24.374  25.491  1.00  0.00     0.176 C 
ATOM      9  C   UNL A   1      31.069  23.101  24.864  1.00  0.00     0.080 C 
ATOM     10  C   UNL A   1      32.796  23.853  26.428  1.00  0.00     0.093 C 
ATOM     11  C   UNL A   1      31.381  21.921  25.781  1.00  0.00     0.022 C 
ATOM     12  C   UNL A   1      32.606  22.332  26.593  1.00  0.00     0.054 C 
BRANCH   8  13
ATOM     13  N   UNL A   1      32.113  25.202  24.308  1.00  0.00    -0.334 N 
ATOM     14  H   UNL A   1      32.044  26.182  24.580  1.00  0.00     0.347 HD
ATOM     15  H   UNL A   1      33.053  24.869  24.093  1.00  0.00     0.347 HD
BRANCH  13  16
ATOM     16  C   UNL A   1      31.374  25.043  23.062  1.00  0.00     0.261 C 
BRANCH  16  17
ATOM     17  C   UNL A   1      31.773  26.080  22.007  1.00  0.00     0.058 C 
ATOM     18  C   UNL A   1      33.266  26.357  21.986  1.00  0.00     0.010 C 
ENDBRANCH  16  17
ENDBRANCH  13  16
ENDBRANCH   8  13
BRANCH  12  19
ATOM     19  S   UNL A   1      34.085  21.245  26.601  1.00  0.00    -0.155 SA
BRANCH  19  20
ATOM     20  C   UNL A   1      35.277  21.881  25.378  1.00  0.00     0.047 C 
ATOM     21  C   UNL A   1      34.761  22.396  24.045  1.00  0.00     0.014 C 
ATOM     22  C   UNL A   1      36.224  22.963  25.867  1.00  0.00     0.014 C 
ATOM     23  C   UNL A   1      35.996  23.037  23.433  1.00  0.00     0.001 C 
ATOM     24  C   UNL A   1      36.695  23.703  24.614  1.00  0.00     0.001 C 
ENDBRANCH  19  20
ENDBRANCH  12  19
ENDBRANCH   5   8
ENDBRANCH   3   4
ENDBRANCH   2   3
ENDBRANCH   1   2
BRANCH   1  25
ATOM     25  C   UNL A   1      31.437  30.816  26.006  1.00  0.00     0.002 C 
BRANCH  25  26
ATOM     26  C   UNL A   1      31.305  32.272  26.466  1.00  0.00     0.021 C 
BRANCH  26  27
ATOM     27  C   UNL A   1      32.482  32.813  27.273  1.00  0.00     0.116 C 
BRANCH  27  28
ATOM     28  N   UNL A   1      32.316  34.214  27.617  1.00  0.00    -0.352 N 
ATOM     29  C   UNL A   1      32.949  34.972  28.568  1.00  0.00     0.251 C 
ATOM     30  H   UNL A   1      31.643  34.696  27.084  1.00  0.00     0.163 HD
ATOM     31  O   UNL A   1      32.531  36.092  28.838  1.00  0.00    -0.269 OA
BRANCH  29  32
ATOM     32  C   UNL A   1      34.125  34.435  29.282  1.00  0.00     0.039 A 
ATOM     33  C   UNL A   1      33.931  33.802  30.512  1.00  0.00     0.014 A 
ATOM     34  C   UNL A   1      35.413  34.577  28.758  1.00  0.00     0.014 A 
ATOM     35  C   UNL A   1      35.025  33.261  31.191  1.00  0.00     0.010 A 
ATOM     36  C   UNL A   1      36.493  33.978  29.401  1.00  0.00     0.010 A 
ATOM     37  C   UNL A   1      36.309  33.317  30.625  1.00  0.00    -0.014 A 
BRANCH  37  38
ATOM     38  C   UNL A   1      37.468  32.680  31.297  1.00  0.00     0.031 A 
ATOM     39  C   UNL A   1      38.119  31.464  30.697  1.00  0.00     0.074 A 
ATOM     40  C   UNL A   1      37.895  33.162  32.479  1.00  0.00     0.049 A 
ATOM     41  N   UNL A   1      39.098  30.735  31.167  1.00  0.00    -0.248 NA
ATOM     42  C   UNL A   1      37.581  30.992  29.411  1.00  0.00     0.031 C 
ATOM     43  C   UNL A   1      37.317  34.309  33.182  1.00  0.00     0.029 A 
ATOM     44  N   UNL A   1      38.908  32.743  33.305  1.00  0.00    -0.354 N 
ATOM     45  C   UNL A   1      39.287  29.715  30.244  1.00  0.00     0.074 A 
ATOM     46  C   UNL A   1      38.287  29.888  29.213  1.00  0.00     0.031 C 
ATOM     47  C   UNL A   1      37.997  34.515  34.321  1.00  0.00     0.029 A 
ATOM     48  C   UNL A   1      39.031  33.492  34.449  1.00  0.00     0.049 A 
ATOM     49  H   UNL A   1      39.490  31.977  33.096  1.00  0.00     0.167 HD
ATOM     50  C   UNL A   1      40.223  28.736  30.243  1.00  0.00     0.037 A 
ATOM     51  C   UNL A   1      39.874  33.362  35.490  1.00  0.00     0.037 A 
ATOM     52  C   UNL A   1      41.226  28.578  31.265  1.00  0.00     0.049 A 
ATOM     53  C   UNL A   1      40.891  32.256  35.475  1.00  0.00     0.074 A 
ATOM     54  C   UNL A   1      42.255  27.654  31.326  1.00  0.00     0.029 A 
ATOM     55  N   UNL A   1      41.325  29.361  32.404  1.00  0.00    -0.354 N 
ATOM     56  N   UNL A   1      41.103  31.339  34.561  1.00  0.00    -0.248 NA
ATOM     57  C   UNL A   1      41.790  32.168  36.634  1.00  0.00     0.031 C 
ATOM     58  C   UNL A   1      42.943  27.846  32.529  1.00  0.00     0.029 A 
ATOM     59  C   UNL A   1      42.379  28.924  33.190  1.00  0.00     0.049 A 
ATOM     60  H   UNL A   1      40.732  30.117  32.623  1.00  0.00     0.167 HD
ATOM     61  C   UNL A   1      42.175  30.586  35.020  1.00  0.00     0.074 A 
ATOM     62  C   UNL A   1      42.579  31.162  36.286  1.00  0.00     0.031 C 
ATOM     63  C   UNL A   1      42.771  29.511  34.446  1.00  0.00     0.037 A 
BRANCH  50  64
ATOM     64  C   UNL A   1      40.205  27.758  29.104  1.00  0.00     0.057 A 
ATOM     65  C   UNL A   1      39.414  26.602  29.135  1.00  0.00     0.134 A 
ATOM     66  C   UNL A   1      40.961  27.992  27.949  1.00  0.00     0.134 A 
ATOM     67  F   UNL A   1      38.674  26.312  30.215  1.00  0.00    -0.206 F 
ATOM     68  C   UNL A   1      39.396  25.700  28.069  1.00  0.00     0.040 A 
ATOM     69  C   UNL A   1      40.930  27.112  26.865  1.00  0.00     0.040 A 
ATOM     70  F   UNL A   1      41.736  29.082  27.849  1.00  0.00    -0.206 F 
ATOM     71  C   UNL A   1      40.150  25.958  26.926  1.00  0.00     0.006 A 
ENDBRANCH  50  64
BRANCH  51  72
ATOM     72  C   UNL A   1      39.805  34.314  36.627  1.00  0.00     0.057 A 
ATOM     73  C   UNL A   1      38.997  34.054  37.740  1.00  0.00     0.134 A 
ATOM     74  C   UNL A   1      40.537  35.509  36.626  1.00  0.00     0.134 A 
ATOM     75  F   UNL A   1      38.260  32.935  37.791  1.00  0.00    -0.206 F 
ATOM     76  C   UNL A   1      38.901  34.955  38.802  1.00  0.00     0.040 A 
ATOM     77  C   UNL A   1      40.471  36.406  37.694  1.00  0.00     0.040 A 
ATOM     78  F   UNL A   1      41.337  35.813  35.594  1.00  0.00    -0.206 F 
ATOM     79  C   UNL A   1      39.644  36.134  38.782  1.00  0.00     0.006 A 
ENDBRANCH  51  72
BRANCH  63  80
ATOM     80  C   UNL A   1      43.944  28.911  35.165  1.00  0.00     0.057 A 
ATOM     81  C   UNL A   1      45.261  29.300  34.890  1.00  0.00     0.134 A 
ATOM     82  C   UNL A   1      43.748  27.958  36.173  1.00  0.00     0.134 A 
ATOM     83  F   UNL A   1      45.518  30.198  33.927  1.00  0.00    -0.206 F 
ATOM     84  C   UNL A   1      46.344  28.742  35.573  1.00  0.00     0.040 A 
ATOM     85  C   UNL A   1      44.820  27.415  36.883  1.00  0.00     0.040 A 
ATOM     86  F   UNL A   1      42.511  27.548  36.493  1.00  0.00    -0.206 F 
ATOM     87  C   UNL A   1      46.123  27.802  36.579  1.00  0.00     0.006 A 
ENDBRANCH  63  80
ENDBRANCH  37  38
ENDBRANCH  29  32
ENDBRANCH  27  28
ENDBRANCH  26  27
ENDBRANCH  25  26
ENDBRANCH   1  25
TORSDOF 18
ENDMDL
MODEL 2
REMARK VINA RESULT:     -10.5      1.518      2.495
REMARK SMILES CCC[NH2+][C@@]1(C(=O)NCCCCCCNC(=O)c2ccc(-c3c4nc(c(-c5c(F)cccc5F)c5ccc([nH]5)c(-c5c(F)cccc5F)c5nc(c(-c6c(F)cccc6F)c6ccc3[nH]6)C=C5)C=C4)cc2)CC[C@@H](SC2CCCC2)C1
REMARK SMILES IDX 11 1 10 2 9 3 8 4 6 5 7 6 5 8 72 9 81 10 73 11 74 12 4 13
REMARK SMILES IDX 3 16 2 17 1 18 75 19 76 20 77 21 80 22 78 23 79 24 12 25
REMARK SMILES IDX 13 26 14 27 15 28 16 29 17 31 18 32 19 33 71 34 20 35 70 36
REMARK SMILES IDX 21 37 22 38 23 39 64 40 24 41 69 42 63 43 65 44 25 45 68 46
REMARK SMILES IDX 62 47 61 48 26 50 52 51 35 52 51 53 36 54 39 55 50 56 66 57
REMARK SMILES IDX 37 58 38 59 49 61 67 62 40 63 27 64 28 65 33 66 29 67 30 68
REMARK SMILES IDX 32 69 34 70 31 71 53 72 54 73 59 74 55 75 56 76 58 77 60 78
REMARK SMILES IDX 57 79 41 80 42 81 47 82 43 83 44 84 46 85 48 86 45 87
REMARK H PARENT 8 7 4 14 4 15 15 30 65 49 39 60
REMARK Flexibility Score: inf
ROOT
ATOM      1  C   UNL A   1      32.199  29.949  26.070  1.00  0.00     0.002 C 
ENDROOT
BRANCH   1   2
ATOM      2  C   UNL A   1      31.773  28.735  26.889  1.00  0.00     0.021 C 
BRANCH   2   3
ATOM      3  C   UNL A   1      31.237  27.573  26.071  1.00  0.00     0.116 C 
BRANCH   3   4
ATOM      4  N   UNL A   1      31.148  26.331  26.787  1.00  0.00    -0.351 N 
ATOM      5  C   UNL A   1      31.559  25.079  26.455  1.00  0.00     0.281 C 
ATOM      6  O   UNL A   1      31.384  24.226  27.340  1.00  0.00    -0.268 OA
ATOM      7  H   UNL A   1      30.713  26.399  27.667  1.00  0.00     0.163 HD
BRANCH   5   8
ATOM      8  C   UNL A   1      32.259  24.655  25.078  1.00  0.00     0.176 C 
ATOM      9  C   UNL A   1      31.404  25.027  23.847  1.00  0.00     0.080 C 
ATOM     10  C   UNL A   1      32.514  23.134  24.933  1.00  0.00     0.093 C 
ATOM     11  C   UNL A   1      30.715  23.760  23.344  1.00  0.00     0.022 C 
ATOM     12  C   UNL A   1      31.558  22.594  23.850  1.00  0.00     0.054 C 
BRANCH   8  13
ATOM     13  N   UNL A   1      33.461  25.559  24.985  1.00  0.00    -0.334 N 
ATOM     14  H   UNL A   1      33.295  26.352  25.604  1.00  0.00     0.347 HD
ATOM     15  H   UNL A   1      34.250  24.963  25.235  1.00  0.00     0.347 HD
BRANCH  13  16
ATOM     16  C   UNL A   1      33.807  26.094  23.674  1.00  0.00     0.261 C 
BRANCH  16  17
ATOM     17  C   UNL A   1      33.735  27.624  23.627  1.00  0.00     0.058 C 
ATOM     18  C   UNL A   1      33.886  28.179  22.222  1.00  0.00     0.010 C 
ENDBRANCH  16  17
ENDBRANCH  13  16
ENDBRANCH   8  13
BRANCH  12  19
ATOM     19  S   UNL A   1      32.180  21.348  22.655  1.00  0.00    -0.155 SA
BRANCH  19  20
ATOM     20  C   UNL A   1      32.448  19.779  23.542  1.00  0.00     0.047 C 
ATOM     21  C   UNL A   1      32.427  18.477  22.759  1.00  0.00     0.014 C 
ATOM     22  C   UNL A   1      33.705  19.696  24.392  1.00  0.00     0.014 C 
ATOM     23  C   UNL A   1      32.915  17.463  23.781  1.00  0.00     0.001 C 
ATOM     24  C   UNL A   1      34.002  18.204  24.553  1.00  0.00     0.001 C 
ENDBRANCH  19  20
ENDBRANCH  12  19
ENDBRANCH   5   8
ENDBRANCH   3   4
ENDBRANCH   2   3
ENDBRANCH   1   2
BRANCH   1  25
ATOM     25  C   UNL A   1      31.069  30.904  25.665  1.00  0.00     0.002 C 
BRANCH  25  26
ATOM     26  C   UNL A   1      31.098  32.295  26.308  1.00  0.00     0.021 C 
BRANCH  26  27
ATOM     27  C   UNL A   1      32.360  32.625  27.100  1.00  0.00     0.116 C 
BRANCH  27  28
ATOM     28  N   UNL A   1      32.376  34.002  27.562  1.00  0.00    -0.352 N 
ATOM     29  C   UNL A   1      33.173  34.612  28.496  1.00  0.00     0.251 C 
ATOM     30  H   UNL A   1      31.709  34.590  27.139  1.00  0.00     0.163 HD
ATOM     31  O   UNL A   1      32.903  35.741  28.889  1.00  0.00    -0.269 OA
BRANCH  29  32
ATOM     32  C   UNL A   1      34.350  33.905  29.041  1.00  0.00     0.039 A 
ATOM     33  C   UNL A   1      35.625  34.359  28.692  1.00  0.00     0.014 A 
ATOM     34  C   UNL A   1      34.202  32.787  29.866  1.00  0.00     0.014 A 
ATOM     35  C   UNL A   1      36.752  33.724  29.218  1.00  0.00     0.010 A 
ATOM     36  C   UNL A   1      35.324  32.199  30.444  1.00  0.00     0.010 A 
ATOM     37  C   UNL A   1      36.609  32.660  30.123  1.00  0.00    -0.014 A 
BRANCH  37  38
ATOM     38  C   UNL A   1      37.795  32.026  30.749  1.00  0.00     0.031 A 
ATOM     39  C   UNL A   1      38.515  30.907  30.050  1.00  0.00     0.074 A 
ATOM     40  C   UNL A   1      38.185  32.419  31.977  1.00  0.00     0.049 A 
ATOM     41  N   UNL A   1      39.528  30.190  30.464  1.00  0.00    -0.248 NA
ATOM     42  C   UNL A   1      38.015  30.528  28.719  1.00  0.00     0.031 C 
ATOM     43  C   UNL A   1      37.540  33.464  32.774  1.00  0.00     0.029 A 
ATOM     44  N   UNL A   1      39.211  31.980  32.774  1.00  0.00    -0.354 N 
ATOM     45  C   UNL A   1      39.780  29.271  29.454  1.00  0.00     0.074 A 
ATOM     46  C   UNL A   1      38.780  29.486  28.430  1.00  0.00     0.031 C 
ATOM     47  C   UNL A   1      38.198  33.600  33.936  1.00  0.00     0.029 A 
ATOM     48  C   UNL A   1      39.284  32.625  33.984  1.00  0.00     0.049 A 
ATOM     49  H   UNL A   1      39.836  31.268  32.505  1.00  0.00     0.167 HD
ATOM     50  C   UNL A   1      40.767  28.347  29.377  1.00  0.00     0.037 A 
ATOM     51  C   UNL A   1      40.124  32.445  35.020  1.00  0.00     0.037 A 
ATOM     52  C   UNL A   1      41.768  28.149  30.393  1.00  0.00     0.049 A 
ATOM     53  C   UNL A   1      41.200  31.400  34.918  1.00  0.00     0.074 A 
ATOM     54  C   UNL A   1      42.845  27.279  30.383  1.00  0.00     0.029 A 
ATOM     55  N   UNL A   1      41.815  28.828  31.601  1.00  0.00    -0.354 N 
ATOM     56  N   UNL A   1      41.469  30.584  33.926  1.00  0.00    -0.248 NA
ATOM     57  C   UNL A   1      42.092  31.253  36.076  1.00  0.00     0.031 C 
ATOM     58  C   UNL A   1      43.511  27.395  31.608  1.00  0.00     0.029 A 
ATOM     59  C   UNL A   1      42.884  28.377  32.357  1.00  0.00     0.049 A 
ATOM     60  H   UNL A   1      41.180  29.528  31.880  1.00  0.00     0.167 HD
ATOM     61  C   UNL A   1      42.576  29.849  34.329  1.00  0.00     0.074 A 
ATOM     62  C   UNL A   1      42.937  30.326  35.648  1.00  0.00     0.031 C 
ATOM     63  C   UNL A   1      43.234  28.865  33.667  1.00  0.00     0.037 A 
BRANCH  50  64
ATOM     64  C   UNL A   1      40.811  27.479  28.152  1.00  0.00     0.057 A 
ATOM     65  C   UNL A   1      41.593  27.812  27.038  1.00  0.00     0.134 A 
ATOM     66  C   UNL A   1      40.091  26.279  28.099  1.00  0.00     0.134 A 
ATOM     67  F   UNL A   1      42.299  28.953  27.018  1.00  0.00    -0.206 F 
ATOM     68  C   UNL A   1      41.636  26.997  25.906  1.00  0.00     0.040 A 
ATOM     69  C   UNL A   1      40.148  25.442  26.984  1.00  0.00     0.040 A 
ATOM     70  F   UNL A   1      39.327  25.896  29.133  1.00  0.00    -0.206 F 
ATOM     71  C   UNL A   1      40.918  25.803  25.880  1.00  0.00     0.006 A 
ENDBRANCH  50  64
BRANCH  51  72
ATOM     72  C   UNL A   1      39.994  33.283  36.238  1.00  0.00     0.057 A 
ATOM     73  C   UNL A   1      40.659  34.511  36.345  1.00  0.00     0.134 A 
ATOM     74  C   UNL A   1      39.210  32.878  37.326  1.00  0.00     0.134 A 
ATOM     75  F   UNL A   1      41.438  34.944  35.344  1.00  0.00    -0.206 F 
ATOM     76  C   UNL A   1      40.569  35.294  37.496  1.00  0.00     0.040 A 
ATOM     77  C   UNL A   1      39.089  33.664  38.473  1.00  0.00     0.040 A 
ATOM     78  F   UNL A   1      38.540  31.717  37.282  1.00  0.00    -0.206 F 
ATOM     79  C   UNL A   1      39.777  34.873  38.564  1.00  0.00     0.006 A 
ENDBRANCH  51  72
BRANCH  63  80
ATOM     80  C   UNL A   1      44.431  28.264  34.344  1.00  0.00     0.057 A 
ATOM     81  C   UNL A   1      44.332  27.119  35.145  1.00  0.00     0.134 A 
ATOM     82  C   UNL A   1      45.704  28.819  34.163  1.00  0.00     0.134 A 
ATOM     83  F   UNL A   1      43.140  26.547  35.370  1.00  0.00    -0.206 F 
ATOM     84  C   UNL A   1      45.454  26.562  35.762  1.00  0.00     0.040 A 
ATOM     85  C   UNL A   1      46.837  28.254  34.750  1.00  0.00     0.040 A 
ATOM     86  F   UNL A   1      45.870  29.910  33.401  1.00  0.00    -0.206 F 
ATOM     87  C   UNL A   1      46.712  27.127  35.558  1.00  0.00     0.006 A 
ENDBRANCH  63  80
ENDBRANCH  37  38
ENDBRANCH  29  32
ENDBRANCH  27  28
ENDBRANCH  26  27
ENDBRANCH  25  26
ENDBRANCH   1  25
TORSDOF 18
ENDMDL
MODEL 3
REMARK VINA RESULT:     -10.4      1.257      6.358
REMARK SMILES CCC[NH2+][C@@]1(C(=O)NCCCCCCNC(=O)c2ccc(-c3c4nc(c(-c5c(F)cccc5F)c5ccc([nH]5)c(-c5c(F)cccc5F)c5nc(c(-c6c(F)cccc6F)c6ccc3[nH]6)C=C5)C=C4)cc2)CC[C@@H](SC2CCCC2)C1
REMARK SMILES IDX 11 1 10 2 9 3 8 4 6 5 7 6 5 8 72 9 81 10 73 11 74 12 4 13
REMARK SMILES IDX 3 16 2 17 1 18 75 19 76 20 77 21 80 22 78 23 79 24 12 25
REMARK SMILES IDX 13 26 14 27 15 28 16 29 17 31 18 32 19 33 71 34 20 35 70 36
REMARK SMILES IDX 21 37 22 38 23 39 64 40 24 41 69 42 63 43 65 44 25 45 68 46
REMARK SMILES IDX 62 47 61 48 26 50 52 51 35 52 51 53 36 54 39 55 50 56 66 57
REMARK SMILES IDX 37 58 38 59 49 61 67 62 40 63 27 64 28 65 33 66 29 67 30 68
REMARK SMILES IDX 32 69 34 70 31 71 53 72 54 73 59 74 55 75 56 76 58 77 60 78
REMARK SMILES IDX 57 79 41 80 42 81 47 82 43 83 44 84 46 85 48 86 45 87
REMARK H PARENT 8 7 4 14 4 15 15 30 65 49 39 60
REMARK Flexibility Score: inf
ROOT
ATOM      1  C   UNL A   1      32.541  29.826  26.476  1.00  0.00     0.002 C 
ENDROOT
BRANCH   1   2
ATOM      2  C   UNL A   1      32.149  28.534  27.187  1.00  0.00     0.021 C 
BRANCH   2   3
ATOM      3  C   UNL A   1      31.330  27.570  26.348  1.00  0.00     0.116 C 
BRANCH   3   4
ATOM      4  N   UNL A   1      31.119  26.284  26.953  1.00  0.00    -0.351 N 
ATOM      5  C   UNL A   1      31.341  25.030  26.480  1.00  0.00     0.281 C 
ATOM      6  O   UNL A   1      31.107  24.122  27.294  1.00  0.00    -0.268 OA
ATOM      7  H   UNL A   1      30.750  26.319  27.865  1.00  0.00     0.163 HD
BRANCH   5   8
ATOM      8  C   UNL A   1      31.897  24.659  25.025  1.00  0.00     0.176 C 
ATOM      9  C   UNL A   1      31.540  23.215  24.611  1.00  0.00     0.080 C 
ATOM     10  C   UNL A   1      33.438  24.735  24.890  1.00  0.00     0.093 C 
ATOM     11  C   UNL A   1      32.782  22.345  24.792  1.00  0.00     0.022 C 
ATOM     12  C   UNL A   1      33.972  23.297  24.738  1.00  0.00     0.054 C 
BRANCH   8  13
ATOM     13  N   UNL A   1      31.088  25.525  24.093  1.00  0.00    -0.334 N 
ATOM     14  H   UNL A   1      30.108  25.416  24.350  1.00  0.00     0.347 HD
ATOM     15  H   UNL A   1      31.473  26.462  24.215  1.00  0.00     0.347 HD
BRANCH  13  16
ATOM     16  C   UNL A   1      31.196  25.267  22.663  1.00  0.00     0.261 C 
BRANCH  16  17
ATOM     17  C   UNL A   1      31.780  26.457  21.894  1.00  0.00     0.058 C 
ATOM     18  C   UNL A   1      33.298  26.492  21.924  1.00  0.00     0.010 C 
ENDBRANCH  16  17
ENDBRANCH  13  16
ENDBRANCH   8  13
BRANCH  12  19
ATOM     19  S   UNL A   1      35.329  22.973  23.546  1.00  0.00    -0.155 SA
BRANCH  19  20
ATOM     20  C   UNL A   1      36.915  23.041  24.441  1.00  0.00     0.047 C 
ATOM     21  C   UNL A   1      36.986  23.797  25.758  1.00  0.00     0.014 C 
ATOM     22  C   UNL A   1      37.580  21.705  24.729  1.00  0.00     0.014 C 
ATOM     23  C   UNL A   1      38.362  23.423  26.284  1.00  0.00     0.001 C 
ATOM     24  C   UNL A   1      38.519  21.952  25.911  1.00  0.00     0.001 C 
ENDBRANCH  19  20
ENDBRANCH  12  19
ENDBRANCH   5   8
ENDBRANCH   3   4
ENDBRANCH   2   3
ENDBRANCH   1   2
BRANCH   1  25
ATOM     25  C   UNL A   1      31.374  30.694  25.990  1.00  0.00     0.002 C 
BRANCH  25  26
ATOM     26  C   UNL A   1      31.349  32.139  26.497  1.00  0.00     0.021 C 
BRANCH  26  27
ATOM     27  C   UNL A   1      32.647  32.632  27.132  1.00  0.00     0.116 C 
BRANCH  27  28
ATOM     28  N   UNL A   1      32.532  33.990  27.636  1.00  0.00    -0.352 N 
ATOM     29  C   UNL A   1      33.204  34.615  28.654  1.00  0.00     0.251 C 
ATOM     30  H   UNL A   1      31.866  34.549  27.175  1.00  0.00     0.163 HD
ATOM     31  O   UNL A   1      32.828  35.710  29.056  1.00  0.00    -0.269 OA
BRANCH  29  32
ATOM     32  C   UNL A   1      34.375  33.965  29.277  1.00  0.00     0.039 A 
ATOM     33  C   UNL A   1      34.160  32.904  30.160  1.00  0.00     0.014 A 
ATOM     34  C   UNL A   1      35.673  34.414  29.017  1.00  0.00     0.014 A 
ATOM     35  C   UNL A   1      35.252  32.256  30.740  1.00  0.00     0.010 A 
ATOM     36  C   UNL A   1      36.763  33.723  29.541  1.00  0.00     0.010 A 
ATOM     37  C   UNL A   1      36.562  32.640  30.409  1.00  0.00    -0.014 A 
BRANCH  37  38
ATOM     38  C   UNL A   1      37.733  31.911  30.957  1.00  0.00     0.031 A 
ATOM     39  C   UNL A   1      38.242  32.221  32.337  1.00  0.00     0.074 A 
ATOM     40  C   UNL A   1      38.374  31.013  30.185  1.00  0.00     0.049 A 
ATOM     41  N   UNL A   1      39.284  31.736  32.961  1.00  0.00    -0.248 NA
ATOM     42  C   UNL A   1      37.493  33.226  33.108  1.00  0.00     0.031 C 
ATOM     43  C   UNL A   1      38.001  30.658  28.814  1.00  0.00     0.029 A 
ATOM     44  N   UNL A   1      39.480  30.241  30.438  1.00  0.00    -0.354 N 
ATOM     45  C   UNL A   1      39.324  32.382  34.190  1.00  0.00     0.074 A 
ATOM     46  C   UNL A   1      38.233  33.331  34.203  1.00  0.00     0.031 C 
ATOM     47  C   UNL A   1      38.850  29.725  28.355  1.00  0.00     0.029 A 
ATOM     48  C   UNL A   1      39.849  29.445  29.382  1.00  0.00     0.049 A 
ATOM     49  H   UNL A   1      39.963  30.257  31.296  1.00  0.00     0.167 HD
ATOM     50  C   UNL A   1      40.179  32.186  35.222  1.00  0.00     0.037 A 
ATOM     51  C   UNL A   1      40.883  28.593  29.252  1.00  0.00     0.037 A 
ATOM     52  C   UNL A   1      41.254  31.228  35.209  1.00  0.00     0.049 A 
ATOM     53  C   UNL A   1      41.829  28.407  30.405  1.00  0.00     0.074 A 
ATOM     54  C   UNL A   1      42.140  30.913  36.225  1.00  0.00     0.029 A 
ATOM     55  N   UNL A   1      41.592  30.433  34.125  1.00  0.00    -0.354 N 
ATOM     56  N   UNL A   1      41.813  28.975  31.587  1.00  0.00    -0.248 NA
ATOM     57  C   UNL A   1      42.934  27.459  30.208  1.00  0.00     0.031 C 
ATOM     58  C   UNL A   1      43.045  29.965  35.737  1.00  0.00     0.029 A 
ATOM     59  C   UNL A   1      42.690  29.648  34.437  1.00  0.00     0.049 A 
ATOM     60  H   UNL A   1      41.121  30.427  33.260  1.00  0.00     0.167 HD
ATOM     61  C   UNL A   1      42.886  28.433  32.283  1.00  0.00     0.074 A 
ATOM     62  C   UNL A   1      43.520  27.480  31.396  1.00  0.00     0.031 C 
ATOM     63  C   UNL A   1      43.308  28.700  33.544  1.00  0.00     0.037 A 
BRANCH  50  64
ATOM     64  C   UNL A   1      39.987  33.026  36.452  1.00  0.00     0.057 A 
ATOM     65  C   UNL A   1      40.719  34.201  36.666  1.00  0.00     0.134 A 
ATOM     66  C   UNL A   1      39.035  32.674  37.417  1.00  0.00     0.134 A 
ATOM     67  F   UNL A   1      41.654  34.590  35.787  1.00  0.00    -0.206 F 
ATOM     68  C   UNL A   1      40.531  34.981  37.808  1.00  0.00     0.040 A 
ATOM     69  C   UNL A   1      38.818  33.461  38.550  1.00  0.00     0.040 A 
ATOM     70  F   UNL A   1      38.295  31.565  37.273  1.00  0.00    -0.206 F 
ATOM     71  C   UNL A   1      39.572  34.616  38.750  1.00  0.00     0.006 A 
ENDBRANCH  50  64
BRANCH  51  72
ATOM     72  C   UNL A   1      41.069  27.837  27.988  1.00  0.00     0.057 A 
ATOM     73  C   UNL A   1      40.536  26.551  27.829  1.00  0.00     0.134 A 
ATOM     74  C   UNL A   1      41.787  28.375  26.912  1.00  0.00     0.134 A 
ATOM     75  F   UNL A   1      39.854  25.977  28.829  1.00  0.00    -0.206 F 
ATOM     76  C   UNL A   1      40.730  25.819  26.657  1.00  0.00     0.040 A 
ATOM     77  C   UNL A   1      41.965  27.664  25.724  1.00  0.00     0.040 A 
ATOM     78  F   UNL A   1      42.315  29.605  26.997  1.00  0.00    -0.206 F 
ATOM     79  C   UNL A   1      41.443  26.378  25.597  1.00  0.00     0.006 A 
ENDBRANCH  51  72
BRANCH  63  80
ATOM     80  C   UNL A   1      44.492  27.929  34.049  1.00  0.00     0.057 A 
ATOM     81  C   UNL A   1      44.355  26.674  34.656  1.00  0.00     0.134 A 
ATOM     82  C   UNL A   1      45.789  28.434  33.893  1.00  0.00     0.134 A 
ATOM     83  F   UNL A   1      43.140  26.140  34.848  1.00  0.00    -0.206 F 
ATOM     84  C   UNL A   1      45.465  25.960  35.113  1.00  0.00     0.040 A 
ATOM     85  C   UNL A   1      46.908  27.717  34.318  1.00  0.00     0.040 A 
ATOM     86  F   UNL A   1      45.991  29.626  33.312  1.00  0.00    -0.206 F 
ATOM     87  C   UNL A   1      46.747  26.479  34.936  1.00  0.00     0.006 A 
ENDBRANCH  63  80
ENDBRANCH  37  38
ENDBRANCH  29  32
ENDBRANCH  27  28
ENDBRANCH  26  27
ENDBRANCH  25  26
ENDBRANCH   1  25
TORSDOF 18
ENDMDL
