MODEL 1
REMARK VINA RESULT:     -10.0      0.000      0.000
REMARK SMILES CCCCCCC(=O)N1C[C@@H](O)C[C@@H]1C(=O)NCCCCCCNC(=O)c1ccc(-c2c3nc(c(-c4c(F)cccc4F)c4ccc([nH]4)c(-c4c(F)cccc4F)c4nc(c(-c5c(F)cccc5F)c5ccc2[nH]5)C=C4)C=C3)cc1
REMARK SMILES IDX 18 1 17 2 15 3 16 4 14 6 9 7 10 8 11 9 13 10 7 11 8 12 6 13
REMARK SMILES IDX 5 14 4 15 3 16 2 17 1 18 12 19 19 21 20 22 21 23 22 24 23 25
REMARK SMILES IDX 24 26 25 27 26 29 27 30 28 31 80 32 29 33 79 34 30 35 31 36
REMARK SMILES IDX 32 37 73 38 33 39 78 40 72 41 74 42 34 43 77 44 71 45 70 46
REMARK SMILES IDX 35 48 61 49 44 50 60 51 45 52 48 53 59 54 75 55 46 56 47 57
REMARK SMILES IDX 58 59 76 60 49 61 36 62 37 63 42 64 38 65 39 66 41 67 43 68
REMARK SMILES IDX 40 69 62 70 63 71 68 72 64 73 65 74 67 75 69 76 66 77 50 78
REMARK SMILES IDX 51 79 56 80 52 81 53 82 55 83 57 84 54 85
REMARK H PARENT 17 5 12 20 24 28 74 47 48 58
REMARK Flexibility Score: inf
ROOT
ATOM      1  C   UNL A   1      33.035  27.700  26.776  1.00  0.00     0.116 C 
ENDROOT
BRANCH   1   2
ATOM      2  N   UNL A   1      33.723  26.611  26.127  1.00  0.00    -0.354 N 
ATOM      3  C   UNL A   1      33.747  26.247  24.810  1.00  0.00     0.242 C 
ATOM      4  O   UNL A   1      34.509  25.317  24.516  1.00  0.00    -0.273 OA
ATOM      5  H   UNL A   1      34.259  26.042  26.725  1.00  0.00     0.163 HD
BRANCH   3   6
ATOM      6  C   UNL A   1      32.725  26.762  23.758  1.00  0.00     0.177 C 
ATOM      7  N   UNL A   1      31.582  25.896  23.438  1.00  0.00    -0.328 N 
ATOM      8  C   UNL A   1      31.574  25.589  22.024  1.00  0.00     0.152 C 
ATOM      9  C   UNL A   1      33.007  25.816  21.559  1.00  0.00     0.136 C 
ATOM     10  C   UNL A   1      33.450  26.989  22.418  1.00  0.00     0.069 C 
BRANCH   7  11
ATOM     11  C   UNL A   1      30.506  25.803  24.293  1.00  0.00     0.223 C 
ATOM     12  O   UNL A   1      30.403  24.852  25.072  1.00  0.00    -0.275 OA
BRANCH  11  13
ATOM     13  C   UNL A   1      29.293  26.716  24.061  1.00  0.00     0.100 C 
BRANCH  13  14
ATOM     14  C   UNL A   1      29.286  27.871  23.065  1.00  0.00     0.010 C 
BRANCH  14  15
ATOM     15  C   UNL A   1      29.964  29.200  23.429  1.00  0.00     0.001 C 
BRANCH  15  16
ATOM     16  C   UNL A   1      29.440  30.475  22.748  1.00  0.00    -0.000 C 
BRANCH  16  17
ATOM     17  C   UNL A   1      28.876  31.548  23.671  1.00  0.00    -0.003 C 
ATOM     18  C   UNL A   1      28.595  32.851  22.939  1.00  0.00     0.004 C 
ENDBRANCH  16  17
ENDBRANCH  15  16
ENDBRANCH  14  15
ENDBRANCH  13  14
ENDBRANCH  11  13
ENDBRANCH   7  11
BRANCH   9  19
ATOM     19  O   UNL A   1      33.105  26.083  20.173  1.00  0.00    -0.391 OA
ATOM     20  H   UNL A   1      33.789  25.518  19.781  1.00  0.00     0.211 HD
ENDBRANCH   9  19
ENDBRANCH   3   6
ENDBRANCH   1   2
BRANCH   1  21
ATOM     21  C   UNL A   1      33.699  29.060  26.600  1.00  0.00     0.021 C 
BRANCH  21  22
ATOM     22  C   UNL A   1      32.910  30.059  25.754  1.00  0.00     0.002 C 
BRANCH  22  23
ATOM     23  C   UNL A   1      31.523  30.442  26.287  1.00  0.00     0.002 C 
BRANCH  23  24
ATOM     24  C   UNL A   1      31.349  31.894  26.739  1.00  0.00     0.021 C 
BRANCH  24  25
ATOM     25  C   UNL A   1      32.642  32.651  27.028  1.00  0.00     0.116 C 
BRANCH  25  26
ATOM     26  N   UNL A   1      32.402  33.998  27.515  1.00  0.00    -0.352 N 
ATOM     27  C   UNL A   1      33.051  34.696  28.499  1.00  0.00     0.251 C 
ATOM     28  H   UNL A   1      31.666  34.480  27.073  1.00  0.00     0.163 HD
ATOM     29  O   UNL A   1      32.597  35.771  28.893  1.00  0.00    -0.269 OA
BRANCH  27  30
ATOM     30  C   UNL A   1      34.289  34.160  29.104  1.00  0.00     0.039 A 
ATOM     31  C   UNL A   1      34.191  33.351  30.241  1.00  0.00     0.014 A 
ATOM     32  C   UNL A   1      35.543  34.479  28.578  1.00  0.00     0.014 A 
ATOM     33  C   UNL A   1      35.347  32.826  30.823  1.00  0.00     0.010 A 
ATOM     34  C   UNL A   1      36.689  33.902  29.118  1.00  0.00     0.010 A 
ATOM     35  C   UNL A   1      36.604  33.079  30.253  1.00  0.00    -0.014 A 
BRANCH  35  36
ATOM     36  C   UNL A   1      37.851  32.524  30.839  1.00  0.00     0.031 A 
ATOM     37  C   UNL A   1      38.492  31.314  30.218  1.00  0.00     0.074 A 
ATOM     38  C   UNL A   1      38.362  33.056  31.965  1.00  0.00     0.049 A 
ATOM     39  N   UNL A   1      39.500  30.597  30.647  1.00  0.00    -0.248 NA
ATOM     40  C   UNL A   1      37.903  30.830  28.960  1.00  0.00     0.031 C 
ATOM     41  C   UNL A   1      37.825  34.218  32.674  1.00  0.00     0.029 A 
ATOM     42  N   UNL A   1      39.442  32.676  32.722  1.00  0.00    -0.354 N 
ATOM     43  C   UNL A   1      39.651  29.568  29.724  1.00  0.00     0.074 A 
ATOM     44  C   UNL A   1      38.602  29.726  28.740  1.00  0.00     0.031 C 
ATOM     45  C   UNL A   1      38.580  34.460  33.757  1.00  0.00     0.029 A 
ATOM     46  C   UNL A   1      39.627  33.447  33.845  1.00  0.00     0.049 A 
ATOM     47  H   UNL A   1      40.029  31.922  32.483  1.00  0.00     0.167 HD
ATOM     48  C   UNL A   1      40.588  28.593  29.691  1.00  0.00     0.037 A 
ATOM     49  C   UNL A   1      40.527  33.336  34.841  1.00  0.00     0.037 A 
ATOM     50  C   UNL A   1      41.643  28.454  30.661  1.00  0.00     0.049 A 
ATOM     51  C   UNL A   1      41.543  32.226  34.797  1.00  0.00     0.074 A 
ATOM     52  C   UNL A   1      42.668  27.525  30.691  1.00  0.00     0.029 A 
ATOM     53  N   UNL A   1      41.808  29.268  31.771  1.00  0.00    -0.354 N 
ATOM     54  N   UNL A   1      41.701  31.286  33.897  1.00  0.00    -0.248 NA
ATOM     55  C   UNL A   1      42.508  32.164  35.904  1.00  0.00     0.031 C 
ATOM     56  C   UNL A   1      43.425  27.746  31.846  1.00  0.00     0.029 A 
ATOM     57  C   UNL A   1      42.907  28.851  32.503  1.00  0.00     0.049 A 
ATOM     58  H   UNL A   1      41.230  30.030  32.003  1.00  0.00     0.167 HD
ATOM     59  C   UNL A   1      42.807  30.550  34.306  1.00  0.00     0.074 A 
ATOM     60  C   UNL A   1      43.279  31.151  35.535  1.00  0.00     0.031 C 
ATOM     61  C   UNL A   1      43.382  29.476  33.711  1.00  0.00     0.037 A 
BRANCH  48  62
ATOM     62  C   UNL A   1      40.512  27.593  28.574  1.00  0.00     0.057 A 
ATOM     63  C   UNL A   1      39.725  26.436  28.666  1.00  0.00     0.134 A 
ATOM     64  C   UNL A   1      41.207  27.805  27.376  1.00  0.00     0.134 A 
ATOM     65  F   UNL A   1      39.041  26.167  29.789  1.00  0.00    -0.206 F 
ATOM     66  C   UNL A   1      39.656  25.514  27.620  1.00  0.00     0.040 A 
ATOM     67  C   UNL A   1      41.121  26.905  26.313  1.00  0.00     0.040 A 
ATOM     68  F   UNL A   1      41.974  28.894  27.216  1.00  0.00    -0.206 F 
ATOM     69  C   UNL A   1      40.350  25.751  26.436  1.00  0.00     0.006 A 
ENDBRANCH  48  62
BRANCH  49  70
ATOM     70  C   UNL A   1      40.519  34.310  35.963  1.00  0.00     0.057 A 
ATOM     71  C   UNL A   1      39.768  34.073  37.120  1.00  0.00     0.134 A 
ATOM     72  C   UNL A   1      41.251  35.502  35.903  1.00  0.00     0.134 A 
ATOM     73  F   UNL A   1      39.032  32.957  37.229  1.00  0.00    -0.206 F 
ATOM     74  C   UNL A   1      39.725  34.995  38.166  1.00  0.00     0.040 A 
ATOM     75  C   UNL A   1      41.239  36.422  36.954  1.00  0.00     0.040 A 
ATOM     76  F   UNL A   1      41.999  35.787  34.826  1.00  0.00    -0.206 F 
ATOM     77  C   UNL A   1      40.467  36.173  38.087  1.00  0.00     0.006 A 
ENDBRANCH  49  70
BRANCH  61  78
ATOM     78  C   UNL A   1      44.627  28.917  34.335  1.00  0.00     0.057 A 
ATOM     79  C   UNL A   1      45.902  29.403  34.020  1.00  0.00     0.134 A 
ATOM     80  C   UNL A   1      44.537  27.924  35.320  1.00  0.00     0.134 A 
ATOM     81  F   UNL A   1      46.057  30.345  33.078  1.00  0.00    -0.206 F 
ATOM     82  C   UNL A   1      47.045  28.912  34.655  1.00  0.00     0.040 A 
ATOM     83  C   UNL A   1      45.669  27.446  35.980  1.00  0.00     0.040 A 
ATOM     84  F   UNL A   1      43.345  27.423  35.674  1.00  0.00    -0.206 F 
ATOM     85  C   UNL A   1      46.928  27.938  35.645  1.00  0.00     0.006 A 
ENDBRANCH  61  78
ENDBRANCH  35  36
ENDBRANCH  27  30
ENDBRANCH  25  26
ENDBRANCH  24  25
ENDBRANCH  23  24
ENDBRANCH  22  23
ENDBRANCH  21  22
ENDBRANCH   1  21
TORSDOF 20
ENDMDL
MODEL 2
REMARK VINA RESULT:     -10.0      2.023      6.833
REMARK SMILES CCCCCCC(=O)N1C[C@@H](O)C[C@@H]1C(=O)NCCCCCCNC(=O)c1ccc(-c2c3nc(c(-c4c(F)cccc4F)c4ccc([nH]4)c(-c4c(F)cccc4F)c4nc(c(-c5c(F)cccc5F)c5ccc2[nH]5)C=C4)C=C3)cc1
REMARK SMILES IDX 18 1 17 2 15 3 16 4 14 6 9 7 10 8 11 9 13 10 7 11 8 12 6 13
REMARK SMILES IDX 5 14 4 15 3 16 2 17 1 18 12 19 19 21 20 22 21 23 22 24 23 25
REMARK SMILES IDX 24 26 25 27 26 29 27 30 28 31 80 32 29 33 79 34 30 35 31 36
REMARK SMILES IDX 32 37 73 38 33 39 78 40 72 41 74 42 34 43 77 44 71 45 70 46
REMARK SMILES IDX 35 48 61 49 44 50 60 51 45 52 48 53 59 54 75 55 46 56 47 57
REMARK SMILES IDX 58 59 76 60 49 61 36 62 37 63 42 64 38 65 39 66 41 67 43 68
REMARK SMILES IDX 40 69 62 70 63 71 68 72 64 73 65 74 67 75 69 76 66 77 50 78
REMARK SMILES IDX 51 79 56 80 52 81 53 82 55 83 57 84 54 85
REMARK H PARENT 17 5 12 20 24 28 74 47 48 58
REMARK Flexibility Score: inf
ROOT
ATOM      1  C   UNL A   1      34.341  30.474  27.462  1.00  0.00     0.116 C 
ENDROOT
BRANCH   1   2
ATOM      2  N   UNL A   1      33.076  30.832  26.867  1.00  0.00    -0.354 N 
ATOM      3  C   UNL A   1      32.187  30.067  26.165  1.00  0.00     0.242 C 
ATOM      4  O   UNL A   1      31.124  30.618  25.853  1.00  0.00    -0.273 OA
ATOM      5  H   UNL A   1      32.812  31.773  26.985  1.00  0.00     0.163 HD
BRANCH   3   6
ATOM      6  C   UNL A   1      32.539  28.680  25.559  1.00  0.00     0.177 C 
ATOM      7  N   UNL A   1      31.670  28.162  24.494  1.00  0.00    -0.328 N 
ATOM      8  C   UNL A   1      31.113  26.884  24.888  1.00  0.00     0.152 C 
ATOM      9  C   UNL A   1      31.203  26.862  26.408  1.00  0.00     0.136 C 
ATOM     10  C   UNL A   1      32.496  27.617  26.672  1.00  0.00     0.069 C 
BRANCH   7  11
ATOM     11  C   UNL A   1      31.769  28.639  23.206  1.00  0.00     0.223 C 
ATOM     12  O   UNL A   1      32.780  29.240  22.835  1.00  0.00    -0.275 OA
BRANCH  11  13
ATOM     13  C   UNL A   1      30.506  28.687  22.335  1.00  0.00     0.100 C 
BRANCH  13  14
ATOM     14  C   UNL A   1      29.170  29.244  22.815  1.00  0.00     0.010 C 
BRANCH  14  15
ATOM     15  C   UNL A   1      29.110  30.634  23.465  1.00  0.00     0.001 C 
BRANCH  15  16
ATOM     16  C   UNL A   1      27.992  31.585  23.006  1.00  0.00    -0.000 C 
BRANCH  16  17
ATOM     17  C   UNL A   1      28.359  32.574  21.906  1.00  0.00    -0.003 C 
ATOM     18  C   UNL A   1      27.993  32.062  20.522  1.00  0.00     0.004 C 
ENDBRANCH  16  17
ENDBRANCH  15  16
ENDBRANCH  14  15
ENDBRANCH  13  14
ENDBRANCH  11  13
ENDBRANCH   7  11
BRANCH   9  19
ATOM     19  O   UNL A   1      31.212  25.552  26.944  1.00  0.00    -0.391 OA
ATOM     20  H   UNL A   1      30.343  25.142  26.811  1.00  0.00     0.211 HD
ENDBRANCH   9  19
ENDBRANCH   3   6
ENDBRANCH   1   2
BRANCH   1  21
ATOM     21  C   UNL A   1      35.138  31.651  28.008  1.00  0.00     0.021 C 
BRANCH  21  22
ATOM     22  C   UNL A   1      34.462  32.416  29.145  1.00  0.00     0.002 C 
BRANCH  22  23
ATOM     23  C   UNL A   1      34.549  33.947  29.070  1.00  0.00     0.002 C 
BRANCH  23  24
ATOM     24  C   UNL A   1      33.218  34.703  29.117  1.00  0.00     0.021 C 
BRANCH  24  25
ATOM     25  C   UNL A   1      33.307  36.161  29.557  1.00  0.00     0.116 C 
BRANCH  25  26
ATOM     26  N   UNL A   1      32.492  36.441  30.725  1.00  0.00    -0.352 N 
ATOM     27  C   UNL A   1      32.607  35.959  32.003  1.00  0.00     0.251 C 
ATOM     28  H   UNL A   1      31.748  37.068  30.578  1.00  0.00     0.163 HD
ATOM     29  O   UNL A   1      31.717  36.178  32.826  1.00  0.00    -0.269 OA
BRANCH  27  30
ATOM     30  C   UNL A   1      33.788  35.163  32.399  1.00  0.00     0.039 A 
ATOM     31  C   UNL A   1      33.601  33.853  32.850  1.00  0.00     0.014 A 
ATOM     32  C   UNL A   1      35.072  35.713  32.358  1.00  0.00     0.014 A 
ATOM     33  C   UNL A   1      34.704  33.080  33.219  1.00  0.00     0.010 A 
ATOM     34  C   UNL A   1      36.176  34.921  32.663  1.00  0.00     0.010 A 
ATOM     35  C   UNL A   1      36.003  33.600  33.107  1.00  0.00    -0.014 A 
BRANCH  35  36
ATOM     36  C   UNL A   1      37.197  32.799  33.478  1.00  0.00     0.031 A 
ATOM     37  C   UNL A   1      37.924  33.097  34.761  1.00  0.00     0.074 A 
ATOM     38  C   UNL A   1      37.671  31.863  32.635  1.00  0.00     0.049 A 
ATOM     39  N   UNL A   1      39.056  32.611  35.206  1.00  0.00    -0.248 NA
ATOM     40  C   UNL A   1      37.309  34.095  35.650  1.00  0.00     0.031 C 
ATOM     41  C   UNL A   1      37.069  31.492  31.355  1.00  0.00     0.029 A 
ATOM     42  N   UNL A   1      38.784  31.063  32.723  1.00  0.00    -0.354 N 
ATOM     43  C   UNL A   1      39.296  33.258  36.412  1.00  0.00     0.074 A 
ATOM     44  C   UNL A   1      38.220  34.205  36.605  1.00  0.00     0.031 C 
ATOM     45  C   UNL A   1      37.813  30.534  30.780  1.00  0.00     0.029 A 
ATOM     46  C   UNL A   1      38.968  30.253  31.629  1.00  0.00     0.049 A 
ATOM     47  H   UNL A   1      39.392  31.069  33.498  1.00  0.00     0.167 HD
ATOM     48  C   UNL A   1      40.312  33.068  37.286  1.00  0.00     0.037 A 
ATOM     49  C   UNL A   1      39.964  29.396  31.334  1.00  0.00     0.037 A 
ATOM     50  C   UNL A   1      41.369  32.108  37.099  1.00  0.00     0.049 A 
ATOM     51  C   UNL A   1      41.098  29.221  32.309  1.00  0.00     0.074 A 
ATOM     52  C   UNL A   1      42.420  31.809  37.947  1.00  0.00     0.029 A 
ATOM     53  N   UNL A   1      41.507  31.292  35.986  1.00  0.00    -0.354 N 
ATOM     54  N   UNL A   1      41.292  29.808  33.465  1.00  0.00    -0.248 NA
ATOM     55  C   UNL A   1      42.150  28.263  31.940  1.00  0.00     0.031 C 
ATOM     56  C   UNL A   1      43.222  30.847  37.326  1.00  0.00     0.029 A 
ATOM     57  C   UNL A   1      42.637  30.503  36.117  1.00  0.00     0.049 A 
ATOM     58  H   UNL A   1      40.892  31.277  35.217  1.00  0.00     0.167 HD
ATOM     59  C   UNL A   1      42.459  29.258  33.980  1.00  0.00     0.074 A 
ATOM     60  C   UNL A   1      42.932  28.294  33.010  1.00  0.00     0.031 C 
ATOM     61  C   UNL A   1      43.080  29.526  35.155  1.00  0.00     0.037 A 
BRANCH  48  62
ATOM     62  C   UNL A   1      40.334  33.919  38.522  1.00  0.00     0.057 A 
ATOM     63  C   UNL A   1      41.059  35.118  38.584  1.00  0.00     0.134 A 
ATOM     64  C   UNL A   1      39.595  33.555  39.655  1.00  0.00     0.134 A 
ATOM     65  F   UNL A   1      41.797  35.521  37.538  1.00  0.00    -0.206 F 
ATOM     66  C   UNL A   1      41.070  35.906  39.736  1.00  0.00     0.040 A 
ATOM     67  C   UNL A   1      39.574  34.351  40.801  1.00  0.00     0.040 A 
ATOM     68  F   UNL A   1      38.872  32.424  39.663  1.00  0.00    -0.206 F 
ATOM     69  C   UNL A   1      40.320  35.527  40.846  1.00  0.00     0.006 A 
ENDBRANCH  48  62
BRANCH  49  70
ATOM     70  C   UNL A   1      39.933  28.625  30.064  1.00  0.00     0.057 A 
ATOM     71  C   UNL A   1      39.250  27.407  29.976  1.00  0.00     0.134 A 
ATOM     72  C   UNL A   1      40.592  29.080  28.915  1.00  0.00     0.134 A 
ATOM     73  F   UNL A   1      38.615  26.911  31.049  1.00  0.00    -0.206 F 
ATOM     74  C   UNL A   1      39.242  26.656  28.800  1.00  0.00     0.040 A 
ATOM     75  C   UNL A   1      40.569  28.352  27.724  1.00  0.00     0.040 A 
ATOM     76  F   UNL A   1      41.258  30.244  28.930  1.00  0.00    -0.206 F 
ATOM     77  C   UNL A   1      39.899  27.131  27.666  1.00  0.00     0.006 A 
ENDBRANCH  49  70
BRANCH  61  78
ATOM     78  C   UNL A   1      44.300  28.722  35.499  1.00  0.00     0.057 A 
ATOM     79  C   UNL A   1      45.590  29.137  35.150  1.00  0.00     0.134 A 
ATOM     80  C   UNL A   1      44.179  27.547  36.254  1.00  0.00     0.134 A 
ATOM     81  F   UNL A   1      45.772  30.246  34.418  1.00  0.00    -0.206 F 
ATOM     82  C   UNL A   1      46.717  28.407  35.530  1.00  0.00     0.040 A 
ATOM     83  C   UNL A   1      45.300  26.824  36.663  1.00  0.00     0.040 A 
ATOM     84  F   UNL A   1      42.972  27.099  36.629  1.00  0.00    -0.206 F 
ATOM     85  C   UNL A   1      46.574  27.251  36.298  1.00  0.00     0.006 A 
ENDBRANCH  61  78
ENDBRANCH  35  36
ENDBRANCH  27  30
ENDBRANCH  25  26
ENDBRANCH  24  25
ENDBRANCH  23  24
ENDBRANCH  22  23
ENDBRANCH  21  22
ENDBRANCH   1  21
TORSDOF 20
ENDMDL
MODEL 3
REMARK VINA RESULT:      -9.9      1.366      2.441
REMARK SMILES CCCCCCC(=O)N1C[C@@H](O)C[C@@H]1C(=O)NCCCCCCNC(=O)c1ccc(-c2c3nc(c(-c4c(F)cccc4F)c4ccc([nH]4)c(-c4c(F)cccc4F)c4nc(c(-c5c(F)cccc5F)c5ccc2[nH]5)C=C4)C=C3)cc1
REMARK SMILES IDX 18 1 17 2 15 3 16 4 14 6 9 7 10 8 11 9 13 10 7 11 8 12 6 13
REMARK SMILES IDX 5 14 4 15 3 16 2 17 1 18 12 19 19 21 20 22 21 23 22 24 23 25
REMARK SMILES IDX 24 26 25 27 26 29 27 30 28 31 80 32 29 33 79 34 30 35 31 36
REMARK SMILES IDX 32 37 73 38 33 39 78 40 72 41 74 42 34 43 77 44 71 45 70 46
REMARK SMILES IDX 35 48 61 49 44 50 60 51 45 52 48 53 59 54 75 55 46 56 47 57
REMARK SMILES IDX 58 59 76 60 49 61 36 62 37 63 42 64 38 65 39 66 41 67 43 68
REMARK SMILES IDX 40 69 62 70 63 71 68 72 64 73 65 74 67 75 69 76 66 77 50 78
REMARK SMILES IDX 51 79 56 80 52 81 53 82 55 83 57 84 54 85
REMARK H PARENT 17 5 12 20 24 28 74 47 48 58
REMARK Flexibility Score: inf
ROOT
ATOM      1  C   UNL A   1      32.268  27.266  26.648  1.00  0.00     0.116 C 
ENDROOT
BRANCH   1   2
ATOM      2  N   UNL A   1      31.121  26.393  26.712  1.00  0.00    -0.354 N 
ATOM      3  C   UNL A   1      31.043  25.035  26.578  1.00  0.00     0.242 C 
ATOM      4  O   UNL A   1      29.930  24.533  26.780  1.00  0.00    -0.273 OA
ATOM      5  H   UNL A   1      30.263  26.844  26.879  1.00  0.00     0.163 HD
BRANCH   3   6
ATOM      6  C   UNL A   1      32.179  24.165  25.972  1.00  0.00     0.177 C 
ATOM      7  N   UNL A   1      32.222  24.022  24.511  1.00  0.00    -0.328 N 
ATOM      8  C   UNL A   1      32.134  22.623  24.148  1.00  0.00     0.152 C 
ATOM      9  C   UNL A   1      31.495  21.939  25.349  1.00  0.00     0.136 C 
ATOM     10  C   UNL A   1      32.062  22.729  26.518  1.00  0.00     0.069 C 
BRANCH   7  11
ATOM     11  C   UNL A   1      32.709  25.036  23.716  1.00  0.00     0.223 C 
ATOM     12  O   UNL A   1      33.906  25.331  23.739  1.00  0.00    -0.275 OA
BRANCH  11  13
ATOM     13  C   UNL A   1      31.714  25.987  23.035  1.00  0.00     0.100 C 
BRANCH  13  14
ATOM     14  C   UNL A   1      30.201  25.871  23.184  1.00  0.00     0.010 C 
BRANCH  14  15
ATOM     15  C   UNL A   1      29.380  27.092  23.623  1.00  0.00     0.001 C 
BRANCH  15  16
ATOM     16  C   UNL A   1      29.835  28.472  23.121  1.00  0.00    -0.000 C 
BRANCH  16  17
ATOM     17  C   UNL A   1      28.729  29.444  22.728  1.00  0.00    -0.003 C 
ATOM     18  C   UNL A   1      27.349  28.938  23.119  1.00  0.00     0.004 C 
ENDBRANCH  16  17
ENDBRANCH  15  16
ENDBRANCH  14  15
ENDBRANCH  13  14
ENDBRANCH  11  13
ENDBRANCH   7  11
BRANCH   9  19
ATOM     19  O   UNL A   1      31.793  20.558  25.424  1.00  0.00    -0.391 OA
ATOM     20  H   UNL A   1      31.491  20.116  24.615  1.00  0.00     0.211 HD
ENDBRANCH   9  19
ENDBRANCH   3   6
ENDBRANCH   1   2
BRANCH   1  21
ATOM     21  C   UNL A   1      32.026  28.667  27.197  1.00  0.00     0.021 C 
BRANCH  21  22
ATOM     22  C   UNL A   1      32.388  29.805  26.243  1.00  0.00     0.002 C 
BRANCH  22  23
ATOM     23  C   UNL A   1      31.215  30.654  25.735  1.00  0.00     0.002 C 
BRANCH  23  24
ATOM     24  C   UNL A   1      31.171  32.106  26.219  1.00  0.00     0.021 C 
BRANCH  24  25
ATOM     25  C   UNL A   1      32.341  32.541  27.096  1.00  0.00     0.116 C 
BRANCH  25  26
ATOM     26  N   UNL A   1      32.252  33.935  27.492  1.00  0.00    -0.352 N 
ATOM     27  C   UNL A   1      32.984  34.623  28.424  1.00  0.00     0.251 C 
ATOM     28  H   UNL A   1      31.566  34.463  27.023  1.00  0.00     0.163 HD
ATOM     29  O   UNL A   1      32.652  35.765  28.748  1.00  0.00    -0.269 OA
BRANCH  27  30
ATOM     30  C   UNL A   1      34.166  34.000  29.057  1.00  0.00     0.039 A 
ATOM     31  C   UNL A   1      35.442  34.395  28.645  1.00  0.00     0.014 A 
ATOM     32  C   UNL A   1      34.020  33.006  30.028  1.00  0.00     0.014 A 
ATOM     33  C   UNL A   1      36.572  33.827  29.238  1.00  0.00     0.010 A 
ATOM     34  C   UNL A   1      35.144  32.488  30.664  1.00  0.00     0.010 A 
ATOM     35  C   UNL A   1      36.432  32.885  30.268  1.00  0.00    -0.014 A 
BRANCH  35  36
ATOM     36  C   UNL A   1      37.613  32.271  30.928  1.00  0.00     0.031 A 
ATOM     37  C   UNL A   1      38.352  31.155  30.244  1.00  0.00     0.074 A 
ATOM     38  C   UNL A   1      37.973  32.661  32.165  1.00  0.00     0.049 A 
ATOM     39  N   UNL A   1      39.319  30.397  30.699  1.00  0.00    -0.248 NA
ATOM     40  C   UNL A   1      37.929  30.828  28.873  1.00  0.00     0.031 C 
ATOM     41  C   UNL A   1      37.328  33.720  32.942  1.00  0.00     0.029 A 
ATOM     42  N   UNL A   1      38.964  32.197  32.995  1.00  0.00    -0.354 N 
ATOM     43  C   UNL A   1      39.602  29.495  29.681  1.00  0.00     0.074 A 
ATOM     44  C   UNL A   1      38.675  29.767  28.605  1.00  0.00     0.031 C 
ATOM     45  C   UNL A   1      37.943  33.829  34.130  1.00  0.00     0.029 A 
ATOM     46  C   UNL A   1      38.996  32.822  34.218  1.00  0.00     0.049 A 
ATOM     47  H   UNL A   1      39.593  31.485  32.737  1.00  0.00     0.167 HD
ATOM     48  C   UNL A   1      40.560  28.539  29.641  1.00  0.00     0.037 A 
ATOM     49  C   UNL A   1      39.772  32.594  35.295  1.00  0.00     0.037 A 
ATOM     50  C   UNL A   1      41.495  28.288  30.706  1.00  0.00     0.049 A 
ATOM     51  C   UNL A   1      40.813  31.507  35.237  1.00  0.00     0.074 A 
ATOM     52  C   UNL A   1      42.530  27.371  30.745  1.00  0.00     0.029 A 
ATOM     53  N   UNL A   1      41.507  28.957  31.921  1.00  0.00    -0.354 N 
ATOM     54  N   UNL A   1      41.099  30.689  34.253  1.00  0.00    -0.248 NA
ATOM     55  C   UNL A   1      41.640  31.314  36.436  1.00  0.00     0.031 C 
ATOM     56  C   UNL A   1      43.138  27.452  32.001  1.00  0.00     0.029 A 
ATOM     57  C   UNL A   1      42.520  28.460  32.723  1.00  0.00     0.049 A 
ATOM     58  H   UNL A   1      40.887  29.679  32.175  1.00  0.00     0.167 HD
ATOM     59  C   UNL A   1      42.166  29.917  34.698  1.00  0.00     0.074 A 
ATOM     60  C   UNL A   1      42.473  30.362  36.040  1.00  0.00     0.031 C 
ATOM     61  C   UNL A   1      42.833  28.932  34.048  1.00  0.00     0.037 A 
BRANCH  48  62
ATOM     62  C   UNL A   1      40.641  27.688  28.407  1.00  0.00     0.057 A 
ATOM     63  C   UNL A   1      41.404  28.066  27.294  1.00  0.00     0.134 A 
ATOM     64  C   UNL A   1      39.975  26.457  28.343  1.00  0.00     0.134 A 
ATOM     65  F   UNL A   1      42.059  29.238  27.285  1.00  0.00    -0.206 F 
ATOM     66  C   UNL A   1      41.478  27.267  26.152  1.00  0.00     0.040 A 
ATOM     67  C   UNL A   1      40.066  25.635  27.219  1.00  0.00     0.040 A 
ATOM     68  F   UNL A   1      39.232  26.028  29.375  1.00  0.00    -0.206 F 
ATOM     69  C   UNL A   1      40.814  26.043  26.116  1.00  0.00     0.006 A 
ENDBRANCH  48  62
BRANCH  49  70
ATOM     70  C   UNL A   1      39.608  33.418  36.520  1.00  0.00     0.057 A 
ATOM     71  C   UNL A   1      40.343  34.595  36.702  1.00  0.00     0.134 A 
ATOM     72  C   UNL A   1      38.724  33.046  37.540  1.00  0.00     0.134 A 
ATOM     73  F   UNL A   1      41.220  34.994  35.768  1.00  0.00    -0.206 F 
ATOM     74  C   UNL A   1      40.224  35.361  37.862  1.00  0.00     0.040 A 
ATOM     75  C   UNL A   1      38.575  33.817  38.695  1.00  0.00     0.040 A 
ATOM     76  F   UNL A   1      37.983  31.934  37.425  1.00  0.00    -0.206 F 
ATOM     77  C   UNL A   1      39.333  34.974  38.862  1.00  0.00     0.006 A 
ENDBRANCH  49  70
BRANCH  61  78
ATOM     78  C   UNL A   1      44.008  28.309  34.744  1.00  0.00     0.057 A 
ATOM     79  C   UNL A   1      45.303  28.826  34.628  1.00  0.00     0.134 A 
ATOM     80  C   UNL A   1      43.820  27.216  35.601  1.00  0.00     0.134 A 
ATOM     81  F   UNL A   1      45.551  29.864  33.815  1.00  0.00    -0.206 F 
ATOM     82  C   UNL A   1      46.374  28.270  35.330  1.00  0.00     0.040 A 
ATOM     83  C   UNL A   1      44.878  26.669  36.328  1.00  0.00     0.040 A 
ATOM     84  F   UNL A   1      42.603  26.679  35.764  1.00  0.00    -0.206 F 
ATOM     85  C   UNL A   1      46.160  27.195  36.192  1.00  0.00     0.006 A 
ENDBRANCH  61  78
ENDBRANCH  35  36
ENDBRANCH  27  30
ENDBRANCH  25  26
ENDBRANCH  24  25
ENDBRANCH  23  24
ENDBRANCH  22  23
ENDBRANCH  21  22
ENDBRANCH   1  21
TORSDOF 20
ENDMDL
