MODEL 1
REMARK VINA RESULT:     -12.7      0.000      0.000
REMARK SMILES C[N@@H+]1CC[C@H]2CN(C(=O)c3csc(-c4ccncc4)n3)C[C@@]2(C(=O)NCCCCCCNC(=O)c2ccc(-c3c4nc(c(-c5c(F)cccc5F)c5ccc([nH]5)c(-c5c(F)cccc5F)c5nc(c(-c6c(F)cccc6F)c6ccc3[nH]6)C=C5)C=C4)cc2)C1
REMARK SMILES IDX 28 1 27 2 26 3 25 4 23 5 24 6 22 8 1 9 2 10 3 11 89 12 4 14
REMARK SMILES IDX 5 15 21 16 6 17 7 18 8 19 9 20 10 21 11 22 20 23 12 24 13 25
REMARK SMILES IDX 14 26 15 27 19 28 16 29 18 30 17 31 29 32 30 33 31 34 32 35
REMARK SMILES IDX 33 36 34 38 35 39 36 40 88 41 37 42 87 43 38 44 39 45 40 46
REMARK SMILES IDX 81 47 41 48 86 49 80 50 82 51 42 52 85 53 79 54 78 55 43 57
REMARK SMILES IDX 69 58 52 59 68 60 53 61 56 62 67 63 83 64 54 65 55 66 66 68
REMARK SMILES IDX 84 69 57 70 44 71 45 72 50 73 46 74 47 75 49 76 51 77 48 78
REMARK SMILES IDX 70 79 71 80 76 81 72 82 73 83 75 84 77 85 74 86 58 87 59 88
REMARK SMILES IDX 64 89 60 90 61 91 63 92 65 93 62 94
REMARK H PARENT 25 7 2 13 32 37 82 56 56 67
REMARK Flexibility Score: inf
ROOT
ATOM      1  C   UNL A   1      37.143  23.236  24.743  1.00  0.00     0.002 C 
ENDROOT
BRANCH   1   2
ATOM      2  C   UNL A   1      36.195  23.743  25.833  1.00  0.00     0.021 C 
BRANCH   2   3
ATOM      3  C   UNL A   1      35.125  24.733  25.366  1.00  0.00     0.116 C 
BRANCH   3   4
ATOM      4  N   UNL A   1      34.540  24.557  24.028  1.00  0.00    -0.355 N 
ATOM      5  C   UNL A   1      33.591  25.231  23.280  1.00  0.00     0.234 C 
ATOM      6  O   UNL A   1      33.679  25.116  22.054  1.00  0.00    -0.274 OA
ATOM      7  H   UNL A   1      34.911  23.778  23.554  1.00  0.00     0.163 HD
BRANCH   5   8
ATOM      8  C   UNL A   1      32.388  25.949  23.930  1.00  0.00     0.120 C 
ATOM      9  C   UNL A   1      33.999  28.367  22.200  1.00  0.00     0.332 C 
ATOM     10  N   UNL A   1      32.759  28.337  22.977  1.00  0.00    -0.336 N 
ATOM     11  C   UNL A   1      33.023  28.847  24.325  1.00  0.00     0.262 C 
ATOM     12  C   UNL A   1      32.004  27.059  22.912  1.00  0.00     0.281 C 
ATOM     13  H   UNL A   1      32.091  28.968  22.534  1.00  0.00     0.347 HD
ATOM     14  C   UNL A   1      32.240  28.109  25.384  1.00  0.00     0.068 C 
ATOM     15  C   UNL A   1      32.583  26.614  25.348  1.00  0.00     0.037 C 
ATOM     16  C   UNL A   1      31.363  24.853  24.242  1.00  0.00     0.143 C 
ATOM     17  C   UNL A   1      31.628  25.917  26.325  1.00  0.00     0.125 C 
ATOM     18  N   UNL A   1      31.310  24.691  25.677  1.00  0.00    -0.336 N 
BRANCH  18  19
ATOM     19  C   UNL A   1      30.988  23.547  26.392  1.00  0.00     0.273 C 
ATOM     20  O   UNL A   1      30.000  23.487  27.117  1.00  0.00    -0.267 OA
BRANCH  19  21
ATOM     21  C   UNL A   1      31.919  22.411  26.282  1.00  0.00     0.139 A 
ATOM     22  C   UNL A   1      33.090  22.294  27.006  1.00  0.00     0.101 A 
ATOM     23  N   UNL A   1      31.721  21.385  25.346  1.00  0.00    -0.231 NA
ATOM     24  S   UNL A   1      33.939  20.876  26.543  1.00  0.00    -0.122 S 
ATOM     25  C   UNL A   1      32.738  20.550  25.356  1.00  0.00     0.124 A 
BRANCH  25  26
ATOM     26  C   UNL A   1      32.920  19.439  24.420  1.00  0.00     0.013 A 
ATOM     27  C   UNL A   1      32.145  19.378  23.258  1.00  0.00     0.031 A 
ATOM     28  C   UNL A   1      33.849  18.425  24.663  1.00  0.00     0.031 A 
ATOM     29  C   UNL A   1      32.349  18.324  22.383  1.00  0.00     0.111 A 
ATOM     30  C   UNL A   1      33.972  17.407  23.730  1.00  0.00     0.111 A 
ATOM     31  N   UNL A   1      33.249  17.340  22.594  1.00  0.00    -0.265 NA
ENDBRANCH  25  26
ENDBRANCH  19  21
ENDBRANCH  18  19
ENDBRANCH   5   8
ENDBRANCH   3   4
ENDBRANCH   2   3
ENDBRANCH   1   2
BRANCH   1  32
ATOM     32  C   UNL A   1      36.736  21.927  24.054  1.00  0.00     0.002 C 
BRANCH  32  33
ATOM     33  C   UNL A   1      37.370  20.645  24.605  1.00  0.00     0.021 C 
BRANCH  33  34
ATOM     34  C   UNL A   1      38.454  20.859  25.656  1.00  0.00     0.116 C 
BRANCH  34  35
ATOM     35  N   UNL A   1      39.431  19.782  25.661  1.00  0.00    -0.352 N 
ATOM     36  C   UNL A   1      40.772  19.816  25.956  1.00  0.00     0.251 C 
ATOM     37  H   UNL A   1      39.078  18.897  25.413  1.00  0.00     0.163 HD
ATOM     38  O   UNL A   1      41.485  18.851  25.702  1.00  0.00    -0.269 OA
BRANCH  36  39
ATOM     39  C   UNL A   1      41.364  21.027  26.563  1.00  0.00     0.039 A 
ATOM     40  C   UNL A   1      41.969  21.974  25.734  1.00  0.00     0.014 A 
ATOM     41  C   UNL A   1      41.320  21.226  27.945  1.00  0.00     0.014 A 
ATOM     42  C   UNL A   1      42.454  23.164  26.282  1.00  0.00     0.010 A 
ATOM     43  C   UNL A   1      41.744  22.439  28.481  1.00  0.00     0.010 A 
ATOM     44  C   UNL A   1      42.302  23.425  27.653  1.00  0.00    -0.014 A 
BRANCH  44  45
ATOM     45  C   UNL A   1      42.682  24.736  28.240  1.00  0.00     0.031 A 
ATOM     46  C   UNL A   1      41.646  25.804  28.446  1.00  0.00     0.074 A 
ATOM     47  C   UNL A   1      43.978  24.993  28.500  1.00  0.00     0.049 A 
ATOM     48  N   UNL A   1      41.804  27.044  28.835  1.00  0.00    -0.248 NA
ATOM     49  C   UNL A   1      40.252  25.437  28.154  1.00  0.00     0.031 C 
ATOM     50  C   UNL A   1      45.083  24.051  28.306  1.00  0.00     0.029 A 
ATOM     51  N   UNL A   1      44.591  26.130  28.964  1.00  0.00    -0.354 N 
ATOM     52  C   UNL A   1      40.535  27.608  28.822  1.00  0.00     0.074 A 
ATOM     53  C   UNL A   1      39.625  26.590  28.343  1.00  0.00     0.031 C 
ATOM     54  C   UNL A   1      46.235  24.645  28.659  1.00  0.00     0.029 A 
ATOM     55  C   UNL A   1      45.958  26.020  29.060  1.00  0.00     0.049 A 
ATOM     56  H   UNL A   1      44.098  26.947  29.207  1.00  0.00     0.167 HD
ATOM     57  C   UNL A   1      40.161  28.855  29.194  1.00  0.00     0.037 A 
ATOM     58  C   UNL A   1      46.885  26.930  29.412  1.00  0.00     0.037 A 
ATOM     59  C   UNL A   1      41.068  29.858  29.689  1.00  0.00     0.049 A 
ATOM     60  C   UNL A   1      46.449  28.319  29.786  1.00  0.00     0.074 A 
ATOM     61  C   UNL A   1      40.776  31.126  30.161  1.00  0.00     0.029 A 
ATOM     62  N   UNL A   1      42.445  29.709  29.769  1.00  0.00    -0.354 N 
ATOM     63  N   UNL A   1      45.238  28.817  29.837  1.00  0.00    -0.248 NA
ATOM     64  C   UNL A   1      47.507  29.275  30.142  1.00  0.00     0.031 C 
ATOM     65  C   UNL A   1      41.980  31.764  30.477  1.00  0.00     0.029 A 
ATOM     66  C   UNL A   1      43.019  30.876  30.247  1.00  0.00     0.049 A 
ATOM     67  H   UNL A   1      42.940  28.895  29.523  1.00  0.00     0.167 HD
ATOM     68  C   UNL A   1      45.385  30.136  30.248  1.00  0.00     0.074 A 
ATOM     69  C   UNL A   1      46.802  30.355  30.448  1.00  0.00     0.031 C 
ATOM     70  C   UNL A   1      44.431  31.081  30.437  1.00  0.00     0.037 A 
BRANCH  57  71
ATOM     71  C   UNL A   1      38.708  29.209  29.081  1.00  0.00     0.057 A 
ATOM     72  C   UNL A   1      37.850  29.172  30.189  1.00  0.00     0.134 A 
ATOM     73  C   UNL A   1      38.167  29.632  27.860  1.00  0.00     0.134 A 
ATOM     74  F   UNL A   1      38.303  28.766  31.386  1.00  0.00    -0.206 F 
ATOM     75  C   UNL A   1      36.503  29.522  30.082  1.00  0.00     0.040 A 
ATOM     76  C   UNL A   1      36.828  30.009  27.746  1.00  0.00     0.040 A 
ATOM     77  F   UNL A   1      38.933  29.697  26.761  1.00  0.00    -0.206 F 
ATOM     78  C   UNL A   1      35.990  29.948  28.858  1.00  0.00     0.006 A 
ENDBRANCH  57  71
BRANCH  58  79
ATOM     79  C   UNL A   1      48.323  26.557  29.427  1.00  0.00     0.057 A 
ATOM     80  C   UNL A   1      48.904  25.975  30.559  1.00  0.00     0.134 A 
ATOM     81  C   UNL A   1      49.149  26.778  28.319  1.00  0.00     0.134 A 
ATOM     82  F   UNL A   1      48.169  25.756  31.659  1.00  0.00    -0.206 F 
ATOM     83  C   UNL A   1      50.259  25.639  30.595  1.00  0.00     0.040 A 
ATOM     84  C   UNL A   1      50.500  26.426  28.332  1.00  0.00     0.040 A 
ATOM     85  F   UNL A   1      48.651  27.327  27.201  1.00  0.00    -0.206 F 
ATOM     86  C   UNL A   1      51.059  25.859  29.475  1.00  0.00     0.006 A 
ENDBRANCH  58  79
BRANCH  70  87
ATOM     87  C   UNL A   1      44.887  32.435  30.892  1.00  0.00     0.057 A 
ATOM     88  C   UNL A   1      45.065  32.731  32.249  1.00  0.00     0.134 A 
ATOM     89  C   UNL A   1      45.203  33.434  29.963  1.00  0.00     0.134 A 
ATOM     90  F   UNL A   1      44.766  31.822  33.188  1.00  0.00    -0.206 F 
ATOM     91  C   UNL A   1      45.532  33.979  32.667  1.00  0.00     0.040 A 
ATOM     92  C   UNL A   1      45.694  34.677  30.368  1.00  0.00     0.040 A 
ATOM     93  F   UNL A   1      45.061  33.211  28.648  1.00  0.00    -0.206 F 
ATOM     94  C   UNL A   1      45.855  34.953  31.724  1.00  0.00     0.006 A 
ENDBRANCH  70  87
ENDBRANCH  44  45
ENDBRANCH  36  39
ENDBRANCH  34  35
ENDBRANCH  33  34
ENDBRANCH  32  33
ENDBRANCH   1  32
TORSDOF 16
ENDMDL
MODEL 2
REMARK VINA RESULT:     -12.6      4.017      8.216
REMARK SMILES C[N@@H+]1CC[C@H]2CN(C(=O)c3csc(-c4ccncc4)n3)C[C@@]2(C(=O)NCCCCCCNC(=O)c2ccc(-c3c4nc(c(-c5c(F)cccc5F)c5ccc([nH]5)c(-c5c(F)cccc5F)c5nc(c(-c6c(F)cccc6F)c6ccc3[nH]6)C=C5)C=C4)cc2)C1
REMARK SMILES IDX 28 1 27 2 26 3 25 4 23 5 24 6 22 8 1 9 2 10 3 11 89 12 4 14
REMARK SMILES IDX 5 15 21 16 6 17 7 18 8 19 9 20 10 21 11 22 20 23 12 24 13 25
REMARK SMILES IDX 14 26 15 27 19 28 16 29 18 30 17 31 29 32 30 33 31 34 32 35
REMARK SMILES IDX 33 36 34 38 35 39 36 40 88 41 37 42 87 43 38 44 39 45 40 46
REMARK SMILES IDX 81 47 41 48 86 49 80 50 82 51 42 52 85 53 79 54 78 55 43 57
REMARK SMILES IDX 69 58 52 59 68 60 53 61 56 62 67 63 83 64 54 65 55 66 66 68
REMARK SMILES IDX 84 69 57 70 44 71 45 72 50 73 46 74 47 75 49 76 51 77 48 78
REMARK SMILES IDX 70 79 71 80 76 81 72 82 73 83 75 84 77 85 74 86 58 87 59 88
REMARK SMILES IDX 64 89 60 90 61 91 63 92 65 93 62 94
REMARK H PARENT 25 7 2 13 32 37 82 56 56 67
REMARK Flexibility Score: inf
ROOT
ATOM      1  C   UNL A   1      32.362  29.979  27.065  1.00  0.00     0.002 C 
ENDROOT
BRANCH   1   2
ATOM      2  C   UNL A   1      31.794  28.627  27.503  1.00  0.00     0.021 C 
BRANCH   2   3
ATOM      3  C   UNL A   1      32.602  27.402  27.068  1.00  0.00     0.116 C 
BRANCH   3   4
ATOM      4  N   UNL A   1      33.321  27.452  25.786  1.00  0.00    -0.355 N 
ATOM      5  C   UNL A   1      32.962  27.303  24.459  1.00  0.00     0.234 C 
ATOM      6  O   UNL A   1      33.686  27.864  23.631  1.00  0.00    -0.274 OA
ATOM      7  H   UNL A   1      34.282  27.634  25.899  1.00  0.00     0.163 HD
BRANCH   5   8
ATOM      8  C   UNL A   1      31.827  26.356  24.013  1.00  0.00     0.120 C 
ATOM      9  C   UNL A   1      31.347  29.176  22.212  1.00  0.00     0.332 C 
ATOM     10  N   UNL A   1      30.689  27.869  22.235  1.00  0.00    -0.336 N 
ATOM     11  C   UNL A   1      29.481  27.951  23.061  1.00  0.00     0.262 C 
ATOM     12  C   UNL A   1      31.583  26.718  22.521  1.00  0.00     0.281 C 
ATOM     13  H   UNL A   1      30.397  27.643  21.284  1.00  0.00     0.347 HD
ATOM     14  C   UNL A   1      29.246  26.696  23.865  1.00  0.00     0.068 C 
ATOM     15  C   UNL A   1      30.447  26.420  24.778  1.00  0.00     0.037 C 
ATOM     16  C   UNL A   1      32.303  24.938  24.357  1.00  0.00     0.143 C 
ATOM     17  C   UNL A   1      30.207  25.050  25.424  1.00  0.00     0.125 C 
ATOM     18  N   UNL A   1      31.499  24.456  25.457  1.00  0.00    -0.336 N 
BRANCH  18  19
ATOM     19  C   UNL A   1      31.858  23.537  26.431  1.00  0.00     0.273 C 
ATOM     20  O   UNL A   1      31.433  23.604  27.580  1.00  0.00    -0.267 OA
BRANCH  19  21
ATOM     21  C   UNL A   1      32.821  22.494  26.039  1.00  0.00     0.139 A 
ATOM     22  C   UNL A   1      34.190  22.607  26.184  1.00  0.00     0.101 A 
ATOM     23  N   UNL A   1      32.411  21.319  25.392  1.00  0.00    -0.231 NA
ATOM     24  S   UNL A   1      34.976  21.223  25.540  1.00  0.00    -0.122 S 
ATOM     25  C   UNL A   1      33.453  20.598  25.038  1.00  0.00     0.124 A 
BRANCH  25  26
ATOM     26  C   UNL A   1      33.395  19.377  24.233  1.00  0.00     0.013 A 
ATOM     27  C   UNL A   1      34.330  18.361  24.445  1.00  0.00     0.031 A 
ATOM     28  C   UNL A   1      32.424  19.202  23.244  1.00  0.00     0.031 A 
ATOM     29  C   UNL A   1      34.241  17.211  23.678  1.00  0.00     0.111 A 
ATOM     30  C   UNL A   1      32.425  18.018  22.524  1.00  0.00     0.111 A 
ATOM     31  N   UNL A   1      33.306  17.017  22.725  1.00  0.00    -0.265 NA
ENDBRANCH  25  26
ENDBRANCH  19  21
ENDBRANCH  18  19
ENDBRANCH   5   8
ENDBRANCH   3   4
ENDBRANCH   2   3
ENDBRANCH   1   2
BRANCH   1  32
ATOM     32  C   UNL A   1      31.460  30.824  26.156  1.00  0.00     0.002 C 
BRANCH  32  33
ATOM     33  C   UNL A   1      31.386  32.321  26.477  1.00  0.00     0.021 C 
BRANCH  33  34
ATOM     34  C   UNL A   1      32.568  32.873  27.265  1.00  0.00     0.116 C 
BRANCH  34  35
ATOM     35  N   UNL A   1      32.387  34.274  27.612  1.00  0.00    -0.352 N 
ATOM     36  C   UNL A   1      33.008  35.025  28.581  1.00  0.00     0.251 C 
ATOM     37  H   UNL A   1      31.717  34.755  27.074  1.00  0.00     0.163 HD
ATOM     38  O   UNL A   1      32.576  36.135  28.873  1.00  0.00    -0.269 OA
BRANCH  36  39
ATOM     39  C   UNL A   1      34.187  34.484  29.291  1.00  0.00     0.039 A 
ATOM     40  C   UNL A   1      34.012  33.892  30.543  1.00  0.00     0.014 A 
ATOM     41  C   UNL A   1      35.459  34.562  28.719  1.00  0.00     0.014 A 
ATOM     42  C   UNL A   1      35.101  33.299  31.186  1.00  0.00     0.010 A 
ATOM     43  C   UNL A   1      36.531  33.914  29.330  1.00  0.00     0.010 A 
ATOM     44  C   UNL A   1      36.359  33.265  30.562  1.00  0.00    -0.014 A 
BRANCH  44  45
ATOM     45  C   UNL A   1      37.500  32.523  31.156  1.00  0.00     0.031 A 
ATOM     46  C   UNL A   1      38.159  33.021  32.410  1.00  0.00     0.074 A 
ATOM     47  C   UNL A   1      37.998  31.450  30.511  1.00  0.00     0.049 A 
ATOM     48  N   UNL A   1      39.233  32.576  33.012  1.00  0.00    -0.248 NA
ATOM     49  C   UNL A   1      37.544  34.187  33.062  1.00  0.00     0.031 C 
ATOM     50  C   UNL A   1      37.470  30.891  29.265  1.00  0.00     0.029 A 
ATOM     51  N   UNL A   1      39.073  30.649  30.803  1.00  0.00    -0.354 N 
ATOM     52  C   UNL A   1      39.430  33.413  34.102  1.00  0.00     0.074 A 
ATOM     53  C   UNL A   1      38.391  34.420  34.054  1.00  0.00     0.031 C 
ATOM     54  C   UNL A   1      38.215  29.834  28.906  1.00  0.00     0.029 A 
ATOM     55  C   UNL A   1      39.298  29.665  29.868  1.00  0.00     0.049 A 
ATOM     56  H   UNL A   1      39.632  30.766  31.605  1.00  0.00     0.167 HD
ATOM     57  C   UNL A   1      40.379  33.337  35.066  1.00  0.00     0.037 A 
ATOM     58  C   UNL A   1      40.277  28.746  29.786  1.00  0.00     0.037 A 
ATOM     59  C   UNL A   1      41.398  32.321  35.119  1.00  0.00     0.049 A 
ATOM     60  C   UNL A   1      41.341  28.705  30.848  1.00  0.00     0.074 A 
ATOM     61  C   UNL A   1      42.359  32.117  36.095  1.00  0.00     0.029 A 
ATOM     62  N   UNL A   1      41.593  31.345  34.154  1.00  0.00    -0.354 N 
ATOM     63  N   UNL A   1      41.472  29.459  31.912  1.00  0.00    -0.248 NA
ATOM     64  C   UNL A   1      42.395  27.693  30.694  1.00  0.00     0.031 C 
ATOM     65  C   UNL A   1      43.168  31.048  35.693  1.00  0.00     0.029 A 
ATOM     66  C   UNL A   1      42.683  30.559  34.491  1.00  0.00     0.049 A 
ATOM     67  H   UNL A   1      41.040  31.229  33.348  1.00  0.00     0.167 HD
ATOM     68  C   UNL A   1      42.611  29.002  32.564  1.00  0.00     0.074 A 
ATOM     69  C   UNL A   1      43.123  27.894  31.784  1.00  0.00     0.031 C 
ATOM     70  C   UNL A   1      43.183  29.462  33.703  1.00  0.00     0.037 A 
BRANCH  57  71
ATOM     71  C   UNL A   1      40.361  34.382  36.142  1.00  0.00     0.057 A 
ATOM     72  C   UNL A   1      41.089  35.573  36.027  1.00  0.00     0.134 A 
ATOM     73  C   UNL A   1      39.574  34.215  37.289  1.00  0.00     0.134 A 
ATOM     74  F   UNL A   1      41.871  35.792  34.957  1.00  0.00    -0.206 F 
ATOM     75  C   UNL A   1      41.054  36.551  37.022  1.00  0.00     0.040 A 
ATOM     76  C   UNL A   1      39.510  35.196  38.279  1.00  0.00     0.040 A 
ATOM     77  F   UNL A   1      38.848  33.101  37.460  1.00  0.00    -0.206 F 
ATOM     78  C   UNL A   1      40.256  36.366  38.150  1.00  0.00     0.006 A 
ENDBRANCH  57  71
BRANCH  58  79
ATOM     79  C   UNL A   1      40.301  27.786  28.653  1.00  0.00     0.057 A 
ATOM     80  C   UNL A   1      39.624  26.563  28.731  1.00  0.00     0.134 A 
ATOM     81  C   UNL A   1      41.001  28.062  27.472  1.00  0.00     0.134 A 
ATOM     82  F   UNL A   1      38.952  26.234  29.843  1.00  0.00    -0.206 F 
ATOM     83  C   UNL A   1      39.656  25.642  27.681  1.00  0.00     0.040 A 
ATOM     84  C   UNL A   1      41.021  27.161  26.406  1.00  0.00     0.040 A 
ATOM     85  F   UNL A   1      41.664  29.220  27.333  1.00  0.00    -0.206 F 
ATOM     86  C   UNL A   1      40.351  25.944  26.512  1.00  0.00     0.006 A 
ENDBRANCH  58  79
BRANCH  70  87
ATOM     87  C   UNL A   1      44.421  28.764  34.181  1.00  0.00     0.057 A 
ATOM     88  C   UNL A   1      44.353  27.626  34.993  1.00  0.00     0.134 A 
ATOM     89  C   UNL A   1      45.690  29.202  33.782  1.00  0.00     0.134 A 
ATOM     90  F   UNL A   1      43.169  27.165  35.422  1.00  0.00    -0.206 F 
ATOM     91  C   UNL A   1      45.507  26.952  35.400  1.00  0.00     0.040 A 
ATOM     92  C   UNL A   1      46.848  28.523  34.162  1.00  0.00     0.040 A 
ATOM     93  F   UNL A   1      45.822  30.283  32.998  1.00  0.00    -0.206 F 
ATOM     94  C   UNL A   1      46.758  27.397  34.977  1.00  0.00     0.006 A 
ENDBRANCH  70  87
ENDBRANCH  44  45
ENDBRANCH  36  39
ENDBRANCH  34  35
ENDBRANCH  33  34
ENDBRANCH  32  33
ENDBRANCH   1  32
TORSDOF 16
ENDMDL
MODEL 3
REMARK VINA RESULT:     -12.5      3.991      8.453
REMARK SMILES C[N@@H+]1CC[C@H]2CN(C(=O)c3csc(-c4ccncc4)n3)C[C@@]2(C(=O)NCCCCCCNC(=O)c2ccc(-c3c4nc(c(-c5c(F)cccc5F)c5ccc([nH]5)c(-c5c(F)cccc5F)c5nc(c(-c6c(F)cccc6F)c6ccc3[nH]6)C=C5)C=C4)cc2)C1
REMARK SMILES IDX 28 1 27 2 26 3 25 4 23 5 24 6 22 8 1 9 2 10 3 11 89 12 4 14
REMARK SMILES IDX 5 15 21 16 6 17 7 18 8 19 9 20 10 21 11 22 20 23 12 24 13 25
REMARK SMILES IDX 14 26 15 27 19 28 16 29 18 30 17 31 29 32 30 33 31 34 32 35
REMARK SMILES IDX 33 36 34 38 35 39 36 40 88 41 37 42 87 43 38 44 39 45 40 46
REMARK SMILES IDX 81 47 41 48 86 49 80 50 82 51 42 52 85 53 79 54 78 55 43 57
REMARK SMILES IDX 69 58 52 59 68 60 53 61 56 62 67 63 83 64 54 65 55 66 66 68
REMARK SMILES IDX 84 69 57 70 44 71 45 72 50 73 46 74 47 75 49 76 51 77 48 78
REMARK SMILES IDX 70 79 71 80 76 81 72 82 73 83 75 84 77 85 74 86 58 87 59 88
REMARK SMILES IDX 64 89 60 90 61 91 63 92 65 93 62 94
REMARK H PARENT 25 7 2 13 32 37 82 56 56 67
REMARK Flexibility Score: inf
ROOT
ATOM      1  C   UNL A   1      33.233  29.897  26.128  1.00  0.00     0.002 C 
ENDROOT
BRANCH   1   2
ATOM      2  C   UNL A   1      33.603  28.776  27.103  1.00  0.00     0.021 C 
BRANCH   2   3
ATOM      3  C   UNL A   1      33.124  27.376  26.710  1.00  0.00     0.116 C 
BRANCH   3   4
ATOM      4  N   UNL A   1      33.703  26.744  25.515  1.00  0.00    -0.355 N 
ATOM      5  C   UNL A   1      33.249  26.470  24.237  1.00  0.00     0.234 C 
ATOM      6  O   UNL A   1      34.112  26.374  23.360  1.00  0.00    -0.274 OA
ATOM      7  H   UNL A   1      34.631  26.448  25.658  1.00  0.00     0.163 HD
BRANCH   5   8
ATOM      8  C   UNL A   1      31.771  26.133  23.943  1.00  0.00     0.120 C 
ATOM      9  C   UNL A   1      32.361  28.985  22.225  1.00  0.00     0.332 C 
ATOM     10  N   UNL A   1      31.207  28.091  22.332  1.00  0.00    -0.336 N 
ATOM     11  C   UNL A   1      30.261  28.638  23.309  1.00  0.00     0.262 C 
ATOM     12  C   UNL A   1      31.537  26.652  22.496  1.00  0.00     0.281 C 
ATOM     13  H   UNL A   1      30.736  28.070  21.427  1.00  0.00     0.347 HD
ATOM     14  C   UNL A   1      29.599  27.562  24.135  1.00  0.00     0.068 C 
ATOM     15  C   UNL A   1      30.658  26.742  24.882  1.00  0.00     0.037 C 
ATOM     16  C   UNL A   1      31.619  24.632  24.218  1.00  0.00     0.143 C 
ATOM     17  C   UNL A   1      29.922  25.574  25.551  1.00  0.00     0.125 C 
ATOM     18  N   UNL A   1      30.821  24.479  25.413  1.00  0.00    -0.336 N 
BRANCH  18  19
ATOM     19  C   UNL A   1      30.855  23.440  26.330  1.00  0.00     0.273 C 
ATOM     20  O   UNL A   1      30.090  23.389  27.288  1.00  0.00    -0.267 OA
BRANCH  19  21
ATOM     21  C   UNL A   1      31.892  22.413  26.132  1.00  0.00     0.139 A 
ATOM     22  C   UNL A   1      33.180  22.506  26.623  1.00  0.00     0.101 A 
ATOM     23  N   UNL A   1      31.665  21.281  25.336  1.00  0.00    -0.231 NA
ATOM     24  S   UNL A   1      34.110  21.155  26.119  1.00  0.00    -0.122 S 
ATOM     25  C   UNL A   1      32.767  20.573  25.215  1.00  0.00     0.124 A 
BRANCH  25  26
ATOM     26  C   UNL A   1      32.921  19.401  24.351  1.00  0.00     0.013 A 
ATOM     27  C   UNL A   1      33.773  18.363  24.736  1.00  0.00     0.031 A 
ATOM     28  C   UNL A   1      32.238  19.295  23.137  1.00  0.00     0.031 A 
ATOM     29  C   UNL A   1      33.886  17.259  23.907  1.00  0.00     0.111 A 
ATOM     30  C   UNL A   1      32.426  18.155  22.373  1.00  0.00     0.111 A 
ATOM     31  N   UNL A   1      33.228  17.133  22.735  1.00  0.00    -0.265 NA
ENDBRANCH  25  26
ENDBRANCH  19  21
ENDBRANCH  18  19
ENDBRANCH   5   8
ENDBRANCH   3   4
ENDBRANCH   2   3
ENDBRANCH   1   2
BRANCH   1  32
ATOM     32  C   UNL A   1      31.766  30.347  26.148  1.00  0.00     0.002 C 
BRANCH  32  33
ATOM     33  C   UNL A   1      31.507  31.792  26.590  1.00  0.00     0.021 C 
BRANCH  33  34
ATOM     34  C   UNL A   1      32.673  32.471  27.300  1.00  0.00     0.116 C 
BRANCH  34  35
ATOM     35  N   UNL A   1      32.405  33.874  27.571  1.00  0.00    -0.352 N 
ATOM     36  C   UNL A   1      33.002  34.724  28.470  1.00  0.00     0.251 C 
ATOM     37  H   UNL A   1      31.686  34.275  27.030  1.00  0.00     0.163 HD
ATOM     38  O   UNL A   1      32.504  35.818  28.711  1.00  0.00    -0.269 OA
BRANCH  36  39
ATOM     39  C   UNL A   1      34.239  34.310  29.167  1.00  0.00     0.039 A 
ATOM     40  C   UNL A   1      34.138  33.679  30.409  1.00  0.00     0.014 A 
ATOM     41  C   UNL A   1      35.491  34.543  28.594  1.00  0.00     0.014 A 
ATOM     42  C   UNL A   1      35.291  33.203  31.038  1.00  0.00     0.010 A 
ATOM     43  C   UNL A   1      36.633  34.012  29.190  1.00  0.00     0.010 A 
ATOM     44  C   UNL A   1      36.542  33.325  30.411  1.00  0.00    -0.014 A 
BRANCH  44  45
ATOM     45  C   UNL A   1      37.763  32.708  30.989  1.00  0.00     0.031 A 
ATOM     46  C   UNL A   1      38.359  31.478  30.367  1.00  0.00     0.074 A 
ATOM     47  C   UNL A   1      38.278  33.207  32.130  1.00  0.00     0.049 A 
ATOM     48  N   UNL A   1      39.349  30.734  30.793  1.00  0.00    -0.248 NA
ATOM     49  C   UNL A   1      37.748  31.008  29.114  1.00  0.00     0.031 C 
ATOM     50  C   UNL A   1      37.766  34.374  32.851  1.00  0.00     0.029 A 
ATOM     51  N   UNL A   1      39.335  32.782  32.895  1.00  0.00    -0.354 N 
ATOM     52  C   UNL A   1      39.470  29.703  29.870  1.00  0.00     0.074 A 
ATOM     53  C   UNL A   1      38.425  29.891  28.886  1.00  0.00     0.031 C 
ATOM     54  C   UNL A   1      38.515  34.578  33.946  1.00  0.00     0.029 A 
ATOM     55  C   UNL A   1      39.531  33.534  34.030  1.00  0.00     0.049 A 
ATOM     56  H   UNL A   1      39.901  32.013  32.655  1.00  0.00     0.167 HD
ATOM     57  C   UNL A   1      40.383  28.703  29.835  1.00  0.00     0.037 A 
ATOM     58  C   UNL A   1      40.415  33.387  35.034  1.00  0.00     0.037 A 
ATOM     59  C   UNL A   1      41.434  28.533  30.805  1.00  0.00     0.049 A 
ATOM     60  C   UNL A   1      41.394  32.247  34.992  1.00  0.00     0.074 A 
ATOM     61  C   UNL A   1      42.451  27.594  30.816  1.00  0.00     0.029 A 
ATOM     62  N   UNL A   1      41.597  29.313  31.940  1.00  0.00    -0.354 N 
ATOM     63  N   UNL A   1      41.543  31.322  34.076  1.00  0.00    -0.248 NA
ATOM     64  C   UNL A   1      42.322  32.125  36.126  1.00  0.00     0.031 C 
ATOM     65  C   UNL A   1      43.199  27.774  31.985  1.00  0.00     0.029 A 
ATOM     66  C   UNL A   1      42.675  28.854  32.678  1.00  0.00     0.049 A 
ATOM     67  H   UNL A   1      41.030  30.080  32.185  1.00  0.00     0.167 HD
ATOM     68  C   UNL A   1      42.590  30.520  34.511  1.00  0.00     0.074 A 
ATOM     69  C   UNL A   1      43.051  31.078  35.766  1.00  0.00     0.031 C 
ATOM     70  C   UNL A   1      43.119  29.417  33.926  1.00  0.00     0.037 A 
BRANCH  57  71
ATOM     71  C   UNL A   1      40.288  27.713  28.712  1.00  0.00     0.057 A 
ATOM     72  C   UNL A   1      40.951  27.912  27.495  1.00  0.00     0.134 A 
ATOM     73  C   UNL A   1      39.560  26.526  28.865  1.00  0.00     0.134 A 
ATOM     74  F   UNL A   1      41.659  29.032  27.280  1.00  0.00    -0.206 F 
ATOM     75  C   UNL A   1      40.876  26.977  26.460  1.00  0.00     0.040 A 
ATOM     76  C   UNL A   1      39.498  25.572  27.847  1.00  0.00     0.040 A 
ATOM     77  F   UNL A   1      38.906  26.270  30.007  1.00  0.00    -0.206 F 
ATOM     78  C   UNL A   1      40.152  25.800  26.638  1.00  0.00     0.006 A 
ENDBRANCH  57  71
BRANCH  58  79
ATOM     79  C   UNL A   1      40.415  34.345  36.170  1.00  0.00     0.057 A 
ATOM     80  C   UNL A   1      41.169  35.523  36.118  1.00  0.00     0.134 A 
ATOM     81  C   UNL A   1      39.670  34.105  37.331  1.00  0.00     0.134 A 
ATOM     82  F   UNL A   1      41.918  35.798  35.041  1.00  0.00    -0.206 F 
ATOM     83  C   UNL A   1      41.195  36.421  37.187  1.00  0.00     0.040 A 
ATOM     84  C   UNL A   1      39.668  35.007  38.397  1.00  0.00     0.040 A 
ATOM     85  F   UNL A   1      38.921  32.997  37.439  1.00  0.00    -0.206 F 
ATOM     86  C   UNL A   1      40.437  36.166  38.328  1.00  0.00     0.006 A 
ENDBRANCH  58  79
BRANCH  70  87
ATOM     87  C   UNL A   1      44.261  28.747  34.630  1.00  0.00     0.057 A 
ATOM     88  C   UNL A   1      44.051  27.700  35.536  1.00  0.00     0.134 A 
ATOM     89  C   UNL A   1      45.585  29.113  34.359  1.00  0.00     0.134 A 
ATOM     90  F   UNL A   1      42.806  27.312  35.850  1.00  0.00    -0.206 F 
ATOM     91  C   UNL A   1      45.118  27.048  36.156  1.00  0.00     0.040 A 
ATOM     92  C   UNL A   1      46.661  28.453  34.953  1.00  0.00     0.040 A 
ATOM     93  F   UNL A   1      45.854  30.104  33.495  1.00  0.00    -0.206 F 
ATOM     94  C   UNL A   1      46.428  27.419  35.859  1.00  0.00     0.006 A 
ENDBRANCH  70  87
ENDBRANCH  44  45
ENDBRANCH  36  39
ENDBRANCH  34  35
ENDBRANCH  33  34
ENDBRANCH  32  33
ENDBRANCH   1  32
TORSDOF 16
ENDMDL
