MODEL 1
REMARK VINA RESULT:     -12.0      0.000      0.000
REMARK SMILES CCCc1cc(S(F)(F)(F)(F)F)cc2c1O[C@@H](C(F)(F)F)C(C(=O)NCCCCCCNC(=O)c1ccc(-c3c4nc(c(-c5c(F)cccc5F)c5ccc([nH]5)c(-c5c(F)cccc5F)c5nc(c(-c6c(F)cccc6F)c6ccc3[nH]6)C=C5)C=C4)cc1)=C2
REMARK SMILES IDX 28 1 27 2 26 3 25 4 23 5 24 6 22 8 4 9 5 10 15 11 6 12 14 13
REMARK SMILES IDX 16 14 13 15 89 16 17 17 3 18 2 19 1 20 7 21 8 22 9 23 10 24
REMARK SMILES IDX 11 25 12 26 18 27 19 28 20 29 21 30 29 31 30 32 31 33 32 34
REMARK SMILES IDX 33 35 34 37 35 38 36 39 88 40 37 41 87 42 38 43 39 44 40 45
REMARK SMILES IDX 81 46 41 47 86 48 80 49 82 50 42 51 85 52 79 53 78 54 43 56
REMARK SMILES IDX 69 57 52 58 68 59 53 60 56 61 67 62 83 63 54 64 55 65 66 67
REMARK SMILES IDX 84 68 57 69 44 70 45 71 50 72 46 73 47 74 49 75 51 76 48 77
REMARK SMILES IDX 70 78 71 79 76 80 72 81 73 82 75 83 77 84 74 85 58 86 59 87
REMARK SMILES IDX 64 88 60 89 61 90 63 91 65 92 62 93
REMARK H PARENT 25 7 32 36 82 55 56 66
REMARK Flexibility Score: inf
ROOT
ATOM      1  C   UNL A   1      38.591  22.071  25.677  1.00  0.00     0.002 C 
ENDROOT
BRANCH   1   2
ATOM      2  C   UNL A   1      37.680  23.189  26.157  1.00  0.00     0.021 C 
BRANCH   2   3
ATOM      3  C   UNL A   1      36.262  22.931  25.673  1.00  0.00     0.116 C 
BRANCH   3   4
ATOM      4  N   UNL A   1      35.598  21.987  26.583  1.00  0.00    -0.352 N 
ATOM      5  C   UNL A   1      34.164  22.130  26.875  1.00  0.00     0.251 C 
ATOM      6  O   UNL A   1      33.591  21.314  27.662  1.00  0.00    -0.270 OA
ATOM      7  H   UNL A   1      36.114  21.257  26.997  1.00  0.00     0.163 HD
BRANCH   5   8
ATOM      8  C   UNL A   1      33.368  23.256  26.235  1.00  0.00     0.067 C 
ATOM      9  C   UNL A   1      31.505  26.312  24.080  1.00  0.00    -0.004 A 
ATOM     10  C   UNL A   1      31.558  27.614  24.545  1.00  0.00     0.032 A 
ATOM     11  C   UNL A   1      32.172  25.336  24.780  1.00  0.00     0.131 A 
ATOM     12  C   UNL A   1      32.261  27.931  25.676  1.00  0.00     0.108 A 
ATOM     13  C   UNL A   1      32.877  25.615  25.937  1.00  0.00     0.019 A 
ATOM     14  O   UNL A   1      32.206  24.070  24.247  1.00  0.00    -0.475 OA
ATOM     15  C   UNL A   1      32.913  26.935  26.373  1.00  0.00     0.036 A 
ATOM     16  C   UNL A   1      33.580  24.520  26.582  1.00  0.00     0.025 C 
ATOM     17  C   UNL A   1      32.311  22.959  25.181  1.00  0.00     0.314 C 
BRANCH   9  18
ATOM     18  C   UNL A   1      30.765  26.049  22.780  1.00  0.00     0.039 C 
BRANCH  18  19
ATOM     19  C   UNL A   1      31.549  26.647  21.622  1.00  0.00     0.001 C 
ATOM     20  C   UNL A   1      32.553  25.627  21.110  1.00  0.00     0.004 C 
ENDBRANCH  18  19
ENDBRANCH   9  18
BRANCH  12  21
ATOM     21  S   UNL A   1      32.336  29.645  26.254  1.00  0.00     0.310 S 
ATOM     22  F   UNL A   1      31.101  30.148  25.395  1.00  0.00    -0.094 F 
ATOM     23  F   UNL A   1      33.236  29.914  24.989  1.00  0.00    -0.094 F 
ATOM     24  F   UNL A   1      32.522  31.113  26.732  1.00  0.00    -0.094 F 
ATOM     25  F   UNL A   1      31.319  29.397  27.436  1.00  0.00    -0.094 F 
ATOM     26  F   UNL A   1      32.047  28.186  25.718  1.00  0.00    -0.094 F 
ENDBRANCH  12  21
BRANCH  17  27
ATOM     27  C   UNL A   1      32.709  21.706  24.417  1.00  0.00     0.429 C 
ATOM     28  F   UNL A   1      31.936  21.578  23.342  1.00  0.00    -0.167 F 
ATOM     29  F   UNL A   1      33.980  21.801  24.040  1.00  0.00    -0.167 F 
ATOM     30  F   UNL A   1      32.557  20.643  25.202  1.00  0.00    -0.167 F 
ENDBRANCH  17  27
ENDBRANCH   5   8
ENDBRANCH   3   4
ENDBRANCH   2   3
ENDBRANCH   1   2
BRANCH   1  31
ATOM     31  C   UNL A   1      37.812  21.140  24.762  1.00  0.00     0.002 C 
BRANCH  31  32
ATOM     32  C   UNL A   1      38.314  19.717  24.942  1.00  0.00     0.021 C 
BRANCH  32  33
ATOM     33  C   UNL A   1      39.301  19.669  26.097  1.00  0.00     0.116 C 
BRANCH  33  34
ATOM     34  N   UNL A   1      40.454  18.836  25.721  1.00  0.00    -0.352 N 
ATOM     35  C   UNL A   1      41.820  19.340  25.919  1.00  0.00     0.251 C 
ATOM     36  H   UNL A   1      40.310  17.942  25.336  1.00  0.00     0.163 HD
ATOM     37  O   UNL A   1      42.816  18.620  25.594  1.00  0.00    -0.269 OA
BRANCH  35  38
ATOM     38  C   UNL A   1      42.042  20.722  26.512  1.00  0.00     0.039 A 
ATOM     39  C   UNL A   1      41.963  20.954  27.875  1.00  0.00     0.014 A 
ATOM     40  C   UNL A   1      42.355  21.695  25.664  1.00  0.00     0.014 A 
ATOM     41  C   UNL A   1      41.950  22.325  28.223  1.00  0.00     0.010 A 
ATOM     42  C   UNL A   1      42.460  22.994  26.099  1.00  0.00     0.010 A 
ATOM     43  C   UNL A   1      42.334  23.305  27.425  1.00  0.00    -0.014 A 
BRANCH  43  44
ATOM     44  C   UNL A   1      42.622  24.701  27.951  1.00  0.00     0.031 A 
ATOM     45  C   UNL A   1      43.954  24.945  28.293  1.00  0.00     0.074 A 
ATOM     46  C   UNL A   1      41.600  25.619  28.116  1.00  0.00     0.049 A 
ATOM     47  N   UNL A   1      44.473  26.069  28.789  1.00  0.00    -0.248 NA
ATOM     48  C   UNL A   1      45.035  23.960  28.149  1.00  0.00     0.031 C 
ATOM     49  C   UNL A   1      40.255  25.383  27.766  1.00  0.00     0.029 A 
ATOM     50  N   UNL A   1      41.683  26.892  28.636  1.00  0.00    -0.354 N 
ATOM     51  C   UNL A   1      45.788  25.928  28.970  1.00  0.00     0.074 A 
ATOM     52  C   UNL A   1      46.167  24.567  28.567  1.00  0.00     0.031 C 
ATOM     53  C   UNL A   1      39.538  26.494  28.081  1.00  0.00     0.029 A 
ATOM     54  C   UNL A   1      40.420  27.442  28.632  1.00  0.00     0.049 A 
ATOM     55  H   UNL A   1      42.504  27.333  28.955  1.00  0.00     0.167 HD
ATOM     56  C   UNL A   1      46.686  26.881  29.455  1.00  0.00     0.037 A 
ATOM     57  C   UNL A   1      40.039  28.697  29.081  1.00  0.00     0.037 A 
ATOM     58  C   UNL A   1      46.311  28.152  29.863  1.00  0.00     0.049 A 
ATOM     59  C   UNL A   1      40.928  29.630  29.619  1.00  0.00     0.074 A 
ATOM     60  C   UNL A   1      47.204  29.127  30.346  1.00  0.00     0.029 A 
ATOM     61  N   UNL A   1      45.045  28.693  29.881  1.00  0.00    -0.354 N 
ATOM     62  N   UNL A   1      42.247  29.503  29.763  1.00  0.00    -0.248 NA
ATOM     63  C   UNL A   1      40.530  30.950  30.128  1.00  0.00     0.031 C 
ATOM     64  C   UNL A   1      46.485  30.238  30.660  1.00  0.00     0.029 A 
ATOM     65  C   UNL A   1      45.130  29.973  30.379  1.00  0.00     0.049 A 
ATOM     66  H   UNL A   1      44.219  28.241  29.589  1.00  0.00     0.167 HD
ATOM     67  C   UNL A   1      42.760  30.612  30.299  1.00  0.00     0.074 A 
ATOM     68  C   UNL A   1      41.662  31.556  30.548  1.00  0.00     0.031 C 
ATOM     69  C   UNL A   1      44.100  30.878  30.587  1.00  0.00     0.037 A 
BRANCH  56  70
ATOM     70  C   UNL A   1      48.156  26.505  29.538  1.00  0.00     0.057 A 
ATOM     71  C   UNL A   1      48.611  25.914  30.705  1.00  0.00     0.134 A 
ATOM     72  C   UNL A   1      48.967  26.708  28.506  1.00  0.00     0.134 A 
ATOM     73  F   UNL A   1      47.799  25.465  31.656  1.00  0.00    -0.206 F 
ATOM     74  C   UNL A   1      50.021  25.833  30.793  1.00  0.00     0.040 A 
ATOM     75  C   UNL A   1      50.316  26.477  28.621  1.00  0.00     0.040 A 
ATOM     76  F   UNL A   1      48.467  27.137  27.350  1.00  0.00    -0.206 F 
ATOM     77  C   UNL A   1      50.844  25.950  29.767  1.00  0.00     0.006 A 
ENDBRANCH  56  70
BRANCH  57  78
ATOM     78  C   UNL A   1      38.571  29.078  28.981  1.00  0.00     0.057 A 
ATOM     79  C   UNL A   1      38.120  29.659  27.807  1.00  0.00     0.134 A 
ATOM     80  C   UNL A   1      37.757  28.893  30.014  1.00  0.00     0.134 A 
ATOM     81  F   UNL A   1      38.815  29.636  26.673  1.00  0.00    -0.206 F 
ATOM     82  C   UNL A   1      36.855  30.280  27.923  1.00  0.00     0.040 A 
ATOM     83  C   UNL A   1      36.485  29.411  30.003  1.00  0.00     0.040 A 
ATOM     84  F   UNL A   1      38.178  28.200  31.067  1.00  0.00    -0.206 F 
ATOM     85  C   UNL A   1      35.995  30.049  28.898  1.00  0.00     0.006 A 
ENDBRANCH  57  78
BRANCH  69  86
ATOM     86  C   UNL A   1      44.450  32.240  31.162  1.00  0.00     0.057 A 
ATOM     87  C   UNL A   1      44.692  33.344  30.361  1.00  0.00     0.134 A 
ATOM     88  C   UNL A   1      44.450  32.336  32.487  1.00  0.00     0.134 A 
ATOM     89  F   UNL A   1      44.457  33.357  29.053  1.00  0.00    -0.206 F 
ATOM     90  C   UNL A   1      45.213  34.457  31.063  1.00  0.00     0.040 A 
ATOM     91  C   UNL A   1      44.842  33.500  33.104  1.00  0.00     0.040 A 
ATOM     92  F   UNL A   1      44.068  31.297  33.223  1.00  0.00    -0.206 F 
ATOM     93  C   UNL A   1      45.152  34.613  32.373  1.00  0.00     0.006 A 
ENDBRANCH  69  86
ENDBRANCH  43  44
ENDBRANCH  35  38
ENDBRANCH  33  34
ENDBRANCH  32  33
ENDBRANCH  31  32
ENDBRANCH   1  31
TORSDOF 17
ENDMDL
MODEL 2
REMARK VINA RESULT:     -11.9      1.495      6.267
REMARK SMILES CCCc1cc(S(F)(F)(F)(F)F)cc2c1O[C@@H](C(F)(F)F)C(C(=O)NCCCCCCNC(=O)c1ccc(-c3c4nc(c(-c5c(F)cccc5F)c5ccc([nH]5)c(-c5c(F)cccc5F)c5nc(c(-c6c(F)cccc6F)c6ccc3[nH]6)C=C5)C=C4)cc1)=C2
REMARK SMILES IDX 28 1 27 2 26 3 25 4 23 5 24 6 22 8 4 9 5 10 15 11 6 12 14 13
REMARK SMILES IDX 16 14 13 15 89 16 17 17 3 18 2 19 1 20 7 21 8 22 9 23 10 24
REMARK SMILES IDX 11 25 12 26 18 27 19 28 20 29 21 30 29 31 30 32 31 33 32 34
REMARK SMILES IDX 33 35 34 37 35 38 36 39 88 40 37 41 87 42 38 43 39 44 40 45
REMARK SMILES IDX 81 46 41 47 86 48 80 49 82 50 42 51 85 52 79 53 78 54 43 56
REMARK SMILES IDX 69 57 52 58 68 59 53 60 56 61 67 62 83 63 54 64 55 65 66 67
REMARK SMILES IDX 84 68 57 69 44 70 45 71 50 72 46 73 47 74 49 75 51 76 48 77
REMARK SMILES IDX 70 78 71 79 76 80 72 81 73 82 75 83 77 84 74 85 58 86 59 87
REMARK SMILES IDX 64 88 60 89 61 90 63 91 65 92 62 93
REMARK H PARENT 25 7 32 36 82 55 56 66
REMARK Flexibility Score: inf
ROOT
ATOM      1  C   UNL A   1      37.047  22.241  24.730  1.00  0.00     0.002 C 
ENDROOT
BRANCH   1   2
ATOM      2  C   UNL A   1      36.676  22.536  23.285  1.00  0.00     0.021 C 
BRANCH   2   3
ATOM      3  C   UNL A   1      35.288  23.155  23.235  1.00  0.00     0.116 C 
BRANCH   3   4
ATOM      4  N   UNL A   1      34.276  22.092  23.294  1.00  0.00    -0.352 N 
ATOM      5  C   UNL A   1      32.916  22.395  23.763  1.00  0.00     0.251 C 
ATOM      6  O   UNL A   1      32.041  21.475  23.814  1.00  0.00    -0.270 OA
ATOM      7  H   UNL A   1      34.509  21.175  23.018  1.00  0.00     0.163 HD
BRANCH   5   8
ATOM      8  C   UNL A   1      32.558  23.810  24.189  1.00  0.00     0.067 C 
ATOM      9  C   UNL A   1      31.196  27.486  25.632  1.00  0.00    -0.004 A 
ATOM     10  C   UNL A   1      30.624  28.399  24.764  1.00  0.00     0.032 A 
ATOM     11  C   UNL A   1      31.586  26.264  25.140  1.00  0.00     0.131 A 
ATOM     12  C   UNL A   1      30.445  28.095  23.441  1.00  0.00     0.108 A 
ATOM     13  C   UNL A   1      31.438  25.930  23.806  1.00  0.00     0.019 A 
ATOM     14  O   UNL A   1      32.046  25.327  26.033  1.00  0.00    -0.475 OA
ATOM     15  C   UNL A   1      30.856  26.869  22.962  1.00  0.00     0.036 A 
ATOM     16  C   UNL A   1      31.846  24.598  23.392  1.00  0.00     0.025 C 
ATOM     17  C   UNL A   1      33.008  24.353  25.538  1.00  0.00     0.314 C 
BRANCH   9  18
ATOM     18  C   UNL A   1      31.297  27.866  27.099  1.00  0.00     0.039 C 
BRANCH  18  19
ATOM     19  C   UNL A   1      32.202  29.079  27.247  1.00  0.00     0.001 C 
ATOM     20  C   UNL A   1      33.649  28.659  27.049  1.00  0.00     0.004 C 
ENDBRANCH  18  19
ENDBRANCH   9  18
BRANCH  12  21
ATOM     21  S   UNL A   1      29.675  29.296  22.326  1.00  0.00     0.310 S 
ATOM     22  F   UNL A   1      29.570  30.457  23.403  1.00  0.00    -0.094 F 
ATOM     23  F   UNL A   1      28.300  28.756  22.876  1.00  0.00    -0.094 F 
ATOM     24  F   UNL A   1      28.938  30.237  21.331  1.00  0.00    -0.094 F 
ATOM     25  F   UNL A   1      31.055  29.926  21.888  1.00  0.00    -0.094 F 
ATOM     26  F   UNL A   1      30.431  28.430  23.411  1.00  0.00    -0.094 F 
ENDBRANCH  12  21
BRANCH  17  27
ATOM     27  C   UNL A   1      33.106  23.205  26.528  1.00  0.00     0.429 C 
ATOM     28  F   UNL A   1      34.275  22.589  26.379  1.00  0.00    -0.167 F 
ATOM     29  F   UNL A   1      33.009  23.678  27.767  1.00  0.00    -0.167 F 
ATOM     30  F   UNL A   1      32.118  22.342  26.305  1.00  0.00    -0.167 F 
ENDBRANCH  17  27
ENDBRANCH   5   8
ENDBRANCH   3   4
ENDBRANCH   2   3
ENDBRANCH   1   2
BRANCH   1  31
ATOM     31  C   UNL A   1      36.721  20.792  25.051  1.00  0.00     0.002 C 
BRANCH  31  32
ATOM     32  C   UNL A   1      37.924  19.919  24.732  1.00  0.00     0.021 C 
BRANCH  32  33
ATOM     33  C   UNL A   1      39.002  20.137  25.781  1.00  0.00     0.116 C 
BRANCH  33  34
ATOM     34  N   UNL A   1      40.030  19.095  25.650  1.00  0.00    -0.352 N 
ATOM     35  C   UNL A   1      41.411  19.367  26.075  1.00  0.00     0.251 C 
ATOM     36  H   UNL A   1      39.795  18.215  25.277  1.00  0.00     0.163 HD
ATOM     37  O   UNL A   1      42.301  18.467  25.961  1.00  0.00    -0.269 OA
BRANCH  35  38
ATOM     38  C   UNL A   1      41.775  20.726  26.650  1.00  0.00     0.039 A 
ATOM     39  C   UNL A   1      41.802  20.959  28.015  1.00  0.00     0.014 A 
ATOM     40  C   UNL A   1      42.104  21.676  25.783  1.00  0.00     0.014 A 
ATOM     41  C   UNL A   1      41.915  22.326  28.361  1.00  0.00     0.010 A 
ATOM     42  C   UNL A   1      42.334  22.963  26.208  1.00  0.00     0.010 A 
ATOM     43  C   UNL A   1      42.319  23.277  27.538  1.00  0.00    -0.014 A 
BRANCH  43  44
ATOM     44  C   UNL A   1      42.745  24.646  28.042  1.00  0.00     0.031 A 
ATOM     45  C   UNL A   1      41.705  25.557  28.239  1.00  0.00     0.074 A 
ATOM     46  C   UNL A   1      44.083  24.947  28.228  1.00  0.00     0.049 A 
ATOM     47  N   UNL A   1      41.799  26.820  28.656  1.00  0.00    -0.248 NA
ATOM     48  C   UNL A   1      40.285  25.249  28.010  1.00  0.00     0.031 C 
ATOM     49  C   UNL A   1      45.137  24.031  28.040  1.00  0.00     0.029 A 
ATOM     50  N   UNL A   1      44.633  26.149  28.615  1.00  0.00    -0.354 N 
ATOM     51  C   UNL A   1      40.585  27.369  28.741  1.00  0.00     0.074 A 
ATOM     52  C   UNL A   1      39.594  26.368  28.321  1.00  0.00     0.031 C 
ATOM     53  C   UNL A   1      46.305  24.675  28.299  1.00  0.00     0.029 A 
ATOM     54  C   UNL A   1      46.002  26.003  28.654  1.00  0.00     0.049 A 
ATOM     55  H   UNL A   1      44.133  26.970  28.828  1.00  0.00     0.167 HD
ATOM     56  C   UNL A   1      40.264  28.663  29.153  1.00  0.00     0.037 A 
ATOM     57  C   UNL A   1      46.949  26.963  28.975  1.00  0.00     0.037 A 
ATOM     58  C   UNL A   1      41.210  29.610  29.517  1.00  0.00     0.049 A 
ATOM     59  C   UNL A   1      46.632  28.276  29.332  1.00  0.00     0.074 A 
ATOM     60  C   UNL A   1      40.903  30.916  29.942  1.00  0.00     0.029 A 
ATOM     61  N   UNL A   1      42.580  29.471  29.532  1.00  0.00    -0.354 N 
ATOM     62  N   UNL A   1      45.417  28.811  29.454  1.00  0.00    -0.248 NA
ATOM     63  C   UNL A   1      47.629  29.309  29.643  1.00  0.00     0.031 C 
ATOM     64  C   UNL A   1      42.073  31.560  30.202  1.00  0.00     0.029 A 
ATOM     65  C   UNL A   1      43.129  30.665  29.941  1.00  0.00     0.049 A 
ATOM     66  H   UNL A   1      43.080  28.658  29.291  1.00  0.00     0.167 HD
ATOM     67  C   UNL A   1      45.513  30.087  29.831  1.00  0.00     0.074 A 
ATOM     68  C   UNL A   1      46.938  30.428  29.951  1.00  0.00     0.031 C 
ATOM     69  C   UNL A   1      44.471  30.981  30.084  1.00  0.00     0.037 A 
BRANCH  56  70
ATOM     70  C   UNL A   1      38.797  29.057  29.207  1.00  0.00     0.057 A 
ATOM     71  C   UNL A   1      38.232  29.621  28.075  1.00  0.00     0.134 A 
ATOM     72  C   UNL A   1      38.075  28.831  30.299  1.00  0.00     0.134 A 
ATOM     73  F   UNL A   1      38.837  29.635  26.892  1.00  0.00    -0.206 F 
ATOM     74  C   UNL A   1      36.952  30.183  28.294  1.00  0.00     0.040 A 
ATOM     75  C   UNL A   1      36.784  29.291  30.391  1.00  0.00     0.040 A 
ATOM     76  F   UNL A   1      38.607  28.152  31.312  1.00  0.00    -0.206 F 
ATOM     77  C   UNL A   1      36.181  29.911  29.331  1.00  0.00     0.006 A 
ENDBRANCH  56  70
BRANCH  57  78
ATOM     78  C   UNL A   1      48.415  26.563  28.937  1.00  0.00     0.057 A 
ATOM     79  C   UNL A   1      49.116  26.744  27.756  1.00  0.00     0.134 A 
ATOM     80  C   UNL A   1      48.990  26.017  30.002  1.00  0.00     0.134 A 
ATOM     81  F   UNL A   1      48.673  27.503  26.759  1.00  0.00    -0.206 F 
ATOM     82  C   UNL A   1      50.345  26.046  27.706  1.00  0.00     0.040 A 
ATOM     83  C   UNL A   1      50.250  25.475  29.916  1.00  0.00     0.040 A 
ATOM     84  F   UNL A   1      48.341  25.995  31.162  1.00  0.00    -0.206 F 
ATOM     85  C   UNL A   1      50.977  25.565  28.763  1.00  0.00     0.006 A 
ENDBRANCH  57  78
BRANCH  69  86
ATOM     86  C   UNL A   1      44.830  32.384  30.545  1.00  0.00     0.057 A 
ATOM     87  C   UNL A   1      45.057  32.693  31.876  1.00  0.00     0.134 A 
ATOM     88  C   UNL A   1      44.980  33.296  29.590  1.00  0.00     0.134 A 
ATOM     89  F   UNL A   1      45.166  31.771  32.826  1.00  0.00    -0.206 F 
ATOM     90  C   UNL A   1      45.161  34.081  32.132  1.00  0.00     0.040 A 
ATOM     91  C   UNL A   1      45.215  34.611  29.910  1.00  0.00     0.040 A 
ATOM     92  F   UNL A   1      44.903  32.932  28.313  1.00  0.00    -0.206 F 
ATOM     93  C   UNL A   1      45.390  34.999  31.209  1.00  0.00     0.006 A 
ENDBRANCH  69  86
ENDBRANCH  43  44
ENDBRANCH  35  38
ENDBRANCH  33  34
ENDBRANCH  32  33
ENDBRANCH  31  32
ENDBRANCH   1  31
TORSDOF 17
ENDMDL
MODEL 3
REMARK VINA RESULT:     -11.7      0.823      5.908
REMARK SMILES CCCc1cc(S(F)(F)(F)(F)F)cc2c1O[C@@H](C(F)(F)F)C(C(=O)NCCCCCCNC(=O)c1ccc(-c3c4nc(c(-c5c(F)cccc5F)c5ccc([nH]5)c(-c5c(F)cccc5F)c5nc(c(-c6c(F)cccc6F)c6ccc3[nH]6)C=C5)C=C4)cc1)=C2
REMARK SMILES IDX 28 1 27 2 26 3 25 4 23 5 24 6 22 8 4 9 5 10 15 11 6 12 14 13
REMARK SMILES IDX 16 14 13 15 89 16 17 17 3 18 2 19 1 20 7 21 8 22 9 23 10 24
REMARK SMILES IDX 11 25 12 26 18 27 19 28 20 29 21 30 29 31 30 32 31 33 32 34
REMARK SMILES IDX 33 35 34 37 35 38 36 39 88 40 37 41 87 42 38 43 39 44 40 45
REMARK SMILES IDX 81 46 41 47 86 48 80 49 82 50 42 51 85 52 79 53 78 54 43 56
REMARK SMILES IDX 69 57 52 58 68 59 53 60 56 61 67 62 83 63 54 64 55 65 66 67
REMARK SMILES IDX 84 68 57 69 44 70 45 71 50 72 46 73 47 74 49 75 51 76 48 77
REMARK SMILES IDX 70 78 71 79 76 80 72 81 73 82 75 83 77 84 74 85 58 86 59 87
REMARK SMILES IDX 64 88 60 89 61 90 63 91 65 92 62 93
REMARK H PARENT 25 7 32 36 82 55 56 66
REMARK Flexibility Score: inf
ROOT
ATOM      1  C   UNL A   1      38.170  22.228  25.614  1.00  0.00     0.002 C 
ENDROOT
BRANCH   1   2
ATOM      2  C   UNL A   1      37.188  23.386  25.686  1.00  0.00     0.021 C 
BRANCH   2   3
ATOM      3  C   UNL A   1      35.888  22.992  25.003  1.00  0.00     0.116 C 
BRANCH   3   4
ATOM      4  N   UNL A   1      35.227  21.935  25.781  1.00  0.00    -0.352 N 
ATOM      5  C   UNL A   1      33.819  22.084  26.176  1.00  0.00     0.251 C 
ATOM      6  O   UNL A   1      33.248  21.169  26.848  1.00  0.00    -0.270 OA
ATOM      7  H   UNL A   1      35.728  21.126  26.037  1.00  0.00     0.163 HD
BRANCH   5   8
ATOM      8  C   UNL A   1      33.047  23.332  25.780  1.00  0.00     0.067 C 
ATOM      9  C   UNL A   1      31.210  26.765  24.266  1.00  0.00    -0.004 A 
ATOM     10  C   UNL A   1      31.391  27.981  24.901  1.00  0.00     0.032 A 
ATOM     11  C   UNL A   1      31.869  25.662  24.754  1.00  0.00     0.131 A 
ATOM     12  C   UNL A   1      32.212  28.091  25.991  1.00  0.00     0.108 A 
ATOM     13  C   UNL A   1      32.691  25.732  25.865  1.00  0.00     0.019 A 
ATOM     14  O   UNL A   1      31.770  24.488  24.049  1.00  0.00    -0.475 OA
ATOM     15  C   UNL A   1      32.854  26.970  26.475  1.00  0.00     0.036 A 
ATOM     16  C   UNL A   1      33.373  24.518  26.279  1.00  0.00     0.025 C 
ATOM     17  C   UNL A   1      31.882  23.248  24.803  1.00  0.00     0.314 C 
BRANCH   9  18
ATOM     18  C   UNL A   1      30.341  26.734  23.020  1.00  0.00     0.039 C 
BRANCH  18  19
ATOM     19  C   UNL A   1      30.372  28.098  22.348  1.00  0.00     0.001 C 
ATOM     20  C   UNL A   1      29.050  28.809  22.586  1.00  0.00     0.004 C 
ENDBRANCH  18  19
ENDBRANCH   9  18
BRANCH  12  21
ATOM     21  S   UNL A   1      32.453  29.696  26.792  1.00  0.00     0.310 S 
ATOM     22  F   UNL A   1      33.583  29.200  27.789  1.00  0.00    -0.094 F 
ATOM     23  F   UNL A   1      31.397  29.200  27.851  1.00  0.00    -0.094 F 
ATOM     24  F   UNL A   1      32.536  31.085  27.487  1.00  0.00    -0.094 F 
ATOM     25  F   UNL A   1      33.611  30.127  25.809  1.00  0.00    -0.094 F 
ATOM     26  F   UNL A   1      32.461  28.253  26.148  1.00  0.00    -0.094 F 
ENDBRANCH  12  21
BRANCH  17  27
ATOM     27  C   UNL A   1      32.125  22.100  23.837  1.00  0.00     0.429 C 
ATOM     28  F   UNL A   1      31.868  20.946  24.447  1.00  0.00    -0.167 F 
ATOM     29  F   UNL A   1      31.327  22.231  22.782  1.00  0.00    -0.167 F 
ATOM     30  F   UNL A   1      33.395  22.118  23.439  1.00  0.00    -0.167 F 
ENDBRANCH  17  27
ENDBRANCH   5   8
ENDBRANCH   3   4
ENDBRANCH   2   3
ENDBRANCH   1   2
BRANCH   1  31
ATOM     31  C   UNL A   1      37.741  21.267  24.518  1.00  0.00     0.002 C 
BRANCH  31  32
ATOM     32  C   UNL A   1      38.129  19.850  24.905  1.00  0.00     0.021 C 
BRANCH  32  33
ATOM     33  C   UNL A   1      39.171  19.894  26.011  1.00  0.00     0.116 C 
BRANCH  33  34
ATOM     34  N   UNL A   1      40.234  18.920  25.721  1.00  0.00    -0.352 N 
ATOM     35  C   UNL A   1      41.639  19.268  25.978  1.00  0.00     0.251 C 
ATOM     36  H   UNL A   1      40.005  18.036  25.355  1.00  0.00     0.163 HD
ATOM     37  O   UNL A   1      42.558  18.427  25.727  1.00  0.00    -0.269 OA
BRANCH  35  38
ATOM     38  C   UNL A   1      41.992  20.634  26.543  1.00  0.00     0.039 A 
ATOM     39  C   UNL A   1      42.056  20.867  27.907  1.00  0.00     0.014 A 
ATOM     40  C   UNL A   1      42.276  21.591  25.666  1.00  0.00     0.014 A 
ATOM     41  C   UNL A   1      42.152  22.237  28.250  1.00  0.00     0.010 A 
ATOM     42  C   UNL A   1      42.493  22.881  26.085  1.00  0.00     0.010 A 
ATOM     43  C   UNL A   1      42.512  23.195  27.416  1.00  0.00    -0.014 A 
BRANCH  43  44
ATOM     44  C   UNL A   1      42.925  24.572  27.908  1.00  0.00     0.031 A 
ATOM     45  C   UNL A   1      41.875  25.469  28.114  1.00  0.00     0.074 A 
ATOM     46  C   UNL A   1      44.261  24.893  28.074  1.00  0.00     0.049 A 
ATOM     47  N   UNL A   1      41.957  26.736  28.524  1.00  0.00    -0.248 NA
ATOM     48  C   UNL A   1      40.457  25.141  27.905  1.00  0.00     0.031 C 
ATOM     49  C   UNL A   1      45.325  23.991  27.876  1.00  0.00     0.029 A 
ATOM     50  N   UNL A   1      44.799  26.105  28.448  1.00  0.00    -0.354 N 
ATOM     51  C   UNL A   1      40.736  27.268  28.623  1.00  0.00     0.074 A 
ATOM     52  C   UNL A   1      39.755  26.251  28.220  1.00  0.00     0.031 C 
ATOM     53  C   UNL A   1      46.487  24.653  28.116  1.00  0.00     0.029 A 
ATOM     54  C   UNL A   1      46.170  25.978  28.469  1.00  0.00     0.049 A 
ATOM     55  H   UNL A   1      44.291  26.920  28.664  1.00  0.00     0.167 HD
ATOM     56  C   UNL A   1      40.403  28.560  29.033  1.00  0.00     0.037 A 
ATOM     57  C   UNL A   1      47.109  26.952  28.773  1.00  0.00     0.037 A 
ATOM     58  C   UNL A   1      41.340  29.522  29.380  1.00  0.00     0.049 A 
ATOM     59  C   UNL A   1      46.778  28.262  29.128  1.00  0.00     0.074 A 
ATOM     60  C   UNL A   1      41.021  30.826  29.803  1.00  0.00     0.029 A 
ATOM     61  N   UNL A   1      42.712  29.402  29.376  1.00  0.00    -0.354 N 
ATOM     62  N   UNL A   1      45.557  28.781  29.264  1.00  0.00    -0.248 NA
ATOM     63  C   UNL A   1      47.764  29.311  29.421  1.00  0.00     0.031 C 
ATOM     64  C   UNL A   1      42.185  31.487  30.044  1.00  0.00     0.029 A 
ATOM     65  C   UNL A   1      43.249  30.606  29.773  1.00  0.00     0.049 A 
ATOM     66  H   UNL A   1      43.221  28.595  29.133  1.00  0.00     0.167 HD
ATOM     67  C   UNL A   1      45.640  30.061  29.634  1.00  0.00     0.074 A 
ATOM     68  C   UNL A   1      47.061  30.421  29.733  1.00  0.00     0.031 C 
ATOM     69  C   UNL A   1      44.589  30.941  29.896  1.00  0.00     0.037 A 
BRANCH  56  70
ATOM     70  C   UNL A   1      38.932  28.933  29.105  1.00  0.00     0.057 A 
ATOM     71  C   UNL A   1      38.353  29.519  27.990  1.00  0.00     0.134 A 
ATOM     72  C   UNL A   1      38.219  28.671  30.194  1.00  0.00     0.134 A 
ATOM     73  F   UNL A   1      38.951  29.569  26.805  1.00  0.00    -0.206 F 
ATOM     74  C   UNL A   1      37.067  30.059  28.230  1.00  0.00     0.040 A 
ATOM     75  C   UNL A   1      36.922  29.112  30.304  1.00  0.00     0.040 A 
ATOM     76  F   UNL A   1      38.765  27.974  31.187  1.00  0.00    -0.206 F 
ATOM     77  C   UNL A   1      36.306  29.751  29.264  1.00  0.00     0.006 A 
ENDBRANCH  56  70
BRANCH  57  78
ATOM     78  C   UNL A   1      48.579  26.573  28.718  1.00  0.00     0.057 A 
ATOM     79  C   UNL A   1      49.259  26.746  27.523  1.00  0.00     0.134 A 
ATOM     80  C   UNL A   1      49.179  26.051  29.782  1.00  0.00     0.134 A 
ATOM     81  F   UNL A   1      48.789  27.484  26.522  1.00  0.00    -0.206 F 
ATOM     82  C   UNL A   1      50.497  26.065  27.464  1.00  0.00     0.040 A 
ATOM     83  C   UNL A   1      50.445  25.526  29.683  1.00  0.00     0.040 A 
ATOM     84  F   UNL A   1      48.548  26.037  30.952  1.00  0.00    -0.206 F 
ATOM     85  C   UNL A   1      51.152  25.609  28.517  1.00  0.00     0.006 A 
ENDBRANCH  57  78
BRANCH  69  86
ATOM     86  C   UNL A   1      44.934  32.351  30.346  1.00  0.00     0.057 A 
ATOM     87  C   UNL A   1      45.031  33.410  29.459  1.00  0.00     0.134 A 
ATOM     88  C   UNL A   1      45.077  32.532  31.654  1.00  0.00     0.134 A 
ATOM     89  F   UNL A   1      44.651  33.329  28.187  1.00  0.00    -0.206 F 
ATOM     90  C   UNL A   1      45.572  34.588  30.029  1.00  0.00     0.040 A 
ATOM     91  C   UNL A   1      45.477  33.749  32.152  1.00  0.00     0.040 A 
ATOM     92  F   UNL A   1      44.830  31.527  32.489  1.00  0.00    -0.206 F 
ATOM     93  C   UNL A   1      45.650  34.824  31.326  1.00  0.00     0.006 A 
ENDBRANCH  69  86
ENDBRANCH  43  44
ENDBRANCH  35  38
ENDBRANCH  33  34
ENDBRANCH  32  33
ENDBRANCH  31  32
ENDBRANCH   1  31
TORSDOF 17
ENDMDL
