MODEL 1
REMARK VINA RESULT:     -13.5      0.000      0.000
REMARK SMILES O=C(COc1ccccc1[C@@H]1C2=C(CCCC2=O)Nc2nc(SCc3ccccn3)nn21)NCCCCCCNC(=O)c1ccc(-c2c3nc(c(-c4c(F)cccc4F)c4ccc([nH]4)c(-c4c(F)cccc4F)c4nc(c(-c5c(F)cccc5F)c5ccc2[nH]5)C=C4)C=C3)cc1
REMARK SMILES IDX 34 1 33 2 1 3 2 4 3 6 4 7 5 8 6 9 10 10 7 11 9 12 8 13 11 14
REMARK SMILES IDX 12 15 32 16 13 17 17 18 20 19 31 20 14 21 19 22 16 23 18 24
REMARK SMILES IDX 21 25 22 26 15 27 23 29 24 30 25 31 26 32 30 33 27 34 29 35
REMARK SMILES IDX 28 36 35 37 36 38 37 39 38 40 39 41 40 42 41 43 42 45 43 46
REMARK SMILES IDX 44 47 96 48 45 49 95 50 46 51 47 52 48 53 89 54 49 55 94 56
REMARK SMILES IDX 88 57 90 58 50 59 93 60 87 61 86 62 51 64 77 65 60 66 76 67
REMARK SMILES IDX 61 68 64 69 75 70 91 71 62 72 63 73 74 75 92 76 65 77 52 78
REMARK SMILES IDX 53 79 58 80 54 81 55 82 57 83 59 84 56 85 78 86 79 87 84 88
REMARK SMILES IDX 80 89 81 90 83 91 85 92 82 93 66 94 67 95 72 96 68 97 69 98
REMARK SMILES IDX 71 99 73 100 70 101
REMARK H PARENT 33 5 19 28 40 44 90 63 64 74
REMARK Flexibility Score: inf
ROOT
ATOM      1  C   UNL A   1      33.416  28.494  25.049  1.00  0.00     0.116 C 
ENDROOT
BRANCH   1   2
ATOM      2  N   UNL A   1      33.915  27.142  24.848  1.00  0.00    -0.353 N 
ATOM      3  O   UNL A   1      33.212  27.152  22.899  1.00  0.00    -0.271 OA
ATOM      4  C   UNL A   1      33.672  26.296  23.715  1.00  0.00     0.257 C 
ATOM      5  H   UNL A   1      34.479  26.769  25.563  1.00  0.00     0.163 HD
BRANCH   4   6
ATOM      6  C   UNL A   1      34.031  24.155  23.368  1.00  0.00     0.329 C 
BRANCH   6   7
ATOM      7  O   UNL A   1      33.393  22.836  23.743  1.00  0.00    -0.483 OA
BRANCH   7   8
ATOM      8  C   UNL A   1      33.279  22.608  25.081  1.00  0.00     0.125 A 
ATOM      9  C   UNL A   1      32.617  23.506  25.902  1.00  0.00     0.047 A 
ATOM     10  C   UNL A   1      34.022  21.576  25.610  1.00  0.00     0.024 A 
ATOM     11  C   UNL A   1      32.735  23.363  27.284  1.00  0.00     0.004 A 
ATOM     12  C   UNL A   1      34.155  21.427  26.985  1.00  0.00     0.010 A 
ATOM     13  C   UNL A   1      33.511  22.332  27.825  1.00  0.00     0.001 A 
BRANCH  10  14
ATOM     14  C   UNL A   1      34.846  20.875  24.595  1.00  0.00     0.181 C 
ATOM     15  C   UNL A   1      34.107  19.051  24.444  1.00  0.00     0.044 C 
ATOM     16  N   UNL A   1      36.657  20.911  25.048  1.00  0.00    -0.218 N 
ATOM     17  C   UNL A   1      34.962  17.749  24.746  1.00  0.00     0.027 C 
ATOM     18  C   UNL A   1      32.745  18.927  23.912  1.00  0.00     0.163 C 
ATOM     19  C   UNL A   1      37.554  19.396  25.165  1.00  0.00     0.227 A 
ATOM     20  N   UNL A   1      37.484  21.843  25.549  1.00  0.00    -0.141 NA
ATOM     21  C   UNL A   1      34.332  16.388  24.683  1.00  0.00     0.055 C 
ATOM     22  N   UNL A   1      36.739  17.901  24.987  1.00  0.00    -0.328 N 
ATOM     23  C   UNL A   1      32.133  17.545  23.825  1.00  0.00     0.081 C 
ATOM     24  O   UNL A   1      32.204  19.912  23.419  1.00  0.00    -0.294 OA
ATOM     25  N   UNL A   1      38.770  19.812  25.369  1.00  0.00    -0.185 NA
ATOM     26  C   UNL A   1      38.658  21.182  25.675  1.00  0.00     0.210 A 
ATOM     27  C   UNL A   1      32.796  16.444  24.661  1.00  0.00     0.014 C 
ATOM     28  H   UNL A   1      37.274  17.076  25.020  1.00  0.00     0.169 HD
BRANCH  26  29
ATOM     29  S   UNL A   1      40.028  22.017  26.395  1.00  0.00    -0.078 SA
BRANCH  29  30
ATOM     30  C   UNL A   1      41.044  20.646  27.036  1.00  0.00     0.134 C 
BRANCH  30  31
ATOM     31  C   UNL A   1      42.309  20.341  26.254  1.00  0.00     0.051 A 
ATOM     32  C   UNL A   1      43.249  21.332  25.977  1.00  0.00     0.025 A 
ATOM     33  N   UNL A   1      42.513  19.061  25.855  1.00  0.00    -0.260 NA
ATOM     34  C   UNL A   1      44.338  21.063  25.160  1.00  0.00     0.003 A 
ATOM     35  C   UNL A   1      43.630  18.802  25.132  1.00  0.00     0.111 A 
ATOM     36  C   UNL A   1      44.541  19.764  24.733  1.00  0.00     0.020 A 
ENDBRANCH  30  31
ENDBRANCH  29  30
ENDBRANCH  26  29
ENDBRANCH  10  14
ENDBRANCH   7   8
ENDBRANCH   6   7
ENDBRANCH   4   6
ENDBRANCH   1   2
BRANCH   1  37
ATOM     37  C   UNL A   1      33.931  29.049  26.375  1.00  0.00     0.021 C 
BRANCH  37  38
ATOM     38  C   UNL A   1      32.938  29.855  27.225  1.00  0.00     0.002 C 
BRANCH  38  39
ATOM     39  C   UNL A   1      31.776  30.579  26.522  1.00  0.00     0.002 C 
BRANCH  39  40
ATOM     40  C   UNL A   1      31.656  32.082  26.752  1.00  0.00     0.021 C 
BRANCH  40  41
ATOM     41  C   UNL A   1      32.926  32.689  27.299  1.00  0.00     0.116 C 
BRANCH  41  42
ATOM     42  N   UNL A   1      32.694  34.007  27.893  1.00  0.00    -0.352 N 
ATOM     43  C   UNL A   1      33.194  34.478  29.094  1.00  0.00     0.251 C 
ATOM     44  H   UNL A   1      32.121  34.625  27.383  1.00  0.00     0.163 HD
ATOM     45  O   UNL A   1      32.620  35.351  29.731  1.00  0.00    -0.269 OA
BRANCH  43  46
ATOM     46  C   UNL A   1      34.492  33.945  29.539  1.00  0.00     0.039 A 
ATOM     47  C   UNL A   1      34.640  32.924  30.477  1.00  0.00     0.014 A 
ATOM     48  C   UNL A   1      35.596  34.459  28.874  1.00  0.00     0.014 A 
ATOM     49  C   UNL A   1      35.931  32.461  30.745  1.00  0.00     0.010 A 
ATOM     50  C   UNL A   1      36.739  33.722  28.868  1.00  0.00     0.010 A 
ATOM     51  C   UNL A   1      36.999  32.898  29.939  1.00  0.00    -0.014 A 
BRANCH  51  52
ATOM     52  C   UNL A   1      38.336  32.312  29.949  1.00  0.00     0.031 A 
ATOM     53  C   UNL A   1      38.276  30.934  29.409  1.00  0.00     0.074 A 
ATOM     54  C   UNL A   1      39.476  33.005  30.224  1.00  0.00     0.049 A 
ATOM     55  N   UNL A   1      38.214  29.858  30.118  1.00  0.00    -0.248 NA
ATOM     56  C   UNL A   1      37.930  30.715  27.990  1.00  0.00     0.031 C 
ATOM     57  C   UNL A   1      39.639  34.431  30.543  1.00  0.00     0.029 A 
ATOM     58  N   UNL A   1      40.780  32.565  30.246  1.00  0.00    -0.354 N 
ATOM     59  C   UNL A   1      38.188  28.819  29.201  1.00  0.00     0.074 A 
ATOM     60  C   UNL A   1      37.721  29.394  27.972  1.00  0.00     0.031 C 
ATOM     61  C   UNL A   1      40.950  34.780  30.501  1.00  0.00     0.029 A 
ATOM     62  C   UNL A   1      41.753  33.590  30.301  1.00  0.00     0.049 A 
ATOM     63  H   UNL A   1      41.018  31.611  30.227  1.00  0.00     0.167 HD
ATOM     64  C   UNL A   1      38.930  27.706  29.453  1.00  0.00     0.037 A 
ATOM     65  C   UNL A   1      43.112  33.438  30.226  1.00  0.00     0.037 A 
ATOM     66  C   UNL A   1      39.326  27.689  30.847  1.00  0.00     0.049 A 
ATOM     67  C   UNL A   1      43.404  32.028  30.591  1.00  0.00     0.074 A 
ATOM     68  C   UNL A   1      38.661  27.701  32.057  1.00  0.00     0.029 A 
ATOM     69  N   UNL A   1      40.599  28.136  31.104  1.00  0.00    -0.354 N 
ATOM     70  N   UNL A   1      43.203  31.555  31.790  1.00  0.00    -0.248 NA
ATOM     71  C   UNL A   1      43.360  31.062  29.506  1.00  0.00     0.031 C 
ATOM     72  C   UNL A   1      39.429  28.565  32.896  1.00  0.00     0.029 A 
ATOM     73  C   UNL A   1      40.590  28.929  32.217  1.00  0.00     0.049 A 
ATOM     74  H   UNL A   1      41.395  27.918  30.568  1.00  0.00     0.167 HD
ATOM     75  C   UNL A   1      42.516  30.372  31.569  1.00  0.00     0.074 A 
ATOM     76  C   UNL A   1      42.670  30.105  30.133  1.00  0.00     0.031 C 
ATOM     77  C   UNL A   1      41.614  29.911  32.485  1.00  0.00     0.037 A 
BRANCH  64  78
ATOM     78  C   UNL A   1      39.731  26.960  28.403  1.00  0.00     0.057 A 
ATOM     79  C   UNL A   1      40.597  27.705  27.579  1.00  0.00     0.134 A 
ATOM     80  C   UNL A   1      39.467  25.650  27.951  1.00  0.00     0.134 A 
ATOM     81  F   UNL A   1      40.924  28.968  27.891  1.00  0.00    -0.206 F 
ATOM     82  C   UNL A   1      41.076  27.222  26.356  1.00  0.00     0.040 A 
ATOM     83  C   UNL A   1      39.977  25.142  26.752  1.00  0.00     0.040 A 
ATOM     84  F   UNL A   1      38.629  24.817  28.573  1.00  0.00    -0.206 F 
ATOM     85  C   UNL A   1      40.757  25.939  25.933  1.00  0.00     0.006 A 
ENDBRANCH  64  78
BRANCH  65  86
ATOM     86  C   UNL A   1      44.153  34.262  29.539  1.00  0.00     0.057 A 
ATOM     87  C   UNL A   1      44.202  34.391  28.134  1.00  0.00     0.134 A 
ATOM     88  C   UNL A   1      44.909  35.205  30.251  1.00  0.00     0.134 A 
ATOM     89  F   UNL A   1      43.485  33.572  27.348  1.00  0.00    -0.206 F 
ATOM     90  C   UNL A   1      44.923  35.411  27.488  1.00  0.00     0.040 A 
ATOM     91  C   UNL A   1      45.629  36.231  29.620  1.00  0.00     0.040 A 
ATOM     92  F   UNL A   1      44.896  35.221  31.591  1.00  0.00    -0.206 F 
ATOM     93  C   UNL A   1      45.626  36.349  28.236  1.00  0.00     0.006 A 
ENDBRANCH  65  86
BRANCH  77  94
ATOM     94  C   UNL A   1      41.585  30.567  33.840  1.00  0.00     0.057 A 
ATOM     95  C   UNL A   1      40.767  31.652  34.199  1.00  0.00     0.134 A 
ATOM     96  C   UNL A   1      42.321  29.967  34.865  1.00  0.00     0.134 A 
ATOM     97  F   UNL A   1      39.955  32.234  33.308  1.00  0.00    -0.206 F 
ATOM     98  C   UNL A   1      40.721  32.136  35.512  1.00  0.00     0.040 A 
ATOM     99  C   UNL A   1      42.260  30.419  36.183  1.00  0.00     0.040 A 
ATOM    100  F   UNL A   1      43.079  28.891  34.606  1.00  0.00    -0.206 F 
ATOM    101  C   UNL A   1      41.468  31.515  36.509  1.00  0.00     0.006 A 
ENDBRANCH  77  94
ENDBRANCH  51  52
ENDBRANCH  43  46
ENDBRANCH  41  42
ENDBRANCH  40  41
ENDBRANCH  39  40
ENDBRANCH  38  39
ENDBRANCH  37  38
ENDBRANCH   1  37
TORSDOF 19
ENDMDL
MODEL 2
REMARK VINA RESULT:     -13.1      2.647      5.946
REMARK SMILES O=C(COc1ccccc1[C@@H]1C2=C(CCCC2=O)Nc2nc(SCc3ccccn3)nn21)NCCCCCCNC(=O)c1ccc(-c2c3nc(c(-c4c(F)cccc4F)c4ccc([nH]4)c(-c4c(F)cccc4F)c4nc(c(-c5c(F)cccc5F)c5ccc2[nH]5)C=C4)C=C3)cc1
REMARK SMILES IDX 34 1 33 2 1 3 2 4 3 6 4 7 5 8 6 9 10 10 7 11 9 12 8 13 11 14
REMARK SMILES IDX 12 15 32 16 13 17 17 18 20 19 31 20 14 21 19 22 16 23 18 24
REMARK SMILES IDX 21 25 22 26 15 27 23 29 24 30 25 31 26 32 30 33 27 34 29 35
REMARK SMILES IDX 28 36 35 37 36 38 37 39 38 40 39 41 40 42 41 43 42 45 43 46
REMARK SMILES IDX 44 47 96 48 45 49 95 50 46 51 47 52 48 53 89 54 49 55 94 56
REMARK SMILES IDX 88 57 90 58 50 59 93 60 87 61 86 62 51 64 77 65 60 66 76 67
REMARK SMILES IDX 61 68 64 69 75 70 91 71 62 72 63 73 74 75 92 76 65 77 52 78
REMARK SMILES IDX 53 79 58 80 54 81 55 82 57 83 59 84 56 85 78 86 79 87 84 88
REMARK SMILES IDX 80 89 81 90 83 91 85 92 82 93 66 94 67 95 72 96 68 97 69 98
REMARK SMILES IDX 71 99 73 100 70 101
REMARK H PARENT 33 5 19 28 40 44 90 63 64 74
REMARK Flexibility Score: inf
ROOT
ATOM      1  C   UNL A   1      31.591  28.955  23.345  1.00  0.00     0.116 C 
ENDROOT
BRANCH   1   2
ATOM      2  N   UNL A   1      32.389  27.741  23.260  1.00  0.00    -0.353 N 
ATOM      3  O   UNL A   1      30.964  26.867  22.037  1.00  0.00    -0.271 OA
ATOM      4  C   UNL A   1      31.994  26.492  22.677  1.00  0.00     0.257 C 
ATOM      5  H   UNL A   1      33.295  27.782  23.642  1.00  0.00     0.163 HD
BRANCH   4   6
ATOM      6  C   UNL A   1      32.886  24.484  22.744  1.00  0.00     0.329 C 
BRANCH   6   7
ATOM      7  O   UNL A   1      32.472  23.086  23.148  1.00  0.00    -0.483 OA
BRANCH   7   8
ATOM      8  C   UNL A   1      32.271  22.904  24.483  1.00  0.00     0.125 A 
ATOM      9  C   UNL A   1      31.376  23.698  25.181  1.00  0.00     0.047 A 
ATOM     10  C   UNL A   1      33.135  22.059  25.142  1.00  0.00     0.024 A 
ATOM     11  C   UNL A   1      31.381  23.647  26.575  1.00  0.00     0.004 A 
ATOM     12  C   UNL A   1      33.157  22.004  26.530  1.00  0.00     0.010 A 
ATOM     13  C   UNL A   1      32.276  22.809  27.249  1.00  0.00     0.001 A 
BRANCH  10  14
ATOM     14  C   UNL A   1      34.171  21.479  24.252  1.00  0.00     0.181 C 
ATOM     15  C   UNL A   1      33.798  19.544  24.153  1.00  0.00     0.044 C 
ATOM     16  N   UNL A   1      35.890  21.878  24.860  1.00  0.00    -0.218 N 
ATOM     17  C   UNL A   1      34.844  18.442  24.613  1.00  0.00     0.027 C 
ATOM     18  C   UNL A   1      32.542  19.140  23.511  1.00  0.00     0.163 C 
ATOM     19  C   UNL A   1      37.034  20.568  25.154  1.00  0.00     0.227 A 
ATOM     20  N   UNL A   1      36.478  22.972  25.372  1.00  0.00    -0.141 NA
ATOM     21  C   UNL A   1      34.484  16.986  24.583  1.00  0.00     0.055 C 
ATOM     22  N   UNL A   1      36.530  18.939  25.002  1.00  0.00    -0.328 N 
ATOM     23  C   UNL A   1      32.207  17.665  23.459  1.00  0.00     0.081 C 
ATOM     24  O   UNL A   1      31.881  19.981  22.910  1.00  0.00    -0.294 OA
ATOM     25  N   UNL A   1      38.127  21.216  25.439  1.00  0.00    -0.185 NA
ATOM     26  C   UNL A   1      37.735  22.552  25.645  1.00  0.00     0.210 A 
ATOM     27  C   UNL A   1      32.973  16.749  24.421  1.00  0.00     0.014 C 
ATOM     28  H   UNL A   1      37.201  18.232  25.135  1.00  0.00     0.169 HD
BRANCH  26  29
ATOM     29  S   UNL A   1      38.849  23.664  26.428  1.00  0.00    -0.078 SA
BRANCH  29  30
ATOM     30  C   UNL A   1      40.061  22.543  27.199  1.00  0.00     0.134 C 
BRANCH  30  31
ATOM     31  C   UNL A   1      41.230  23.213  27.898  1.00  0.00     0.051 A 
ATOM     32  C   UNL A   1      41.159  24.539  28.323  1.00  0.00     0.025 A 
ATOM     33  N   UNL A   1      42.343  22.472  28.125  1.00  0.00    -0.260 NA
ATOM     34  C   UNL A   1      42.276  25.172  28.850  1.00  0.00     0.003 A 
ATOM     35  C   UNL A   1      43.393  23.086  28.723  1.00  0.00     0.111 A 
ATOM     36  C   UNL A   1      43.420  24.427  29.065  1.00  0.00     0.020 A 
ENDBRANCH  30  31
ENDBRANCH  29  30
ENDBRANCH  26  29
ENDBRANCH  10  14
ENDBRANCH   7   8
ENDBRANCH   6   7
ENDBRANCH   4   6
ENDBRANCH   1   2
BRANCH   1  37
ATOM     37  C   UNL A   1      31.171  29.204  24.792  1.00  0.00     0.021 C 
BRANCH  37  38
ATOM     38  C   UNL A   1      31.267  28.015  25.759  1.00  0.00     0.002 C 
BRANCH  38  39
ATOM     39  C   UNL A   1      32.423  27.976  26.774  1.00  0.00     0.002 C 
BRANCH  39  40
ATOM     40  C   UNL A   1      33.656  28.813  26.452  1.00  0.00     0.021 C 
BRANCH  40  41
ATOM     41  C   UNL A   1      34.221  29.508  27.668  1.00  0.00     0.116 C 
BRANCH  41  42
ATOM     42  N   UNL A   1      34.603  30.893  27.383  1.00  0.00    -0.352 N 
ATOM     43  C   UNL A   1      35.728  31.556  27.837  1.00  0.00     0.251 C 
ATOM     44  H   UNL A   1      33.993  31.406  26.805  1.00  0.00     0.163 HD
ATOM     45  O   UNL A   1      35.754  32.774  27.954  1.00  0.00    -0.269 OA
BRANCH  43  46
ATOM     46  C   UNL A   1      36.929  30.744  28.099  1.00  0.00     0.039 A 
ATOM     47  C   UNL A   1      37.191  29.517  27.493  1.00  0.00     0.014 A 
ATOM     48  C   UNL A   1      37.867  31.337  28.931  1.00  0.00     0.014 A 
ATOM     49  C   UNL A   1      38.410  28.893  27.774  1.00  0.00     0.010 A 
ATOM     50  C   UNL A   1      39.155  30.905  28.850  1.00  0.00     0.010 A 
ATOM     51  C   UNL A   1      39.393  29.598  28.494  1.00  0.00    -0.014 A 
BRANCH  51  52
ATOM     52  C   UNL A   1      40.779  29.167  28.639  1.00  0.00     0.031 A 
ATOM     53  C   UNL A   1      41.097  29.001  30.077  1.00  0.00     0.074 A 
ATOM     54  C   UNL A   1      41.578  28.786  27.604  1.00  0.00     0.049 A 
ATOM     55  N   UNL A   1      41.693  29.877  30.814  1.00  0.00    -0.248 NA
ATOM     56  C   UNL A   1      40.434  27.939  30.859  1.00  0.00     0.031 C 
ATOM     57  C   UNL A   1      41.258  28.703  26.171  1.00  0.00     0.029 A 
ATOM     58  N   UNL A   1      42.882  28.348  27.623  1.00  0.00    -0.354 N 
ATOM     59  C   UNL A   1      41.788  29.294  32.068  1.00  0.00     0.074 A 
ATOM     60  C   UNL A   1      40.767  28.285  32.107  1.00  0.00     0.031 C 
ATOM     61  C   UNL A   1      42.239  28.042  25.504  1.00  0.00     0.029 A 
ATOM     62  C   UNL A   1      43.336  27.774  26.413  1.00  0.00     0.049 A 
ATOM     63  H   UNL A   1      43.457  28.429  28.418  1.00  0.00     0.167 HD
ATOM     64  C   UNL A   1      42.946  29.435  32.769  1.00  0.00     0.037 A 
ATOM     65  C   UNL A   1      44.543  27.168  26.192  1.00  0.00     0.037 A 
ATOM     66  C   UNL A   1      43.738  30.503  32.192  1.00  0.00     0.049 A 
ATOM     67  C   UNL A   1      45.466  27.660  27.247  1.00  0.00     0.074 A 
ATOM     68  C   UNL A   1      43.545  31.850  31.951  1.00  0.00     0.029 A 
ATOM     69  N   UNL A   1      44.741  30.101  31.346  1.00  0.00    -0.354 N 
ATOM     70  N   UNL A   1      45.861  28.901  27.315  1.00  0.00    -0.248 NA
ATOM     71  C   UNL A   1      45.463  26.921  28.499  1.00  0.00     0.031 C 
ATOM     72  C   UNL A   1      44.135  32.088  30.673  1.00  0.00     0.029 A 
ATOM     73  C   UNL A   1      44.777  30.923  30.254  1.00  0.00     0.049 A 
ATOM     74  H   UNL A   1      45.343  29.338  31.501  1.00  0.00     0.167 HD
ATOM     75  C   UNL A   1      45.663  29.241  28.643  1.00  0.00     0.074 A 
ATOM     76  C   UNL A   1      45.444  27.964  29.334  1.00  0.00     0.031 C 
ATOM     77  C   UNL A   1      45.359  30.526  28.994  1.00  0.00     0.037 A 
BRANCH  64  78
ATOM     78  C   UNL A   1      43.596  28.326  33.573  1.00  0.00     0.057 A 
ATOM     79  C   UNL A   1      43.785  27.078  32.947  1.00  0.00     0.134 A 
ATOM     80  C   UNL A   1      43.741  28.311  34.977  1.00  0.00     0.134 A 
ATOM     81  F   UNL A   1      43.667  26.953  31.617  1.00  0.00    -0.206 F 
ATOM     82  C   UNL A   1      43.998  25.898  33.667  1.00  0.00     0.040 A 
ATOM     83  C   UNL A   1      44.000  27.144  35.701  1.00  0.00     0.040 A 
ATOM     84  F   UNL A   1      43.547  29.387  35.743  1.00  0.00    -0.206 F 
ATOM     85  C   UNL A   1      44.096  25.926  35.052  1.00  0.00     0.006 A 
ENDBRANCH  64  78
BRANCH  65  86
ATOM     86  C   UNL A   1      44.898  25.952  25.399  1.00  0.00     0.057 A 
ATOM     87  C   UNL A   1      46.233  25.641  25.058  1.00  0.00     0.134 A 
ATOM     88  C   UNL A   1      43.983  24.899  25.248  1.00  0.00     0.134 A 
ATOM     89  F   UNL A   1      47.204  26.556  25.202  1.00  0.00    -0.206 F 
ATOM     90  C   UNL A   1      46.631  24.360  24.634  1.00  0.00     0.040 A 
ATOM     91  C   UNL A   1      44.368  23.615  24.832  1.00  0.00     0.040 A 
ATOM     92  F   UNL A   1      42.698  25.054  25.595  1.00  0.00    -0.206 F 
ATOM     93  C   UNL A   1      45.697  23.335  24.538  1.00  0.00     0.006 A 
ENDBRANCH  65  86
BRANCH  77  94
ATOM     94  C   UNL A   1      45.507  31.598  27.947  1.00  0.00     0.057 A 
ATOM     95  C   UNL A   1      44.540  31.930  26.984  1.00  0.00     0.134 A 
ATOM     96  C   UNL A   1      46.631  32.425  28.024  1.00  0.00     0.134 A 
ATOM     97  F   UNL A   1      43.387  31.256  26.895  1.00  0.00    -0.206 F 
ATOM     98  C   UNL A   1      44.711  33.014  26.113  1.00  0.00     0.040 A 
ATOM     99  C   UNL A   1      46.798  33.526  27.184  1.00  0.00     0.040 A 
ATOM    100  F   UNL A   1      47.567  32.202  28.958  1.00  0.00    -0.206 F 
ATOM    101  C   UNL A   1      45.843  33.818  26.216  1.00  0.00     0.006 A 
ENDBRANCH  77  94
ENDBRANCH  51  52
ENDBRANCH  43  46
ENDBRANCH  41  42
ENDBRANCH  40  41
ENDBRANCH  39  40
ENDBRANCH  38  39
ENDBRANCH  37  38
ENDBRANCH   1  37
TORSDOF 19
ENDMDL
MODEL 3
REMARK VINA RESULT:     -12.7      5.215      9.469
REMARK SMILES O=C(COc1ccccc1[C@@H]1C2=C(CCCC2=O)Nc2nc(SCc3ccccn3)nn21)NCCCCCCNC(=O)c1ccc(-c2c3nc(c(-c4c(F)cccc4F)c4ccc([nH]4)c(-c4c(F)cccc4F)c4nc(c(-c5c(F)cccc5F)c5ccc2[nH]5)C=C4)C=C3)cc1
REMARK SMILES IDX 34 1 33 2 1 3 2 4 3 6 4 7 5 8 6 9 10 10 7 11 9 12 8 13 11 14
REMARK SMILES IDX 12 15 32 16 13 17 17 18 20 19 31 20 14 21 19 22 16 23 18 24
REMARK SMILES IDX 21 25 22 26 15 27 23 29 24 30 25 31 26 32 30 33 27 34 29 35
REMARK SMILES IDX 28 36 35 37 36 38 37 39 38 40 39 41 40 42 41 43 42 45 43 46
REMARK SMILES IDX 44 47 96 48 45 49 95 50 46 51 47 52 48 53 89 54 49 55 94 56
REMARK SMILES IDX 88 57 90 58 50 59 93 60 87 61 86 62 51 64 77 65 60 66 76 67
REMARK SMILES IDX 61 68 64 69 75 70 91 71 62 72 63 73 74 75 92 76 65 77 52 78
REMARK SMILES IDX 53 79 58 80 54 81 55 82 57 83 59 84 56 85 78 86 79 87 84 88
REMARK SMILES IDX 80 89 81 90 83 91 85 92 82 93 66 94 67 95 72 96 68 97 69 98
REMARK SMILES IDX 71 99 73 100 70 101
REMARK H PARENT 33 5 19 28 40 44 90 63 64 74
REMARK Flexibility Score: inf
ROOT
ATOM      1  C   UNL A   1      45.095  29.606  27.422  1.00  0.00     0.116 C 
ENDROOT
BRANCH   1   2
ATOM      2  N   UNL A   1      44.400  28.550  26.701  1.00  0.00    -0.353 N 
ATOM      3  O   UNL A   1      42.574  29.407  27.169  1.00  0.00    -0.271 OA
ATOM      4  C   UNL A   1      42.986  28.311  26.681  1.00  0.00     0.257 C 
ATOM      5  H   UNL A   1      44.959  27.935  26.173  1.00  0.00     0.163 HD
BRANCH   4   6
ATOM      6  C   UNL A   1      41.786  26.616  25.960  1.00  0.00     0.329 C 
BRANCH   6   7
ATOM      7  O   UNL A   1      41.776  25.109  26.099  1.00  0.00    -0.483 OA
BRANCH   7   8
ATOM      8  C   UNL A   1      42.398  24.627  27.212  1.00  0.00     0.125 A 
ATOM      9  C   UNL A   1      42.086  25.118  28.469  1.00  0.00     0.047 A 
ATOM     10  C   UNL A   1      43.482  23.801  27.020  1.00  0.00     0.024 A 
ATOM     11  C   UNL A   1      42.909  24.780  29.543  1.00  0.00     0.004 A 
ATOM     12  C   UNL A   1      44.316  23.463  28.079  1.00  0.00     0.010 A 
ATOM     13  C   UNL A   1      44.028  23.962  29.347  1.00  0.00     0.001 A 
BRANCH  10  14
ATOM     14  C   UNL A   1      43.796  23.578  25.587  1.00  0.00     0.181 C 
ATOM     15  C   UNL A   1      44.091  21.638  25.379  1.00  0.00     0.044 C 
ATOM     16  N   UNL A   1      45.247  24.617  25.040  1.00  0.00    -0.218 N 
ATOM     17  C   UNL A   1      45.460  21.028  24.857  1.00  0.00     0.027 C 
ATOM     18  C   UNL A   1      42.937  20.761  25.608  1.00  0.00     0.163 C 
ATOM     19  C   UNL A   1      46.642  23.836  24.291  1.00  0.00     0.227 A 
ATOM     20  N   UNL A   1      45.638  25.882  25.264  1.00  0.00    -0.141 NA
ATOM     21  C   UNL A   1      45.656  19.541  24.783  1.00  0.00     0.055 C 
ATOM     22  N   UNL A   1      46.713  22.130  24.184  1.00  0.00    -0.328 N 
ATOM     23  C   UNL A   1      43.142  19.265  25.499  1.00  0.00     0.081 C 
ATOM     24  O   UNL A   1      41.823  21.260  25.732  1.00  0.00    -0.294 OA
ATOM     25  N   UNL A   1      47.372  24.856  23.941  1.00  0.00    -0.185 NA
ATOM     26  C   UNL A   1      46.812  25.969  24.598  1.00  0.00     0.210 A 
ATOM     27  C   UNL A   1      44.588  18.761  25.567  1.00  0.00     0.014 C 
ATOM     28  H   UNL A   1      47.486  21.727  23.727  1.00  0.00     0.169 HD
BRANCH  26  29
ATOM     29  S   UNL A   1      47.736  27.461  24.699  1.00  0.00    -0.078 SA
BRANCH  29  30
ATOM     30  C   UNL A   1      49.378  26.961  24.086  1.00  0.00     0.134 C 
BRANCH  30  31
ATOM     31  C   UNL A   1      49.741  27.450  22.695  1.00  0.00     0.051 A 
ATOM     32  C   UNL A   1      49.153  26.903  21.556  1.00  0.00     0.025 A 
ATOM     33  N   UNL A   1      50.639  28.461  22.594  1.00  0.00    -0.260 NA
ATOM     34  C   UNL A   1      49.584  27.277  20.291  1.00  0.00     0.003 A 
ATOM     35  C   UNL A   1      50.980  28.872  21.348  1.00  0.00     0.111 A 
ATOM     36  C   UNL A   1      50.514  28.293  20.181  1.00  0.00     0.020 A 
ENDBRANCH  30  31
ENDBRANCH  29  30
ENDBRANCH  26  29
ENDBRANCH  10  14
ENDBRANCH   7   8
ENDBRANCH   6   7
ENDBRANCH   4   6
ENDBRANCH   1   2
BRANCH   1  37
ATOM     37  C   UNL A   1      45.975  30.402  26.461  1.00  0.00     0.021 C 
BRANCH  37  38
ATOM     38  C   UNL A   1      45.686  31.905  26.334  1.00  0.00     0.002 C 
BRANCH  38  39
ATOM     39  C   UNL A   1      44.229  32.367  26.152  1.00  0.00     0.002 C 
BRANCH  39  40
ATOM     40  C   UNL A   1      43.979  33.492  25.152  1.00  0.00     0.021 C 
BRANCH  40  41
ATOM     41  C   UNL A   1      43.916  34.850  25.811  1.00  0.00     0.116 C 
BRANCH  41  42
ATOM     42  N   UNL A   1      45.180  35.205  26.460  1.00  0.00    -0.352 N 
ATOM     43  C   UNL A   1      45.340  35.791  27.703  1.00  0.00     0.251 C 
ATOM     44  H   UNL A   1      46.003  35.005  25.959  1.00  0.00     0.163 HD
ATOM     45  O   UNL A   1      46.328  36.460  27.976  1.00  0.00    -0.269 OA
BRANCH  43  46
ATOM     46  C   UNL A   1      44.311  35.509  28.718  1.00  0.00     0.039 A 
ATOM     47  C   UNL A   1      43.303  36.402  29.080  1.00  0.00     0.014 A 
ATOM     48  C   UNL A   1      44.337  34.224  29.239  1.00  0.00     0.014 A 
ATOM     49  C   UNL A   1      42.344  35.971  30.001  1.00  0.00     0.010 A 
ATOM     50  C   UNL A   1      43.195  33.736  29.792  1.00  0.00     0.010 A 
ATOM     51  C   UNL A   1      42.317  34.616  30.382  1.00  0.00    -0.014 A 
BRANCH  51  52
ATOM     52  C   UNL A   1      41.233  33.990  31.131  1.00  0.00     0.031 A 
ATOM     53  C   UNL A   1      41.666  33.758  32.529  1.00  0.00     0.074 A 
ATOM     54  C   UNL A   1      39.964  33.836  30.661  1.00  0.00     0.049 A 
ATOM     55  N   UNL A   1      42.119  32.643  32.993  1.00  0.00    -0.248 NA
ATOM     56  C   UNL A   1      41.936  34.908  33.415  1.00  0.00     0.031 C 
ATOM     57  C   UNL A   1      39.398  34.251  29.368  1.00  0.00     0.029 A 
ATOM     58  N   UNL A   1      38.866  33.282  31.279  1.00  0.00    -0.354 N 
ATOM     59  C   UNL A   1      42.383  32.887  34.332  1.00  0.00     0.074 A 
ATOM     60  C   UNL A   1      42.540  34.309  34.447  1.00  0.00     0.031 C 
ATOM     61  C   UNL A   1      38.045  34.145  29.386  1.00  0.00     0.029 A 
ATOM     62  C   UNL A   1      37.633  33.519  30.627  1.00  0.00     0.049 A 
ATOM     63  H   UNL A   1      38.932  32.760  32.110  1.00  0.00     0.167 HD
ATOM     64  C   UNL A   1      42.045  31.938  35.248  1.00  0.00     0.037 A 
ATOM     65  C   UNL A   1      36.386  33.177  31.077  1.00  0.00     0.037 A 
ATOM     66  C   UNL A   1      41.797  30.677  34.576  1.00  0.00     0.049 A 
ATOM     67  C   UNL A   1      36.576  32.093  32.075  1.00  0.00     0.074 A 
ATOM     68  C   UNL A   1      42.531  29.840  33.758  1.00  0.00     0.029 A 
ATOM     69  N   UNL A   1      40.477  30.383  34.342  1.00  0.00    -0.354 N 
ATOM     70  N   UNL A   1      37.018  30.909  31.754  1.00  0.00    -0.248 NA
ATOM     71  C   UNL A   1      36.820  32.517  33.444  1.00  0.00     0.031 C 
ATOM     72  C   UNL A   1      41.611  29.394  32.761  1.00  0.00     0.029 A 
ATOM     73  C   UNL A   1      40.339  29.861  33.087  1.00  0.00     0.049 A 
ATOM     74  H   UNL A   1      39.742  30.526  34.982  1.00  0.00     0.167 HD
ATOM     75  C   UNL A   1      38.013  30.662  32.685  1.00  0.00     0.074 A 
ATOM     76  C   UNL A   1      37.823  31.681  33.725  1.00  0.00     0.031 C 
ATOM     77  C   UNL A   1      39.091  29.886  32.362  1.00  0.00     0.037 A 
BRANCH  64  78
ATOM     78  C   UNL A   1      41.423  32.240  36.597  1.00  0.00     0.057 A 
ATOM     79  C   UNL A   1      40.274  33.054  36.629  1.00  0.00     0.134 A 
ATOM     80  C   UNL A   1      42.052  32.057  37.847  1.00  0.00     0.134 A 
ATOM     81  F   UNL A   1      39.586  33.315  35.507  1.00  0.00    -0.206 F 
ATOM     82  C   UNL A   1      39.848  33.714  37.788  1.00  0.00     0.040 A 
ATOM     83  C   UNL A   1      41.608  32.675  39.019  1.00  0.00     0.040 A 
ATOM     84  F   UNL A   1      43.181  31.361  38.002  1.00  0.00    -0.206 F 
ATOM     85  C   UNL A   1      40.523  33.533  38.988  1.00  0.00     0.006 A 
ENDBRANCH  64  78
BRANCH  65  86
ATOM     86  C   UNL A   1      35.086  33.911  31.011  1.00  0.00     0.057 A 
ATOM     87  C   UNL A   1      34.762  34.948  31.913  1.00  0.00     0.134 A 
ATOM     88  C   UNL A   1      34.280  33.843  29.865  1.00  0.00     0.134 A 
ATOM     89  F   UNL A   1      35.491  35.138  33.024  1.00  0.00    -0.206 F 
ATOM     90  C   UNL A   1      33.733  35.875  31.667  1.00  0.00     0.040 A 
ATOM     91  C   UNL A   1      33.253  34.765  29.605  1.00  0.00     0.040 A 
ATOM     92  F   UNL A   1      34.526  32.938  28.908  1.00  0.00    -0.206 F 
ATOM     93  C   UNL A   1      32.986  35.795  30.498  1.00  0.00     0.006 A 
ENDBRANCH  65  86
BRANCH  77  94
ATOM     94  C   UNL A   1      39.035  29.100  31.079  1.00  0.00     0.057 A 
ATOM     95  C   UNL A   1      39.392  29.590  29.812  1.00  0.00     0.134 A 
ATOM     96  C   UNL A   1      38.743  27.737  31.168  1.00  0.00     0.134 A 
ATOM     97  F   UNL A   1      39.779  30.860  29.641  1.00  0.00    -0.206 F 
ATOM     98  C   UNL A   1      39.416  28.761  28.682  1.00  0.00     0.040 A 
ATOM     99  C   UNL A   1      38.793  26.894  30.058  1.00  0.00     0.040 A 
ATOM    100  F   UNL A   1      38.450  27.189  32.358  1.00  0.00    -0.206 F 
ATOM    101  C   UNL A   1      39.118  27.407  28.807  1.00  0.00     0.006 A 
ENDBRANCH  77  94
ENDBRANCH  51  52
ENDBRANCH  43  46
ENDBRANCH  41  42
ENDBRANCH  40  41
ENDBRANCH  39  40
ENDBRANCH  38  39
ENDBRANCH  37  38
ENDBRANCH   1  37
TORSDOF 19
ENDMDL
