MODEL 1
REMARK VINA RESULT:     -11.9      0.000      0.000
REMARK SMILES O=C(NCCCCCCNC(=O)c1ccc([C@H]2CCC[N@@H+](CCN3CCCC3=O)C2)cc1)c1ccc(-c2c3nc(c(-c4c(F)cccc4F)c4ccc([nH]4)c(-c4c(F)cccc4F)c4nc(c(-c5c(F)cccc5F)c5ccc2[nH]5)C=C4)C=C3)cc1
REMARK SMILES IDX 7 1 6 2 5 3 4 4 3 5 1 6 2 7 33 9 34 10 86 11 35 12 85 13
REMARK SMILES IDX 36 14 37 15 38 16 79 17 39 18 84 19 78 20 80 21 40 22 83 23
REMARK SMILES IDX 77 24 76 25 41 27 67 28 50 29 66 30 51 31 54 32 65 33 81 34
REMARK SMILES IDX 52 35 53 36 64 38 82 39 55 40 42 41 43 42 48 43 44 44 45 45
REMARK SMILES IDX 47 46 49 47 46 48 68 49 69 50 74 51 70 52 71 53 73 54 75 55
REMARK SMILES IDX 72 56 56 57 57 58 62 59 58 60 59 61 61 62 63 63 60 64 8 65
REMARK SMILES IDX 9 66 10 67 11 68 12 70 13 71 14 72 32 73 15 74 31 75 16 76
REMARK SMILES IDX 17 77 18 78 30 79 19 80 21 81 20 82 22 84 23 85 24 86 25 87
REMARK SMILES IDX 28 88 26 89 27 90 29 91
REMARK H PARENT 3 8 80 26 54 37 10 69 21 83
REMARK Flexibility Score: inf
ROOT
ATOM      1  C   UNL A   1      37.416  21.768  24.538  1.00  0.00     0.002 C 
ENDROOT
BRANCH   1   2
ATOM      2  C   UNL A   1      38.209  22.123  25.800  1.00  0.00     0.002 C 
BRANCH   2   3
ATOM      3  C   UNL A   1      39.203  21.061  26.265  1.00  0.00     0.021 C 
BRANCH   3   4
ATOM      4  C   UNL A   1      39.309  19.840  25.359  1.00  0.00     0.116 C 
BRANCH   4   5
ATOM      5  N   UNL A   1      40.372  18.929  25.759  1.00  0.00    -0.352 N 
ATOM      6  O   UNL A   1      42.455  18.326  26.394  1.00  0.00    -0.269 OA
ATOM      7  C   UNL A   1      41.624  19.216  26.250  1.00  0.00     0.251 C 
ATOM      8  H   UNL A   1      40.165  17.972  25.665  1.00  0.00     0.163 HD
BRANCH   7   9
ATOM      9  C   UNL A   1      41.975  20.614  26.582  1.00  0.00     0.039 A 
ATOM     10  C   UNL A   1      42.231  21.539  25.568  1.00  0.00     0.014 A 
ATOM     11  C   UNL A   1      42.054  21.002  27.923  1.00  0.00     0.014 A 
ATOM     12  C   UNL A   1      42.711  22.802  25.891  1.00  0.00     0.010 A 
ATOM     13  C   UNL A   1      42.442  22.305  28.246  1.00  0.00     0.010 A 
ATOM     14  C   UNL A   1      42.802  23.208  27.233  1.00  0.00    -0.014 A 
BRANCH  14  15
ATOM     15  C   UNL A   1      43.199  24.605  27.540  1.00  0.00     0.031 A 
ATOM     16  C   UNL A   1      42.191  25.632  27.973  1.00  0.00     0.074 A 
ATOM     17  C   UNL A   1      44.502  24.936  27.444  1.00  0.00     0.049 A 
ATOM     18  N   UNL A   1      42.381  26.888  28.292  1.00  0.00    -0.248 NA
ATOM     19  C   UNL A   1      40.788  25.199  28.051  1.00  0.00     0.031 C 
ATOM     20  C   UNL A   1      45.570  24.025  27.024  1.00  0.00     0.029 A 
ATOM     21  N   UNL A   1      45.153  26.112  27.706  1.00  0.00    -0.354 N 
ATOM     22  C   UNL A   1      41.125  27.400  28.595  1.00  0.00     0.074 A 
ATOM     23  C   UNL A   1      40.175  26.326  28.390  1.00  0.00     0.031 C 
ATOM     24  C   UNL A   1      46.747  24.662  27.100  1.00  0.00     0.029 A 
ATOM     25  C   UNL A   1      46.510  26.042  27.503  1.00  0.00     0.049 A 
ATOM     26  H   UNL A   1      44.694  26.929  28.009  1.00  0.00     0.167 HD
ATOM     27  C   UNL A   1      40.799  28.648  29.010  1.00  0.00     0.037 A 
ATOM     28  C   UNL A   1      47.459  26.989  27.606  1.00  0.00     0.037 A 
ATOM     29  C   UNL A   1      41.753  29.711  29.208  1.00  0.00     0.049 A 
ATOM     30  C   UNL A   1      47.063  28.375  28.022  1.00  0.00     0.074 A 
ATOM     31  C   UNL A   1      41.527  31.000  29.660  1.00  0.00     0.029 A 
ATOM     32  N   UNL A   1      43.115  29.614  28.953  1.00  0.00    -0.354 N 
ATOM     33  N   UNL A   1      45.878  28.832  28.347  1.00  0.00    -0.248 NA
ATOM     34  C   UNL A   1      48.134  29.376  28.081  1.00  0.00     0.031 C 
ATOM     35  C   UNL A   1      42.738  31.698  29.621  1.00  0.00     0.029 A 
ATOM     36  C   UNL A   1      43.734  30.829  29.207  1.00  0.00     0.049 A 
ATOM     37  H   UNL A   1      43.573  28.801  28.639  1.00  0.00     0.167 HD
ATOM     38  C   UNL A   1      46.064  30.169  28.669  1.00  0.00     0.074 A 
ATOM     39  C   UNL A   1      47.479  30.441  28.521  1.00  0.00     0.031 C 
ATOM     40  C   UNL A   1      45.143  31.088  29.053  1.00  0.00     0.037 A 
BRANCH  27  41
ATOM     41  C   UNL A   1      39.345  28.945  29.252  1.00  0.00     0.057 A 
ATOM     42  C   UNL A   1      38.761  28.819  30.520  1.00  0.00     0.134 A 
ATOM     43  C   UNL A   1      38.527  29.404  28.210  1.00  0.00     0.134 A 
ATOM     44  F   UNL A   1      39.481  28.378  31.561  1.00  0.00    -0.206 F 
ATOM     45  C   UNL A   1      37.411  29.112  30.736  1.00  0.00     0.040 A 
ATOM     46  C   UNL A   1      37.185  29.726  28.420  1.00  0.00     0.040 A 
ATOM     47  F   UNL A   1      39.022  29.558  26.973  1.00  0.00    -0.206 F 
ATOM     48  C   UNL A   1      36.621  29.573  29.685  1.00  0.00     0.006 A 
ENDBRANCH  27  41
BRANCH  28  49
ATOM     49  C   UNL A   1      48.871  26.653  27.298  1.00  0.00     0.057 A 
ATOM     50  C   UNL A   1      49.709  26.083  28.262  1.00  0.00     0.134 A 
ATOM     51  C   UNL A   1      49.414  26.881  26.026  1.00  0.00     0.134 A 
ATOM     52  F   UNL A   1      49.252  25.853  29.503  1.00  0.00    -0.206 F 
ATOM     53  C   UNL A   1      51.038  25.766  27.980  1.00  0.00     0.040 A 
ATOM     54  C   UNL A   1      50.732  26.541  25.720  1.00  0.00     0.040 A 
ATOM     55  F   UNL A   1      48.660  27.416  25.054  1.00  0.00    -0.206 F 
ATOM     56  C   UNL A   1      51.550  25.989  26.703  1.00  0.00     0.006 A 
ENDBRANCH  28  49
BRANCH  40  57
ATOM     57  C   UNL A   1      45.648  32.466  29.368  1.00  0.00     0.057 A 
ATOM     58  C   UNL A   1      45.701  33.478  28.401  1.00  0.00     0.134 A 
ATOM     59  C   UNL A   1      46.067  32.791  30.666  1.00  0.00     0.134 A 
ATOM     60  F   UNL A   1      45.330  33.230  27.136  1.00  0.00    -0.206 F 
ATOM     61  C   UNL A   1      46.179  34.755  28.706  1.00  0.00     0.040 A 
ATOM     62  C   UNL A   1      46.517  34.072  30.989  1.00  0.00     0.040 A 
ATOM     63  F   UNL A   1      46.036  31.872  31.643  1.00  0.00    -0.206 F 
ATOM     64  C   UNL A   1      46.582  35.056  30.005  1.00  0.00     0.006 A 
ENDBRANCH  40  57
ENDBRANCH  14  15
ENDBRANCH   7   9
ENDBRANCH   4   5
ENDBRANCH   3   4
ENDBRANCH   2   3
ENDBRANCH   1   2
BRANCH   1  65
ATOM     65  C   UNL A   1      35.904  22.013  24.613  1.00  0.00     0.021 C 
BRANCH  65  66
ATOM     66  C   UNL A   1      35.188  21.317  25.773  1.00  0.00     0.116 C 
BRANCH  66  67
ATOM     67  N   UNL A   1      34.018  20.576  25.329  1.00  0.00    -0.352 N 
ATOM     68  C   UNL A   1      32.714  20.996  25.232  1.00  0.00     0.251 C 
ATOM     69  H   UNL A   1      34.184  19.644  25.061  1.00  0.00     0.163 HD
ATOM     70  O   UNL A   1      31.812  20.192  25.023  1.00  0.00    -0.269 OA
BRANCH  68  71
ATOM     71  C   UNL A   1      32.404  22.428  25.375  1.00  0.00     0.039 A 
ATOM     72  C   UNL A   1      32.056  22.940  26.622  1.00  0.00     0.014 A 
ATOM     73  C   UNL A   1      32.441  23.263  24.261  1.00  0.00     0.014 A 
ATOM     74  C   UNL A   1      31.877  24.319  26.777  1.00  0.00     0.005 A 
ATOM     75  C   UNL A   1      32.240  24.635  24.422  1.00  0.00     0.005 A 
ATOM     76  C   UNL A   1      32.052  25.204  25.696  1.00  0.00    -0.039 A 
BRANCH  76  77
ATOM     77  C   UNL A   1      32.097  26.733  25.925  1.00  0.00     0.074 C 
ATOM     78  C   UNL A   1      33.526  27.270  25.700  1.00  0.00     0.020 C 
ATOM     79  C   UNL A   1      31.096  27.496  25.007  1.00  0.00     0.270 C 
ATOM     80  C   UNL A   1      33.568  28.790  25.691  1.00  0.00     0.062 C 
ATOM     81  N   UNL A   1      31.275  28.937  24.790  1.00  0.00    -0.333 N 
ATOM     82  C   UNL A   1      32.668  29.335  24.593  1.00  0.00     0.262 C 
ATOM     83  H   UNL A   1      30.979  29.384  25.657  1.00  0.00     0.348 HD
BRANCH  81  84
ATOM     84  C   UNL A   1      30.405  29.437  23.693  1.00  0.00     0.284 C 
BRANCH  84  85
ATOM     85  C   UNL A   1      29.518  30.707  23.896  1.00  0.00     0.180 C 
BRANCH  85  86
ATOM     86  N   UNL A   1      28.818  31.177  22.709  1.00  0.00    -0.337 N 
ATOM     87  C   UNL A   1      28.079  30.296  21.841  1.00  0.00     0.120 C 
ATOM     88  C   UNL A   1      28.705  32.503  22.320  1.00  0.00     0.222 C 
ATOM     89  C   UNL A   1      27.987  31.078  20.548  1.00  0.00     0.031 C 
ATOM     90  C   UNL A   1      27.980  32.534  20.998  1.00  0.00     0.102 C 
ATOM     91  O   UNL A   1      29.113  33.489  22.915  1.00  0.00    -0.275 OA
ENDBRANCH  85  86
ENDBRANCH  84  85
ENDBRANCH  81  84
ENDBRANCH  76  77
ENDBRANCH  68  71
ENDBRANCH  66  67
ENDBRANCH  65  66
ENDBRANCH   1  65
TORSDOF 17
ENDMDL
MODEL 2
REMARK VINA RESULT:     -11.8      4.545      7.290
REMARK SMILES O=C(NCCCCCCNC(=O)c1ccc([C@H]2CCC[N@@H+](CCN3CCCC3=O)C2)cc1)c1ccc(-c2c3nc(c(-c4c(F)cccc4F)c4ccc([nH]4)c(-c4c(F)cccc4F)c4nc(c(-c5c(F)cccc5F)c5ccc2[nH]5)C=C4)C=C3)cc1
REMARK SMILES IDX 7 1 6 2 5 3 4 4 3 5 1 6 2 7 33 9 34 10 86 11 35 12 85 13
REMARK SMILES IDX 36 14 37 15 38 16 79 17 39 18 84 19 78 20 80 21 40 22 83 23
REMARK SMILES IDX 77 24 76 25 41 27 67 28 50 29 66 30 51 31 54 32 65 33 81 34
REMARK SMILES IDX 52 35 53 36 64 38 82 39 55 40 42 41 43 42 48 43 44 44 45 45
REMARK SMILES IDX 47 46 49 47 46 48 68 49 69 50 74 51 70 52 71 53 73 54 75 55
REMARK SMILES IDX 72 56 56 57 57 58 62 59 58 60 59 61 61 62 63 63 60 64 8 65
REMARK SMILES IDX 9 66 10 67 11 68 12 70 13 71 14 72 32 73 15 74 31 75 16 76
REMARK SMILES IDX 17 77 18 78 30 79 19 80 21 81 20 82 22 84 23 85 24 86 25 87
REMARK SMILES IDX 28 88 26 89 27 90 29 91
REMARK H PARENT 3 8 80 26 54 37 10 69 21 83
REMARK Flexibility Score: inf
ROOT
ATOM      1  C   UNL A   1      40.985  27.951  28.322  1.00  0.00     0.002 C 
ENDROOT
BRANCH   1   2
ATOM      2  C   UNL A   1      39.631  27.361  27.914  1.00  0.00     0.002 C 
BRANCH   2   3
ATOM      3  C   UNL A   1      39.582  25.836  27.832  1.00  0.00     0.021 C 
BRANCH   3   4
ATOM      4  C   UNL A   1      39.928  25.255  26.467  1.00  0.00     0.116 C 
BRANCH   4   5
ATOM      5  N   UNL A   1      40.540  23.937  26.551  1.00  0.00    -0.352 N 
ATOM      6  O   UNL A   1      42.199  22.410  26.411  1.00  0.00    -0.269 OA
ATOM      7  C   UNL A   1      41.868  23.589  26.473  1.00  0.00     0.251 C 
ATOM      8  H   UNL A   1      39.914  23.189  26.683  1.00  0.00     0.163 HD
BRANCH   7   9
ATOM      9  C   UNL A   1      42.900  24.648  26.439  1.00  0.00     0.039 A 
ATOM     10  C   UNL A   1      43.561  25.030  27.608  1.00  0.00     0.014 A 
ATOM     11  C   UNL A   1      43.206  25.268  25.224  1.00  0.00     0.014 A 
ATOM     12  C   UNL A   1      44.410  26.129  27.592  1.00  0.00     0.010 A 
ATOM     13  C   UNL A   1      44.137  26.310  25.193  1.00  0.00     0.010 A 
ATOM     14  C   UNL A   1      44.726  26.768  26.383  1.00  0.00    -0.014 A 
BRANCH  14  15
ATOM     15  C   UNL A   1      45.734  27.858  26.382  1.00  0.00     0.031 A 
ATOM     16  C   UNL A   1      45.338  29.296  26.566  1.00  0.00     0.074 A 
ATOM     17  C   UNL A   1      47.032  27.528  26.233  1.00  0.00     0.049 A 
ATOM     18  N   UNL A   1      46.100  30.360  26.604  1.00  0.00    -0.248 NA
ATOM     19  C   UNL A   1      43.904  29.580  26.719  1.00  0.00     0.031 C 
ATOM     20  C   UNL A   1      47.535  26.166  26.036  1.00  0.00     0.029 A 
ATOM     21  N   UNL A   1      48.163  28.301  26.239  1.00  0.00    -0.354 N 
ATOM     22  C   UNL A   1      45.241  31.440  26.772  1.00  0.00     0.074 A 
ATOM     23  C   UNL A   1      43.896  30.904  26.795  1.00  0.00     0.031 C 
ATOM     24  C   UNL A   1      48.874  26.194  25.986  1.00  0.00     0.029 A 
ATOM     25  C   UNL A   1      49.320  27.578  26.074  1.00  0.00     0.049 A 
ATOM     26  H   UNL A   1      48.149  29.279  26.350  1.00  0.00     0.167 HD
ATOM     27  C   UNL A   1      45.550  32.753  26.899  1.00  0.00     0.037 A 
ATOM     28  C   UNL A   1      50.598  27.984  25.979  1.00  0.00     0.037 A 
ATOM     29  C   UNL A   1      46.893  33.277  26.872  1.00  0.00     0.049 A 
ATOM     30  C   UNL A   1      50.906  29.449  26.076  1.00  0.00     0.074 A 
ATOM     31  C   UNL A   1      47.312  34.587  27.028  1.00  0.00     0.029 A 
ATOM     32  N   UNL A   1      48.037  32.517  26.662  1.00  0.00    -0.354 N 
ATOM     33  N   UNL A   1      50.087  30.453  26.278  1.00  0.00    -0.248 NA
ATOM     34  C   UNL A   1      52.314  29.837  25.928  1.00  0.00     0.031 C 
ATOM     35  C   UNL A   1      48.699  34.629  26.853  1.00  0.00     0.029 A 
ATOM     36  C   UNL A   1      49.156  33.337  26.652  1.00  0.00     0.049 A 
ATOM     37  H   UNL A   1      48.051  31.541  26.540  1.00  0.00     0.167 HD
ATOM     38  C   UNL A   1      50.883  31.590  26.302  1.00  0.00     0.074 A 
ATOM     39  C   UNL A   1      52.249  31.148  26.116  1.00  0.00     0.031 C 
ATOM     40  C   UNL A   1      50.512  32.885  26.463  1.00  0.00     0.037 A 
BRANCH  27  41
ATOM     41  C   UNL A   1      44.413  33.725  27.052  1.00  0.00     0.057 A 
ATOM     42  C   UNL A   1      43.920  34.104  28.308  1.00  0.00     0.134 A 
ATOM     43  C   UNL A   1      43.829  34.323  25.926  1.00  0.00     0.134 A 
ATOM     44  F   UNL A   1      44.425  33.566  29.428  1.00  0.00    -0.206 F 
ATOM     45  C   UNL A   1      42.872  35.019  28.438  1.00  0.00     0.040 A 
ATOM     46  C   UNL A   1      42.800  35.260  26.045  1.00  0.00     0.040 A 
ATOM     47  F   UNL A   1      44.257  34.016  24.693  1.00  0.00    -0.206 F 
ATOM     48  C   UNL A   1      42.314  35.605  27.303  1.00  0.00     0.006 A 
ENDBRANCH  27  41
BRANCH  28  49
ATOM     49  C   UNL A   1      51.675  26.984  25.770  1.00  0.00     0.057 A 
ATOM     50  C   UNL A   1      52.268  26.320  26.849  1.00  0.00     0.134 A 
ATOM     51  C   UNL A   1      52.127  26.658  24.485  1.00  0.00     0.134 A 
ATOM     52  F   UNL A   1      51.888  26.599  28.105  1.00  0.00    -0.206 F 
ATOM     53  C   UNL A   1      53.282  25.380  26.661  1.00  0.00     0.040 A 
ATOM     54  C   UNL A   1      53.118  25.699  24.278  1.00  0.00     0.040 A 
ATOM     55  F   UNL A   1      51.592  27.252  23.408  1.00  0.00    -0.206 F 
ATOM     56  C   UNL A   1      53.704  25.062  25.371  1.00  0.00     0.006 A 
ENDBRANCH  28  49
BRANCH  40  57
ATOM     57  C   UNL A   1      51.608  33.910  26.476  1.00  0.00     0.057 A 
ATOM     58  C   UNL A   1      52.255  34.292  27.657  1.00  0.00     0.134 A 
ATOM     59  C   UNL A   1      52.037  34.508  25.283  1.00  0.00     0.134 A 
ATOM     60  F   UNL A   1      51.884  33.770  28.836  1.00  0.00    -0.206 F 
ATOM     61  C   UNL A   1      53.270  35.252  27.657  1.00  0.00     0.040 A 
ATOM     62  C   UNL A   1      53.071  35.445  25.266  1.00  0.00     0.040 A 
ATOM     63  F   UNL A   1      51.465  34.183  24.113  1.00  0.00    -0.206 F 
ATOM     64  C   UNL A   1      53.685  35.826  26.456  1.00  0.00     0.006 A 
ENDBRANCH  40  57
ENDBRANCH  14  15
ENDBRANCH   7   9
ENDBRANCH   4   5
ENDBRANCH   3   4
ENDBRANCH   2   3
ENDBRANCH   1   2
BRANCH   1  65
ATOM     65  C   UNL A   1      41.623  27.343  29.577  1.00  0.00     0.021 C 
BRANCH  65  66
ATOM     66  C   UNL A   1      42.206  28.355  30.567  1.00  0.00     0.116 C 
BRANCH  66  67
ATOM     67  N   UNL A   1      41.681  28.171  31.910  1.00  0.00    -0.352 N 
ATOM     68  C   UNL A   1      40.502  28.625  32.449  1.00  0.00     0.251 C 
ATOM     69  H   UNL A   1      42.252  27.649  32.519  1.00  0.00     0.163 HD
ATOM     70  O   UNL A   1      40.294  28.550  33.654  1.00  0.00    -0.269 OA
BRANCH  68  71
ATOM     71  C   UNL A   1      39.478  29.202  31.561  1.00  0.00     0.039 A 
ATOM     72  C   UNL A   1      39.639  30.493  31.065  1.00  0.00     0.014 A 
ATOM     73  C   UNL A   1      38.344  28.463  31.235  1.00  0.00     0.014 A 
ATOM     74  C   UNL A   1      38.725  30.993  30.131  1.00  0.00     0.005 A 
ATOM     75  C   UNL A   1      37.426  28.979  30.318  1.00  0.00     0.005 A 
ATOM     76  C   UNL A   1      37.648  30.211  29.673  1.00  0.00    -0.039 A 
BRANCH  76  77
ATOM     77  C   UNL A   1      36.794  30.670  28.468  1.00  0.00     0.074 C 
ATOM     78  C   UNL A   1      35.523  29.803  28.347  1.00  0.00     0.020 C 
ATOM     79  C   UNL A   1      36.398  32.174  28.565  1.00  0.00     0.270 C 
ATOM     80  C   UNL A   1      34.548  30.362  27.322  1.00  0.00     0.062 C 
ATOM     81  N   UNL A   1      35.283  32.678  27.754  1.00  0.00    -0.333 N 
ATOM     82  C   UNL A   1      34.135  31.774  27.705  1.00  0.00     0.262 C 
ATOM     83  H   UNL A   1      35.639  32.727  26.800  1.00  0.00     0.348 HD
BRANCH  81  84
ATOM     84  C   UNL A   1      34.881  34.048  28.167  1.00  0.00     0.284 C 
BRANCH  84  85
ATOM     85  C   UNL A   1      33.577  34.281  28.994  1.00  0.00     0.180 C 
BRANCH  85  86
ATOM     86  N   UNL A   1      33.779  34.685  30.379  1.00  0.00    -0.337 N 
ATOM     87  C   UNL A   1      34.555  33.909  31.312  1.00  0.00     0.120 C 
ATOM     88  C   UNL A   1      33.335  35.875  30.937  1.00  0.00     0.222 C 
ATOM     89  C   UNL A   1      34.071  34.400  32.660  1.00  0.00     0.031 C 
ATOM     90  C   UNL A   1      33.680  35.851  32.405  1.00  0.00     0.102 C 
ATOM     91  O   UNL A   1      32.761  36.792  30.370  1.00  0.00    -0.275 OA
ENDBRANCH  85  86
ENDBRANCH  84  85
ENDBRANCH  81  84
ENDBRANCH  76  77
ENDBRANCH  68  71
ENDBRANCH  66  67
ENDBRANCH  65  66
ENDBRANCH   1  65
TORSDOF 17
ENDMDL
MODEL 3
REMARK VINA RESULT:     -11.7      0.640      6.063
REMARK SMILES O=C(NCCCCCCNC(=O)c1ccc([C@H]2CCC[N@@H+](CCN3CCCC3=O)C2)cc1)c1ccc(-c2c3nc(c(-c4c(F)cccc4F)c4ccc([nH]4)c(-c4c(F)cccc4F)c4nc(c(-c5c(F)cccc5F)c5ccc2[nH]5)C=C4)C=C3)cc1
REMARK SMILES IDX 7 1 6 2 5 3 4 4 3 5 1 6 2 7 33 9 34 10 86 11 35 12 85 13
REMARK SMILES IDX 36 14 37 15 38 16 79 17 39 18 84 19 78 20 80 21 40 22 83 23
REMARK SMILES IDX 77 24 76 25 41 27 67 28 50 29 66 30 51 31 54 32 65 33 81 34
REMARK SMILES IDX 52 35 53 36 64 38 82 39 55 40 42 41 43 42 48 43 44 44 45 45
REMARK SMILES IDX 47 46 49 47 46 48 68 49 69 50 74 51 70 52 71 53 73 54 75 55
REMARK SMILES IDX 72 56 56 57 57 58 62 59 58 60 59 61 61 62 63 63 60 64 8 65
REMARK SMILES IDX 9 66 10 67 11 68 12 70 13 71 14 72 32 73 15 74 31 75 16 76
REMARK SMILES IDX 17 77 18 78 30 79 19 80 21 81 20 82 22 84 23 85 24 86 25 87
REMARK SMILES IDX 28 88 26 89 27 90 29 91
REMARK H PARENT 3 8 80 26 54 37 10 69 21 83
REMARK Flexibility Score: inf
ROOT
ATOM      1  C   UNL A   1      37.468  21.881  24.488  1.00  0.00     0.002 C 
ENDROOT
BRANCH   1   2
ATOM      2  C   UNL A   1      38.144  22.239  25.816  1.00  0.00     0.002 C 
BRANCH   2   3
ATOM      3  C   UNL A   1      39.205  21.250  26.295  1.00  0.00     0.021 C 
BRANCH   3   4
ATOM      4  C   UNL A   1      39.377  20.018  25.415  1.00  0.00     0.116 C 
BRANCH   4   5
ATOM      5  N   UNL A   1      40.451  19.146  25.867  1.00  0.00    -0.352 N 
ATOM      6  O   UNL A   1      42.531  18.615  26.576  1.00  0.00    -0.269 OA
ATOM      7  C   UNL A   1      41.680  19.479  26.387  1.00  0.00     0.251 C 
ATOM      8  H   UNL A   1      40.273  18.181  25.790  1.00  0.00     0.163 HD
BRANCH   7   9
ATOM      9  C   UNL A   1      41.984  20.893  26.696  1.00  0.00     0.039 A 
ATOM     10  C   UNL A   1      42.246  21.801  25.669  1.00  0.00     0.014 A 
ATOM     11  C   UNL A   1      42.011  21.314  28.029  1.00  0.00     0.014 A 
ATOM     12  C   UNL A   1      42.683  23.083  25.976  1.00  0.00     0.010 A 
ATOM     13  C   UNL A   1      42.354  22.634  28.332  1.00  0.00     0.010 A 
ATOM     14  C   UNL A   1      42.722  23.522  27.309  1.00  0.00    -0.014 A 
BRANCH  14  15
ATOM     15  C   UNL A   1      43.072  24.937  27.595  1.00  0.00     0.031 A 
ATOM     16  C   UNL A   1      44.448  25.476  27.329  1.00  0.00     0.074 A 
ATOM     17  C   UNL A   1      42.112  25.746  28.085  1.00  0.00     0.049 A 
ATOM     18  N   UNL A   1      44.906  26.689  27.510  1.00  0.00    -0.248 NA
ATOM     19  C   UNL A   1      45.443  24.533  26.797  1.00  0.00     0.031 C 
ATOM     20  C   UNL A   1      40.741  25.332  28.394  1.00  0.00     0.029 A 
ATOM     21  N   UNL A   1      42.132  27.081  28.394  1.00  0.00    -0.354 N 
ATOM     22  C   UNL A   1      46.242  26.655  27.130  1.00  0.00     0.074 A 
ATOM     23  C   UNL A   1      46.531  25.291  26.738  1.00  0.00     0.031 C 
ATOM     24  C   UNL A   1      40.040  26.398  28.803  1.00  0.00     0.029 A 
ATOM     25  C   UNL A   1      40.927  27.553  28.856  1.00  0.00     0.049 A 
ATOM     26  H   UNL A   1      42.932  27.647  28.295  1.00  0.00     0.167 HD
ATOM     27  C   UNL A   1      47.140  27.670  27.107  1.00  0.00     0.037 A 
ATOM     28  C   UNL A   1      40.578  28.774  29.298  1.00  0.00     0.037 A 
ATOM     29  C   UNL A   1      46.843  29.025  27.501  1.00  0.00     0.049 A 
ATOM     30  C   UNL A   1      41.607  29.866  29.305  1.00  0.00     0.074 A 
ATOM     31  C   UNL A   1      47.675  30.131  27.480  1.00  0.00     0.029 A 
ATOM     32  N   UNL A   1      45.622  29.455  28.003  1.00  0.00    -0.354 N 
ATOM     33  N   UNL A   1      42.854  29.830  28.902  1.00  0.00    -0.248 NA
ATOM     34  C   UNL A   1      41.180  31.168  29.832  1.00  0.00     0.031 C 
ATOM     35  C   UNL A   1      46.978  31.215  28.024  1.00  0.00     0.029 A 
ATOM     36  C   UNL A   1      45.690  30.803  28.325  1.00  0.00     0.049 A 
ATOM     37  H   UNL A   1      44.825  28.888  28.113  1.00  0.00     0.167 HD
ATOM     38  C   UNL A   1      43.355  31.108  29.107  1.00  0.00     0.074 A 
ATOM     39  C   UNL A   1      42.271  31.900  29.649  1.00  0.00     0.031 C 
ATOM     40  C   UNL A   1      44.604  31.580  28.868  1.00  0.00     0.037 A 
BRANCH  27  41
ATOM     41  C   UNL A   1      48.542  27.351  26.664  1.00  0.00     0.057 A 
ATOM     42  C   UNL A   1      48.926  27.395  25.317  1.00  0.00     0.134 A 
ATOM     43  C   UNL A   1      49.533  27.035  27.605  1.00  0.00     0.134 A 
ATOM     44  F   UNL A   1      48.029  27.681  24.363  1.00  0.00    -0.206 F 
ATOM     45  C   UNL A   1      50.235  27.110  24.920  1.00  0.00     0.040 A 
ATOM     46  C   UNL A   1      50.850  26.777  27.222  1.00  0.00     0.040 A 
ATOM     47  F   UNL A   1      49.239  26.985  28.913  1.00  0.00    -0.206 F 
ATOM     48  C   UNL A   1      51.203  26.806  25.875  1.00  0.00     0.006 A 
ENDBRANCH  27  41
BRANCH  28  49
ATOM     49  C   UNL A   1      39.195  29.016  29.777  1.00  0.00     0.057 A 
ATOM     50  C   UNL A   1      38.840  28.793  31.111  1.00  0.00     0.134 A 
ATOM     51  C   UNL A   1      38.198  29.492  28.915  1.00  0.00     0.134 A 
ATOM     52  F   UNL A   1      39.747  28.325  31.983  1.00  0.00    -0.206 F 
ATOM     53  C   UNL A   1      37.541  29.017  31.569  1.00  0.00     0.040 A 
ATOM     54  C   UNL A   1      36.903  29.750  29.365  1.00  0.00     0.040 A 
ATOM     55  F   UNL A   1      38.477  29.736  27.626  1.00  0.00    -0.206 F 
ATOM     56  C   UNL A   1      36.570  29.504  30.695  1.00  0.00     0.006 A 
ENDBRANCH  28  49
BRANCH  40  57
ATOM     57  C   UNL A   1      44.850  33.031  29.164  1.00  0.00     0.057 A 
ATOM     58  C   UNL A   1      45.357  33.462  30.396  1.00  0.00     0.134 A 
ATOM     59  C   UNL A   1      44.596  34.009  28.192  1.00  0.00     0.134 A 
ATOM     60  F   UNL A   1      45.607  32.580  31.376  1.00  0.00    -0.206 F 
ATOM     61  C   UNL A   1      45.576  34.816  30.662  1.00  0.00     0.040 A 
ATOM     62  C   UNL A   1      44.841  35.361  28.436  1.00  0.00     0.040 A 
ATOM     63  F   UNL A   1      44.117  33.665  26.987  1.00  0.00    -0.206 F 
ATOM     64  C   UNL A   1      45.324  35.768  29.677  1.00  0.00     0.006 A 
ENDBRANCH  40  57
ENDBRANCH  14  15
ENDBRANCH   7   9
ENDBRANCH   4   5
ENDBRANCH   3   4
ENDBRANCH   2   3
ENDBRANCH   1   2
BRANCH   1  65
ATOM     65  C   UNL A   1      35.936  21.940  24.487  1.00  0.00     0.021 C 
BRANCH  65  66
ATOM     66  C   UNL A   1      35.255  21.251  25.672  1.00  0.00     0.116 C 
BRANCH  66  67
ATOM     67  N   UNL A   1      34.069  20.513  25.269  1.00  0.00    -0.352 N 
ATOM     68  C   UNL A   1      32.765  20.938  25.206  1.00  0.00     0.251 C 
ATOM     69  H   UNL A   1      34.223  19.577  25.006  1.00  0.00     0.163 HD
ATOM     70  O   UNL A   1      31.853  20.138  25.031  1.00  0.00    -0.269 OA
BRANCH  68  71
ATOM     71  C   UNL A   1      32.466  22.374  25.344  1.00  0.00     0.039 A 
ATOM     72  C   UNL A   1      32.175  22.903  26.598  1.00  0.00     0.014 A 
ATOM     73  C   UNL A   1      32.457  23.194  24.219  1.00  0.00     0.014 A 
ATOM     74  C   UNL A   1      32.008  24.285  26.743  1.00  0.00     0.005 A 
ATOM     75  C   UNL A   1      32.268  24.569  24.370  1.00  0.00     0.005 A 
ATOM     76  C   UNL A   1      32.138  25.155  25.644  1.00  0.00    -0.039 A 
BRANCH  76  77
ATOM     77  C   UNL A   1      32.199  26.686  25.850  1.00  0.00     0.074 C 
ATOM     78  C   UNL A   1      33.624  27.211  25.579  1.00  0.00     0.020 C 
ATOM     79  C   UNL A   1      31.178  27.444  24.949  1.00  0.00     0.270 C 
ATOM     80  C   UNL A   1      33.675  28.731  25.548  1.00  0.00     0.062 C 
ATOM     81  N   UNL A   1      31.359  28.880  24.707  1.00  0.00    -0.333 N 
ATOM     82  C   UNL A   1      32.749  29.266  24.468  1.00  0.00     0.262 C 
ATOM     83  H   UNL A   1      31.090  29.340  25.576  1.00  0.00     0.348 HD
BRANCH  81  84
ATOM     84  C   UNL A   1      30.463  29.371  23.628  1.00  0.00     0.284 C 
BRANCH  84  85
ATOM     85  C   UNL A   1      29.520  30.593  23.870  1.00  0.00     0.180 C 
BRANCH  85  86
ATOM     86  N   UNL A   1      28.826  31.090  22.690  1.00  0.00    -0.337 N 
ATOM     87  C   UNL A   1      28.115  30.226  21.783  1.00  0.00     0.120 C 
ATOM     88  C   UNL A   1      28.693  32.427  22.344  1.00  0.00     0.222 C 
ATOM     89  C   UNL A   1      28.025  31.050  20.516  1.00  0.00     0.031 C 
ATOM     90  C   UNL A   1      27.984  32.490  21.015  1.00  0.00     0.102 C 
ATOM     91  O   UNL A   1      29.075  33.399  22.978  1.00  0.00    -0.275 OA
ENDBRANCH  85  86
ENDBRANCH  84  85
ENDBRANCH  81  84
ENDBRANCH  76  77
ENDBRANCH  68  71
ENDBRANCH  66  67
ENDBRANCH  65  66
ENDBRANCH   1  65
TORSDOF 17
ENDMDL
