MODEL 1
REMARK VINA RESULT:     -10.8      0.000      0.000
REMARK SMILES CC(C)[C@@H](NS(=O)(=O)c1ccc(Cl)c([N+](=O)[O-])c1)C(=O)NCCCCCCNC(=O)c1ccc(-c2c3nc(c(-c4c(F)cccc4F)c4ccc([nH]4)c(-c4c(F)cccc4F)c4nc(c(-c5c(F)cccc5F)c5ccc2[nH]5)C=C4)C=C3)cc1
REMARK SMILES IDX 23 1 22 2 21 3 19 4 20 5 4 7 2 8 1 9 3 10 5 11 6 13 7 14
REMARK SMILES IDX 8 15 9 16 10 17 18 18 11 19 14 20 12 21 13 22 15 23 16 24
REMARK SMILES IDX 17 25 24 26 25 27 26 28 27 29 28 30 29 31 30 33 31 34 32 35
REMARK SMILES IDX 84 36 33 37 83 38 34 39 35 40 36 41 77 42 37 43 82 44 76 45
REMARK SMILES IDX 78 46 38 47 81 48 75 49 74 50 39 52 65 53 48 54 64 55 49 56
REMARK SMILES IDX 52 57 63 58 79 59 50 60 51 61 62 63 80 64 53 65 40 66 41 67
REMARK SMILES IDX 46 68 42 69 43 70 45 71 47 72 44 73 66 74 67 75 72 76 68 77
REMARK SMILES IDX 69 78 71 79 73 80 70 81 54 82 55 83 60 84 56 85 57 86 59 87
REMARK SMILES IDX 61 88 58 89
REMARK H PARENT 21 6 5 12 28 32 78 51 52 62
REMARK Flexibility Score: inf
ROOT
ATOM      1  C   UNL A   1      37.159  23.767  25.536  1.00  0.00     0.021 C 
ENDROOT
BRANCH   1   2
ATOM      2  C   UNL A   1      35.648  23.591  25.422  1.00  0.00     0.116 C 
BRANCH   2   3
ATOM      3  N   UNL A   1      35.152  24.437  24.351  1.00  0.00    -0.355 N 
ATOM      4  C   UNL A   1      33.966  25.107  24.251  1.00  0.00     0.238 C 
ATOM      5  O   UNL A   1      33.642  25.553  23.149  1.00  0.00    -0.273 OA
ATOM      6  H   UNL A   1      35.759  24.543  23.584  1.00  0.00     0.163 HD
BRANCH   4   7
ATOM      7  C   UNL A   1      33.079  25.311  25.487  1.00  0.00     0.161 C 
BRANCH   7   8
ATOM      8  C   UNL A   1      32.744  26.818  25.648  1.00  0.00     0.010 C 
ATOM      9  C   UNL A   1      31.550  27.062  26.572  1.00  0.00     0.009 C 
ATOM     10  C   UNL A   1      33.958  27.595  26.188  1.00  0.00     0.009 C 
ENDBRANCH   7   8
BRANCH   7  11
ATOM     11  N   UNL A   1      31.871  24.449  25.350  1.00  0.00    -0.198 NA
ATOM     12  H   UNL A   1      31.796  24.200  24.364  1.00  0.00     0.142 HD
BRANCH  11  13
ATOM     13  S   UNL A   1      31.762  23.008  26.227  1.00  0.00     0.241 S 
ATOM     14  O   UNL A   1      32.806  23.013  27.223  1.00  0.00    -0.207 OA
ATOM     15  O   UNL A   1      30.368  22.892  26.598  1.00  0.00    -0.207 OA
BRANCH  13  16
ATOM     16  C   UNL A   1      32.100  21.707  25.058  1.00  0.00     0.089 A 
ATOM     17  C   UNL A   1      32.003  21.984  23.695  1.00  0.00     0.024 A 
ATOM     18  C   UNL A   1      32.471  20.427  25.486  1.00  0.00     0.109 A 
ATOM     19  C   UNL A   1      32.109  20.948  22.767  1.00  0.00     0.029 A 
ATOM     20  C   UNL A   1      32.636  19.388  24.538  1.00  0.00     0.289 A 
ATOM     21  C   UNL A   1      32.403  19.639  23.176  1.00  0.00     0.118 A 
ATOM     22  Cl  UNL A   1      32.388  18.465  21.907  1.00  0.00    -0.077 Cl
BRANCH  20  23
ATOM     23  N   UNL A   1      33.053  18.069  25.046  1.00  0.00     0.064 N 
ATOM     24  O   UNL A   1      32.289  17.506  25.844  1.00  0.00    -0.258 OA
ATOM     25  O   UNL A   1      34.123  17.579  24.670  1.00  0.00    -0.258 OA
ENDBRANCH  20  23
ENDBRANCH  13  16
ENDBRANCH  11  13
ENDBRANCH   7  11
ENDBRANCH   4   7
ENDBRANCH   2   3
ENDBRANCH   1   2
BRANCH   1  26
ATOM     26  C   UNL A   1      37.900  22.428  25.613  1.00  0.00     0.002 C 
BRANCH  26  27
ATOM     27  C   UNL A   1      37.384  21.370  24.631  1.00  0.00     0.002 C 
BRANCH  27  28
ATOM     28  C   UNL A   1      38.104  20.023  24.726  1.00  0.00     0.021 C 
BRANCH  28  29
ATOM     29  C   UNL A   1      38.822  19.801  26.051  1.00  0.00     0.116 C 
BRANCH  29  30
ATOM     30  N   UNL A   1      40.079  19.094  25.869  1.00  0.00    -0.352 N 
ATOM     31  C   UNL A   1      41.360  19.576  25.951  1.00  0.00     0.251 C 
ATOM     32  H   UNL A   1      40.000  18.136  25.657  1.00  0.00     0.163 HD
ATOM     33  O   UNL A   1      42.305  18.906  25.552  1.00  0.00    -0.269 OA
BRANCH  31  34
ATOM     34  C   UNL A   1      41.590  20.923  26.512  1.00  0.00     0.039 A 
ATOM     35  C   UNL A   1      41.579  21.088  27.898  1.00  0.00     0.014 A 
ATOM     36  C   UNL A   1      41.827  22.012  25.669  1.00  0.00     0.014 A 
ATOM     37  C   UNL A   1      41.861  22.340  28.442  1.00  0.00     0.010 A 
ATOM     38  C   UNL A   1      42.186  23.240  26.214  1.00  0.00     0.010 A 
ATOM     39  C   UNL A   1      42.201  23.418  27.605  1.00  0.00    -0.014 A 
BRANCH  39  40
ATOM     40  C   UNL A   1      42.586  24.734  28.172  1.00  0.00     0.031 A 
ATOM     41  C   UNL A   1      41.553  25.808  28.366  1.00  0.00     0.074 A 
ATOM     42  C   UNL A   1      43.880  24.980  28.457  1.00  0.00     0.049 A 
ATOM     43  N   UNL A   1      41.707  27.034  28.798  1.00  0.00    -0.248 NA
ATOM     44  C   UNL A   1      40.167  25.468  28.002  1.00  0.00     0.031 C 
ATOM     45  C   UNL A   1      44.982  24.035  28.267  1.00  0.00     0.029 A 
ATOM     46  N   UNL A   1      44.488  26.103  28.959  1.00  0.00    -0.354 N 
ATOM     47  C   UNL A   1      40.445  27.613  28.748  1.00  0.00     0.074 A 
ATOM     48  C   UNL A   1      39.548  26.625  28.189  1.00  0.00     0.031 C 
ATOM     49  C   UNL A   1      46.127  24.608  28.671  1.00  0.00     0.029 A 
ATOM     50  C   UNL A   1      45.848  25.973  29.107  1.00  0.00     0.049 A 
ATOM     51  H   UNL A   1      43.996  26.923  29.191  1.00  0.00     0.167 HD
ATOM     52  C   UNL A   1      40.065  28.848  29.153  1.00  0.00     0.037 A 
ATOM     53  C   UNL A   1      46.768  26.857  29.537  1.00  0.00     0.037 A 
ATOM     54  C   UNL A   1      40.959  29.822  29.722  1.00  0.00     0.049 A 
ATOM     55  C   UNL A   1      46.323  28.229  29.961  1.00  0.00     0.074 A 
ATOM     56  C   UNL A   1      40.661  31.079  30.218  1.00  0.00     0.029 A 
ATOM     57  N   UNL A   1      42.330  29.651  29.862  1.00  0.00    -0.354 N 
ATOM     58  N   UNL A   1      45.114  28.738  29.980  1.00  0.00    -0.248 NA
ATOM     59  C   UNL A   1      47.368  29.147  30.431  1.00  0.00     0.031 C 
ATOM     60  C   UNL A   1      41.858  31.691  30.602  1.00  0.00     0.029 A 
ATOM     61  C   UNL A   1      42.894  30.793  30.407  1.00  0.00     0.049 A 
ATOM     62  H   UNL A   1      42.826  28.839  29.611  1.00  0.00     0.167 HD
ATOM     63  C   UNL A   1      45.250  30.023  30.489  1.00  0.00     0.074 A 
ATOM     64  C   UNL A   1      46.656  30.209  30.782  1.00  0.00     0.031 C 
ATOM     65  C   UNL A   1      44.296  30.964  30.696  1.00  0.00     0.037 A 
BRANCH  52  66
ATOM     66  C   UNL A   1      38.618  29.218  28.990  1.00  0.00     0.057 A 
ATOM     67  C   UNL A   1      38.088  29.618  27.755  1.00  0.00     0.134 A 
ATOM     68  C   UNL A   1      37.733  29.137  30.073  1.00  0.00     0.134 A 
ATOM     69  F   UNL A   1      38.881  29.727  26.678  1.00  0.00    -0.206 F 
ATOM     70  C   UNL A   1      36.740  29.953  27.612  1.00  0.00     0.040 A 
ATOM     71  C   UNL A   1      36.377  29.439  29.935  1.00  0.00     0.040 A 
ATOM     72  F   UNL A   1      38.170  28.755  31.282  1.00  0.00    -0.206 F 
ATOM     73  C   UNL A   1      35.879  29.856  28.702  1.00  0.00     0.006 A 
ENDBRANCH  52  66
BRANCH  53  74
ATOM     74  C   UNL A   1      48.200  26.469  29.597  1.00  0.00     0.057 A 
ATOM     75  C   UNL A   1      49.068  26.736  28.532  1.00  0.00     0.134 A 
ATOM     76  C   UNL A   1      48.735  25.816  30.714  1.00  0.00     0.134 A 
ATOM     77  F   UNL A   1      48.612  27.343  27.427  1.00  0.00    -0.206 F 
ATOM     78  C   UNL A   1      50.408  26.349  28.564  1.00  0.00     0.040 A 
ATOM     79  C   UNL A   1      50.080  25.449  30.774  1.00  0.00     0.040 A 
ATOM     80  F   UNL A   1      47.959  25.539  31.773  1.00  0.00    -0.206 F 
ATOM     81  C   UNL A   1      50.919  25.708  29.692  1.00  0.00     0.006 A 
ENDBRANCH  53  74
BRANCH  65  82
ATOM     82  C   UNL A   1      44.735  32.268  31.299  1.00  0.00     0.057 A 
ATOM     83  C   UNL A   1      44.795  32.462  32.685  1.00  0.00     0.134 A 
ATOM     84  C   UNL A   1      45.137  33.330  30.479  1.00  0.00     0.134 A 
ATOM     85  F   UNL A   1      44.412  31.491  33.526  1.00  0.00    -0.206 F 
ATOM     86  C   UNL A   1      45.215  33.676  33.233  1.00  0.00     0.040 A 
ATOM     87  C   UNL A   1      45.589  34.536  31.015  1.00  0.00     0.040 A 
ATOM     88  F   UNL A   1      45.114  33.207  29.143  1.00  0.00    -0.206 F 
ATOM     89  C   UNL A   1      45.621  34.715  32.396  1.00  0.00     0.006 A 
ENDBRANCH  65  82
ENDBRANCH  39  40
ENDBRANCH  31  34
ENDBRANCH  29  30
ENDBRANCH  28  29
ENDBRANCH  27  28
ENDBRANCH  26  27
ENDBRANCH   1  26
TORSDOF 18
ENDMDL
MODEL 2
REMARK VINA RESULT:     -10.8      0.316      6.151
REMARK SMILES CC(C)[C@@H](NS(=O)(=O)c1ccc(Cl)c([N+](=O)[O-])c1)C(=O)NCCCCCCNC(=O)c1ccc(-c2c3nc(c(-c4c(F)cccc4F)c4ccc([nH]4)c(-c4c(F)cccc4F)c4nc(c(-c5c(F)cccc5F)c5ccc2[nH]5)C=C4)C=C3)cc1
REMARK SMILES IDX 23 1 22 2 21 3 19 4 20 5 4 7 2 8 1 9 3 10 5 11 6 13 7 14
REMARK SMILES IDX 8 15 9 16 10 17 18 18 11 19 14 20 12 21 13 22 15 23 16 24
REMARK SMILES IDX 17 25 24 26 25 27 26 28 27 29 28 30 29 31 30 33 31 34 32 35
REMARK SMILES IDX 84 36 33 37 83 38 34 39 35 40 36 41 77 42 37 43 82 44 76 45
REMARK SMILES IDX 78 46 38 47 81 48 75 49 74 50 39 52 65 53 48 54 64 55 49 56
REMARK SMILES IDX 52 57 63 58 79 59 50 60 51 61 62 63 80 64 53 65 40 66 41 67
REMARK SMILES IDX 46 68 42 69 43 70 45 71 47 72 44 73 66 74 67 75 72 76 68 77
REMARK SMILES IDX 69 78 71 79 73 80 70 81 54 82 55 83 60 84 56 85 57 86 59 87
REMARK SMILES IDX 61 88 58 89
REMARK H PARENT 21 6 5 12 28 32 78 51 52 62
REMARK Flexibility Score: inf
ROOT
ATOM      1  C   UNL A   1      36.866  23.850  25.452  1.00  0.00     0.021 C 
ENDROOT
BRANCH   1   2
ATOM      2  C   UNL A   1      35.391  23.557  25.190  1.00  0.00     0.116 C 
BRANCH   2   3
ATOM      3  N   UNL A   1      34.893  24.486  24.192  1.00  0.00    -0.355 N 
ATOM      4  C   UNL A   1      33.740  25.218  24.184  1.00  0.00     0.238 C 
ATOM      5  O   UNL A   1      33.391  25.741  23.123  1.00  0.00    -0.273 OA
ATOM      6  H   UNL A   1      35.471  24.606  23.404  1.00  0.00     0.163 HD
BRANCH   4   7
ATOM      7  C   UNL A   1      32.920  25.394  25.469  1.00  0.00     0.161 C 
BRANCH   7   8
ATOM      8  C   UNL A   1      32.616  26.900  25.693  1.00  0.00     0.010 C 
ATOM      9  C   UNL A   1      31.566  27.135  26.781  1.00  0.00     0.009 C 
ATOM     10  C   UNL A   1      33.896  27.668  26.064  1.00  0.00     0.009 C 
ENDBRANCH   7   8
BRANCH   7  11
ATOM     11  N   UNL A   1      31.693  24.554  25.366  1.00  0.00    -0.198 NA
ATOM     12  H   UNL A   1      31.575  24.322  24.380  1.00  0.00     0.142 HD
BRANCH  11  13
ATOM     13  S   UNL A   1      31.596  23.100  26.224  1.00  0.00     0.241 S 
ATOM     14  O   UNL A   1      32.622  23.112  27.238  1.00  0.00    -0.207 OA
ATOM     15  O   UNL A   1      30.198  22.954  26.568  1.00  0.00    -0.207 OA
BRANCH  13  16
ATOM     16  C   UNL A   1      31.979  21.820  25.046  1.00  0.00     0.089 A 
ATOM     17  C   UNL A   1      31.889  22.109  23.685  1.00  0.00     0.024 A 
ATOM     18  C   UNL A   1      32.376  20.545  25.464  1.00  0.00     0.109 A 
ATOM     19  C   UNL A   1      32.032  21.086  22.747  1.00  0.00     0.029 A 
ATOM     20  C   UNL A   1      32.578  19.520  24.508  1.00  0.00     0.289 A 
ATOM     21  C   UNL A   1      32.353  19.780  23.145  1.00  0.00     0.118 A 
ATOM     22  Cl  UNL A   1      32.381  18.619  21.865  1.00  0.00    -0.077 Cl
BRANCH  20  23
ATOM     23  N   UNL A   1      33.021  18.207  25.007  1.00  0.00     0.064 N 
ATOM     24  O   UNL A   1      32.372  17.711  25.939  1.00  0.00    -0.258 OA
ATOM     25  O   UNL A   1      34.000  17.656  24.493  1.00  0.00    -0.258 OA
ENDBRANCH  20  23
ENDBRANCH  13  16
ENDBRANCH  11  13
ENDBRANCH   7  11
ENDBRANCH   4   7
ENDBRANCH   2   3
ENDBRANCH   1   2
BRANCH   1  26
ATOM     26  C   UNL A   1      37.692  22.573  25.632  1.00  0.00     0.002 C 
BRANCH  26  27
ATOM     27  C   UNL A   1      37.354  21.461  24.632  1.00  0.00     0.002 C 
BRANCH  27  28
ATOM     28  C   UNL A   1      38.103  20.150  24.875  1.00  0.00     0.021 C 
BRANCH  28  29
ATOM     29  C   UNL A   1      39.034  20.188  26.080  1.00  0.00     0.116 C 
BRANCH  29  30
ATOM     30  N   UNL A   1      40.178  19.308  25.903  1.00  0.00    -0.352 N 
ATOM     31  C   UNL A   1      41.515  19.605  25.976  1.00  0.00     0.251 C 
ATOM     32  H   UNL A   1      39.963  18.368  25.705  1.00  0.00     0.163 HD
ATOM     33  O   UNL A   1      42.353  18.803  25.583  1.00  0.00    -0.269 OA
BRANCH  31  34
ATOM     34  C   UNL A   1      41.935  20.912  26.519  1.00  0.00     0.039 A 
ATOM     35  C   UNL A   1      42.336  21.914  25.635  1.00  0.00     0.014 A 
ATOM     36  C   UNL A   1      41.921  21.146  27.897  1.00  0.00     0.014 A 
ATOM     37  C   UNL A   1      42.671  23.174  26.131  1.00  0.00     0.010 A 
ATOM     38  C   UNL A   1      42.178  22.423  28.382  1.00  0.00     0.010 A 
ATOM     39  C   UNL A   1      42.561  23.448  27.505  1.00  0.00    -0.014 A 
BRANCH  39  40
ATOM     40  C   UNL A   1      42.832  24.806  28.037  1.00  0.00     0.031 A 
ATOM     41  C   UNL A   1      44.221  25.189  28.467  1.00  0.00     0.074 A 
ATOM     42  C   UNL A   1      41.813  25.675  28.189  1.00  0.00     0.049 A 
ATOM     43  N   UNL A   1      44.641  26.307  29.002  1.00  0.00    -0.248 NA
ATOM     44  C   UNL A   1      45.271  24.173  28.296  1.00  0.00     0.031 C 
ATOM     45  C   UNL A   1      40.414  25.403  27.855  1.00  0.00     0.029 A 
ATOM     46  N   UNL A   1      41.795  26.959  28.671  1.00  0.00    -0.354 N 
ATOM     47  C   UNL A   1      45.997  26.126  29.240  1.00  0.00     0.074 A 
ATOM     48  C   UNL A   1      46.317  24.771  28.847  1.00  0.00     0.031 C 
ATOM     49  C   UNL A   1      39.679  26.495  28.117  1.00  0.00     0.029 A 
ATOM     50  C   UNL A   1      40.545  27.527  28.679  1.00  0.00     0.049 A 
ATOM     51  H   UNL A   1      42.603  27.428  28.983  1.00  0.00     0.167 HD
ATOM     52  C   UNL A   1      46.897  27.015  29.722  1.00  0.00     0.037 A 
ATOM     53  C   UNL A   1      40.139  28.740  29.099  1.00  0.00     0.037 A 
ATOM     54  C   UNL A   1      46.576  28.366  30.098  1.00  0.00     0.049 A 
ATOM     55  C   UNL A   1      41.155  29.702  29.649  1.00  0.00     0.074 A 
ATOM     56  C   UNL A   1      47.427  29.364  30.541  1.00  0.00     0.029 A 
ATOM     57  N   UNL A   1      45.298  28.908  30.085  1.00  0.00    -0.354 N 
ATOM     58  N   UNL A   1      42.449  29.543  29.799  1.00  0.00    -0.248 NA
ATOM     59  C   UNL A   1      40.658  31.014  30.082  1.00  0.00     0.031 C 
ATOM     60  C   UNL A   1      46.657  30.488  30.852  1.00  0.00     0.029 A 
ATOM     61  C   UNL A   1      45.335  30.216  30.543  1.00  0.00     0.049 A 
ATOM     62  H   UNL A   1      44.486  28.434  29.794  1.00  0.00     0.167 HD
ATOM     63  C   UNL A   1      42.922  30.742  30.315  1.00  0.00     0.074 A 
ATOM     64  C   UNL A   1      41.780  31.624  30.437  1.00  0.00     0.031 C 
ATOM     65  C   UNL A   1      44.189  31.083  30.657  1.00  0.00     0.037 A 
BRANCH  52  66
ATOM     66  C   UNL A   1      48.318  26.551  29.874  1.00  0.00     0.057 A 
ATOM     67  C   UNL A   1      48.755  25.855  31.010  1.00  0.00     0.134 A 
ATOM     68  C   UNL A   1      49.255  26.771  28.856  1.00  0.00     0.134 A 
ATOM     69  F   UNL A   1      47.914  25.619  32.028  1.00  0.00    -0.206 F 
ATOM     70  C   UNL A   1      50.076  25.422  31.139  1.00  0.00     0.040 A 
ATOM     71  C   UNL A   1      50.571  26.316  28.960  1.00  0.00     0.040 A 
ATOM     72  F   UNL A   1      48.904  27.425  27.738  1.00  0.00    -0.206 F 
ATOM     73  C   UNL A   1      50.985  25.645  30.109  1.00  0.00     0.006 A 
ENDBRANCH  52  66
BRANCH  53  74
ATOM     74  C   UNL A   1      38.706  29.118  29.006  1.00  0.00     0.057 A 
ATOM     75  C   UNL A   1      37.861  29.030  30.120  1.00  0.00     0.134 A 
ATOM     76  C   UNL A   1      38.143  29.568  27.806  1.00  0.00     0.134 A 
ATOM     77  F   UNL A   1      38.336  28.588  31.293  1.00  0.00    -0.206 F 
ATOM     78  C   UNL A   1      36.506  29.352  30.037  1.00  0.00     0.040 A 
ATOM     79  C   UNL A   1      36.797  29.923  27.716  1.00  0.00     0.040 A 
ATOM     80  F   UNL A   1      38.901  29.685  26.705  1.00  0.00    -0.206 F 
ATOM     81  C   UNL A   1      35.971  29.807  28.833  1.00  0.00     0.006 A 
ENDBRANCH  53  74
BRANCH  65  82
ATOM     82  C   UNL A   1      44.414  32.480  31.163  1.00  0.00     0.057 A 
ATOM     83  C   UNL A   1      44.375  32.791  32.528  1.00  0.00     0.134 A 
ATOM     84  C   UNL A   1      44.708  33.519  30.271  1.00  0.00     0.134 A 
ATOM     85  F   UNL A   1      44.086  31.845  33.434  1.00  0.00    -0.206 F 
ATOM     86  C   UNL A   1      44.596  34.092  32.985  1.00  0.00     0.040 A 
ATOM     87  C   UNL A   1      44.962  34.816  30.719  1.00  0.00     0.040 A 
ATOM     88  F   UNL A   1      44.771  33.288  28.950  1.00  0.00    -0.206 F 
ATOM     89  C   UNL A   1      44.898  35.107  32.079  1.00  0.00     0.006 A 
ENDBRANCH  65  82
ENDBRANCH  39  40
ENDBRANCH  31  34
ENDBRANCH  29  30
ENDBRANCH  28  29
ENDBRANCH  27  28
ENDBRANCH  26  27
ENDBRANCH   1  26
TORSDOF 18
ENDMDL
MODEL 3
REMARK VINA RESULT:     -10.8      2.376      3.987
REMARK SMILES CC(C)[C@@H](NS(=O)(=O)c1ccc(Cl)c([N+](=O)[O-])c1)C(=O)NCCCCCCNC(=O)c1ccc(-c2c3nc(c(-c4c(F)cccc4F)c4ccc([nH]4)c(-c4c(F)cccc4F)c4nc(c(-c5c(F)cccc5F)c5ccc2[nH]5)C=C4)C=C3)cc1
REMARK SMILES IDX 23 1 22 2 21 3 19 4 20 5 4 7 2 8 1 9 3 10 5 11 6 13 7 14
REMARK SMILES IDX 8 15 9 16 10 17 18 18 11 19 14 20 12 21 13 22 15 23 16 24
REMARK SMILES IDX 17 25 24 26 25 27 26 28 27 29 28 30 29 31 30 33 31 34 32 35
REMARK SMILES IDX 84 36 33 37 83 38 34 39 35 40 36 41 77 42 37 43 82 44 76 45
REMARK SMILES IDX 78 46 38 47 81 48 75 49 74 50 39 52 65 53 48 54 64 55 49 56
REMARK SMILES IDX 52 57 63 58 79 59 50 60 51 61 62 63 80 64 53 65 40 66 41 67
REMARK SMILES IDX 46 68 42 69 43 70 45 71 47 72 44 73 66 74 67 75 72 76 68 77
REMARK SMILES IDX 69 78 71 79 73 80 70 81 54 82 55 83 60 84 56 85 57 86 59 87
REMARK SMILES IDX 61 88 58 89
REMARK H PARENT 21 6 5 12 28 32 78 51 52 62
REMARK Flexibility Score: inf
ROOT
ATOM      1  C   UNL A   1      36.654  22.616  23.218  1.00  0.00     0.021 C 
ENDROOT
BRANCH   1   2
ATOM      2  C   UNL A   1      35.279  23.266  23.344  1.00  0.00     0.116 C 
BRANCH   2   3
ATOM      3  N   UNL A   1      35.337  24.306  24.355  1.00  0.00    -0.355 N 
ATOM      4  C   UNL A   1      34.419  24.644  25.308  1.00  0.00     0.238 C 
ATOM      5  O   UNL A   1      34.557  25.721  25.892  1.00  0.00    -0.273 OA
ATOM      6  H   UNL A   1      36.159  24.848  24.354  1.00  0.00     0.163 HD
BRANCH   4   7
ATOM      7  C   UNL A   1      33.264  23.694  25.649  1.00  0.00     0.161 C 
BRANCH   7   8
ATOM      8  C   UNL A   1      33.794  22.509  26.500  1.00  0.00     0.010 C 
ATOM      9  C   UNL A   1      33.319  22.566  27.952  1.00  0.00     0.009 C 
ATOM     10  C   UNL A   1      33.367  21.162  25.890  1.00  0.00     0.009 C 
ENDBRANCH   7   8
BRANCH   7  11
ATOM     11  N   UNL A   1      32.192  24.476  26.329  1.00  0.00    -0.198 NA
ATOM     12  H   UNL A   1      32.502  25.448  26.347  1.00  0.00     0.142 HD
BRANCH  11  13
ATOM     13  S   UNL A   1      30.623  24.474  25.702  1.00  0.00     0.241 S 
ATOM     14  O   UNL A   1      30.556  23.467  24.671  1.00  0.00    -0.207 OA
ATOM     15  O   UNL A   1      29.751  24.430  26.857  1.00  0.00    -0.207 OA
BRANCH  13  16
ATOM     16  C   UNL A   1      30.405  26.072  24.947  1.00  0.00     0.089 A 
ATOM     17  C   UNL A   1      29.288  26.290  24.141  1.00  0.00     0.024 A 
ATOM     18  C   UNL A   1      31.324  27.106  25.160  1.00  0.00     0.109 A 
ATOM     19  C   UNL A   1      29.175  27.477  23.416  1.00  0.00     0.029 A 
ATOM     20  C   UNL A   1      31.177  28.333  24.468  1.00  0.00     0.289 A 
ATOM     21  C   UNL A   1      30.125  28.499  23.551  1.00  0.00     0.118 A 
ATOM     22  Cl  UNL A   1      29.890  29.850  22.498  1.00  0.00    -0.077 Cl
BRANCH  20  23
ATOM     23  N   UNL A   1      32.160  29.393  24.754  1.00  0.00     0.064 N 
ATOM     24  O   UNL A   1      33.243  29.333  24.154  1.00  0.00    -0.258 OA
ATOM     25  O   UNL A   1      31.880  30.285  25.561  1.00  0.00    -0.258 OA
ENDBRANCH  20  23
ENDBRANCH  13  16
ENDBRANCH  11  13
ENDBRANCH   7  11
ENDBRANCH   4   7
ENDBRANCH   2   3
ENDBRANCH   1   2
BRANCH   1  26
ATOM     26  C   UNL A   1      37.210  22.157  24.570  1.00  0.00     0.002 C 
BRANCH  26  27
ATOM     27  C   UNL A   1      36.825  20.723  24.950  1.00  0.00     0.002 C 
BRANCH  27  28
ATOM     28  C   UNL A   1      37.993  19.734  24.929  1.00  0.00     0.021 C 
BRANCH  28  29
ATOM     29  C   UNL A   1      39.208  20.200  25.721  1.00  0.00     0.116 C 
BRANCH  29  30
ATOM     30  N   UNL A   1      40.190  19.138  25.870  1.00  0.00    -0.352 N 
ATOM     31  C   UNL A   1      41.537  19.237  26.110  1.00  0.00     0.251 C 
ATOM     32  H   UNL A   1      39.840  18.222  25.789  1.00  0.00     0.163 HD
ATOM     33  O   UNL A   1      42.264  18.258  25.988  1.00  0.00    -0.269 OA
BRANCH  31  34
ATOM     34  C   UNL A   1      42.107  20.541  26.504  1.00  0.00     0.039 A 
ATOM     35  C   UNL A   1      42.621  21.379  25.515  1.00  0.00     0.014 A 
ATOM     36  C   UNL A   1      42.119  20.934  27.845  1.00  0.00     0.014 A 
ATOM     37  C   UNL A   1      43.102  22.641  25.865  1.00  0.00     0.010 A 
ATOM     38  C   UNL A   1      42.524  22.221  28.182  1.00  0.00     0.010 A 
ATOM     39  C   UNL A   1      43.024  23.085  27.197  1.00  0.00    -0.014 A 
BRANCH  39  40
ATOM     40  C   UNL A   1      43.452  24.455  27.572  1.00  0.00     0.031 A 
ATOM     41  C   UNL A   1      42.429  25.499  27.925  1.00  0.00     0.074 A 
ATOM     42  C   UNL A   1      44.760  24.775  27.534  1.00  0.00     0.049 A 
ATOM     43  N   UNL A   1      42.607  26.759  28.228  1.00  0.00    -0.248 NA
ATOM     44  C   UNL A   1      41.019  25.077  27.913  1.00  0.00     0.031 C 
ATOM     45  C   UNL A   1      45.843  23.863  27.159  1.00  0.00     0.029 A 
ATOM     46  N   UNL A   1      45.401  25.956  27.808  1.00  0.00    -0.354 N 
ATOM     47  C   UNL A   1      41.336  27.282  28.431  1.00  0.00     0.074 A 
ATOM     48  C   UNL A   1      40.394  26.218  28.160  1.00  0.00     0.031 C 
ATOM     49  C   UNL A   1      47.015  24.511  27.251  1.00  0.00     0.029 A 
ATOM     50  C   UNL A   1      46.764  25.894  27.647  1.00  0.00     0.049 A 
ATOM     51  H   UNL A   1      44.929  26.772  28.091  1.00  0.00     0.167 HD
ATOM     52  C   UNL A   1      40.987  28.528  28.829  1.00  0.00     0.037 A 
ATOM     53  C   UNL A   1      47.706  26.844  27.795  1.00  0.00     0.037 A 
ATOM     54  C   UNL A   1      41.930  29.579  29.112  1.00  0.00     0.049 A 
ATOM     55  C   UNL A   1      47.291  28.226  28.218  1.00  0.00     0.074 A 
ATOM     56  C   UNL A   1      41.681  30.858  29.578  1.00  0.00     0.029 A 
ATOM     57  N   UNL A   1      43.304  29.474  28.944  1.00  0.00    -0.354 N 
ATOM     58  N   UNL A   1      46.090  28.686  28.479  1.00  0.00    -0.248 NA
ATOM     59  C   UNL A   1      48.361  29.220  28.373  1.00  0.00     0.031 C 
ATOM     60  C   UNL A   1      42.897  31.546  29.635  1.00  0.00     0.029 A 
ATOM     61  C   UNL A   1      43.912  30.678  29.268  1.00  0.00     0.049 A 
ATOM     62  H   UNL A   1      43.777  28.666  28.640  1.00  0.00     0.167 HD
ATOM     63  C   UNL A   1      46.264  30.011  28.857  1.00  0.00     0.074 A 
ATOM     64  C   UNL A   1      47.687  30.276  28.807  1.00  0.00     0.031 C 
ATOM     65  C   UNL A   1      45.330  30.926  29.215  1.00  0.00     0.037 A 
BRANCH  52  66
ATOM     66  C   UNL A   1      39.522  28.826  28.978  1.00  0.00     0.057 A 
ATOM     67  C   UNL A   1      38.847  28.642  30.193  1.00  0.00     0.134 A 
ATOM     68  C   UNL A   1      38.783  29.337  27.904  1.00  0.00     0.134 A 
ATOM     69  F   UNL A   1      39.491  28.145  31.261  1.00  0.00    -0.206 F 
ATOM     70  C   UNL A   1      37.487  28.928  30.324  1.00  0.00     0.040 A 
ATOM     71  C   UNL A   1      37.430  29.657  28.031  1.00  0.00     0.040 A 
ATOM     72  F   UNL A   1      39.367  29.544  26.713  1.00  0.00    -0.206 F 
ATOM     73  C   UNL A   1      36.777  29.445  29.243  1.00  0.00     0.006 A 
ENDBRANCH  52  66
BRANCH  53  74
ATOM     74  C   UNL A   1      49.134  26.520  27.550  1.00  0.00     0.057 A 
ATOM     75  C   UNL A   1      49.708  26.688  26.284  1.00  0.00     0.134 A 
ATOM     76  C   UNL A   1      49.958  26.029  28.570  1.00  0.00     0.134 A 
ATOM     77  F   UNL A   1      48.966  27.138  25.262  1.00  0.00    -0.206 F 
ATOM     78  C   UNL A   1      51.041  26.358  26.035  1.00  0.00     0.040 A 
ATOM     79  C   UNL A   1      51.300  25.722  28.343  1.00  0.00     0.040 A 
ATOM     80  F   UNL A   1      49.472  25.854  29.808  1.00  0.00    -0.206 F 
ATOM     81  C   UNL A   1      51.843  25.878  27.069  1.00  0.00     0.006 A 
ENDBRANCH  53  74
BRANCH  65  82
ATOM     82  C   UNL A   1      45.819  32.290  29.613  1.00  0.00     0.057 A 
ATOM     83  C   UNL A   1      45.975  33.325  28.682  1.00  0.00     0.134 A 
ATOM     84  C   UNL A   1      46.103  32.578  30.954  1.00  0.00     0.134 A 
ATOM     85  F   UNL A   1      45.732  33.112  27.381  1.00  0.00    -0.206 F 
ATOM     86  C   UNL A   1      46.420  34.591  29.068  1.00  0.00     0.040 A 
ATOM     87  C   UNL A   1      46.519  33.848  31.356  1.00  0.00     0.040 A 
ATOM     88  F   UNL A   1      45.966  31.636  31.899  1.00  0.00    -0.206 F 
ATOM     89  C   UNL A   1      46.686  34.857  30.410  1.00  0.00     0.006 A 
ENDBRANCH  65  82
ENDBRANCH  39  40
ENDBRANCH  31  34
ENDBRANCH  29  30
ENDBRANCH  28  29
ENDBRANCH  27  28
ENDBRANCH  26  27
ENDBRANCH   1  26
TORSDOF 18
ENDMDL
