MODEL 1
REMARK VINA RESULT:     -12.4      0.000      0.000
REMARK SMILES CS(=O)(=O)c1ccc(C(=O)N2C[C@@H](C(=O)NCCCCCCNC(=O)c3ccc(-c4c5nc(c(-c6c(F)cccc6F)c6ccc([nH]6)c(-c6c(F)cccc6F)c6nc(c(-c7c(F)cccc7F)c7ccc4[nH]7)C=C6)C=C5)cc3)[C@H](c3ccncc3)C2)cc1
REMARK SMILES IDX 19 1 18 2 17 3 16 4 14 5 15 6 13 8 11 9 12 10 87 11 80 12
REMARK SMILES IDX 9 13 10 14 8 15 5 16 6 17 89 18 7 19 88 20 2 21 1 22 3 23
REMARK SMILES IDX 4 24 81 25 82 26 86 27 83 28 85 29 84 30 20 31 21 32 22 33
REMARK SMILES IDX 23 34 24 35 25 37 26 38 27 39 79 40 28 41 78 42 29 43 30 44
REMARK SMILES IDX 31 45 72 46 32 47 77 48 71 49 73 50 33 51 76 52 70 53 69 54
REMARK SMILES IDX 34 56 60 57 43 58 59 59 44 60 47 61 58 62 74 63 45 64 46 65
REMARK SMILES IDX 57 67 75 68 48 69 35 70 36 71 41 72 37 73 38 74 40 75 42 76
REMARK SMILES IDX 39 77 61 78 62 79 67 80 63 81 64 82 66 83 68 84 65 85 49 86
REMARK SMILES IDX 50 87 55 88 51 89 52 90 54 91 56 92 53 93
REMARK H PARENT 16 7 23 36 73 55 47 66
REMARK Flexibility Score: inf
ROOT
ATOM      1  C   UNL A   1      32.701  30.423  27.243  1.00  0.00     0.002 C 
ENDROOT
BRANCH   1   2
ATOM      2  C   UNL A   1      32.976  28.939  26.961  1.00  0.00     0.021 C 
BRANCH   2   3
ATOM      3  C   UNL A   1      34.216  28.671  26.107  1.00  0.00     0.116 C 
BRANCH   3   4
ATOM      4  N   UNL A   1      33.989  29.017  24.714  1.00  0.00    -0.356 N 
ATOM      5  C   UNL A   1      33.021  28.632  23.839  1.00  0.00     0.225 C 
ATOM      6  O   UNL A   1      33.082  29.061  22.687  1.00  0.00    -0.275 OA
ATOM      7  H   UNL A   1      34.652  29.640  24.337  1.00  0.00     0.163 HD
BRANCH   5   8
ATOM      8  C   UNL A   1      31.890  27.738  24.291  1.00  0.00     0.107 C 
ATOM      9  N   UNL A   1      31.271  25.515  24.445  1.00  0.00    -0.337 N 
ATOM     10  C   UNL A   1      32.422  26.362  24.669  1.00  0.00     0.134 C 
ATOM     11  C   UNL A   1      30.595  25.940  23.235  1.00  0.00     0.129 C 
ATOM     12  C   UNL A   1      30.880  27.460  23.131  1.00  0.00     0.053 C 
BRANCH   9  13
ATOM     13  C   UNL A   1      30.857  24.398  25.140  1.00  0.00     0.253 C 
ATOM     14  O   UNL A   1      30.015  24.461  26.033  1.00  0.00    -0.269 OA
BRANCH  13  15
ATOM     15  C   UNL A   1      31.555  23.098  24.920  1.00  0.00     0.040 A 
ATOM     16  C   UNL A   1      32.445  20.477  24.499  1.00  0.00     0.067 A 
ATOM     17  C   UNL A   1      32.075  21.267  23.406  1.00  0.00     0.021 A 
ATOM     18  C   UNL A   1      32.383  20.986  25.798  1.00  0.00     0.021 A 
ATOM     19  C   UNL A   1      31.628  22.576  23.620  1.00  0.00     0.015 A 
ATOM     20  C   UNL A   1      31.927  22.288  26.005  1.00  0.00     0.015 A 
BRANCH  16  21
ATOM     21  S   UNL A   1      32.887  18.772  24.256  1.00  0.00     0.175 S 
ATOM     22  C   UNL A   1      32.401  18.414  22.590  1.00  0.00     0.163 C 
ATOM     23  O   UNL A   1      32.061  17.973  25.132  1.00  0.00    -0.224 OA
ATOM     24  O   UNL A   1      34.338  18.712  24.323  1.00  0.00    -0.224 OA
ENDBRANCH  16  21
ENDBRANCH  13  15
ENDBRANCH   9  13
BRANCH  12  25
ATOM     25  C   UNL A   1      29.704  28.428  23.199  1.00  0.00    -0.039 A 
ATOM     26  C   UNL A   1      28.400  27.910  23.132  1.00  0.00     0.024 A 
ATOM     27  C   UNL A   1      29.826  29.815  23.333  1.00  0.00     0.024 A 
ATOM     28  C   UNL A   1      27.312  28.770  23.164  1.00  0.00     0.111 A 
ATOM     29  C   UNL A   1      28.675  30.595  23.376  1.00  0.00     0.111 A 
ATOM     30  N   UNL A   1      27.423  30.106  23.279  1.00  0.00    -0.265 NA
ENDBRANCH  12  25
ENDBRANCH   5   8
ENDBRANCH   3   4
ENDBRANCH   2   3
ENDBRANCH   1   2
BRANCH   1  31
ATOM     31  C   UNL A   1      31.470  31.013  26.549  1.00  0.00     0.002 C 
BRANCH  31  32
ATOM     32  C   UNL A   1      31.360  32.539  26.591  1.00  0.00     0.021 C 
BRANCH  32  33
ATOM     33  C   UNL A   1      32.662  33.274  26.899  1.00  0.00     0.116 C 
BRANCH  33  34
ATOM     34  N   UNL A   1      32.481  34.377  27.831  1.00  0.00    -0.352 N 
ATOM     35  C   UNL A   1      33.178  34.681  28.976  1.00  0.00     0.251 C 
ATOM     36  H   UNL A   1      31.750  34.998  27.608  1.00  0.00     0.163 HD
ATOM     37  O   UNL A   1      32.789  35.576  29.719  1.00  0.00    -0.269 OA
BRANCH  35  38
ATOM     38  C   UNL A   1      34.383  33.903  29.332  1.00  0.00     0.039 A 
ATOM     39  C   UNL A   1      35.642  34.416  29.003  1.00  0.00     0.014 A 
ATOM     40  C   UNL A   1      34.275  32.684  30.007  1.00  0.00     0.014 A 
ATOM     41  C   UNL A   1      36.794  33.755  29.436  1.00  0.00     0.010 A 
ATOM     42  C   UNL A   1      35.421  32.060  30.492  1.00  0.00     0.010 A 
ATOM     43  C   UNL A   1      36.690  32.601  30.228  1.00  0.00    -0.014 A 
BRANCH  43  44
ATOM     44  C   UNL A   1      37.885  31.970  30.841  1.00  0.00     0.031 A 
ATOM     45  C   UNL A   1      38.631  30.886  30.117  1.00  0.00     0.074 A 
ATOM     46  C   UNL A   1      38.242  32.310  32.094  1.00  0.00     0.049 A 
ATOM     47  N   UNL A   1      39.623  30.144  30.537  1.00  0.00    -0.248 NA
ATOM     48  C   UNL A   1      38.186  30.584  28.749  1.00  0.00     0.031 C 
ATOM     49  C   UNL A   1      37.583  33.329  32.914  1.00  0.00     0.029 A 
ATOM     50  N   UNL A   1      39.238  31.824  32.905  1.00  0.00    -0.354 N 
ATOM     51  C   UNL A   1      39.915  29.278  29.492  1.00  0.00     0.074 A 
ATOM     52  C   UNL A   1      38.964  29.558  28.437  1.00  0.00     0.031 C 
ATOM     53  C   UNL A   1      38.205  33.407  34.101  1.00  0.00     0.029 A 
ATOM     54  C   UNL A   1      39.273  32.413  34.145  1.00  0.00     0.049 A 
ATOM     55  H   UNL A   1      39.866  31.120  32.623  1.00  0.00     0.167 HD
ATOM     56  C   UNL A   1      40.898  28.349  29.412  1.00  0.00     0.037 A 
ATOM     57  C   UNL A   1      40.065  32.168  35.205  1.00  0.00     0.037 A 
ATOM     58  C   UNL A   1      41.848  28.082  30.460  1.00  0.00     0.049 A 
ATOM     59  C   UNL A   1      41.102  31.086  35.118  1.00  0.00     0.074 A 
ATOM     60  C   UNL A   1      42.925  27.212  30.446  1.00  0.00     0.029 A 
ATOM     61  N   UNL A   1      41.827  28.671  31.715  1.00  0.00    -0.354 N 
ATOM     62  N   UNL A   1      41.409  30.318  34.102  1.00  0.00    -0.248 NA
ATOM     63  C   UNL A   1      41.892  30.827  36.330  1.00  0.00     0.031 C 
ATOM     64  C   UNL A   1      43.523  27.238  31.712  1.00  0.00     0.029 A 
ATOM     65  C   UNL A   1      42.846  28.155  32.498  1.00  0.00     0.049 A 
ATOM     66  H   UNL A   1      41.183  29.357  32.006  1.00  0.00     0.167 HD
ATOM     67  C   UNL A   1      42.439  29.497  34.543  1.00  0.00     0.074 A 
ATOM     68  C   UNL A   1      42.710  29.868  35.917  1.00  0.00     0.031 C 
ATOM     69  C   UNL A   1      43.098  28.524  33.869  1.00  0.00     0.037 A 
BRANCH  56  70
ATOM     70  C   UNL A   1      40.980  27.548  28.146  1.00  0.00     0.057 A 
ATOM     71  C   UNL A   1      41.727  27.983  27.042  1.00  0.00     0.134 A 
ATOM     72  C   UNL A   1      40.310  26.324  28.029  1.00  0.00     0.134 A 
ATOM     73  F   UNL A   1      42.382  29.153  27.084  1.00  0.00    -0.206 F 
ATOM     74  C   UNL A   1      41.773  27.248  25.856  1.00  0.00     0.040 A 
ATOM     75  C   UNL A   1      40.371  25.567  26.858  1.00  0.00     0.040 A 
ATOM     76  F   UNL A   1      39.584  25.844  29.050  1.00  0.00    -0.206 F 
ATOM     77  C   UNL A   1      41.096  26.034  25.763  1.00  0.00     0.006 A 
ENDBRANCH  56  70
BRANCH  57  78
ATOM     78  C   UNL A   1      39.915  32.979  36.439  1.00  0.00     0.057 A 
ATOM     79  C   UNL A   1      40.705  34.115  36.646  1.00  0.00     0.134 A 
ATOM     80  C   UNL A   1      38.974  32.655  37.424  1.00  0.00     0.134 A 
ATOM     81  F   UNL A   1      41.636  34.462  35.747  1.00  0.00    -0.206 F 
ATOM     82  C   UNL A   1      40.567  34.900  37.791  1.00  0.00     0.040 A 
ATOM     83  C   UNL A   1      38.811  33.444  38.564  1.00  0.00     0.040 A 
ATOM     84  F   UNL A   1      38.184  31.581  37.279  1.00  0.00    -0.206 F 
ATOM     85  C   UNL A   1      39.612  34.569  38.752  1.00  0.00     0.006 A 
ENDBRANCH  57  78
BRANCH  69  86
ATOM     86  C   UNL A   1      44.182  27.794  34.605  1.00  0.00     0.057 A 
ATOM     87  C   UNL A   1      45.488  28.294  34.674  1.00  0.00     0.134 A 
ATOM     88  C   UNL A   1      43.906  26.604  35.292  1.00  0.00     0.134 A 
ATOM     89  F   UNL A   1      45.820  29.420  34.024  1.00  0.00    -0.206 F 
ATOM     90  C   UNL A   1      46.486  27.630  35.390  1.00  0.00     0.040 A 
ATOM     91  C   UNL A   1      44.889  25.944  36.029  1.00  0.00     0.040 A 
ATOM     92  F   UNL A   1      42.674  26.075  35.269  1.00  0.00    -0.206 F 
ATOM     93  C   UNL A   1      46.184  26.455  36.078  1.00  0.00     0.006 A 
ENDBRANCH  69  86
ENDBRANCH  43  44
ENDBRANCH  35  38
ENDBRANCH  33  34
ENDBRANCH  32  33
ENDBRANCH  31  32
ENDBRANCH   1  31
TORSDOF 17
ENDMDL
MODEL 2
REMARK VINA RESULT:     -12.4      1.364      6.061
REMARK SMILES CS(=O)(=O)c1ccc(C(=O)N2C[C@@H](C(=O)NCCCCCCNC(=O)c3ccc(-c4c5nc(c(-c6c(F)cccc6F)c6ccc([nH]6)c(-c6c(F)cccc6F)c6nc(c(-c7c(F)cccc7F)c7ccc4[nH]7)C=C6)C=C5)cc3)[C@H](c3ccncc3)C2)cc1
REMARK SMILES IDX 19 1 18 2 17 3 16 4 14 5 15 6 13 8 11 9 12 10 87 11 80 12
REMARK SMILES IDX 9 13 10 14 8 15 5 16 6 17 89 18 7 19 88 20 2 21 1 22 3 23
REMARK SMILES IDX 4 24 81 25 82 26 86 27 83 28 85 29 84 30 20 31 21 32 22 33
REMARK SMILES IDX 23 34 24 35 25 37 26 38 27 39 79 40 28 41 78 42 29 43 30 44
REMARK SMILES IDX 31 45 72 46 32 47 77 48 71 49 73 50 33 51 76 52 70 53 69 54
REMARK SMILES IDX 34 56 60 57 43 58 59 59 44 60 47 61 58 62 74 63 45 64 46 65
REMARK SMILES IDX 57 67 75 68 48 69 35 70 36 71 41 72 37 73 38 74 40 75 42 76
REMARK SMILES IDX 39 77 61 78 62 79 67 80 63 81 64 82 66 83 68 84 65 85 49 86
REMARK SMILES IDX 50 87 55 88 51 89 52 90 54 91 56 92 53 93
REMARK H PARENT 16 7 23 36 73 55 47 66
REMARK Flexibility Score: inf
ROOT
ATOM      1  C   UNL A   1      32.508  29.944  27.046  1.00  0.00     0.002 C 
ENDROOT
BRANCH   1   2
ATOM      2  C   UNL A   1      33.683  29.227  26.366  1.00  0.00     0.021 C 
BRANCH   2   3
ATOM      3  C   UNL A   1      33.623  27.700  26.434  1.00  0.00     0.116 C 
BRANCH   3   4
ATOM      4  N   UNL A   1      32.355  27.240  26.975  1.00  0.00    -0.356 N 
ATOM      5  C   UNL A   1      31.335  26.543  26.405  1.00  0.00     0.225 C 
ATOM      6  O   UNL A   1      30.343  26.306  27.095  1.00  0.00    -0.275 OA
ATOM      7  H   UNL A   1      32.208  27.475  27.920  1.00  0.00     0.163 HD
BRANCH   5   8
ATOM      8  C   UNL A   1      31.447  26.046  24.983  1.00  0.00     0.107 C 
ATOM      9  N   UNL A   1      32.863  24.906  23.553  1.00  0.00    -0.337 N 
ATOM     10  C   UNL A   1      32.376  24.842  24.914  1.00  0.00     0.134 C 
ATOM     11  C   UNL A   1      33.121  26.289  23.204  1.00  0.00     0.129 C 
ATOM     12  C   UNL A   1      32.118  27.110  24.055  1.00  0.00     0.053 C 
BRANCH   9  13
ATOM     13  C   UNL A   1      33.169  23.881  22.683  1.00  0.00     0.253 C 
ATOM     14  O   UNL A   1      33.498  24.091  21.518  1.00  0.00    -0.269 OA
BRANCH  13  15
ATOM     15  C   UNL A   1      32.949  22.468  23.109  1.00  0.00     0.040 A 
ATOM     16  C   UNL A   1      32.886  19.719  23.631  1.00  0.00     0.067 A 
ATOM     17  C   UNL A   1      33.756  20.540  24.353  1.00  0.00     0.021 A 
ATOM     18  C   UNL A   1      32.041  20.257  22.658  1.00  0.00     0.021 A 
ATOM     19  C   UNL A   1      33.788  21.914  24.088  1.00  0.00     0.015 A 
ATOM     20  C   UNL A   1      32.085  21.626  22.392  1.00  0.00     0.015 A 
BRANCH  16  21
ATOM     21  S   UNL A   1      32.929  17.956  23.862  1.00  0.00     0.175 S 
ATOM     22  C   UNL A   1      34.577  17.615  24.415  1.00  0.00     0.163 C 
ATOM     23  O   UNL A   1      32.768  17.337  22.565  1.00  0.00    -0.224 OA
ATOM     24  O   UNL A   1      32.018  17.663  24.956  1.00  0.00    -0.224 OA
ENDBRANCH  16  21
ENDBRANCH  13  15
ENDBRANCH   9  13
BRANCH  12  25
ATOM     25  C   UNL A   1      31.059  27.939  23.335  1.00  0.00    -0.039 A 
ATOM     26  C   UNL A   1      29.716  27.538  23.422  1.00  0.00     0.024 A 
ATOM     27  C   UNL A   1      31.328  29.089  22.587  1.00  0.00     0.024 A 
ATOM     28  C   UNL A   1      28.736  28.257  22.754  1.00  0.00     0.111 A 
ATOM     29  C   UNL A   1      30.276  29.756  21.968  1.00  0.00     0.111 A 
ATOM     30  N   UNL A   1      28.989  29.357  22.021  1.00  0.00    -0.265 NA
ENDBRANCH  12  25
ENDBRANCH   5   8
ENDBRANCH   3   4
ENDBRANCH   2   3
ENDBRANCH   1   2
BRANCH   1  31
ATOM     31  C   UNL A   1      31.605  30.764  26.119  1.00  0.00     0.002 C 
BRANCH  31  32
ATOM     32  C   UNL A   1      31.387  32.221  26.533  1.00  0.00     0.021 C 
BRANCH  32  33
ATOM     33  C   UNL A   1      32.539  32.853  27.312  1.00  0.00     0.116 C 
BRANCH  33  34
ATOM     34  N   UNL A   1      32.306  34.255  27.625  1.00  0.00    -0.352 N 
ATOM     35  C   UNL A   1      32.932  35.063  28.543  1.00  0.00     0.251 C 
ATOM     36  H   UNL A   1      31.595  34.689  27.101  1.00  0.00     0.163 HD
ATOM     37  O   UNL A   1      32.503  36.189  28.772  1.00  0.00    -0.269 OA
BRANCH  35  38
ATOM     38  C   UNL A   1      34.108  34.561  29.286  1.00  0.00     0.039 A 
ATOM     39  C   UNL A   1      33.921  34.022  30.562  1.00  0.00     0.014 A 
ATOM     40  C   UNL A   1      35.384  34.601  28.719  1.00  0.00     0.014 A 
ATOM     41  C   UNL A   1      34.999  33.435  31.230  1.00  0.00     0.010 A 
ATOM     42  C   UNL A   1      36.443  33.961  29.356  1.00  0.00     0.010 A 
ATOM     43  C   UNL A   1      36.255  33.354  30.609  1.00  0.00    -0.014 A 
BRANCH  43  44
ATOM     44  C   UNL A   1      37.374  32.594  31.218  1.00  0.00     0.031 A 
ATOM     45  C   UNL A   1      38.008  33.063  32.495  1.00  0.00     0.074 A 
ATOM     46  C   UNL A   1      37.883  31.530  30.565  1.00  0.00     0.049 A 
ATOM     47  N   UNL A   1      39.063  32.597  33.114  1.00  0.00    -0.248 NA
ATOM     48  C   UNL A   1      37.386  34.222  33.150  1.00  0.00     0.031 C 
ATOM     49  C   UNL A   1      37.374  30.990  29.303  1.00  0.00     0.029 A 
ATOM     50  N   UNL A   1      38.951  30.722  30.866  1.00  0.00    -0.354 N 
ATOM     51  C   UNL A   1      39.239  33.411  34.224  1.00  0.00     0.074 A 
ATOM     52  C   UNL A   1      38.210  34.428  34.167  1.00  0.00     0.031 C 
ATOM     53  C   UNL A   1      38.116  29.929  28.949  1.00  0.00     0.029 A 
ATOM     54  C   UNL A   1      39.179  29.742  29.931  1.00  0.00     0.049 A 
ATOM     55  H   UNL A   1      39.501  30.835  31.675  1.00  0.00     0.167 HD
ATOM     56  C   UNL A   1      40.163  33.309  35.211  1.00  0.00     0.037 A 
ATOM     57  C   UNL A   1      40.147  28.809  29.863  1.00  0.00     0.037 A 
ATOM     58  C   UNL A   1      41.178  32.290  35.269  1.00  0.00     0.049 A 
ATOM     59  C   UNL A   1      41.201  28.759  30.931  1.00  0.00     0.074 A 
ATOM     60  C   UNL A   1      42.113  32.059  36.263  1.00  0.00     0.029 A 
ATOM     61  N   UNL A   1      41.401  31.340  34.284  1.00  0.00    -0.354 N 
ATOM     62  N   UNL A   1      41.319  29.495  32.009  1.00  0.00    -0.248 NA
ATOM     63  C   UNL A   1      42.264  27.758  30.765  1.00  0.00     0.031 C 
ATOM     64  C   UNL A   1      42.934  31.002  35.854  1.00  0.00     0.029 A 
ATOM     65  C   UNL A   1      42.484  30.547  34.626  1.00  0.00     0.049 A 
ATOM     66  H   UNL A   1      40.867  31.242  33.462  1.00  0.00     0.167 HD
ATOM     67  C   UNL A   1      42.457  29.037  32.659  1.00  0.00     0.074 A 
ATOM     68  C   UNL A   1      42.988  27.951  31.860  1.00  0.00     0.031 C 
ATOM     69  C   UNL A   1      43.010  29.477  33.816  1.00  0.00     0.037 A 
BRANCH  56  70
ATOM     70  C   UNL A   1      40.117  34.340  36.300  1.00  0.00     0.057 A 
ATOM     71  C   UNL A   1      40.819  35.550  36.204  1.00  0.00     0.134 A 
ATOM     72  C   UNL A   1      39.359  34.124  37.457  1.00  0.00     0.134 A 
ATOM     73  F   UNL A   1      41.574  35.814  35.126  1.00  0.00    -0.206 F 
ATOM     74  C   UNL A   1      40.797  36.490  37.235  1.00  0.00     0.040 A 
ATOM     75  C   UNL A   1      39.307  35.069  38.483  1.00  0.00     0.040 A 
ATOM     76  F   UNL A   1      38.657  32.991  37.611  1.00  0.00    -0.206 F 
ATOM     77  C   UNL A   1      40.037  36.252  38.378  1.00  0.00     0.006 A 
ENDBRANCH  56  70
BRANCH  57  78
ATOM     78  C   UNL A   1      40.152  27.834  28.744  1.00  0.00     0.057 A 
ATOM     79  C   UNL A   1      40.823  28.122  27.551  1.00  0.00     0.134 A 
ATOM     80  C   UNL A   1      39.510  26.594  28.845  1.00  0.00     0.134 A 
ATOM     81  F   UNL A   1      41.438  29.302  27.390  1.00  0.00    -0.206 F 
ATOM     82  C   UNL A   1      40.853  27.212  26.494  1.00  0.00     0.040 A 
ATOM     83  C   UNL A   1      39.550  25.666  27.803  1.00  0.00     0.040 A 
ATOM     84  F   UNL A   1      38.855  26.259  29.966  1.00  0.00    -0.206 F 
ATOM     85  C   UNL A   1      40.221  25.976  26.621  1.00  0.00     0.006 A 
ENDBRANCH  57  78
BRANCH  69  86
ATOM     86  C   UNL A   1      44.252  28.782  34.289  1.00  0.00     0.057 A 
ATOM     87  C   UNL A   1      45.528  29.269  33.982  1.00  0.00     0.134 A 
ATOM     88  C   UNL A   1      44.171  27.642  35.100  1.00  0.00     0.134 A 
ATOM     89  F   UNL A   1      45.674  30.347  33.196  1.00  0.00    -0.206 F 
ATOM     90  C   UNL A   1      46.682  28.640  34.455  1.00  0.00     0.040 A 
ATOM     91  C   UNL A   1      45.315  27.019  35.597  1.00  0.00     0.040 A 
ATOM     92  F   UNL A   1      42.977  27.128  35.434  1.00  0.00    -0.206 F 
ATOM     93  C   UNL A   1      46.576  27.516  35.272  1.00  0.00     0.006 A 
ENDBRANCH  69  86
ENDBRANCH  43  44
ENDBRANCH  35  38
ENDBRANCH  33  34
ENDBRANCH  32  33
ENDBRANCH  31  32
ENDBRANCH   1  31
TORSDOF 17
ENDMDL
MODEL 3
REMARK VINA RESULT:     -12.1      3.107      8.846
REMARK SMILES CS(=O)(=O)c1ccc(C(=O)N2C[C@@H](C(=O)NCCCCCCNC(=O)c3ccc(-c4c5nc(c(-c6c(F)cccc6F)c6ccc([nH]6)c(-c6c(F)cccc6F)c6nc(c(-c7c(F)cccc7F)c7ccc4[nH]7)C=C6)C=C5)cc3)[C@H](c3ccncc3)C2)cc1
REMARK SMILES IDX 19 1 18 2 17 3 16 4 14 5 15 6 13 8 11 9 12 10 87 11 80 12
REMARK SMILES IDX 9 13 10 14 8 15 5 16 6 17 89 18 7 19 88 20 2 21 1 22 3 23
REMARK SMILES IDX 4 24 81 25 82 26 86 27 83 28 85 29 84 30 20 31 21 32 22 33
REMARK SMILES IDX 23 34 24 35 25 37 26 38 27 39 79 40 28 41 78 42 29 43 30 44
REMARK SMILES IDX 31 45 72 46 32 47 77 48 71 49 73 50 33 51 76 52 70 53 69 54
REMARK SMILES IDX 34 56 60 57 43 58 59 59 44 60 47 61 58 62 74 63 45 64 46 65
REMARK SMILES IDX 57 67 75 68 48 69 35 70 36 71 41 72 37 73 38 74 40 75 42 76
REMARK SMILES IDX 39 77 61 78 62 79 67 80 63 81 64 82 66 83 68 84 65 85 49 86
REMARK SMILES IDX 50 87 55 88 51 89 52 90 54 91 56 92 53 93
REMARK H PARENT 16 7 23 36 73 55 47 66
REMARK Flexibility Score: inf
ROOT
ATOM      1  C   UNL A   1      39.252  21.512  25.766  1.00  0.00     0.002 C 
ENDROOT
BRANCH   1   2
ATOM      2  C   UNL A   1      38.829  22.798  26.489  1.00  0.00     0.021 C 
BRANCH   2   3
ATOM      3  C   UNL A   1      37.537  23.428  25.967  1.00  0.00     0.116 C 
BRANCH   3   4
ATOM      4  N   UNL A   1      37.425  23.296  24.524  1.00  0.00    -0.356 N 
ATOM      5  C   UNL A   1      36.346  23.092  23.721  1.00  0.00     0.225 C 
ATOM      6  O   UNL A   1      36.540  22.987  22.510  1.00  0.00    -0.275 OA
ATOM      7  H   UNL A   1      38.281  23.365  24.042  1.00  0.00     0.163 HD
BRANCH   5   8
ATOM      8  C   UNL A   1      34.953  23.040  24.307  1.00  0.00     0.107 C 
ATOM      9  N   UNL A   1      33.575  24.096  25.835  1.00  0.00    -0.337 N 
ATOM     10  C   UNL A   1      34.536  24.418  24.801  1.00  0.00     0.134 C 
ATOM     11  C   UNL A   1      34.052  22.953  26.588  1.00  0.00     0.129 C 
ATOM     12  C   UNL A   1      34.902  22.137  25.581  1.00  0.00     0.053 C 
BRANCH   9  13
ATOM     13  C   UNL A   1      32.424  24.763  26.198  1.00  0.00     0.253 C 
ATOM     14  O   UNL A   1      31.779  24.451  27.197  1.00  0.00    -0.269 OA
BRANCH  13  15
ATOM     15  C   UNL A   1      31.850  25.788  25.281  1.00  0.00     0.040 A 
ATOM     16  C   UNL A   1      30.398  27.683  23.817  1.00  0.00     0.067 A 
ATOM     17  C   UNL A   1      31.098  28.079  24.961  1.00  0.00     0.021 A 
ATOM     18  C   UNL A   1      30.423  26.353  23.393  1.00  0.00     0.021 A 
ATOM     19  C   UNL A   1      31.821  27.129  25.692  1.00  0.00     0.015 A 
ATOM     20  C   UNL A   1      31.137  25.409  24.132  1.00  0.00     0.015 A 
BRANCH  16  21
ATOM     21  S   UNL A   1      29.369  28.848  22.955  1.00  0.00     0.175 S 
ATOM     22  C   UNL A   1      29.638  30.389  23.788  1.00  0.00     0.163 C 
ATOM     23  O   UNL A   1      27.992  28.469  23.176  1.00  0.00    -0.224 OA
ATOM     24  O   UNL A   1      29.915  28.962  21.612  1.00  0.00    -0.224 OA
ENDBRANCH  16  21
ENDBRANCH  13  15
ENDBRANCH   9  13
BRANCH  12  25
ATOM     25  C   UNL A   1      34.447  20.726  25.221  1.00  0.00    -0.039 A 
ATOM     26  C   UNL A   1      35.420  19.771  24.880  1.00  0.00     0.024 A 
ATOM     27  C   UNL A   1      33.115  20.302  25.209  1.00  0.00     0.024 A 
ATOM     28  C   UNL A   1      35.032  18.488  24.521  1.00  0.00     0.111 A 
ATOM     29  C   UNL A   1      32.824  18.988  24.855  1.00  0.00     0.111 A 
ATOM     30  N   UNL A   1      33.751  18.077  24.495  1.00  0.00    -0.265 NA
ENDBRANCH  12  25
ENDBRANCH   5   8
ENDBRANCH   3   4
ENDBRANCH   2   3
ENDBRANCH   1   2
BRANCH   1  31
ATOM     31  C   UNL A   1      40.189  20.587  26.549  1.00  0.00     0.002 C 
BRANCH  31  32
ATOM     32  C   UNL A   1      41.659  20.631  26.128  1.00  0.00     0.021 C 
BRANCH  32  33
ATOM     33  C   UNL A   1      42.456  21.812  26.677  1.00  0.00     0.116 C 
BRANCH  33  34
ATOM     34  N   UNL A   1      43.322  22.422  25.680  1.00  0.00    -0.352 N 
ATOM     35  C   UNL A   1      43.572  23.750  25.430  1.00  0.00     0.251 C 
ATOM     36  H   UNL A   1      43.801  21.789  25.098  1.00  0.00     0.163 HD
ATOM     37  O   UNL A   1      44.225  24.083  24.447  1.00  0.00    -0.269 OA
BRANCH  35  38
ATOM     38  C   UNL A   1      43.021  24.785  26.331  1.00  0.00     0.039 A 
ATOM     39  C   UNL A   1      41.922  24.467  27.133  1.00  0.00     0.014 A 
ATOM     40  C   UNL A   1      43.598  26.055  26.399  1.00  0.00     0.014 A 
ATOM     41  C   UNL A   1      41.462  25.390  28.075  1.00  0.00     0.010 A 
ATOM     42  C   UNL A   1      43.181  26.951  27.380  1.00  0.00     0.010 A 
ATOM     43  C   UNL A   1      42.122  26.618  28.241  1.00  0.00    -0.014 A 
BRANCH  43  44
ATOM     44  C   UNL A   1      41.765  27.549  29.339  1.00  0.00     0.031 A 
ATOM     45  C   UNL A   1      42.499  27.502  30.648  1.00  0.00     0.074 A 
ATOM     46  C   UNL A   1      40.711  28.375  29.189  1.00  0.00     0.049 A 
ATOM     47  N   UNL A   1      42.255  28.154  31.756  1.00  0.00    -0.248 NA
ATOM     48  C   UNL A   1      43.643  26.583  30.727  1.00  0.00     0.031 C 
ATOM     49  C   UNL A   1      39.899  28.497  27.976  1.00  0.00     0.029 A 
ATOM     50  N   UNL A   1      40.132  29.258  30.066  1.00  0.00    -0.354 N 
ATOM     51  C   UNL A   1      43.207  27.718  32.667  1.00  0.00     0.074 A 
ATOM     52  C   UNL A   1      44.002  26.712  31.995  1.00  0.00     0.031 C 
ATOM     53  C   UNL A   1      38.942  29.417  28.179  1.00  0.00     0.029 A 
ATOM     54  C   UNL A   1      39.042  29.913  29.548  1.00  0.00     0.049 A 
ATOM     55  H   UNL A   1      40.467  29.406  30.980  1.00  0.00     0.167 HD
ATOM     56  C   UNL A   1      43.411  28.133  33.941  1.00  0.00     0.037 A 
ATOM     57  C   UNL A   1      38.205  30.801  30.117  1.00  0.00     0.037 A 
ATOM     58  C   UNL A   1      42.626  29.142  34.602  1.00  0.00     0.049 A 
ATOM     59  C   UNL A   1      38.409  31.194  31.551  1.00  0.00     0.074 A 
ATOM     60  C   UNL A   1      42.800  29.682  35.865  1.00  0.00     0.029 A 
ATOM     61  N   UNL A   1      41.506  29.753  34.057  1.00  0.00    -0.354 N 
ATOM     62  N   UNL A   1      39.351  30.820  32.383  1.00  0.00    -0.248 NA
ATOM     63  C   UNL A   1      37.425  32.118  32.132  1.00  0.00     0.031 C 
ATOM     64  C   UNL A   1      41.754  30.582  36.103  1.00  0.00     0.029 A 
ATOM     65  C   UNL A   1      40.955  30.635  34.973  1.00  0.00     0.049 A 
ATOM     66  H   UNL A   1      41.155  29.587  33.152  1.00  0.00     0.167 HD
ATOM     67  C   UNL A   1      39.086  31.477  33.578  1.00  0.00     0.074 A 
ATOM     68  C   UNL A   1      37.900  32.280  33.359  1.00  0.00     0.031 C 
ATOM     69  C   UNL A   1      39.766  31.419  34.748  1.00  0.00     0.037 A 
BRANCH  56  70
ATOM     70  C   UNL A   1      44.528  27.479  34.702  1.00  0.00     0.057 A 
ATOM     71  C   UNL A   1      45.835  27.986  34.679  1.00  0.00     0.134 A 
ATOM     72  C   UNL A   1      44.294  26.333  35.471  1.00  0.00     0.134 A 
ATOM     73  F   UNL A   1      46.128  29.075  33.952  1.00  0.00    -0.206 F 
ATOM     74  C   UNL A   1      46.874  27.355  35.363  1.00  0.00     0.040 A 
ATOM     75  C   UNL A   1      45.320  25.709  36.182  1.00  0.00     0.040 A 
ATOM     76  F   UNL A   1      43.065  25.799  35.543  1.00  0.00    -0.206 F 
ATOM     77  C   UNL A   1      46.617  26.214  36.120  1.00  0.00     0.006 A 
ENDBRANCH  56  70
BRANCH  57  78
ATOM     78  C   UNL A   1      37.103  31.391  29.317  1.00  0.00     0.057 A 
ATOM     79  C   UNL A   1      35.938  30.661  29.062  1.00  0.00     0.134 A 
ATOM     80  C   UNL A   1      37.178  32.694  28.809  1.00  0.00     0.134 A 
ATOM     81  F   UNL A   1      35.819  29.402  29.506  1.00  0.00    -0.206 F 
ATOM     82  C   UNL A   1      34.884  31.204  28.327  1.00  0.00     0.040 A 
ATOM     83  C   UNL A   1      36.122  33.257  28.090  1.00  0.00     0.040 A 
ATOM     84  F   UNL A   1      38.268  33.445  29.026  1.00  0.00    -0.206 F 
ATOM     85  C   UNL A   1      34.971  32.509  27.844  1.00  0.00     0.006 A 
ENDBRANCH  57  78
BRANCH  69  86
ATOM     86  C   UNL A   1      39.247  32.249  35.884  1.00  0.00     0.057 A 
ATOM     87  C   UNL A   1      39.645  33.580  36.062  1.00  0.00     0.134 A 
ATOM     88  C   UNL A   1      38.304  31.729  36.780  1.00  0.00     0.134 A 
ATOM     89  F   UNL A   1      40.557  34.132  35.248  1.00  0.00    -0.206 F 
ATOM     90  C   UNL A   1      39.133  34.361  37.100  1.00  0.00     0.040 A 
ATOM     91  C   UNL A   1      37.768  32.507  37.807  1.00  0.00     0.040 A 
ATOM     92  F   UNL A   1      37.879  30.462  36.661  1.00  0.00    -0.206 F 
ATOM     93  C   UNL A   1      38.184  33.826  37.971  1.00  0.00     0.006 A 
ENDBRANCH  69  86
ENDBRANCH  43  44
ENDBRANCH  35  38
ENDBRANCH  33  34
ENDBRANCH  32  33
ENDBRANCH  31  32
ENDBRANCH   1  31
TORSDOF 17
ENDMDL
