MODEL 1
REMARK VINA RESULT:     -13.1      0.000      0.000
REMARK SMILES COc1ccc(-c2cc(Cl)cc3c2O[C@@H](C(F)(F)F)C(C(=O)NCCCCCCNC(=O)c2ccc(-c4c5nc(c(-c6c(F)cccc6F)c6ccc([nH]6)c(-c6c(F)cccc6F)c6nc(c(-c7c(F)cccc7F)c7ccc4[nH]7)C=C6)C=C5)cc2)=C3)cc1C
REMARK SMILES IDX 26 1 25 2 24 3 23 4 21 5 22 6 20 8 7 9 8 10 13 11 9 12 12 13
REMARK SMILES IDX 14 14 10 15 11 16 87 17 15 18 6 19 3 20 4 21 89 22 5 23
REMARK SMILES IDX 88 24 90 25 2 26 1 27 16 28 17 29 18 30 19 31 27 32 28 33
REMARK SMILES IDX 29 34 30 35 31 36 32 38 33 39 34 40 86 41 35 42 85 43 36 44
REMARK SMILES IDX 37 45 38 46 79 47 39 48 84 49 78 50 80 51 40 52 83 53 77 54
REMARK SMILES IDX 76 55 41 57 67 58 50 59 66 60 51 61 54 62 65 63 81 64 52 65
REMARK SMILES IDX 53 66 64 68 82 69 55 70 42 71 43 72 48 73 44 74 45 75 47 76
REMARK SMILES IDX 49 77 46 78 68 79 69 80 74 81 70 82 71 83 73 84 75 85 72 86
REMARK SMILES IDX 56 87 57 88 62 89 58 90 59 91 61 92 63 93 60 94
REMARK H PARENT 23 7 30 37 80 56 54 67
REMARK Flexibility Score: inf
ROOT
ATOM      1  C   UNL A   1      31.872  29.654  25.176  1.00  0.00     0.002 C 
ENDROOT
BRANCH   1   2
ATOM      2  C   UNL A   1      33.076  28.861  24.675  1.00  0.00     0.021 C 
BRANCH   2   3
ATOM      3  C   UNL A   1      32.927  27.777  23.607  1.00  0.00     0.116 C 
BRANCH   3   4
ATOM      4  N   UNL A   1      33.741  26.586  23.671  1.00  0.00    -0.352 N 
ATOM      5  C   UNL A   1      33.431  25.264  23.456  1.00  0.00     0.251 C 
ATOM      6  O   UNL A   1      34.383  24.525  23.176  1.00  0.00    -0.270 OA
ATOM      7  H   UNL A   1      34.682  26.748  23.911  1.00  0.00     0.163 HD
BRANCH   5   8
ATOM      8  C   UNL A   1      32.027  24.646  23.604  1.00  0.00     0.067 C 
ATOM      9  C   UNL A   1      33.893  21.962  25.892  1.00  0.00     0.026 A 
ATOM     10  C   UNL A   1      33.534  20.599  25.855  1.00  0.00     0.033 A 
ATOM     11  C   UNL A   1      33.015  22.812  25.224  1.00  0.00     0.135 A 
ATOM     12  C   UNL A   1      32.642  20.133  24.881  1.00  0.00     0.042 A 
ATOM     13  C   UNL A   1      32.390  22.361  24.034  1.00  0.00     0.019 A 
ATOM     14  O   UNL A   1      32.587  24.027  25.813  1.00  0.00    -0.475 OA
ATOM     15  Cl  UNL A   1      32.287  18.452  24.797  1.00  0.00    -0.084 Cl
ATOM     16  C   UNL A   1      32.151  20.998  23.900  1.00  0.00     0.032 A 
ATOM     17  C   UNL A   1      31.950  23.408  23.042  1.00  0.00     0.025 C 
ATOM     18  C   UNL A   1      31.472  24.540  25.011  1.00  0.00     0.314 C 
BRANCH   9  19
ATOM     19  C   UNL A   1      35.366  22.184  25.734  1.00  0.00    -0.014 A 
ATOM     20  C   UNL A   1      38.209  22.247  25.741  1.00  0.00     0.121 A 
ATOM     21  C   UNL A   1      37.442  23.361  26.128  1.00  0.00     0.047 A 
ATOM     22  C   UNL A   1      37.564  21.079  25.331  1.00  0.00    -0.008 A 
ATOM     23  C   UNL A   1      36.036  23.336  26.128  1.00  0.00     0.013 A 
ATOM     24  C   UNL A   1      36.158  21.088  25.293  1.00  0.00     0.016 A 
ATOM     25  C   UNL A   1      38.267  19.793  25.000  1.00  0.00     0.048 C 
BRANCH  20  26
ATOM     26  O   UNL A   1      39.558  22.386  25.939  1.00  0.00    -0.496 OA
ATOM     27  C   UNL A   1      40.032  22.101  27.250  1.00  0.00     0.278 C 
ENDBRANCH  20  26
ENDBRANCH   9  19
BRANCH  18  28
ATOM     28  C   UNL A   1      30.550  25.696  25.444  1.00  0.00     0.429 C 
ATOM     29  F   UNL A   1      29.488  25.207  26.143  1.00  0.00    -0.167 F 
ATOM     30  F   UNL A   1      31.167  26.586  26.249  1.00  0.00    -0.167 F 
ATOM     31  F   UNL A   1      30.009  26.374  24.405  1.00  0.00    -0.167 F 
ENDBRANCH  18  28
ENDBRANCH   5   8
ENDBRANCH   3   4
ENDBRANCH   2   3
ENDBRANCH   1   2
BRANCH   1  32
ATOM     32  C   UNL A   1      32.030  30.529  26.420  1.00  0.00     0.002 C 
BRANCH  32  33
ATOM     33  C   UNL A   1      33.035  30.069  27.471  1.00  0.00     0.021 C 
BRANCH  33  34
ATOM     34  C   UNL A   1      34.417  30.704  27.392  1.00  0.00     0.116 C 
BRANCH  34  35
ATOM     35  N   UNL A   1      34.841  31.364  28.622  1.00  0.00    -0.352 N 
ATOM     36  C   UNL A   1      35.910  31.059  29.453  1.00  0.00     0.251 C 
ATOM     37  H   UNL A   1      34.293  32.134  28.901  1.00  0.00     0.163 HD
ATOM     38  O   UNL A   1      36.168  31.752  30.418  1.00  0.00    -0.269 OA
BRANCH  36  39
ATOM     39  C   UNL A   1      36.816  29.948  29.066  1.00  0.00     0.039 A 
ATOM     40  C   UNL A   1      37.068  28.953  30.013  1.00  0.00     0.014 A 
ATOM     41  C   UNL A   1      37.569  30.015  27.897  1.00  0.00     0.014 A 
ATOM     42  C   UNL A   1      38.242  28.210  29.919  1.00  0.00     0.010 A 
ATOM     43  C   UNL A   1      38.779  29.346  27.847  1.00  0.00     0.010 A 
ATOM     44  C   UNL A   1      39.152  28.507  28.902  1.00  0.00    -0.014 A 
BRANCH  44  45
ATOM     45  C   UNL A   1      40.564  28.142  28.988  1.00  0.00     0.031 A 
ATOM     46  C   UNL A   1      41.090  26.910  28.371  1.00  0.00     0.074 A 
ATOM     47  C   UNL A   1      41.426  28.969  29.623  1.00  0.00     0.049 A 
ATOM     48  N   UNL A   1      42.134  26.288  28.810  1.00  0.00    -0.248 NA
ATOM     49  C   UNL A   1      40.469  26.266  27.221  1.00  0.00     0.031 C 
ATOM     50  C   UNL A   1      42.884  28.894  29.630  1.00  0.00     0.029 A 
ATOM     51  N   UNL A   1      41.122  29.932  30.595  1.00  0.00    -0.354 N 
ATOM     52  C   UNL A   1      42.473  25.340  27.879  1.00  0.00     0.074 A 
ATOM     53  C   UNL A   1      41.376  25.325  26.936  1.00  0.00     0.031 C 
ATOM     54  C   UNL A   1      43.341  29.516  30.728  1.00  0.00     0.029 A 
ATOM     55  C   UNL A   1      42.189  29.903  31.521  1.00  0.00     0.049 A 
ATOM     56  H   UNL A   1      40.327  30.512  30.626  1.00  0.00     0.167 HD
ATOM     57  C   UNL A   1      43.698  24.741  27.926  1.00  0.00     0.037 A 
ATOM     58  C   UNL A   1      41.978  29.570  32.825  1.00  0.00     0.037 A 
ATOM     59  C   UNL A   1      44.513  25.213  29.041  1.00  0.00     0.049 A 
ATOM     60  C   UNL A   1      42.714  28.332  33.297  1.00  0.00     0.074 A 
ATOM     61  C   UNL A   1      45.557  26.115  29.168  1.00  0.00     0.029 A 
ATOM     62  N   UNL A   1      44.097  24.938  30.331  1.00  0.00    -0.354 N 
ATOM     63  N   UNL A   1      43.487  27.595  32.549  1.00  0.00    -0.248 NA
ATOM     64  C   UNL A   1      42.539  27.771  34.638  1.00  0.00     0.031 C 
ATOM     65  C   UNL A   1      45.781  26.353  30.554  1.00  0.00     0.029 A 
ATOM     66  C   UNL A   1      44.869  25.600  31.267  1.00  0.00     0.049 A 
ATOM     67  H   UNL A   1      43.345  24.344  30.556  1.00  0.00     0.167 HD
ATOM     68  C   UNL A   1      43.835  26.460  33.238  1.00  0.00     0.074 A 
ATOM     69  C   UNL A   1      43.226  26.621  34.544  1.00  0.00     0.031 C 
ATOM     70  C   UNL A   1      44.547  25.442  32.674  1.00  0.00     0.037 A 
BRANCH  57  71
ATOM     71  C   UNL A   1      44.214  23.890  26.799  1.00  0.00     0.057 A 
ATOM     72  C   UNL A   1      45.049  24.422  25.801  1.00  0.00     0.134 A 
ATOM     73  C   UNL A   1      43.882  22.535  26.634  1.00  0.00     0.134 A 
ATOM     74  F   UNL A   1      45.523  25.672  25.868  1.00  0.00    -0.206 F 
ATOM     75  C   UNL A   1      45.424  23.696  24.664  1.00  0.00     0.040 A 
ATOM     76  C   UNL A   1      44.206  21.813  25.477  1.00  0.00     0.040 A 
ATOM     77  F   UNL A   1      43.246  21.855  27.599  1.00  0.00    -0.206 F 
ATOM     78  C   UNL A   1      44.968  22.400  24.478  1.00  0.00     0.006 A 
ENDBRANCH  57  71
BRANCH  58  79
ATOM     79  C   UNL A   1      40.653  30.011  33.331  1.00  0.00     0.057 A 
ATOM     80  C   UNL A   1      40.463  31.368  33.646  1.00  0.00     0.134 A 
ATOM     81  C   UNL A   1      39.507  29.224  33.189  1.00  0.00     0.134 A 
ATOM     82  F   UNL A   1      41.522  32.181  33.793  1.00  0.00    -0.206 F 
ATOM     83  C   UNL A   1      39.191  31.939  33.712  1.00  0.00     0.040 A 
ATOM     84  C   UNL A   1      38.228  29.781  33.267  1.00  0.00     0.040 A 
ATOM     85  F   UNL A   1      39.607  27.927  32.862  1.00  0.00    -0.206 F 
ATOM     86  C   UNL A   1      38.068  31.148  33.492  1.00  0.00     0.006 A 
ENDBRANCH  58  79
BRANCH  70  87
ATOM     87  C   UNL A   1      44.968  24.195  33.404  1.00  0.00     0.057 A 
ATOM     88  C   UNL A   1      44.095  23.128  33.656  1.00  0.00     0.134 A 
ATOM     89  C   UNL A   1      46.248  24.075  33.984  1.00  0.00     0.134 A 
ATOM     90  F   UNL A   1      42.820  23.163  33.238  1.00  0.00    -0.206 F 
ATOM     91  C   UNL A   1      44.487  21.991  34.376  1.00  0.00     0.040 A 
ATOM     92  C   UNL A   1      46.636  22.968  34.745  1.00  0.00     0.040 A 
ATOM     93  F   UNL A   1      47.188  25.017  33.825  1.00  0.00    -0.206 F 
ATOM     94  C   UNL A   1      45.760  21.912  34.929  1.00  0.00     0.006 A 
ENDBRANCH  70  87
ENDBRANCH  44  45
ENDBRANCH  36  39
ENDBRANCH  34  35
ENDBRANCH  33  34
ENDBRANCH  32  33
ENDBRANCH   1  32
TORSDOF 16
ENDMDL
MODEL 2
REMARK VINA RESULT:     -12.5      2.059      3.403
REMARK SMILES COc1ccc(-c2cc(Cl)cc3c2O[C@@H](C(F)(F)F)C(C(=O)NCCCCCCNC(=O)c2ccc(-c4c5nc(c(-c6c(F)cccc6F)c6ccc([nH]6)c(-c6c(F)cccc6F)c6nc(c(-c7c(F)cccc7F)c7ccc4[nH]7)C=C6)C=C5)cc2)=C3)cc1C
REMARK SMILES IDX 26 1 25 2 24 3 23 4 21 5 22 6 20 8 7 9 8 10 13 11 9 12 12 13
REMARK SMILES IDX 14 14 10 15 11 16 87 17 15 18 6 19 3 20 4 21 89 22 5 23
REMARK SMILES IDX 88 24 90 25 2 26 1 27 16 28 17 29 18 30 19 31 27 32 28 33
REMARK SMILES IDX 29 34 30 35 31 36 32 38 33 39 34 40 86 41 35 42 85 43 36 44
REMARK SMILES IDX 37 45 38 46 79 47 39 48 84 49 78 50 80 51 40 52 83 53 77 54
REMARK SMILES IDX 76 55 41 57 67 58 50 59 66 60 51 61 54 62 65 63 81 64 52 65
REMARK SMILES IDX 53 66 64 68 82 69 55 70 42 71 43 72 48 73 44 74 45 75 47 76
REMARK SMILES IDX 49 77 46 78 68 79 69 80 74 81 70 82 71 83 73 84 75 85 72 86
REMARK SMILES IDX 56 87 57 88 62 89 58 90 59 91 61 92 63 93 60 94
REMARK H PARENT 23 7 30 37 80 56 54 67
REMARK Flexibility Score: inf
ROOT
ATOM      1  C   UNL A   1      34.170  28.541  26.718  1.00  0.00     0.002 C 
ENDROOT
BRANCH   1   2
ATOM      2  C   UNL A   1      33.698  28.825  25.295  1.00  0.00     0.021 C 
BRANCH   2   3
ATOM      3  C   UNL A   1      33.098  27.724  24.420  1.00  0.00     0.116 C 
BRANCH   3   4
ATOM      4  N   UNL A   1      33.869  26.542  24.118  1.00  0.00    -0.352 N 
ATOM      5  C   UNL A   1      33.497  25.325  23.598  1.00  0.00     0.251 C 
ATOM      6  O   UNL A   1      34.399  24.664  23.069  1.00  0.00    -0.270 OA
ATOM      7  H   UNL A   1      34.830  26.620  24.320  1.00  0.00     0.163 HD
BRANCH   5   8
ATOM      8  C   UNL A   1      32.084  24.717  23.690  1.00  0.00     0.067 C 
ATOM      9  C   UNL A   1      33.917  21.786  25.684  1.00  0.00     0.026 A 
ATOM     10  C   UNL A   1      33.538  20.439  25.510  1.00  0.00     0.033 A 
ATOM     11  C   UNL A   1      33.050  22.712  25.111  1.00  0.00     0.135 A 
ATOM     12  C   UNL A   1      32.635  20.088  24.499  1.00  0.00     0.042 A 
ATOM     13  C   UNL A   1      32.414  22.394  23.884  1.00  0.00     0.019 A 
ATOM     14  O   UNL A   1      32.642  23.867  25.822  1.00  0.00    -0.475 OA
ATOM     15  Cl  UNL A   1      32.254  18.430  24.247  1.00  0.00    -0.084 Cl
ATOM     16  C   UNL A   1      32.153  21.056  23.613  1.00  0.00     0.032 A 
ATOM     17  C   UNL A   1      31.986  23.543  23.006  1.00  0.00     0.025 C 
ATOM     18  C   UNL A   1      31.533  24.476  25.082  1.00  0.00     0.314 C 
BRANCH   9  19
ATOM     19  C   UNL A   1      35.393  22.001  25.542  1.00  0.00    -0.014 A 
ATOM     20  C   UNL A   1      38.235  22.069  25.600  1.00  0.00     0.121 A 
ATOM     21  C   UNL A   1      37.461  23.202  25.908  1.00  0.00     0.047 A 
ATOM     22  C   UNL A   1      37.599  20.878  25.243  1.00  0.00    -0.008 A 
ATOM     23  C   UNL A   1      36.054  23.175  25.882  1.00  0.00     0.013 A 
ATOM     24  C   UNL A   1      36.193  20.884  25.178  1.00  0.00     0.016 A 
ATOM     25  C   UNL A   1      38.308  19.577  24.999  1.00  0.00     0.048 C 
BRANCH  20  26
ATOM     26  O   UNL A   1      39.580  22.221  25.814  1.00  0.00    -0.496 OA
ATOM     27  C   UNL A   1      40.027  22.022  27.151  1.00  0.00     0.278 C 
ENDBRANCH  20  26
ENDBRANCH   9  19
BRANCH  18  28
ATOM     28  C   UNL A   1      30.629  25.596  25.635  1.00  0.00     0.429 C 
ATOM     29  F   UNL A   1      30.217  26.405  24.620  1.00  0.00    -0.167 F 
ATOM     30  F   UNL A   1      29.515  25.123  26.231  1.00  0.00    -0.167 F 
ATOM     31  F   UNL A   1      31.259  26.415  26.510  1.00  0.00    -0.167 F 
ENDBRANCH  18  28
ENDBRANCH   5   8
ENDBRANCH   3   4
ENDBRANCH   2   3
ENDBRANCH   1   2
BRANCH   1  32
ATOM     32  C   UNL A   1      35.357  29.329  27.274  1.00  0.00     0.002 C 
BRANCH  32  33
ATOM     33  C   UNL A   1      35.046  30.456  28.254  1.00  0.00     0.021 C 
BRANCH  33  34
ATOM     34  C   UNL A   1      34.974  31.855  27.656  1.00  0.00     0.116 C 
BRANCH  34  35
ATOM     35  N   UNL A   1      34.019  32.738  28.318  1.00  0.00    -0.352 N 
ATOM     36  C   UNL A   1      34.164  33.448  29.502  1.00  0.00     0.251 C 
ATOM     37  H   UNL A   1      33.152  32.845  27.863  1.00  0.00     0.163 HD
ATOM     38  O   UNL A   1      33.289  34.197  29.892  1.00  0.00    -0.269 OA
BRANCH  36  39
ATOM     39  C   UNL A   1      35.465  33.384  30.215  1.00  0.00     0.039 A 
ATOM     40  C   UNL A   1      36.506  34.189  29.745  1.00  0.00     0.014 A 
ATOM     41  C   UNL A   1      35.712  32.395  31.162  1.00  0.00     0.014 A 
ATOM     42  C   UNL A   1      37.821  33.819  30.013  1.00  0.00     0.010 A 
ATOM     43  C   UNL A   1      37.015  31.970  31.355  1.00  0.00     0.010 A 
ATOM     44  C   UNL A   1      38.064  32.634  30.711  1.00  0.00    -0.014 A 
BRANCH  44  45
ATOM     45  C   UNL A   1      39.341  31.930  30.634  1.00  0.00     0.031 A 
ATOM     46  C   UNL A   1      39.502  30.689  29.855  1.00  0.00     0.074 A 
ATOM     47  C   UNL A   1      40.421  32.442  31.268  1.00  0.00     0.049 A 
ATOM     48  N   UNL A   1      40.382  29.784  30.135  1.00  0.00    -0.248 NA
ATOM     49  C   UNL A   1      38.669  30.355  28.707  1.00  0.00     0.031 C 
ATOM     50  C   UNL A   1      41.811  32.015  31.137  1.00  0.00     0.029 A 
ATOM     51  N   UNL A   1      40.430  33.329  32.353  1.00  0.00    -0.354 N 
ATOM     52  C   UNL A   1      40.413  28.898  29.089  1.00  0.00     0.074 A 
ATOM     53  C   UNL A   1      39.291  29.262  28.250  1.00  0.00     0.031 C 
ATOM     54  C   UNL A   1      42.477  32.374  32.245  1.00  0.00     0.029 A 
ATOM     55  C   UNL A   1      41.511  32.933  33.173  1.00  0.00     0.049 A 
ATOM     56  H   UNL A   1      39.810  34.077  32.512  1.00  0.00     0.167 HD
ATOM     57  C   UNL A   1      41.448  28.019  28.967  1.00  0.00     0.037 A 
ATOM     58  C   UNL A   1      41.304  32.511  34.452  1.00  0.00     0.037 A 
ATOM     59  C   UNL A   1      42.423  28.145  30.046  1.00  0.00     0.049 A 
ATOM     60  C   UNL A   1      41.733  31.085  34.732  1.00  0.00     0.074 A 
ATOM     61  C   UNL A   1      43.666  28.744  30.167  1.00  0.00     0.029 A 
ATOM     62  N   UNL A   1      42.033  27.829  31.334  1.00  0.00    -0.354 N 
ATOM     63  N   UNL A   1      42.248  30.275  33.848  1.00  0.00    -0.248 NA
ATOM     64  C   UNL A   1      41.506  30.428  36.020  1.00  0.00     0.031 C 
ATOM     65  C   UNL A   1      44.029  28.756  31.544  1.00  0.00     0.029 A 
ATOM     66  C   UNL A   1      43.003  28.169  32.258  1.00  0.00     0.049 A 
ATOM     67  H   UNL A   1      41.171  27.413  31.566  1.00  0.00     0.167 HD
ATOM     68  C   UNL A   1      42.342  29.016  34.389  1.00  0.00     0.074 A 
ATOM     69  C   UNL A   1      41.875  29.166  35.754  1.00  0.00     0.031 C 
ATOM     70  C   UNL A   1      42.740  27.930  33.666  1.00  0.00     0.037 A 
BRANCH  57  71
ATOM     71  C   UNL A   1      41.664  27.207  27.720  1.00  0.00     0.057 A 
ATOM     72  C   UNL A   1      41.444  25.819  27.701  1.00  0.00     0.134 A 
ATOM     73  C   UNL A   1      42.128  27.750  26.510  1.00  0.00     0.134 A 
ATOM     74  F   UNL A   1      40.918  25.172  28.748  1.00  0.00    -0.206 F 
ATOM     75  C   UNL A   1      41.775  25.017  26.602  1.00  0.00     0.040 A 
ATOM     76  C   UNL A   1      42.514  26.954  25.423  1.00  0.00     0.040 A 
ATOM     77  F   UNL A   1      42.208  29.077  26.332  1.00  0.00    -0.206 F 
ATOM     78  C   UNL A   1      42.352  25.578  25.473  1.00  0.00     0.006 A 
ENDBRANCH  57  71
BRANCH  58  79
ATOM     79  C   UNL A   1      40.166  33.197  35.115  1.00  0.00     0.057 A 
ATOM     80  C   UNL A   1      38.898  32.589  35.091  1.00  0.00     0.134 A 
ATOM     81  C   UNL A   1      40.360  34.229  36.036  1.00  0.00     0.134 A 
ATOM     82  F   UNL A   1      38.646  31.589  34.232  1.00  0.00    -0.206 F 
ATOM     83  C   UNL A   1      37.903  32.921  36.012  1.00  0.00     0.040 A 
ATOM     84  C   UNL A   1      39.367  34.580  36.954  1.00  0.00     0.040 A 
ATOM     85  F   UNL A   1      41.550  34.838  36.138  1.00  0.00    -0.206 F 
ATOM     86  C   UNL A   1      38.149  33.901  36.968  1.00  0.00     0.006 A 
ENDBRANCH  58  79
BRANCH  70  87
ATOM     87  C   UNL A   1      42.878  26.540  34.228  1.00  0.00     0.057 A 
ATOM     88  C   UNL A   1      41.796  25.818  34.751  1.00  0.00     0.134 A 
ATOM     89  C   UNL A   1      44.139  25.923  34.371  1.00  0.00     0.134 A 
ATOM     90  F   UNL A   1      40.558  26.337  34.761  1.00  0.00    -0.206 F 
ATOM     91  C   UNL A   1      41.946  24.543  35.312  1.00  0.00     0.040 A 
ATOM     92  C   UNL A   1      44.308  24.674  34.973  1.00  0.00     0.040 A 
ATOM     93  F   UNL A   1      45.262  26.496  33.917  1.00  0.00    -0.206 F 
ATOM     94  C   UNL A   1      43.207  23.970  35.432  1.00  0.00     0.006 A 
ENDBRANCH  70  87
ENDBRANCH  44  45
ENDBRANCH  36  39
ENDBRANCH  34  35
ENDBRANCH  33  34
ENDBRANCH  32  33
ENDBRANCH   1  32
TORSDOF 16
ENDMDL
MODEL 3
REMARK VINA RESULT:     -12.0      2.153      3.926
REMARK SMILES COc1ccc(-c2cc(Cl)cc3c2O[C@@H](C(F)(F)F)C(C(=O)NCCCCCCNC(=O)c2ccc(-c4c5nc(c(-c6c(F)cccc6F)c6ccc([nH]6)c(-c6c(F)cccc6F)c6nc(c(-c7c(F)cccc7F)c7ccc4[nH]7)C=C6)C=C5)cc2)=C3)cc1C
REMARK SMILES IDX 26 1 25 2 24 3 23 4 21 5 22 6 20 8 7 9 8 10 13 11 9 12 12 13
REMARK SMILES IDX 14 14 10 15 11 16 87 17 15 18 6 19 3 20 4 21 89 22 5 23
REMARK SMILES IDX 88 24 90 25 2 26 1 27 16 28 17 29 18 30 19 31 27 32 28 33
REMARK SMILES IDX 29 34 30 35 31 36 32 38 33 39 34 40 86 41 35 42 85 43 36 44
REMARK SMILES IDX 37 45 38 46 79 47 39 48 84 49 78 50 80 51 40 52 83 53 77 54
REMARK SMILES IDX 76 55 41 57 67 58 50 59 66 60 51 61 54 62 65 63 81 64 52 65
REMARK SMILES IDX 53 66 64 68 82 69 55 70 42 71 43 72 48 73 44 74 45 75 47 76
REMARK SMILES IDX 49 77 46 78 68 79 69 80 74 81 70 82 71 83 73 84 75 85 72 86
REMARK SMILES IDX 56 87 57 88 62 89 58 90 59 91 61 92 63 93 60 94
REMARK H PARENT 23 7 30 37 80 56 54 67
REMARK Flexibility Score: inf
ROOT
ATOM      1  C   UNL A   1      33.355  28.848  25.767  1.00  0.00     0.002 C 
ENDROOT
BRANCH   1   2
ATOM      2  C   UNL A   1      32.806  27.425  25.719  1.00  0.00     0.021 C 
BRANCH   2   3
ATOM      3  C   UNL A   1      33.657  26.227  26.139  1.00  0.00     0.116 C 
BRANCH   3   4
ATOM      4  N   UNL A   1      34.708  25.749  25.272  1.00  0.00    -0.352 N 
ATOM      5  C   UNL A   1      35.151  24.477  25.001  1.00  0.00     0.251 C 
ATOM      6  O   UNL A   1      35.764  24.332  23.937  1.00  0.00    -0.270 OA
ATOM      7  H   UNL A   1      35.192  26.458  24.791  1.00  0.00     0.163 HD
BRANCH   5   8
ATOM      8  C   UNL A   1      34.997  23.266  25.942  1.00  0.00     0.067 C 
ATOM      9  C   UNL A   1      31.272  23.145  24.516  1.00  0.00     0.026 A 
ATOM     10  C   UNL A   1      30.182  22.826  25.352  1.00  0.00     0.033 A 
ATOM     11  C   UNL A   1      32.524  22.924  25.084  1.00  0.00     0.135 A 
ATOM     12  C   UNL A   1      30.365  22.725  26.737  1.00  0.00     0.042 A 
ATOM     13  C   UNL A   1      32.706  23.168  26.469  1.00  0.00     0.019 A 
ATOM     14  O   UNL A   1      33.552  22.279  24.355  1.00  0.00    -0.475 OA
ATOM     15  Cl  UNL A   1      29.006  22.423  27.747  1.00  0.00    -0.084 Cl
ATOM     16  C   UNL A   1      31.609  23.003  27.309  1.00  0.00     0.032 A 
ATOM     17  C   UNL A   1      34.099  23.501  26.938  1.00  0.00     0.025 C 
ATOM     18  C   UNL A   1      34.623  21.944  25.298  1.00  0.00     0.314 C 
BRANCH   9  19
ATOM     19  C   UNL A   1      31.054  24.397  23.723  1.00  0.00    -0.014 A 
ATOM     20  C   UNL A   1      31.003  26.947  22.467  1.00  0.00     0.121 A 
ATOM     21  C   UNL A   1      29.892  26.446  23.170  1.00  0.00     0.047 A 
ATOM     22  C   UNL A   1      32.160  26.174  22.369  1.00  0.00    -0.008 A 
ATOM     23  C   UNL A   1      29.912  25.186  23.795  1.00  0.00     0.013 A 
ATOM     24  C   UNL A   1      32.144  24.897  22.960  1.00  0.00     0.016 A 
ATOM     25  C   UNL A   1      33.443  26.641  21.741  1.00  0.00     0.048 C 
BRANCH  20  26
ATOM     26  O   UNL A   1      30.872  28.245  22.046  1.00  0.00    -0.496 OA
ATOM     27  C   UNL A   1      30.955  29.243  23.058  1.00  0.00     0.278 C 
ENDBRANCH  20  26
ENDBRANCH   9  19
BRANCH  18  28
ATOM     28  C   UNL A   1      35.806  21.010  24.976  1.00  0.00     0.429 C 
ATOM     29  F   UNL A   1      36.455  21.449  23.862  1.00  0.00    -0.167 F 
ATOM     30  F   UNL A   1      36.722  20.963  25.965  1.00  0.00    -0.167 F 
ATOM     31  F   UNL A   1      35.430  19.741  24.691  1.00  0.00    -0.167 F 
ENDBRANCH  18  28
ENDBRANCH   5   8
ENDBRANCH   3   4
ENDBRANCH   2   3
ENDBRANCH   1   2
BRANCH   1  32
ATOM     32  C   UNL A   1      34.445  29.186  26.784  1.00  0.00     0.002 C 
BRANCH  32  33
ATOM     33  C   UNL A   1      34.153  30.315  27.769  1.00  0.00     0.021 C 
BRANCH  33  34
ATOM     34  C   UNL A   1      35.069  31.528  27.678  1.00  0.00     0.116 C 
BRANCH  34  35
ATOM     35  N   UNL A   1      35.618  31.957  28.960  1.00  0.00    -0.352 N 
ATOM     36  C   UNL A   1      36.585  31.343  29.745  1.00  0.00     0.251 C 
ATOM     37  H   UNL A   1      35.253  32.799  29.319  1.00  0.00     0.163 HD
ATOM     38  O   UNL A   1      36.982  31.866  30.768  1.00  0.00    -0.269 OA
BRANCH  36  39
ATOM     39  C   UNL A   1      37.224  30.101  29.242  1.00  0.00     0.039 A 
ATOM     40  C   UNL A   1      37.353  29.030  30.130  1.00  0.00     0.014 A 
ATOM     41  C   UNL A   1      37.881  30.081  28.015  1.00  0.00     0.014 A 
ATOM     42  C   UNL A   1      38.349  28.082  29.908  1.00  0.00     0.010 A 
ATOM     43  C   UNL A   1      38.930  29.197  27.836  1.00  0.00     0.010 A 
ATOM     44  C   UNL A   1      39.215  28.251  28.825  1.00  0.00    -0.014 A 
BRANCH  44  45
ATOM     45  C   UNL A   1      40.532  27.620  28.774  1.00  0.00     0.031 A 
ATOM     46  C   UNL A   1      40.703  26.199  28.422  1.00  0.00     0.074 A 
ATOM     47  C   UNL A   1      41.635  28.363  29.026  1.00  0.00     0.049 A 
ATOM     48  N   UNL A   1      41.696  25.480  28.833  1.00  0.00    -0.248 NA
ATOM     49  C   UNL A   1      39.756  25.463  27.594  1.00  0.00     0.031 C 
ATOM     50  C   UNL A   1      43.028  27.980  28.817  1.00  0.00     0.029 A 
ATOM     51  N   UNL A   1      41.707  29.560  29.750  1.00  0.00    -0.354 N 
ATOM     52  C   UNL A   1      41.668  24.299  28.138  1.00  0.00     0.074 A 
ATOM     53  C   UNL A   1      40.411  24.310  27.419  1.00  0.00     0.031 C 
ATOM     54  C   UNL A   1      43.802  28.718  29.628  1.00  0.00     0.029 A 
ATOM     55  C   UNL A   1      42.924  29.510  30.468  1.00  0.00     0.049 A 
ATOM     56  H   UNL A   1      41.046  30.289  29.758  1.00  0.00     0.167 HD
ATOM     57  C   UNL A   1      42.756  23.477  28.141  1.00  0.00     0.037 A 
ATOM     58  C   UNL A   1      42.936  29.529  31.831  1.00  0.00     0.037 A 
ATOM     59  C   UNL A   1      43.854  23.999  28.949  1.00  0.00     0.049 A 
ATOM     60  C   UNL A   1      43.535  28.299  32.483  1.00  0.00     0.074 A 
ATOM     61  C   UNL A   1      45.038  24.661  28.667  1.00  0.00     0.029 A 
ATOM     62  N   UNL A   1      43.676  24.114  30.315  1.00  0.00    -0.354 N 
ATOM     63  N   UNL A   1      43.999  27.265  31.837  1.00  0.00    -0.248 NA
ATOM     64  C   UNL A   1      43.552  28.101  33.933  1.00  0.00     0.031 C 
ATOM     65  C   UNL A   1      45.584  25.148  29.890  1.00  0.00     0.029 A 
ATOM     66  C   UNL A   1      44.727  24.786  30.911  1.00  0.00     0.049 A 
ATOM     67  H   UNL A   1      42.898  23.761  30.804  1.00  0.00     0.167 HD
ATOM     68  C   UNL A   1      44.287  26.265  32.731  1.00  0.00     0.074 A 
ATOM     69  C   UNL A   1      44.000  26.839  34.032  1.00  0.00     0.031 C 
ATOM     70  C   UNL A   1      44.684  25.018  32.343  1.00  0.00     0.037 A 
BRANCH  57  71
ATOM     71  C   UNL A   1      42.876  22.306  27.205  1.00  0.00     0.057 A 
ATOM     72  C   UNL A   1      42.091  21.151  27.369  1.00  0.00     0.134 A 
ATOM     73  C   UNL A   1      43.787  22.256  26.135  1.00  0.00     0.134 A 
ATOM     74  F   UNL A   1      41.118  21.084  28.286  1.00  0.00    -0.206 F 
ATOM     75  C   UNL A   1      42.282  19.993  26.607  1.00  0.00     0.040 A 
ATOM     76  C   UNL A   1      44.026  21.087  25.401  1.00  0.00     0.040 A 
ATOM     77  F   UNL A   1      44.467  23.347  25.754  1.00  0.00    -0.206 F 
ATOM     78  C   UNL A   1      43.281  19.943  25.647  1.00  0.00     0.006 A 
ENDBRANCH  57  71
BRANCH  58  79
ATOM     79  C   UNL A   1      41.839  30.345  32.412  1.00  0.00     0.057 A 
ATOM     80  C   UNL A   1      40.659  29.702  32.824  1.00  0.00     0.134 A 
ATOM     81  C   UNL A   1      42.051  31.646  32.875  1.00  0.00     0.134 A 
ATOM     82  F   UNL A   1      40.396  28.449  32.418  1.00  0.00    -0.206 F 
ATOM     83  C   UNL A   1      39.781  30.286  33.738  1.00  0.00     0.040 A 
ATOM     84  C   UNL A   1      41.172  32.247  33.779  1.00  0.00     0.040 A 
ATOM     85  F   UNL A   1      43.167  32.314  32.547  1.00  0.00    -0.206 F 
ATOM     86  C   UNL A   1      40.054  31.554  34.242  1.00  0.00     0.006 A 
ENDBRANCH  58  79
BRANCH  70  87
ATOM     87  C   UNL A   1      45.031  23.904  33.294  1.00  0.00     0.057 A 
ATOM     88  C   UNL A   1      44.082  22.997  33.785  1.00  0.00     0.134 A 
ATOM     89  C   UNL A   1      46.325  23.777  33.842  1.00  0.00     0.134 A 
ATOM     90  F   UNL A   1      42.795  23.073  33.413  1.00  0.00    -0.206 F 
ATOM     91  C   UNL A   1      44.410  21.992  34.705  1.00  0.00     0.040 A 
ATOM     92  C   UNL A   1      46.654  22.810  34.796  1.00  0.00     0.040 A 
ATOM     93  F   UNL A   1      47.334  24.574  33.465  1.00  0.00    -0.206 F 
ATOM     94  C   UNL A   1      45.699  21.900  35.219  1.00  0.00     0.006 A 
ENDBRANCH  70  87
ENDBRANCH  44  45
ENDBRANCH  36  39
ENDBRANCH  34  35
ENDBRANCH  33  34
ENDBRANCH  32  33
ENDBRANCH   1  32
TORSDOF 16
ENDMDL
