MODEL 1
REMARK VINA RESULT:     -13.2      0.000      0.000
REMARK SMILES Cc1ccc2[nH]cc([C@@H](C(=O)NCCCCCCNC(=O)c3ccc(-c4c5nc(c(-c6c(F)cccc6F)c6ccc([nH]6)c(-c6c(F)cccc6F)c6nc(c(-c7c(F)cccc7F)c7ccc4[nH]7)C=C6)C=C5)cc3)[NH+]3CCN(c4cccc(Cl)c4)CC3)c2c1
REMARK SMILES IDX 15 1 14 2 13 3 12 4 10 5 11 6 9 8 8 9 1 10 2 11 3 12 90 13
REMARK SMILES IDX 4 14 89 15 5 16 6 17 7 18 76 20 77 21 88 22 78 24 87 25
REMARK SMILES IDX 79 26 80 27 81 28 86 29 82 30 84 31 83 32 85 33 16 34 17 35
REMARK SMILES IDX 18 36 19 37 20 38 21 40 22 41 23 42 75 43 24 44 74 45 25 46
REMARK SMILES IDX 26 47 27 48 68 49 28 50 73 51 67 52 69 53 29 54 72 55 66 56
REMARK SMILES IDX 65 57 30 59 56 60 39 61 55 62 40 63 43 64 54 65 70 66 41 67
REMARK SMILES IDX 42 68 53 70 71 71 44 72 31 73 32 74 37 75 33 76 34 77 36 78
REMARK SMILES IDX 38 79 35 80 57 81 58 82 63 83 59 84 60 85 62 86 64 87 61 88
REMARK SMILES IDX 45 89 46 90 51 91 47 92 48 93 50 94 52 95 49 96
REMARK H PARENT 12 7 6 19 76 23 19 39 69 58 43 69
REMARK Flexibility Score: inf
ROOT
ATOM      1  C   UNL A   1      32.577  29.966  26.961  1.00  0.00     0.002 C 
ENDROOT
BRANCH   1   2
ATOM      2  C   UNL A   1      33.664  29.251  26.154  1.00  0.00     0.021 C 
BRANCH   2   3
ATOM      3  C   UNL A   1      33.752  27.754  26.448  1.00  0.00     0.116 C 
BRANCH   3   4
ATOM      4  N   UNL A   1      32.451  27.220  26.785  1.00  0.00    -0.351 N 
ATOM      5  C   UNL A   1      31.496  26.696  25.954  1.00  0.00     0.283 C 
ATOM      6  O   UNL A   1      30.413  26.432  26.486  1.00  0.00    -0.268 OA
ATOM      7  H   UNL A   1      32.220  27.236  27.742  1.00  0.00     0.163 HD
BRANCH   5   8
ATOM      8  C   UNL A   1      31.852  26.394  24.458  1.00  0.00     0.307 C 
BRANCH   8   9
ATOM      9  C   UNL A   1      31.638  27.573  23.535  1.00  0.00     0.044 A 
ATOM     10  C   UNL A   1      26.559  28.330  23.351  1.00  0.00     0.044 C 
ATOM     11  C   UNL A   1      27.985  28.711  23.072  1.00  0.00    -0.050 A 
ATOM     12  C   UNL A   1      28.285  29.800  22.251  1.00  0.00     0.005 A 
ATOM     13  C   UNL A   1      29.029  27.933  23.603  1.00  0.00     0.014 A 
ATOM     14  C   UNL A   1      29.603  30.106  21.900  1.00  0.00     0.027 A 
ATOM     15  C   UNL A   1      30.370  28.198  23.238  1.00  0.00     0.009 A 
ATOM     16  C   UNL A   1      30.615  29.265  22.375  1.00  0.00     0.046 A 
ATOM     17  N   UNL A   1      31.965  29.276  22.121  1.00  0.00    -0.361 N 
ATOM     18  C   UNL A   1      32.569  28.214  22.736  1.00  0.00     0.094 A 
ATOM     19  H   UNL A   1      32.429  29.951  21.576  1.00  0.00     0.166 HD
ENDBRANCH   8   9
BRANCH   8  20
ATOM     20  N   UNL A   1      31.232  25.137  23.978  1.00  0.00    -0.318 N 
ATOM     21  C   UNL A   1      31.802  24.484  22.790  1.00  0.00     0.284 C 
ATOM     22  C   UNL A   1      30.946  24.140  25.023  1.00  0.00     0.284 C 
ATOM     23  H   UNL A   1      30.349  25.531  23.652  1.00  0.00     0.349 HD
ATOM     24  C   UNL A   1      32.924  23.448  23.011  1.00  0.00     0.178 C 
ATOM     25  C   UNL A   1      32.085  23.150  25.358  1.00  0.00     0.178 C 
ATOM     26  N   UNL A   1      32.651  22.556  24.140  1.00  0.00    -0.360 N 
BRANCH  26  27
ATOM     27  C   UNL A   1      33.537  21.499  24.334  1.00  0.00     0.038 A 
ATOM     28  C   UNL A   1      33.132  20.156  24.331  1.00  0.00     0.026 A 
ATOM     29  C   UNL A   1      34.883  21.788  24.571  1.00  0.00     0.046 A 
ATOM     30  C   UNL A   1      34.041  19.131  24.602  1.00  0.00     0.004 A 
ATOM     31  C   UNL A   1      35.787  20.767  24.852  1.00  0.00     0.043 A 
ATOM     32  C   UNL A   1      35.370  19.438  24.876  1.00  0.00     0.020 A 
ATOM     33  Cl  UNL A   1      37.427  21.156  25.198  1.00  0.00    -0.084 Cl
ENDBRANCH  26  27
ENDBRANCH   8  20
ENDBRANCH   5   8
ENDBRANCH   3   4
ENDBRANCH   2   3
ENDBRANCH   1   2
BRANCH   1  34
ATOM     34  C   UNL A   1      31.579  30.755  26.110  1.00  0.00     0.002 C 
BRANCH  34  35
ATOM     35  C   UNL A   1      31.391  32.210  26.545  1.00  0.00     0.021 C 
BRANCH  35  36
ATOM     36  C   UNL A   1      32.582  32.785  27.304  1.00  0.00     0.116 C 
BRANCH  36  37
ATOM     37  N   UNL A   1      32.387  34.193  27.612  1.00  0.00    -0.352 N 
ATOM     38  C   UNL A   1      32.986  34.957  28.580  1.00  0.00     0.251 C 
ATOM     39  H   UNL A   1      31.733  34.663  27.045  1.00  0.00     0.163 HD
ATOM     40  O   UNL A   1      32.534  36.056  28.874  1.00  0.00    -0.269 OA
BRANCH  38  41
ATOM     41  C   UNL A   1      34.179  34.434  29.276  1.00  0.00     0.039 A 
ATOM     42  C   UNL A   1      34.024  33.820  30.519  1.00  0.00     0.014 A 
ATOM     43  C   UNL A   1      35.446  34.556  28.697  1.00  0.00     0.014 A 
ATOM     44  C   UNL A   1      35.139  33.280  31.161  1.00  0.00     0.010 A 
ATOM     45  C   UNL A   1      36.541  33.947  29.300  1.00  0.00     0.010 A 
ATOM     46  C   UNL A   1      36.400  33.313  30.542  1.00  0.00    -0.014 A 
BRANCH  46  47
ATOM     47  C   UNL A   1      37.586  32.695  31.184  1.00  0.00     0.031 A 
ATOM     48  C   UNL A   1      38.234  31.487  30.566  1.00  0.00     0.074 A 
ATOM     49  C   UNL A   1      38.042  33.186  32.352  1.00  0.00     0.049 A 
ATOM     50  N   UNL A   1      39.239  30.772  31.004  1.00  0.00    -0.248 NA
ATOM     51  C   UNL A   1      37.660  31.003  29.301  1.00  0.00     0.031 C 
ATOM     52  C   UNL A   1      37.473  34.328  33.071  1.00  0.00     0.029 A 
ATOM     53  N   UNL A   1      39.088  32.784  33.143  1.00  0.00    -0.354 N 
ATOM     54  C   UNL A   1      39.411  29.755  30.075  1.00  0.00     0.074 A 
ATOM     55  C   UNL A   1      38.367  29.904  29.085  1.00  0.00     0.031 C 
ATOM     56  C   UNL A   1      38.194  34.552  34.181  1.00  0.00     0.029 A 
ATOM     57  C   UNL A   1      39.248  33.546  34.275  1.00  0.00     0.049 A 
ATOM     58  H   UNL A   1      39.669  32.020  32.922  1.00  0.00     0.167 HD
ATOM     59  C   UNL A   1      40.368  28.797  30.035  1.00  0.00     0.037 A 
ATOM     60  C   UNL A   1      40.139  33.441  35.277  1.00  0.00     0.037 A 
ATOM     61  C   UNL A   1      41.411  28.659  31.018  1.00  0.00     0.049 A 
ATOM     62  C   UNL A   1      41.171  32.348  35.227  1.00  0.00     0.074 A 
ATOM     63  C   UNL A   1      42.455  27.752  31.044  1.00  0.00     0.029 A 
ATOM     64  N   UNL A   1      41.539  29.450  32.150  1.00  0.00    -0.354 N 
ATOM     65  N   UNL A   1      41.362  31.431  34.310  1.00  0.00    -0.248 NA
ATOM     66  C   UNL A   1      42.115  32.279  36.352  1.00  0.00     0.031 C 
ATOM     67  C   UNL A   1      43.184  27.959  32.221  1.00  0.00     0.029 A 
ATOM     68  C   UNL A   1      42.629  29.034  32.897  1.00  0.00     0.049 A 
ATOM     69  H   UNL A   1      40.942  30.196  32.388  1.00  0.00     0.167 HD
ATOM     70  C   UNL A   1      42.467  30.698  34.729  1.00  0.00     0.074 A 
ATOM     71  C   UNL A   1      42.909  31.288  35.975  1.00  0.00     0.031 C 
ATOM     72  C   UNL A   1      43.061  29.635  34.133  1.00  0.00     0.037 A 
BRANCH  59  73
ATOM     73  C   UNL A   1      40.324  27.824  28.892  1.00  0.00     0.057 A 
ATOM     74  C   UNL A   1      41.041  28.042  27.707  1.00  0.00     0.134 A 
ATOM     75  C   UNL A   1      39.575  26.644  28.982  1.00  0.00     0.134 A 
ATOM     76  F   UNL A   1      41.769  29.158  27.548  1.00  0.00    -0.206 F 
ATOM     77  C   UNL A   1      40.987  27.141  26.642  1.00  0.00     0.040 A 
ATOM     78  C   UNL A   1      39.539  25.720  27.936  1.00  0.00     0.040 A 
ATOM     79  F   UNL A   1      38.871  26.366  30.089  1.00  0.00    -0.206 F 
ATOM     80  C   UNL A   1      40.239  25.971  26.758  1.00  0.00     0.006 A 
ENDBRANCH  59  73
BRANCH  60  81
ATOM     81  C   UNL A   1      40.114  34.411  36.402  1.00  0.00     0.057 A 
ATOM     82  C   UNL A   1      39.400  34.135  37.574  1.00  0.00     0.134 A 
ATOM     83  C   UNL A   1      40.787  35.637  36.331  1.00  0.00     0.134 A 
ATOM     84  F   UNL A   1      38.720  32.986  37.695  1.00  0.00    -0.206 F 
ATOM     85  C   UNL A   1      39.336  35.050  38.625  1.00  0.00     0.040 A 
ATOM     86  C   UNL A   1      40.756  36.549  37.386  1.00  0.00     0.040 A 
ATOM     87  F   UNL A   1      41.497  35.957  35.239  1.00  0.00    -0.206 F 
ATOM     88  C   UNL A   1      40.021  36.261  38.534  1.00  0.00     0.006 A 
ENDBRANCH  60  81
BRANCH  72  89
ATOM     89  C   UNL A   1      44.281  29.068  34.801  1.00  0.00     0.057 A 
ATOM     90  C   UNL A   1      44.198  28.035  35.745  1.00  0.00     0.134 A 
ATOM     91  C   UNL A   1      45.558  29.536  34.466  1.00  0.00     0.134 A 
ATOM     92  F   UNL A   1      43.005  27.550  36.120  1.00  0.00    -0.206 F 
ATOM     93  C   UNL A   1      45.341  27.509  36.350  1.00  0.00     0.040 A 
ATOM     94  C   UNL A   1      46.708  28.996  35.041  1.00  0.00     0.040 A 
ATOM     95  F   UNL A   1      45.709  30.516  33.562  1.00  0.00    -0.206 F 
ATOM     96  C   UNL A   1      46.601  27.984  35.992  1.00  0.00     0.006 A 
ENDBRANCH  72  89
ENDBRANCH  46  47
ENDBRANCH  38  41
ENDBRANCH  36  37
ENDBRANCH  35  36
ENDBRANCH  34  35
ENDBRANCH   1  34
TORSDOF 16
ENDMDL
MODEL 2
REMARK VINA RESULT:     -13.2      0.987      1.898
REMARK SMILES Cc1ccc2[nH]cc([C@@H](C(=O)NCCCCCCNC(=O)c3ccc(-c4c5nc(c(-c6c(F)cccc6F)c6ccc([nH]6)c(-c6c(F)cccc6F)c6nc(c(-c7c(F)cccc7F)c7ccc4[nH]7)C=C6)C=C5)cc3)[NH+]3CCN(c4cccc(Cl)c4)CC3)c2c1
REMARK SMILES IDX 15 1 14 2 13 3 12 4 10 5 11 6 9 8 8 9 1 10 2 11 3 12 90 13
REMARK SMILES IDX 4 14 89 15 5 16 6 17 7 18 76 20 77 21 88 22 78 24 87 25
REMARK SMILES IDX 79 26 80 27 81 28 86 29 82 30 84 31 83 32 85 33 16 34 17 35
REMARK SMILES IDX 18 36 19 37 20 38 21 40 22 41 23 42 75 43 24 44 74 45 25 46
REMARK SMILES IDX 26 47 27 48 68 49 28 50 73 51 67 52 69 53 29 54 72 55 66 56
REMARK SMILES IDX 65 57 30 59 56 60 39 61 55 62 40 63 43 64 54 65 70 66 41 67
REMARK SMILES IDX 42 68 53 70 71 71 44 72 31 73 32 74 37 75 33 76 34 77 36 78
REMARK SMILES IDX 38 79 35 80 57 81 58 82 63 83 59 84 60 85 62 86 64 87 61 88
REMARK SMILES IDX 45 89 46 90 51 91 47 92 48 93 50 94 52 95 49 96
REMARK H PARENT 12 7 6 19 76 23 19 39 69 58 43 69
REMARK Flexibility Score: inf
ROOT
ATOM      1  C   UNL A   1      32.033  29.772  27.119  1.00  0.00     0.002 C 
ENDROOT
BRANCH   1   2
ATOM      2  C   UNL A   1      33.493  29.327  26.993  1.00  0.00     0.021 C 
BRANCH   2   3
ATOM      3  C   UNL A   1      33.719  28.301  25.882  1.00  0.00     0.116 C 
BRANCH   3   4
ATOM      4  N   UNL A   1      33.107  27.036  26.220  1.00  0.00    -0.351 N 
ATOM      5  C   UNL A   1      32.111  26.361  25.562  1.00  0.00     0.283 C 
ATOM      6  O   UNL A   1      31.676  25.359  26.138  1.00  0.00    -0.268 OA
ATOM      7  H   UNL A   1      33.452  26.600  27.032  1.00  0.00     0.163 HD
BRANCH   5   8
ATOM      8  C   UNL A   1      31.666  26.834  24.137  1.00  0.00     0.307 C 
BRANCH   8   9
ATOM      9  C   UNL A   1      30.165  26.916  23.968  1.00  0.00     0.044 A 
ATOM     10  C   UNL A   1      29.123  31.840  22.930  1.00  0.00     0.044 C 
ATOM     11  C   UNL A   1      28.761  30.388  23.055  1.00  0.00    -0.050 A 
ATOM     12  C   UNL A   1      27.433  29.972  22.940  1.00  0.00     0.005 A 
ATOM     13  C   UNL A   1      29.763  29.443  23.338  1.00  0.00     0.014 A 
ATOM     14  C   UNL A   1      27.067  28.639  23.153  1.00  0.00     0.027 A 
ATOM     15  C   UNL A   1      29.418  28.095  23.592  1.00  0.00     0.009 A 
ATOM     16  C   UNL A   1      28.073  27.737  23.516  1.00  0.00     0.046 A 
ATOM     17  N   UNL A   1      27.988  26.412  23.864  1.00  0.00    -0.361 N 
ATOM     18  C   UNL A   1      29.219  25.939  24.225  1.00  0.00     0.094 A 
ATOM     19  H   UNL A   1      27.160  25.879  23.855  1.00  0.00     0.166 HD
ENDBRANCH   8   9
BRANCH   8  20
ATOM     20  N   UNL A   1      32.350  26.081  23.059  1.00  0.00    -0.318 N 
ATOM     21  C   UNL A   1      33.798  25.852  23.175  1.00  0.00     0.284 C 
ATOM     22  C   UNL A   1      31.670  24.851  22.624  1.00  0.00     0.284 C 
ATOM     23  H   UNL A   1      32.262  26.781  22.322  1.00  0.00     0.349 HD
ATOM     24  C   UNL A   1      34.265  24.572  23.900  1.00  0.00     0.178 C 
ATOM     25  C   UNL A   1      32.024  23.560  23.399  1.00  0.00     0.178 C 
ATOM     26  N   UNL A   1      33.478  23.396  23.526  1.00  0.00    -0.360 N 
BRANCH  26  27
ATOM     27  C   UNL A   1      33.909  22.168  24.020  1.00  0.00     0.038 A 
ATOM     28  C   UNL A   1      35.216  21.952  24.485  1.00  0.00     0.026 A 
ATOM     29  C   UNL A   1      33.014  21.095  24.027  1.00  0.00     0.046 A 
ATOM     30  C   UNL A   1      35.629  20.685  24.905  1.00  0.00     0.004 A 
ATOM     31  C   UNL A   1      33.429  19.831  24.435  1.00  0.00     0.043 A 
ATOM     32  C   UNL A   1      34.735  19.618  24.868  1.00  0.00     0.020 A 
ATOM     33  Cl  UNL A   1      32.322  18.515  24.378  1.00  0.00    -0.084 Cl
ENDBRANCH  26  27
ENDBRANCH   8  20
ENDBRANCH   5   8
ENDBRANCH   3   4
ENDBRANCH   2   3
ENDBRANCH   1   2
BRANCH   1  34
ATOM     34  C   UNL A   1      31.590  30.780  26.056  1.00  0.00     0.002 C 
BRANCH  34  35
ATOM     35  C   UNL A   1      31.365  32.198  26.587  1.00  0.00     0.021 C 
BRANCH  35  36
ATOM     36  C   UNL A   1      32.586  32.799  27.275  1.00  0.00     0.116 C 
BRANCH  36  37
ATOM     37  N   UNL A   1      32.381  34.205  27.588  1.00  0.00    -0.352 N 
ATOM     38  C   UNL A   1      32.962  34.964  28.571  1.00  0.00     0.251 C 
ATOM     39  H   UNL A   1      31.736  34.676  27.014  1.00  0.00     0.163 HD
ATOM     40  O   UNL A   1      32.503  36.061  28.864  1.00  0.00    -0.269 OA
BRANCH  38  41
ATOM     41  C   UNL A   1      34.146  34.440  29.283  1.00  0.00     0.039 A 
ATOM     42  C   UNL A   1      33.972  33.813  30.517  1.00  0.00     0.014 A 
ATOM     43  C   UNL A   1      35.422  34.575  28.728  1.00  0.00     0.014 A 
ATOM     44  C   UNL A   1      35.078  33.273  31.173  1.00  0.00     0.010 A 
ATOM     45  C   UNL A   1      36.509  33.966  29.345  1.00  0.00     0.010 A 
ATOM     46  C   UNL A   1      36.349  33.318  30.578  1.00  0.00    -0.014 A 
BRANCH  46  47
ATOM     47  C   UNL A   1      37.527  32.700  31.235  1.00  0.00     0.031 A 
ATOM     48  C   UNL A   1      38.195  31.504  30.614  1.00  0.00     0.074 A 
ATOM     49  C   UNL A   1      37.957  33.179  32.417  1.00  0.00     0.049 A 
ATOM     50  N   UNL A   1      39.196  30.790  31.062  1.00  0.00    -0.248 NA
ATOM     51  C   UNL A   1      37.648  31.032  29.332  1.00  0.00     0.031 C 
ATOM     52  C   UNL A   1      37.367  34.308  33.139  1.00  0.00     0.029 A 
ATOM     53  N   UNL A   1      38.990  32.773  33.224  1.00  0.00    -0.354 N 
ATOM     54  C   UNL A   1      39.393  29.786  30.125  1.00  0.00     0.074 A 
ATOM     55  C   UNL A   1      38.367  29.941  29.116  1.00  0.00     0.031 C 
ATOM     56  C   UNL A   1      38.064  34.523  34.265  1.00  0.00     0.029 A 
ATOM     57  C   UNL A   1      39.123  33.523  34.367  1.00  0.00     0.049 A 
ATOM     58  H   UNL A   1      39.580  32.016  33.004  1.00  0.00     0.167 HD
ATOM     59  C   UNL A   1      40.357  28.835  30.091  1.00  0.00     0.037 A 
ATOM     60  C   UNL A   1      39.996  33.411  35.385  1.00  0.00     0.037 A 
ATOM     61  C   UNL A   1      41.382  28.692  31.092  1.00  0.00     0.049 A 
ATOM     62  C   UNL A   1      41.036  32.325  35.342  1.00  0.00     0.074 A 
ATOM     63  C   UNL A   1      42.432  27.791  31.127  1.00  0.00     0.029 A 
ATOM     64  N   UNL A   1      41.483  29.468  32.237  1.00  0.00    -0.354 N 
ATOM     65  N   UNL A   1      41.251  31.421  34.417  1.00  0.00    -0.248 NA
ATOM     66  C   UNL A   1      41.958  32.248  36.484  1.00  0.00     0.031 C 
ATOM     67  C   UNL A   1      43.136  27.988  32.320  1.00  0.00     0.029 A 
ATOM     68  C   UNL A   1      42.560  29.050  32.999  1.00  0.00     0.049 A 
ATOM     69  H   UNL A   1      40.876  30.208  32.472  1.00  0.00     0.167 HD
ATOM     70  C   UNL A   1      42.352  30.691  34.848  1.00  0.00     0.074 A 
ATOM     71  C   UNL A   1      42.766  31.267  36.110  1.00  0.00     0.031 C 
ATOM     72  C   UNL A   1      42.965  29.639  34.251  1.00  0.00     0.037 A 
BRANCH  59  73
ATOM     73  C   UNL A   1      40.342  27.876  28.935  1.00  0.00     0.057 A 
ATOM     74  C   UNL A   1      41.076  28.116  27.765  1.00  0.00     0.134 A 
ATOM     75  C   UNL A   1      39.603  26.688  28.997  1.00  0.00     0.134 A 
ATOM     76  F   UNL A   1      41.796  29.240  27.633  1.00  0.00    -0.206 F 
ATOM     77  C   UNL A   1      41.049  27.229  26.688  1.00  0.00     0.040 A 
ATOM     78  C   UNL A   1      39.593  25.777  27.939  1.00  0.00     0.040 A 
ATOM     79  F   UNL A   1      38.882  26.390  30.089  1.00  0.00    -0.206 F 
ATOM     80  C   UNL A   1      40.310  26.050  26.777  1.00  0.00     0.006 A 
ENDBRANCH  59  73
BRANCH  60  81
ATOM     81  C   UNL A   1      39.942  34.366  36.521  1.00  0.00     0.057 A 
ATOM     82  C   UNL A   1      40.614  35.593  36.463  1.00  0.00     0.134 A 
ATOM     83  C   UNL A   1      39.234  34.075  37.694  1.00  0.00     0.134 A 
ATOM     84  F   UNL A   1      41.324  35.922  35.375  1.00  0.00    -0.206 F 
ATOM     85  C   UNL A   1      40.603  36.485  37.536  1.00  0.00     0.040 A 
ATOM     86  C   UNL A   1      39.191  34.969  38.763  1.00  0.00     0.040 A 
ATOM     87  F   UNL A   1      38.562  32.919  37.809  1.00  0.00    -0.206 F 
ATOM     88  C   UNL A   1      39.885  36.175  38.689  1.00  0.00     0.006 A 
ENDBRANCH  60  81
BRANCH  72  89
ATOM     89  C   UNL A   1      44.175  29.071  34.935  1.00  0.00     0.057 A 
ATOM     90  C   UNL A   1      45.470  29.525  34.651  1.00  0.00     0.134 A 
ATOM     91  C   UNL A   1      44.037  28.082  35.918  1.00  0.00     0.134 A 
ATOM     92  F   UNL A   1      45.673  30.460  33.711  1.00  0.00    -0.206 F 
ATOM     93  C   UNL A   1      46.586  28.996  35.302  1.00  0.00     0.040 A 
ATOM     94  C   UNL A   1      45.143  27.569  36.597  1.00  0.00     0.040 A 
ATOM     95  F   UNL A   1      42.825  27.610  36.246  1.00  0.00    -0.206 F 
ATOM     96  C   UNL A   1      46.423  28.021  36.285  1.00  0.00     0.006 A 
ENDBRANCH  72  89
ENDBRANCH  46  47
ENDBRANCH  38  41
ENDBRANCH  36  37
ENDBRANCH  35  36
ENDBRANCH  34  35
ENDBRANCH   1  34
TORSDOF 16
ENDMDL
MODEL 3
REMARK VINA RESULT:     -13.1      1.185      5.976
REMARK SMILES Cc1ccc2[nH]cc([C@@H](C(=O)NCCCCCCNC(=O)c3ccc(-c4c5nc(c(-c6c(F)cccc6F)c6ccc([nH]6)c(-c6c(F)cccc6F)c6nc(c(-c7c(F)cccc7F)c7ccc4[nH]7)C=C6)C=C5)cc3)[NH+]3CCN(c4cccc(Cl)c4)CC3)c2c1
REMARK SMILES IDX 15 1 14 2 13 3 12 4 10 5 11 6 9 8 8 9 1 10 2 11 3 12 90 13
REMARK SMILES IDX 4 14 89 15 5 16 6 17 7 18 76 20 77 21 88 22 78 24 87 25
REMARK SMILES IDX 79 26 80 27 81 28 86 29 82 30 84 31 83 32 85 33 16 34 17 35
REMARK SMILES IDX 18 36 19 37 20 38 21 40 22 41 23 42 75 43 24 44 74 45 25 46
REMARK SMILES IDX 26 47 27 48 68 49 28 50 73 51 67 52 69 53 29 54 72 55 66 56
REMARK SMILES IDX 65 57 30 59 56 60 39 61 55 62 40 63 43 64 54 65 70 66 41 67
REMARK SMILES IDX 42 68 53 70 71 71 44 72 31 73 32 74 37 75 33 76 34 77 36 78
REMARK SMILES IDX 38 79 35 80 57 81 58 82 63 83 59 84 60 85 62 86 64 87 61 88
REMARK SMILES IDX 45 89 46 90 51 91 47 92 48 93 50 94 52 95 49 96
REMARK H PARENT 12 7 6 19 76 23 19 39 69 58 43 69
REMARK Flexibility Score: inf
ROOT
ATOM      1  C   UNL A   1      32.253  29.893  26.930  1.00  0.00     0.002 C 
ENDROOT
BRANCH   1   2
ATOM      2  C   UNL A   1      33.465  29.281  26.224  1.00  0.00     0.021 C 
BRANCH   2   3
ATOM      3  C   UNL A   1      33.625  27.783  26.484  1.00  0.00     0.116 C 
BRANCH   3   4
ATOM      4  N   UNL A   1      32.359  27.186  26.841  1.00  0.00    -0.351 N 
ATOM      5  C   UNL A   1      31.442  26.566  26.032  1.00  0.00     0.283 C 
ATOM      6  O   UNL A   1      30.375  26.259  26.572  1.00  0.00    -0.268 OA
ATOM      7  H   UNL A   1      32.122  27.230  27.795  1.00  0.00     0.163 HD
BRANCH   5   8
ATOM      8  C   UNL A   1      31.824  26.219  24.553  1.00  0.00     0.307 C 
BRANCH   8   9
ATOM      9  C   UNL A   1      31.711  27.394  23.607  1.00  0.00     0.044 A 
ATOM     10  C   UNL A   1      26.697  28.462  23.264  1.00  0.00     0.044 C 
ATOM     11  C   UNL A   1      28.150  28.749  23.021  1.00  0.00    -0.050 A 
ATOM     12  C   UNL A   1      28.541  29.804  22.193  1.00  0.00     0.005 A 
ATOM     13  C   UNL A   1      29.129  27.917  23.593  1.00  0.00     0.014 A 
ATOM     14  C   UNL A   1      29.885  30.022  21.876  1.00  0.00     0.027 A 
ATOM     15  C   UNL A   1      30.493  28.092  23.264  1.00  0.00     0.009 A 
ATOM     16  C   UNL A   1      30.829  29.127  22.393  1.00  0.00     0.046 A 
ATOM     17  N   UNL A   1      32.183  29.050  22.178  1.00  0.00    -0.361 N 
ATOM     18  C   UNL A   1      32.702  27.963  22.825  1.00  0.00     0.094 A 
ATOM     19  H   UNL A   1      32.704  29.686  21.637  1.00  0.00     0.166 HD
ENDBRANCH   8   9
BRANCH   8  20
ATOM     20  N   UNL A   1      31.144  24.994  24.071  1.00  0.00    -0.318 N 
ATOM     21  C   UNL A   1      31.684  24.313  22.884  1.00  0.00     0.284 C 
ATOM     22  C   UNL A   1      30.807  24.013  25.115  1.00  0.00     0.284 C 
ATOM     23  H   UNL A   1      30.283  25.431  23.743  1.00  0.00     0.349 HD
ATOM     24  C   UNL A   1      32.753  23.223  23.108  1.00  0.00     0.178 C 
ATOM     25  C   UNL A   1      31.895  22.968  25.453  1.00  0.00     0.178 C 
ATOM     26  N   UNL A   1      32.434  22.346  24.236  1.00  0.00    -0.360 N 
BRANCH  26  27
ATOM     27  C   UNL A   1      33.266  21.247  24.432  1.00  0.00     0.038 A 
ATOM     28  C   UNL A   1      34.595  21.367  24.864  1.00  0.00     0.026 A 
ATOM     29  C   UNL A   1      32.767  19.971  24.159  1.00  0.00     0.046 A 
ATOM     30  C   UNL A   1      35.418  20.244  24.978  1.00  0.00     0.004 A 
ATOM     31  C   UNL A   1      33.590  18.853  24.261  1.00  0.00     0.043 A 
ATOM     32  C   UNL A   1      34.917  18.984  24.664  1.00  0.00     0.020 A 
ATOM     33  Cl  UNL A   1      32.966  17.300  23.863  1.00  0.00    -0.084 Cl
ENDBRANCH  26  27
ENDBRANCH   8  20
ENDBRANCH   5   8
ENDBRANCH   3   4
ENDBRANCH   2   3
ENDBRANCH   1   2
BRANCH   1  34
ATOM     34  C   UNL A   1      31.420  30.830  26.052  1.00  0.00     0.002 C 
BRANCH  34  35
ATOM     35  C   UNL A   1      31.320  32.264  26.578  1.00  0.00     0.021 C 
BRANCH  35  36
ATOM     36  C   UNL A   1      32.605  32.777  27.217  1.00  0.00     0.116 C 
BRANCH  36  37
ATOM     37  N   UNL A   1      32.451  34.141  27.700  1.00  0.00    -0.352 N 
ATOM     38  C   UNL A   1      33.133  34.785  28.700  1.00  0.00     0.251 C 
ATOM     39  H   UNL A   1      31.761  34.675  27.245  1.00  0.00     0.163 HD
ATOM     40  O   UNL A   1      32.719  35.845  29.153  1.00  0.00    -0.269 OA
BRANCH  38  41
ATOM     41  C   UNL A   1      34.371  34.182  29.234  1.00  0.00     0.039 A 
ATOM     42  C   UNL A   1      34.293  33.356  30.356  1.00  0.00     0.014 A 
ATOM     43  C   UNL A   1      35.603  34.438  28.624  1.00  0.00     0.014 A 
ATOM     44  C   UNL A   1      35.450  32.744  30.838  1.00  0.00     0.010 A 
ATOM     45  C   UNL A   1      36.739  33.763  29.057  1.00  0.00     0.010 A 
ATOM     46  C   UNL A   1      36.676  32.918  30.174  1.00  0.00    -0.014 A 
BRANCH  46  47
ATOM     47  C   UNL A   1      37.905  32.230  30.639  1.00  0.00     0.031 A 
ATOM     48  C   UNL A   1      38.719  32.816  31.760  1.00  0.00     0.074 A 
ATOM     49  C   UNL A   1      38.318  31.112  30.014  1.00  0.00     0.049 A 
ATOM     50  N   UNL A   1      39.850  32.398  32.267  1.00  0.00    -0.248 NA
ATOM     51  C   UNL A   1      38.207  34.052  32.373  1.00  0.00     0.031 C 
ATOM     52  C   UNL A   1      37.637  30.470  28.888  1.00  0.00     0.029 A 
ATOM     53  N   UNL A   1      39.416  30.318  30.234  1.00  0.00    -0.354 N 
ATOM     54  C   UNL A   1      40.186  33.318  33.251  1.00  0.00     0.074 A 
ATOM     55  C   UNL A   1      39.175  34.353  33.225  1.00  0.00     0.031 C 
ATOM     56  C   UNL A   1      38.315  29.365  28.536  1.00  0.00     0.029 A 
ATOM     57  C   UNL A   1      39.499  29.245  29.381  1.00  0.00     0.049 A 
ATOM     58  H   UNL A   1      40.081  30.501  30.937  1.00  0.00     0.167 HD
ATOM     59  C   UNL A   1      41.228  33.291  34.116  1.00  0.00     0.037 A 
ATOM     60  C   UNL A   1      40.429  28.277  29.287  1.00  0.00     0.037 A 
ATOM     61  C   UNL A   1      42.224  32.253  34.145  1.00  0.00     0.049 A 
ATOM     62  C   UNL A   1      41.596  28.288  30.237  1.00  0.00     0.074 A 
ATOM     63  C   UNL A   1      43.294  32.109  35.011  1.00  0.00     0.029 A 
ATOM     64  N   UNL A   1      42.276  31.183  33.264  1.00  0.00    -0.354 N 
ATOM     65  N   UNL A   1      41.867  29.130  31.204  1.00  0.00    -0.248 NA
ATOM     66  C   UNL A   1      42.583  27.210  30.084  1.00  0.00     0.031 C 
ATOM     67  C   UNL A   1      44.023  30.980  34.620  1.00  0.00     0.029 A 
ATOM     68  C   UNL A   1      43.375  30.389  33.548  1.00  0.00     0.049 A 
ATOM     69  H   UNL A   1      41.628  31.014  32.542  1.00  0.00     0.167 HD
ATOM     70  C   UNL A   1      43.036  28.665  31.797  1.00  0.00     0.074 A 
ATOM     71  C   UNL A   1      43.412  27.461  31.086  1.00  0.00     0.031 C 
ATOM     72  C   UNL A   1      43.732  29.188  32.836  1.00  0.00     0.037 A 
BRANCH  59  73
ATOM     73  C   UNL A   1      41.339  34.422  35.098  1.00  0.00     0.057 A 
ATOM     74  C   UNL A   1      40.784  34.343  36.384  1.00  0.00     0.134 A 
ATOM     75  C   UNL A   1      42.025  35.597  34.766  1.00  0.00     0.134 A 
ATOM     76  F   UNL A   1      40.103  33.251  36.764  1.00  0.00    -0.206 F 
ATOM     77  C   UNL A   1      40.880  35.401  37.289  1.00  0.00     0.040 A 
ATOM     78  C   UNL A   1      42.155  36.649  35.674  1.00  0.00     0.040 A 
ATOM     79  F   UNL A   1      42.587  35.739  33.556  1.00  0.00    -0.206 F 
ATOM     80  C   UNL A   1      41.573  36.557  36.937  1.00  0.00     0.006 A 
ENDBRANCH  59  73
BRANCH  60  81
ATOM     81  C   UNL A   1      40.287  27.202  28.272  1.00  0.00     0.057 A 
ATOM     82  C   UNL A   1      39.550  26.045  28.548  1.00  0.00     0.134 A 
ATOM     83  C   UNL A   1      40.892  27.296  27.012  1.00  0.00     0.134 A 
ATOM     84  F   UNL A   1      38.962  25.888  29.742  1.00  0.00    -0.206 F 
ATOM     85  C   UNL A   1      39.437  25.010  27.618  1.00  0.00     0.040 A 
ATOM     86  C   UNL A   1      40.764  26.282  26.063  1.00  0.00     0.040 A 
ATOM     87  F   UNL A   1      41.605  28.383  26.683  1.00  0.00    -0.206 F 
ATOM     88  C   UNL A   1      40.041  25.130  26.369  1.00  0.00     0.006 A 
ENDBRANCH  60  81
BRANCH  72  89
ATOM     89  C   UNL A   1      44.949  28.436  33.294  1.00  0.00     0.057 A 
ATOM     90  C   UNL A   1      44.869  27.392  34.225  1.00  0.00     0.134 A 
ATOM     91  C   UNL A   1      46.211  28.738  32.767  1.00  0.00     0.134 A 
ATOM     92  F   UNL A   1      43.693  27.061  34.778  1.00  0.00    -0.206 F 
ATOM     93  C   UNL A   1      46.007  26.693  34.635  1.00  0.00     0.040 A 
ATOM     94  C   UNL A   1      47.350  28.026  33.146  1.00  0.00     0.040 A 
ATOM     95  F   UNL A   1      46.357  29.719  31.864  1.00  0.00    -0.206 F 
ATOM     96  C   UNL A   1      47.251  27.005  34.088  1.00  0.00     0.006 A 
ENDBRANCH  72  89
ENDBRANCH  46  47
ENDBRANCH  38  41
ENDBRANCH  36  37
ENDBRANCH  35  36
ENDBRANCH  34  35
ENDBRANCH   1  34
TORSDOF 16
ENDMDL
