MODEL 1
REMARK VINA RESULT:     -11.3      0.000      0.000
REMARK SMILES O=C(NCCCCCCNC(=O)[C@H]1CC[C@@H]2CCCC[C@H]2[NH2+]1)c1ccc(-c2c3nc(c(-c4c(F)cccc4F)c4ccc([nH]4)c(-c4c(F)cccc4F)c4nc(c(-c5c(F)cccc5F)c5ccc2[nH]5)C=C4)C=C3)cc1
REMARK SMILES IDX 5 1 4 2 3 3 1 4 2 5 23 7 24 8 76 9 25 10 75 11 26 12 27 13
REMARK SMILES IDX 28 14 69 15 29 16 74 17 68 18 70 19 30 20 73 21 67 22 66 23
REMARK SMILES IDX 31 25 57 26 40 27 56 28 41 29 44 30 55 31 71 32 42 33 43 34
REMARK SMILES IDX 54 36 72 37 45 38 32 39 33 40 38 41 34 42 35 43 37 44 39 45
REMARK SMILES IDX 36 46 58 47 59 48 64 49 60 50 61 51 63 52 65 53 62 54 46 55
REMARK SMILES IDX 47 56 52 57 48 58 49 59 51 60 53 61 50 62 6 63 7 64 8 65
REMARK SMILES IDX 9 66 10 67 11 68 12 70 13 71 14 72 22 73 15 74 21 75 16 78
REMARK SMILES IDX 20 79 17 80 19 81 18 82
REMARK H PARENT 3 6 70 24 44 35 10 69 22 76 22 77
REMARK Flexibility Score: inf
ROOT
ATOM      1  C   UNL A   1      37.447  20.104  24.634  1.00  0.00     0.021 C 
ENDROOT
BRANCH   1   2
ATOM      2  C   UNL A   1      38.492  20.370  25.707  1.00  0.00     0.116 C 
BRANCH   2   3
ATOM      3  N   UNL A   1      39.576  19.401  25.688  1.00  0.00    -0.352 N 
ATOM      4  O   UNL A   1      41.723  18.702  25.792  1.00  0.00    -0.269 OA
ATOM      5  C   UNL A   1      40.900  19.587  26.005  1.00  0.00     0.251 C 
ATOM      6  H   UNL A   1      39.327  18.489  25.411  1.00  0.00     0.163 HD
BRANCH   5   7
ATOM      7  C   UNL A   1      41.335  20.877  26.585  1.00  0.00     0.039 A 
ATOM      8  C   UNL A   1      41.237  21.101  27.958  1.00  0.00     0.014 A 
ATOM      9  C   UNL A   1      41.835  21.876  25.744  1.00  0.00     0.014 A 
ATOM     10  C   UNL A   1      41.497  22.365  28.470  1.00  0.00     0.010 A 
ATOM     11  C   UNL A   1      42.189  23.121  26.276  1.00  0.00     0.010 A 
ATOM     12  C   UNL A   1      41.995  23.384  27.640  1.00  0.00    -0.014 A 
BRANCH  12  13
ATOM     13  C   UNL A   1      42.372  24.680  28.260  1.00  0.00     0.031 A 
ATOM     14  C   UNL A   1      43.796  25.005  28.608  1.00  0.00     0.074 A 
ATOM     15  C   UNL A   1      41.403  25.600  28.441  1.00  0.00     0.049 A 
ATOM     16  N   UNL A   1      44.291  26.127  29.070  1.00  0.00    -0.248 NA
ATOM     17  C   UNL A   1      44.794  23.941  28.425  1.00  0.00     0.031 C 
ATOM     18  C   UNL A   1      39.979  25.385  28.166  1.00  0.00     0.029 A 
ATOM     19  N   UNL A   1      41.466  26.903  28.860  1.00  0.00    -0.354 N 
ATOM     20  C   UNL A   1      45.652  25.903  29.241  1.00  0.00     0.074 A 
ATOM     21  C   UNL A   1      45.901  24.528  28.860  1.00  0.00     0.031 C 
ATOM     22  C   UNL A   1      39.315  26.532  28.361  1.00  0.00     0.029 A 
ATOM     23  C   UNL A   1      40.252  27.545  28.829  1.00  0.00     0.049 A 
ATOM     24  H   UNL A   1      42.299  27.336  29.156  1.00  0.00     0.167 HD
ATOM     25  C   UNL A   1      46.604  26.768  29.666  1.00  0.00     0.037 A 
ATOM     26  C   UNL A   1      39.925  28.811  29.147  1.00  0.00     0.037 A 
ATOM     27  C   UNL A   1      46.351  28.138  30.039  1.00  0.00     0.049 A 
ATOM     28  C   UNL A   1      41.002  29.748  29.602  1.00  0.00     0.074 A 
ATOM     29  C   UNL A   1      47.251  29.094  30.478  1.00  0.00     0.029 A 
ATOM     30  N   UNL A   1      45.105  28.746  30.015  1.00  0.00    -0.354 N 
ATOM     31  N   UNL A   1      42.287  29.524  29.737  1.00  0.00    -0.248 NA
ATOM     32  C   UNL A   1      40.586  31.113  29.951  1.00  0.00     0.031 C 
ATOM     33  C   UNL A   1      46.546  30.271  30.748  1.00  0.00     0.029 A 
ATOM     34  C   UNL A   1      45.212  30.062  30.439  1.00  0.00     0.049 A 
ATOM     35  H   UNL A   1      44.268  28.310  29.736  1.00  0.00     0.167 HD
ATOM     36  C   UNL A   1      42.833  30.716  30.188  1.00  0.00     0.074 A 
ATOM     37  C   UNL A   1      41.745  31.672  30.266  1.00  0.00     0.031 C 
ATOM     38  C   UNL A   1      44.116  30.993  30.522  1.00  0.00     0.037 A 
BRANCH  25  39
ATOM     39  C   UNL A   1      48.015  26.262  29.758  1.00  0.00     0.057 A 
ATOM     40  C   UNL A   1      48.896  26.339  28.672  1.00  0.00     0.134 A 
ATOM     41  C   UNL A   1      48.515  25.749  30.961  1.00  0.00     0.134 A 
ATOM     42  F   UNL A   1      48.476  26.811  27.488  1.00  0.00    -0.206 F 
ATOM     43  C   UNL A   1      50.222  25.913  28.776  1.00  0.00     0.040 A 
ATOM     44  C   UNL A   1      49.845  25.339  31.083  1.00  0.00     0.040 A 
ATOM     45  F   UNL A   1      47.727  25.653  32.042  1.00  0.00    -0.206 F 
ATOM     46  C   UNL A   1      50.702  25.418  29.987  1.00  0.00     0.006 A 
ENDBRANCH  25  39
BRANCH  26  47
ATOM     47  C   UNL A   1      38.513  29.253  29.047  1.00  0.00     0.057 A 
ATOM     48  C   UNL A   1      37.970  29.691  27.833  1.00  0.00     0.134 A 
ATOM     49  C   UNL A   1      37.667  29.234  30.163  1.00  0.00     0.134 A 
ATOM     50  F   UNL A   1      38.734  29.745  26.733  1.00  0.00    -0.206 F 
ATOM     51  C   UNL A   1      36.642  30.108  27.737  1.00  0.00     0.040 A 
ATOM     52  C   UNL A   1      36.331  29.621  30.075  1.00  0.00     0.040 A 
ATOM     53  F   UNL A   1      38.126  28.815  31.352  1.00  0.00    -0.206 F 
ATOM     54  C   UNL A   1      35.817  30.067  28.859  1.00  0.00     0.006 A 
ENDBRANCH  26  47
BRANCH  38  55
ATOM     55  C   UNL A   1      44.401  32.386  30.995  1.00  0.00     0.057 A 
ATOM     56  C   UNL A   1      44.349  32.724  32.353  1.00  0.00     0.134 A 
ATOM     57  C   UNL A   1      44.727  33.400  30.087  1.00  0.00     0.134 A 
ATOM     58  F   UNL A   1      44.026  31.800  33.272  1.00  0.00    -0.206 F 
ATOM     59  C   UNL A   1      44.580  34.029  32.790  1.00  0.00     0.040 A 
ATOM     60  C   UNL A   1      44.984  34.703  30.512  1.00  0.00     0.040 A 
ATOM     61  F   UNL A   1      44.798  33.140  28.772  1.00  0.00    -0.206 F 
ATOM     62  C   UNL A   1      44.903  35.022  31.867  1.00  0.00     0.006 A 
ENDBRANCH  38  55
ENDBRANCH  12  13
ENDBRANCH   5   7
ENDBRANCH   2   3
ENDBRANCH   1   2
BRANCH   1  63
ATOM     63  C   UNL A   1      36.006  20.362  25.069  1.00  0.00     0.002 C 
BRANCH  63  64
ATOM     64  C   UNL A   1      35.786  21.643  25.883  1.00  0.00     0.002 C 
BRANCH  64  65
ATOM     65  C   UNL A   1      34.426  21.754  26.584  1.00  0.00     0.021 C 
BRANCH  65  66
ATOM     66  C   UNL A   1      33.274  22.142  25.657  1.00  0.00     0.116 C 
BRANCH  66  67
ATOM     67  N   UNL A   1      32.024  22.226  26.387  1.00  0.00    -0.351 N 
ATOM     68  C   UNL A   1      31.286  23.333  26.707  1.00  0.00     0.278 C 
ATOM     69  H   UNL A   1      31.654  21.366  26.694  1.00  0.00     0.163 HD
ATOM     70  O   UNL A   1      30.332  23.188  27.473  1.00  0.00    -0.268 OA
BRANCH  68  71
ATOM     71  C   UNL A   1      31.691  24.685  26.086  1.00  0.00     0.272 C 
ATOM     72  C   UNL A   1      30.856  24.936  24.825  1.00  0.00     0.076 C 
ATOM     73  N   UNL A   1      31.497  25.791  27.045  1.00  0.00    -0.333 N 
ATOM     74  C   UNL A   1      31.212  26.276  24.187  1.00  0.00     0.016 C 
ATOM     75  C   UNL A   1      31.967  27.054  26.474  1.00  0.00     0.186 C 
ATOM     76  H   UNL A   1      32.023  25.592  27.896  1.00  0.00     0.347 HD
ATOM     77  H   UNL A   1      30.503  25.874  27.256  1.00  0.00     0.347 HD
ATOM     78  C   UNL A   1      31.135  27.404  25.223  1.00  0.00     0.048 C 
ATOM     79  C   UNL A   1      31.877  28.176  27.515  1.00  0.00     0.065 C 
ATOM     80  C   UNL A   1      31.593  28.737  24.622  1.00  0.00     0.010 C 
ATOM     81  C   UNL A   1      32.324  29.510  26.918  1.00  0.00     0.006 C 
ATOM     82  C   UNL A   1      31.538  29.859  25.657  1.00  0.00     0.001 C 
ENDBRANCH  68  71
ENDBRANCH  66  67
ENDBRANCH  65  66
ENDBRANCH  64  65
ENDBRANCH  63  64
ENDBRANCH   1  63
TORSDOF 13
ENDMDL
MODEL 2
REMARK VINA RESULT:     -11.2      4.564      9.327
REMARK SMILES O=C(NCCCCCCNC(=O)[C@H]1CC[C@@H]2CCCC[C@H]2[NH2+]1)c1ccc(-c2c3nc(c(-c4c(F)cccc4F)c4ccc([nH]4)c(-c4c(F)cccc4F)c4nc(c(-c5c(F)cccc5F)c5ccc2[nH]5)C=C4)C=C3)cc1
REMARK SMILES IDX 5 1 4 2 3 3 1 4 2 5 23 7 24 8 76 9 25 10 75 11 26 12 27 13
REMARK SMILES IDX 28 14 69 15 29 16 74 17 68 18 70 19 30 20 73 21 67 22 66 23
REMARK SMILES IDX 31 25 57 26 40 27 56 28 41 29 44 30 55 31 71 32 42 33 43 34
REMARK SMILES IDX 54 36 72 37 45 38 32 39 33 40 38 41 34 42 35 43 37 44 39 45
REMARK SMILES IDX 36 46 58 47 59 48 64 49 60 50 61 51 63 52 65 53 62 54 46 55
REMARK SMILES IDX 47 56 52 57 48 58 49 59 51 60 53 61 50 62 6 63 7 64 8 65
REMARK SMILES IDX 9 66 10 67 11 68 12 70 13 71 14 72 22 73 15 74 21 75 16 78
REMARK SMILES IDX 20 79 17 80 19 81 18 82
REMARK H PARENT 3 6 70 24 44 35 10 69 22 76 22 77
REMARK Flexibility Score: inf
ROOT
ATOM      1  C   UNL A   1      31.067  31.820  26.407  1.00  0.00     0.021 C 
ENDROOT
BRANCH   1   2
ATOM      2  C   UNL A   1      32.373  32.446  26.874  1.00  0.00     0.116 C 
BRANCH   2   3
ATOM      3  N   UNL A   1      32.198  33.797  27.383  1.00  0.00    -0.352 N 
ATOM      4  O   UNL A   1      32.547  35.539  28.781  1.00  0.00    -0.269 OA
ATOM      5  C   UNL A   1      32.918  34.449  28.355  1.00  0.00     0.251 C 
ATOM      6  H   UNL A   1      31.465  34.314  26.976  1.00  0.00     0.163 HD
BRANCH   5   7
ATOM      7  C   UNL A   1      34.134  33.813  28.909  1.00  0.00     0.039 A 
ATOM      8  C   UNL A   1      34.028  32.718  29.766  1.00  0.00     0.014 A 
ATOM      9  C   UNL A   1      35.391  34.326  28.575  1.00  0.00     0.014 A 
ATOM     10  C   UNL A   1      35.162  32.231  30.403  1.00  0.00     0.010 A 
ATOM     11  C   UNL A   1      36.543  33.771  29.144  1.00  0.00     0.010 A 
ATOM     12  C   UNL A   1      36.434  32.737  30.086  1.00  0.00    -0.014 A 
BRANCH  12  13
ATOM     13  C   UNL A   1      37.624  32.099  30.705  1.00  0.00     0.031 A 
ATOM     14  C   UNL A   1      38.043  32.408  32.114  1.00  0.00     0.074 A 
ATOM     15  C   UNL A   1      38.288  31.170  29.989  1.00  0.00     0.049 A 
ATOM     16  N   UNL A   1      39.003  31.865  32.821  1.00  0.00    -0.248 NA
ATOM     17  C   UNL A   1      37.302  33.462  32.822  1.00  0.00     0.031 C 
ATOM     18  C   UNL A   1      37.988  30.809  28.600  1.00  0.00     0.029 A 
ATOM     19  N   UNL A   1      39.320  30.337  30.333  1.00  0.00    -0.354 N 
ATOM     20  C   UNL A   1      38.988  32.514  34.050  1.00  0.00     0.074 A 
ATOM     21  C   UNL A   1      37.941  33.513  33.982  1.00  0.00     0.031 C 
ATOM     22  C   UNL A   1      38.772  29.786  28.233  1.00  0.00     0.029 A 
ATOM     23  C   UNL A   1      39.667  29.458  29.335  1.00  0.00     0.049 A 
ATOM     24  H   UNL A   1      39.770  30.366  31.208  1.00  0.00     0.167 HD
ATOM     25  C   UNL A   1      39.769  32.289  35.134  1.00  0.00     0.037 A 
ATOM     26  C   UNL A   1      40.606  28.495  29.307  1.00  0.00     0.037 A 
ATOM     27  C   UNL A   1      40.806  31.290  35.197  1.00  0.00     0.049 A 
ATOM     28  C   UNL A   1      41.446  28.263  30.526  1.00  0.00     0.074 A 
ATOM     29  C   UNL A   1      41.647  30.984  36.253  1.00  0.00     0.029 A 
ATOM     30  N   UNL A   1      41.143  30.434  34.159  1.00  0.00    -0.354 N 
ATOM     31  N   UNL A   1      41.402  28.872  31.686  1.00  0.00    -0.248 NA
ATOM     32  C   UNL A   1      42.466  27.209  30.434  1.00  0.00     0.031 C 
ATOM     33  C   UNL A   1      42.513  29.963  35.844  1.00  0.00     0.029 A 
ATOM     34  C   UNL A   1      42.184  29.605  34.547  1.00  0.00     0.049 A 
ATOM     35  H   UNL A   1      40.706  30.415  33.277  1.00  0.00     0.167 HD
ATOM     36  C   UNL A   1      42.388  28.281  32.461  1.00  0.00     0.074 A 
ATOM     37  C   UNL A   1      42.987  27.237  31.652  1.00  0.00     0.031 C 
ATOM     38  C   UNL A   1      42.774  28.582  33.724  1.00  0.00     0.037 A 
BRANCH  25  39
ATOM     39  C   UNL A   1      39.538  33.143  36.348  1.00  0.00     0.057 A 
ATOM     40  C   UNL A   1      40.213  34.355  36.534  1.00  0.00     0.134 A 
ATOM     41  C   UNL A   1      38.587  32.778  37.309  1.00  0.00     0.134 A 
ATOM     42  F   UNL A   1      41.144  34.757  35.655  1.00  0.00    -0.206 F 
ATOM     43  C   UNL A   1      39.960  35.170  37.639  1.00  0.00     0.040 A 
ATOM     44  C   UNL A   1      38.310  33.595  38.409  1.00  0.00     0.040 A 
ATOM     45  F   UNL A   1      37.900  31.633  37.190  1.00  0.00    -0.206 F 
ATOM     46  C   UNL A   1      38.999  34.794  38.577  1.00  0.00     0.006 A 
ENDBRANCH  25  39
BRANCH  26  47
ATOM     47  C   UNL A   1      40.797  27.689  28.076  1.00  0.00     0.057 A 
ATOM     48  C   UNL A   1      41.630  28.127  27.041  1.00  0.00     0.134 A 
ATOM     49  C   UNL A   1      40.158  26.453  27.914  1.00  0.00     0.134 A 
ATOM     50  F   UNL A   1      42.257  29.309  27.132  1.00  0.00    -0.206 F 
ATOM     51  C   UNL A   1      41.810  27.371  25.881  1.00  0.00     0.040 A 
ATOM     52  C   UNL A   1      40.351  25.675  26.774  1.00  0.00     0.040 A 
ATOM     53  F   UNL A   1      39.356  25.976  28.877  1.00  0.00    -0.206 F 
ATOM     54  C   UNL A   1      41.174  26.138  25.750  1.00  0.00     0.006 A 
ENDBRANCH  26  47
BRANCH  38  55
ATOM     55  C   UNL A   1      43.892  27.764  34.297  1.00  0.00     0.057 A 
ATOM     56  C   UNL A   1      45.226  28.183  34.209  1.00  0.00     0.134 A 
ATOM     57  C   UNL A   1      43.636  26.548  34.939  1.00  0.00     0.134 A 
ATOM     58  F   UNL A   1      45.538  29.332  33.590  1.00  0.00    -0.206 F 
ATOM     59  C   UNL A   1      46.269  27.404  34.713  1.00  0.00     0.040 A 
ATOM     60  C   UNL A   1      44.666  25.771  35.468  1.00  0.00     0.040 A 
ATOM     61  F   UNL A   1      42.378  26.093  35.061  1.00  0.00    -0.206 F 
ATOM     62  C   UNL A   1      45.989  26.196  35.348  1.00  0.00     0.006 A 
ENDBRANCH  38  55
ENDBRANCH  12  13
ENDBRANCH   5   7
ENDBRANCH   2   3
ENDBRANCH   1   2
BRANCH   1  63
ATOM     63  C   UNL A   1      31.233  30.624  25.471  1.00  0.00     0.002 C 
BRANCH  63  64
ATOM     64  C   UNL A   1      31.997  29.432  26.059  1.00  0.00     0.002 C 
BRANCH  64  65
ATOM     65  C   UNL A   1      33.112  28.862  25.174  1.00  0.00     0.021 C 
BRANCH  65  66
ATOM     66  C   UNL A   1      33.033  27.350  24.962  1.00  0.00     0.116 C 
BRANCH  66  67
ATOM     67  N   UNL A   1      33.611  26.972  23.687  1.00  0.00    -0.351 N 
ATOM     68  C   UNL A   1      32.984  26.737  22.493  1.00  0.00     0.278 C 
ATOM     69  H   UNL A   1      34.591  26.871  23.680  1.00  0.00     0.163 HD
ATOM     70  O   UNL A   1      33.657  26.271  21.572  1.00  0.00    -0.268 OA
BRANCH  68  71
ATOM     71  C   UNL A   1      31.485  27.076  22.376  1.00  0.00     0.272 C 
ATOM     72  C   UNL A   1      30.733  26.484  23.574  1.00  0.00     0.076 C 
ATOM     73  N   UNL A   1      31.272  28.536  22.320  1.00  0.00    -0.333 N 
ATOM     74  C   UNL A   1      29.245  26.813  23.506  1.00  0.00     0.016 C 
ATOM     75  C   UNL A   1      29.854  28.841  22.120  1.00  0.00     0.186 C 
ATOM     76  H   UNL A   1      31.811  28.924  21.546  1.00  0.00     0.347 HD
ATOM     77  H   UNL A   1      31.576  28.947  23.202  1.00  0.00     0.347 HD
ATOM     78  C   UNL A   1      29.033  28.320  23.318  1.00  0.00     0.048 C 
ATOM     79  C   UNL A   1      29.654  30.350  21.942  1.00  0.00     0.065 C 
ATOM     80  C   UNL A   1      27.547  28.651  23.142  1.00  0.00     0.010 C 
ATOM     81  C   UNL A   1      28.172  30.687  21.776  1.00  0.00     0.006 C 
ATOM     82  C   UNL A   1      27.335  30.149  22.933  1.00  0.00     0.001 C 
ENDBRANCH  68  71
ENDBRANCH  66  67
ENDBRANCH  65  66
ENDBRANCH  64  65
ENDBRANCH  63  64
ENDBRANCH   1  63
TORSDOF 13
ENDMDL
MODEL 3
REMARK VINA RESULT:     -11.2      0.339      1.382
REMARK SMILES O=C(NCCCCCCNC(=O)[C@H]1CC[C@@H]2CCCC[C@H]2[NH2+]1)c1ccc(-c2c3nc(c(-c4c(F)cccc4F)c4ccc([nH]4)c(-c4c(F)cccc4F)c4nc(c(-c5c(F)cccc5F)c5ccc2[nH]5)C=C4)C=C3)cc1
REMARK SMILES IDX 5 1 4 2 3 3 1 4 2 5 23 7 24 8 76 9 25 10 75 11 26 12 27 13
REMARK SMILES IDX 28 14 69 15 29 16 74 17 68 18 70 19 30 20 73 21 67 22 66 23
REMARK SMILES IDX 31 25 57 26 40 27 56 28 41 29 44 30 55 31 71 32 42 33 43 34
REMARK SMILES IDX 54 36 72 37 45 38 32 39 33 40 38 41 34 42 35 43 37 44 39 45
REMARK SMILES IDX 36 46 58 47 59 48 64 49 60 50 61 51 63 52 65 53 62 54 46 55
REMARK SMILES IDX 47 56 52 57 48 58 49 59 51 60 53 61 50 62 6 63 7 64 8 65
REMARK SMILES IDX 9 66 10 67 11 68 12 70 13 71 14 72 22 73 15 74 21 75 16 78
REMARK SMILES IDX 20 79 17 80 19 81 18 82
REMARK H PARENT 3 6 70 24 44 35 10 69 22 76 22 77
REMARK Flexibility Score: inf
ROOT
ATOM      1  C   UNL A   1      37.652  19.928  24.640  1.00  0.00     0.021 C 
ENDROOT
BRANCH   1   2
ATOM      2  C   UNL A   1      38.710  20.266  25.679  1.00  0.00     0.116 C 
BRANCH   2   3
ATOM      3  N   UNL A   1      39.804  19.308  25.698  1.00  0.00    -0.352 N 
ATOM      4  O   UNL A   1      41.956  18.634  25.852  1.00  0.00    -0.269 OA
ATOM      5  C   UNL A   1      41.121  19.515  26.033  1.00  0.00     0.251 C 
ATOM      6  H   UNL A   1      39.569  18.388  25.437  1.00  0.00     0.163 HD
BRANCH   5   7
ATOM      7  C   UNL A   1      41.533  20.821  26.592  1.00  0.00     0.039 A 
ATOM      8  C   UNL A   1      41.504  21.038  27.970  1.00  0.00     0.014 A 
ATOM      9  C   UNL A   1      41.941  21.842  25.728  1.00  0.00     0.014 A 
ATOM     10  C   UNL A   1      41.739  22.312  28.471  1.00  0.00     0.010 A 
ATOM     11  C   UNL A   1      42.271  23.100  26.244  1.00  0.00     0.010 A 
ATOM     12  C   UNL A   1      42.145  23.353  27.618  1.00  0.00    -0.014 A 
BRANCH  12  13
ATOM     13  C   UNL A   1      42.501  24.663  28.221  1.00  0.00     0.031 A 
ATOM     14  C   UNL A   1      43.922  25.022  28.546  1.00  0.00     0.074 A 
ATOM     15  C   UNL A   1      41.514  25.563  28.407  1.00  0.00     0.049 A 
ATOM     16  N   UNL A   1      44.398  26.159  28.992  1.00  0.00    -0.248 NA
ATOM     17  C   UNL A   1      44.941  23.979  28.360  1.00  0.00     0.031 C 
ATOM     18  C   UNL A   1      40.092  25.313  28.153  1.00  0.00     0.029 A 
ATOM     19  N   UNL A   1      41.554  26.870  28.813  1.00  0.00    -0.354 N 
ATOM     20  C   UNL A   1      45.766  25.967  29.146  1.00  0.00     0.074 A 
ATOM     21  C   UNL A   1      46.040  24.594  28.775  1.00  0.00     0.031 C 
ATOM     22  C   UNL A   1      39.405  26.447  28.347  1.00  0.00     0.029 A 
ATOM     23  C   UNL A   1      40.326  27.485  28.793  1.00  0.00     0.049 A 
ATOM     24  H   UNL A   1      42.381  27.324  29.093  1.00  0.00     0.167 HD
ATOM     25  C   UNL A   1      46.704  26.857  29.550  1.00  0.00     0.037 A 
ATOM     26  C   UNL A   1      39.975  28.747  29.103  1.00  0.00     0.037 A 
ATOM     27  C   UNL A   1      46.425  28.225  29.914  1.00  0.00     0.049 A 
ATOM     28  C   UNL A   1      41.037  29.711  29.535  1.00  0.00     0.074 A 
ATOM     29  C   UNL A   1      47.310  29.204  30.331  1.00  0.00     0.029 A 
ATOM     30  N   UNL A   1      45.166  28.805  29.901  1.00  0.00    -0.354 N 
ATOM     31  N   UNL A   1      42.328  29.517  29.654  1.00  0.00    -0.248 NA
ATOM     32  C   UNL A   1      40.595  31.070  29.877  1.00  0.00     0.031 C 
ATOM     33  C   UNL A   1      46.582  30.368  30.600  1.00  0.00     0.029 A 
ATOM     34  C   UNL A   1      45.249  30.127  30.311  1.00  0.00     0.049 A 
ATOM     35  H   UNL A   1      44.335  28.347  29.638  1.00  0.00     0.167 HD
ATOM     36  C   UNL A   1      42.853  30.725  30.087  1.00  0.00     0.074 A 
ATOM     37  C   UNL A   1      41.745  31.657  30.171  1.00  0.00     0.031 C 
ATOM     38  C   UNL A   1      44.134  31.034  30.400  1.00  0.00     0.037 A 
BRANCH  25  39
ATOM     39  C   UNL A   1      48.127  26.384  29.627  1.00  0.00     0.057 A 
ATOM     40  C   UNL A   1      49.019  26.557  28.562  1.00  0.00     0.134 A 
ATOM     41  C   UNL A   1      48.626  25.804  30.800  1.00  0.00     0.134 A 
ATOM     42  F   UNL A   1      48.601  27.097  27.406  1.00  0.00    -0.206 F 
ATOM     43  C   UNL A   1      50.354  26.160  28.655  1.00  0.00     0.040 A 
ATOM     44  C   UNL A   1      49.965  25.421  30.912  1.00  0.00     0.040 A 
ATOM     45  F   UNL A   1      47.828  25.613  31.860  1.00  0.00    -0.206 F 
ATOM     46  C   UNL A   1      50.833  25.597  29.836  1.00  0.00     0.006 A 
ENDBRANCH  25  39
BRANCH  26  47
ATOM     47  C   UNL A   1      38.552  29.156  29.018  1.00  0.00     0.057 A 
ATOM     48  C   UNL A   1      37.704  29.081  30.129  1.00  0.00     0.134 A 
ATOM     49  C   UNL A   1      38.010  29.647  27.823  1.00  0.00     0.134 A 
ATOM     50  F   UNL A   1      38.162  28.605  31.296  1.00  0.00    -0.206 F 
ATOM     51  C   UNL A   1      36.365  29.464  30.051  1.00  0.00     0.040 A 
ATOM     52  C   UNL A   1      36.682  30.061  27.739  1.00  0.00     0.040 A 
ATOM     53  F   UNL A   1      38.775  29.753  26.727  1.00  0.00    -0.206 F 
ATOM     54  C   UNL A   1      35.852  29.962  28.854  1.00  0.00     0.006 A 
ENDBRANCH  26  47
BRANCH  38  55
ATOM     55  C   UNL A   1      44.394  32.438  30.857  1.00  0.00     0.057 A 
ATOM     56  C   UNL A   1      44.696  33.460  29.947  1.00  0.00     0.134 A 
ATOM     57  C   UNL A   1      44.345  32.772  32.214  1.00  0.00     0.134 A 
ATOM     58  F   UNL A   1      44.775  33.199  28.633  1.00  0.00    -0.206 F 
ATOM     59  C   UNL A   1      44.972  34.759  30.376  1.00  0.00     0.040 A 
ATOM     60  C   UNL A   1      44.594  34.072  32.654  1.00  0.00     0.040 A 
ATOM     61  F   UNL A   1      44.055  31.839  33.135  1.00  0.00    -0.206 F 
ATOM     62  C   UNL A   1      44.917  35.068  31.734  1.00  0.00     0.006 A 
ENDBRANCH  38  55
ENDBRANCH  12  13
ENDBRANCH   5   7
ENDBRANCH   2   3
ENDBRANCH   1   2
BRANCH   1  63
ATOM     63  C   UNL A   1      36.229  20.325  25.027  1.00  0.00     0.002 C 
BRANCH  63  64
ATOM     64  C   UNL A   1      36.103  21.637  25.810  1.00  0.00     0.002 C 
BRANCH  64  65
ATOM     65  C   UNL A   1      34.812  21.799  26.623  1.00  0.00     0.021 C 
BRANCH  65  66
ATOM     66  C   UNL A   1      34.011  23.055  26.281  1.00  0.00     0.116 C 
BRANCH  66  67
ATOM     67  N   UNL A   1      32.632  22.925  26.707  1.00  0.00    -0.351 N 
ATOM     68  C   UNL A   1      31.645  23.874  26.733  1.00  0.00     0.278 C 
ATOM     69  H   UNL A   1      32.368  22.029  27.020  1.00  0.00     0.163 HD
ATOM     70  O   UNL A   1      30.582  23.583  27.284  1.00  0.00    -0.268 OA
BRANCH  68  71
ATOM     71  C   UNL A   1      31.924  25.236  26.067  1.00  0.00     0.272 C 
ATOM     72  C   UNL A   1      30.953  25.440  24.899  1.00  0.00     0.076 C 
ATOM     73  N   UNL A   1      31.782  26.341  27.037  1.00  0.00    -0.333 N 
ATOM     74  C   UNL A   1      31.183  26.789  24.222  1.00  0.00     0.016 C 
ATOM     75  C   UNL A   1      32.135  27.618  26.415  1.00  0.00     0.186 C 
ATOM     76  H   UNL A   1      32.401  26.172  27.830  1.00  0.00     0.347 HD
ATOM     77  H   UNL A   1      30.813  26.383  27.349  1.00  0.00     0.347 HD
ATOM     78  C   UNL A   1      31.164  27.922  25.255  1.00  0.00     0.048 C 
ATOM     79  C   UNL A   1      32.104  28.744  27.455  1.00  0.00     0.065 C 
ATOM     80  C   UNL A   1      31.499  29.267  24.605  1.00  0.00     0.010 C 
ATOM     81  C   UNL A   1      32.428  30.091  26.810  1.00  0.00     0.006 C 
ATOM     82  C   UNL A   1      31.502  30.395  25.635  1.00  0.00     0.001 C 
ENDBRANCH  68  71
ENDBRANCH  66  67
ENDBRANCH  65  66
ENDBRANCH  64  65
ENDBRANCH  63  64
ENDBRANCH   1  63
TORSDOF 13
ENDMDL
