MODEL 1
REMARK VINA RESULT:     -12.2      0.000      0.000
REMARK SMILES Cc1cc(F)cc(N[C@H](C(=O)NCCCCCCNC(=O)c2ccc(-c3c4nc(c(-c5c(F)cccc5F)c5ccc([nH]5)c(-c5c(F)cccc5F)c5nc(c(-c6c(F)cccc6F)c6ccc3[nH]6)C=C5)C=C4)cc2)c2cc(C)cc(C)c2)c1
REMARK SMILES IDX 15 1 14 2 13 3 12 4 10 5 11 6 9 8 8 9 7 11 1 12 2 13 3 14
REMARK SMILES IDX 84 15 4 16 5 17 6 18 76 19 77 20 83 21 78 22 81 23 79 24
REMARK SMILES IDX 80 25 82 26 16 27 17 28 18 29 19 30 20 31 21 33 22 34 23 35
REMARK SMILES IDX 75 36 24 37 74 38 25 39 26 40 27 41 68 42 28 43 73 44 67 45
REMARK SMILES IDX 69 46 29 47 72 48 66 49 65 50 30 52 56 53 39 54 55 55 40 56
REMARK SMILES IDX 43 57 54 58 70 59 41 60 42 61 53 63 71 64 44 65 31 66 32 67
REMARK SMILES IDX 37 68 33 69 34 70 36 71 38 72 35 73 57 74 58 75 63 76 59 77
REMARK SMILES IDX 60 78 62 79 64 80 61 81 45 82 46 83 51 84 47 85 48 86 50 87
REMARK SMILES IDX 52 88 49 89
REMARK H PARENT 12 7 8 10 19 32 69 51 43 62
REMARK Flexibility Score: inf
ROOT
ATOM      1  C   UNL A   1      31.900  29.727  26.913  1.00  0.00     0.002 C 
ENDROOT
BRANCH   1   2
ATOM      2  C   UNL A   1      33.407  29.531  27.108  1.00  0.00     0.021 C 
BRANCH   2   3
ATOM      3  C   UNL A   1      34.017  28.376  26.320  1.00  0.00     0.116 C 
BRANCH   3   4
ATOM      4  N   UNL A   1      34.256  28.709  24.936  1.00  0.00    -0.354 N 
ATOM      5  C   UNL A   1      33.713  28.174  23.802  1.00  0.00     0.247 C 
ATOM      6  O   UNL A   1      34.108  28.682  22.744  1.00  0.00    -0.272 OA
ATOM      7  H   UNL A   1      34.908  29.431  24.786  1.00  0.00     0.163 HD
BRANCH   5   8
ATOM      8  C   UNL A   1      32.776  26.926  23.820  1.00  0.00     0.200 C 
BRANCH   8   9
ATOM      9  N   UNL A   1      31.623  26.966  22.878  1.00  0.00    -0.370 N 
ATOM     10  H   UNL A   1      31.795  26.522  22.017  1.00  0.00     0.161 HD
BRANCH   9  11
ATOM     11  C   UNL A   1      30.357  27.510  22.984  1.00  0.00     0.038 A 
ATOM     12  C   UNL A   1      28.555  30.668  21.724  1.00  0.00     0.044 C 
ATOM     13  C   UNL A   1      28.818  29.353  22.392  1.00  0.00    -0.046 A 
ATOM     14  C   UNL A   1      27.771  28.709  23.048  1.00  0.00     0.042 A 
ATOM     15  C   UNL A   1      30.101  28.765  22.394  1.00  0.00     0.029 A 
ATOM     16  C   UNL A   1      28.003  27.478  23.624  1.00  0.00     0.125 A 
ATOM     17  F   UNL A   1      27.006  26.838  24.251  1.00  0.00    -0.207 F 
ATOM     18  C   UNL A   1      29.257  26.881  23.554  1.00  0.00     0.065 A 
ENDBRANCH   9  11
ENDBRANCH   8   9
BRANCH   8  19
ATOM     19  C   UNL A   1      33.501  25.581  23.752  1.00  0.00    -0.016 A 
ATOM     20  C   UNL A   1      33.110  24.610  22.823  1.00  0.00     0.009 A 
ATOM     21  C   UNL A   1      34.455  25.224  24.717  1.00  0.00     0.009 A 
ATOM     22  C   UNL A   1      33.393  23.260  23.035  1.00  0.00    -0.051 A 
ATOM     23  C   UNL A   1      34.916  23.902  24.810  1.00  0.00    -0.051 A 
ATOM     24  C   UNL A   1      32.528  22.222  22.380  1.00  0.00     0.044 C 
ATOM     25  C   UNL A   1      34.318  22.914  24.018  1.00  0.00     0.006 A 
ATOM     26  C   UNL A   1      35.953  23.512  25.820  1.00  0.00     0.044 C 
ENDBRANCH   8  19
ENDBRANCH   5   8
ENDBRANCH   3   4
ENDBRANCH   2   3
ENDBRANCH   1   2
BRANCH   1  27
ATOM     27  C   UNL A   1      31.490  30.831  25.933  1.00  0.00     0.002 C 
BRANCH  27  28
ATOM     28  C   UNL A   1      31.279  32.216  26.547  1.00  0.00     0.021 C 
BRANCH  28  29
ATOM     29  C   UNL A   1      32.516  32.835  27.185  1.00  0.00     0.116 C 
BRANCH  29  30
ATOM     30  N   UNL A   1      32.297  34.202  27.626  1.00  0.00    -0.352 N 
ATOM     31  C   UNL A   1      32.947  34.911  28.601  1.00  0.00     0.251 C 
ATOM     32  H   UNL A   1      31.579  34.687  27.157  1.00  0.00     0.163 HD
ATOM     33  O   UNL A   1      32.529  36.014  28.952  1.00  0.00    -0.269 OA
BRANCH  31  34
ATOM     34  C   UNL A   1      34.141  34.336  29.254  1.00  0.00     0.039 A 
ATOM     35  C   UNL A   1      33.976  33.584  30.419  1.00  0.00     0.014 A 
ATOM     36  C   UNL A   1      35.417  34.533  28.718  1.00  0.00     0.014 A 
ATOM     37  C   UNL A   1      35.085  32.979  31.012  1.00  0.00     0.010 A 
ATOM     38  C   UNL A   1      36.508  33.864  29.264  1.00  0.00     0.010 A 
ATOM     39  C   UNL A   1      36.354  33.086  30.422  1.00  0.00    -0.014 A 
BRANCH  39  40
ATOM     40  C   UNL A   1      37.530  32.390  31.003  1.00  0.00     0.031 A 
ATOM     41  C   UNL A   1      38.163  32.901  32.269  1.00  0.00     0.074 A 
ATOM     42  C   UNL A   1      38.059  31.328  30.365  1.00  0.00     0.049 A 
ATOM     43  N   UNL A   1      39.216  32.456  32.905  1.00  0.00    -0.248 NA
ATOM     44  C   UNL A   1      37.545  34.084  32.888  1.00  0.00     0.031 C 
ATOM     45  C   UNL A   1      37.566  30.765  29.106  1.00  0.00     0.029 A 
ATOM     46  N   UNL A   1      39.133  30.536  30.684  1.00  0.00    -0.354 N 
ATOM     47  C   UNL A   1      39.391  33.307  33.988  1.00  0.00     0.074 A 
ATOM     48  C   UNL A   1      38.374  34.331  33.891  1.00  0.00     0.031 C 
ATOM     49  C   UNL A   1      38.316  29.702  28.777  1.00  0.00     0.029 A 
ATOM     50  C   UNL A   1      39.367  29.533  29.775  1.00  0.00     0.049 A 
ATOM     51  H   UNL A   1      39.684  30.672  31.489  1.00  0.00     0.167 HD
ATOM     52  C   UNL A   1      40.300  33.228  34.990  1.00  0.00     0.037 A 
ATOM     53  C   UNL A   1      40.325  28.586  29.745  1.00  0.00     0.037 A 
ATOM     54  C   UNL A   1      41.300  32.197  35.092  1.00  0.00     0.049 A 
ATOM     55  C   UNL A   1      41.336  28.532  30.858  1.00  0.00     0.074 A 
ATOM     56  C   UNL A   1      42.232  31.997  36.095  1.00  0.00     0.029 A 
ATOM     57  N   UNL A   1      41.501  31.195  34.154  1.00  0.00    -0.354 N 
ATOM     58  N   UNL A   1      41.446  29.301  31.915  1.00  0.00    -0.248 NA
ATOM     59  C   UNL A   1      42.353  27.474  30.778  1.00  0.00     0.031 C 
ATOM     60  C   UNL A   1      43.033  30.909  35.737  1.00  0.00     0.029 A 
ATOM     61  C   UNL A   1      42.561  30.391  34.542  1.00  0.00     0.049 A 
ATOM     62  H   UNL A   1      40.970  31.073  33.335  1.00  0.00     0.167 HD
ATOM     63  C   UNL A   1      42.519  28.800  32.641  1.00  0.00     0.074 A 
ATOM     64  C   UNL A   1      43.018  27.654  31.911  1.00  0.00     0.031 C 
ATOM     65  C   UNL A   1      43.042  29.247  33.809  1.00  0.00     0.037 A 
BRANCH  52  66
ATOM     66  C   UNL A   1      40.255  34.287  36.053  1.00  0.00     0.057 A 
ATOM     67  C   UNL A   1      41.001  35.470  35.954  1.00  0.00     0.134 A 
ATOM     68  C   UNL A   1      39.429  34.140  37.175  1.00  0.00     0.134 A 
ATOM     69  F   UNL A   1      41.822  35.670  34.911  1.00  0.00    -0.206 F 
ATOM     70  C   UNL A   1      40.950  36.452  36.944  1.00  0.00     0.040 A 
ATOM     71  C   UNL A   1      39.344  35.130  38.156  1.00  0.00     0.040 A 
ATOM     72  F   UNL A   1      38.681  33.037  37.332  1.00  0.00    -0.206 F 
ATOM     73  C   UNL A   1      40.113  36.287  38.046  1.00  0.00     0.006 A 
ENDBRANCH  52  66
BRANCH  53  74
ATOM     74  C   UNL A   1      40.365  27.601  28.635  1.00  0.00     0.057 A 
ATOM     75  C   UNL A   1      41.110  27.847  27.475  1.00  0.00     0.134 A 
ATOM     76  C   UNL A   1      39.652  26.397  28.698  1.00  0.00     0.134 A 
ATOM     77  F   UNL A   1      41.800  28.990  27.346  1.00  0.00    -0.206 F 
ATOM     78  C   UNL A   1      41.126  26.945  26.410  1.00  0.00     0.040 A 
ATOM     79  C   UNL A   1      39.682  25.473  27.653  1.00  0.00     0.040 A 
ATOM     80  F   UNL A   1      38.927  26.096  29.785  1.00  0.00    -0.206 F 
ATOM     81  C   UNL A   1      40.413  25.751  26.500  1.00  0.00     0.006 A 
ENDBRANCH  53  74
BRANCH  65  82
ATOM     82  C   UNL A   1      44.187  28.472  34.394  1.00  0.00     0.057 A 
ATOM     83  C   UNL A   1      45.522  28.811  34.139  1.00  0.00     0.134 A 
ATOM     84  C   UNL A   1      43.948  27.399  35.262  1.00  0.00     0.134 A 
ATOM     85  F   UNL A   1      45.821  29.821  33.307  1.00  0.00    -0.206 F 
ATOM     86  C   UNL A   1      46.577  28.096  34.707  1.00  0.00     0.040 A 
ATOM     87  C   UNL A   1      44.994  26.695  35.860  1.00  0.00     0.040 A 
ATOM     88  F   UNL A   1      42.693  27.028  35.557  1.00  0.00    -0.206 F 
ATOM     89  C   UNL A   1      46.314  27.039  35.577  1.00  0.00     0.006 A 
ENDBRANCH  65  82
ENDBRANCH  39  40
ENDBRANCH  31  34
ENDBRANCH  29  30
ENDBRANCH  28  29
ENDBRANCH  27  28
ENDBRANCH   1  27
TORSDOF 16
ENDMDL
MODEL 2
REMARK VINA RESULT:     -12.0      0.838      6.127
REMARK SMILES Cc1cc(F)cc(N[C@H](C(=O)NCCCCCCNC(=O)c2ccc(-c3c4nc(c(-c5c(F)cccc5F)c5ccc([nH]5)c(-c5c(F)cccc5F)c5nc(c(-c6c(F)cccc6F)c6ccc3[nH]6)C=C5)C=C4)cc2)c2cc(C)cc(C)c2)c1
REMARK SMILES IDX 15 1 14 2 13 3 12 4 10 5 11 6 9 8 8 9 7 11 1 12 2 13 3 14
REMARK SMILES IDX 84 15 4 16 5 17 6 18 76 19 77 20 83 21 78 22 81 23 79 24
REMARK SMILES IDX 80 25 82 26 16 27 17 28 18 29 19 30 20 31 21 33 22 34 23 35
REMARK SMILES IDX 75 36 24 37 74 38 25 39 26 40 27 41 68 42 28 43 73 44 67 45
REMARK SMILES IDX 69 46 29 47 72 48 66 49 65 50 30 52 56 53 39 54 55 55 40 56
REMARK SMILES IDX 43 57 54 58 70 59 41 60 42 61 53 63 71 64 44 65 31 66 32 67
REMARK SMILES IDX 37 68 33 69 34 70 36 71 38 72 35 73 57 74 58 75 63 76 59 77
REMARK SMILES IDX 60 78 62 79 64 80 61 81 45 82 46 83 51 84 47 85 48 86 50 87
REMARK SMILES IDX 52 88 49 89
REMARK H PARENT 12 7 8 10 19 32 69 51 43 62
REMARK Flexibility Score: inf
ROOT
ATOM      1  C   UNL A   1      32.588  29.970  27.085  1.00  0.00     0.002 C 
ENDROOT
BRANCH   1   2
ATOM      2  C   UNL A   1      32.507  28.440  27.127  1.00  0.00     0.021 C 
BRANCH   2   3
ATOM      3  C   UNL A   1      33.673  27.711  26.467  1.00  0.00     0.116 C 
BRANCH   3   4
ATOM      4  N   UNL A   1      34.004  28.250  25.170  1.00  0.00    -0.354 N 
ATOM      5  C   UNL A   1      33.321  28.168  23.989  1.00  0.00     0.247 C 
ATOM      6  O   UNL A   1      33.856  28.750  23.035  1.00  0.00    -0.272 OA
ATOM      7  H   UNL A   1      34.850  28.752  25.128  1.00  0.00     0.163 HD
BRANCH   5   8
ATOM      8  C   UNL A   1      32.040  27.295  23.812  1.00  0.00     0.200 C 
BRANCH   8   9
ATOM      9  N   UNL A   1      31.119  27.709  22.716  1.00  0.00    -0.370 N 
ATOM     10  H   UNL A   1      31.422  27.443  21.818  1.00  0.00     0.161 HD
BRANCH   9  11
ATOM     11  C   UNL A   1      29.920  28.396  22.723  1.00  0.00     0.038 A 
ATOM     12  C   UNL A   1      28.585  31.703  21.278  1.00  0.00     0.044 C 
ATOM     13  C   UNL A   1      28.648  30.386  21.988  1.00  0.00    -0.046 A 
ATOM     14  C   UNL A   1      27.491  29.883  22.581  1.00  0.00     0.042 A 
ATOM     15  C   UNL A   1      29.852  29.656  22.092  1.00  0.00     0.029 A 
ATOM     16  C   UNL A   1      27.541  28.651  23.196  1.00  0.00     0.125 A 
ATOM     17  F   UNL A   1      26.436  28.145  23.762  1.00  0.00    -0.207 F 
ATOM     18  C   UNL A   1      28.719  27.913  23.226  1.00  0.00     0.065 A 
ENDBRANCH   9  11
ENDBRANCH   8   9
BRANCH   8  19
ATOM     19  C   UNL A   1      32.293  25.787  23.783  1.00  0.00    -0.016 A 
ATOM     20  C   UNL A   1      31.335  24.896  24.279  1.00  0.00     0.009 A 
ATOM     21  C   UNL A   1      33.547  25.271  23.419  1.00  0.00     0.009 A 
ATOM     22  C   UNL A   1      31.697  23.619  24.708  1.00  0.00    -0.051 A 
ATOM     23  C   UNL A   1      33.859  23.923  23.651  1.00  0.00    -0.051 A 
ATOM     24  C   UNL A   1      30.833  22.915  25.714  1.00  0.00     0.044 C 
ATOM     25  C   UNL A   1      32.957  23.128  24.369  1.00  0.00     0.006 A 
ATOM     26  C   UNL A   1      35.184  23.354  23.245  1.00  0.00     0.044 C 
ENDBRANCH   8  19
ENDBRANCH   5   8
ENDBRANCH   3   4
ENDBRANCH   2   3
ENDBRANCH   1   2
BRANCH   1  27
ATOM     27  C   UNL A   1      31.483  30.676  26.294  1.00  0.00     0.002 C 
BRANCH  27  28
ATOM     28  C   UNL A   1      31.376  32.187  26.511  1.00  0.00     0.021 C 
BRANCH  28  29
ATOM     29  C   UNL A   1      32.531  32.811  27.283  1.00  0.00     0.116 C 
BRANCH  29  30
ATOM     30  N   UNL A   1      32.297  34.207  27.613  1.00  0.00    -0.352 N 
ATOM     31  C   UNL A   1      32.933  34.997  28.534  1.00  0.00     0.251 C 
ATOM     32  H   UNL A   1      31.580  34.647  27.101  1.00  0.00     0.163 HD
ATOM     33  O   UNL A   1      32.503  36.120  28.793  1.00  0.00    -0.269 OA
BRANCH  31  34
ATOM     34  C   UNL A   1      34.126  34.486  29.240  1.00  0.00     0.039 A 
ATOM     35  C   UNL A   1      33.966  33.907  30.502  1.00  0.00     0.014 A 
ATOM     36  C   UNL A   1      35.395  34.570  28.660  1.00  0.00     0.014 A 
ATOM     37  C   UNL A   1      35.071  33.360  31.154  1.00  0.00     0.010 A 
ATOM     38  C   UNL A   1      36.480  33.954  29.276  1.00  0.00     0.010 A 
ATOM     39  C   UNL A   1      36.331  33.349  30.533  1.00  0.00    -0.014 A 
BRANCH  39  40
ATOM     40  C   UNL A   1      37.500  32.709  31.186  1.00  0.00     0.031 A 
ATOM     41  C   UNL A   1      38.154  31.506  30.561  1.00  0.00     0.074 A 
ATOM     42  C   UNL A   1      37.944  33.180  32.369  1.00  0.00     0.049 A 
ATOM     43  N   UNL A   1      39.155  30.787  31.000  1.00  0.00    -0.248 NA
ATOM     44  C   UNL A   1      37.591  31.034  29.287  1.00  0.00     0.031 C 
ATOM     45  C   UNL A   1      37.367  34.310  33.099  1.00  0.00     0.029 A 
ATOM     46  N   UNL A   1      38.979  32.763  33.167  1.00  0.00    -0.354 N 
ATOM     47  C   UNL A   1      39.334  29.777  30.064  1.00  0.00     0.074 A 
ATOM     48  C   UNL A   1      38.300  29.937  29.065  1.00  0.00     0.031 C 
ATOM     49  C   UNL A   1      38.074  34.514  34.221  1.00  0.00     0.029 A 
ATOM     50  C   UNL A   1      39.126  33.506  34.312  1.00  0.00     0.049 A 
ATOM     51  H   UNL A   1      39.563  32.003  32.939  1.00  0.00     0.167 HD
ATOM     52  C   UNL A   1      40.289  28.817  30.025  1.00  0.00     0.037 A 
ATOM     53  C   UNL A   1      40.004  33.386  35.326  1.00  0.00     0.037 A 
ATOM     54  C   UNL A   1      41.327  28.672  31.014  1.00  0.00     0.049 A 
ATOM     55  C   UNL A   1      41.044  32.299  35.270  1.00  0.00     0.074 A 
ATOM     56  C   UNL A   1      42.373  27.767  31.036  1.00  0.00     0.029 A 
ATOM     57  N   UNL A   1      41.444  29.448  32.156  1.00  0.00    -0.354 N 
ATOM     58  N   UNL A   1      41.245  31.395  34.342  1.00  0.00    -0.248 NA
ATOM     59  C   UNL A   1      41.982  32.221  36.398  1.00  0.00     0.031 C 
ATOM     60  C   UNL A   1      43.091  27.958  32.220  1.00  0.00     0.029 A 
ATOM     61  C   UNL A   1      42.530  29.024  32.906  1.00  0.00     0.049 A 
ATOM     62  H   UNL A   1      40.846  30.191  32.399  1.00  0.00     0.167 HD
ATOM     63  C   UNL A   1      42.351  30.663  34.757  1.00  0.00     0.074 A 
ATOM     64  C   UNL A   1      42.784  31.238  36.014  1.00  0.00     0.031 C 
ATOM     65  C   UNL A   1      42.955  29.612  34.151  1.00  0.00     0.037 A 
BRANCH  52  66
ATOM     66  C   UNL A   1      40.255  27.850  28.878  1.00  0.00     0.057 A 
ATOM     67  C   UNL A   1      40.956  28.087  27.687  1.00  0.00     0.134 A 
ATOM     68  C   UNL A   1      39.542  26.648  28.975  1.00  0.00     0.134 A 
ATOM     69  F   UNL A   1      41.650  29.224  27.521  1.00  0.00    -0.206 F 
ATOM     70  C   UNL A   1      40.924  27.181  26.626  1.00  0.00     0.040 A 
ATOM     71  C   UNL A   1      39.529  25.718  27.934  1.00  0.00     0.040 A 
ATOM     72  F   UNL A   1      38.855  26.351  30.089  1.00  0.00    -0.206 F 
ATOM     73  C   UNL A   1      40.215  25.987  26.752  1.00  0.00     0.006 A 
ENDBRANCH  52  66
BRANCH  53  74
ATOM     74  C   UNL A   1      39.955  34.330  36.471  1.00  0.00     0.057 A 
ATOM     75  C   UNL A   1      39.249  34.016  37.639  1.00  0.00     0.134 A 
ATOM     76  C   UNL A   1      40.599  35.573  36.425  1.00  0.00     0.134 A 
ATOM     77  F   UNL A   1      38.596  32.848  37.738  1.00  0.00    -0.206 F 
ATOM     78  C   UNL A   1      39.164  34.909  38.707  1.00  0.00     0.040 A 
ATOM     79  C   UNL A   1      40.547  36.464  37.497  1.00  0.00     0.040 A 
ATOM     80  F   UNL A   1      41.301  35.932  35.340  1.00  0.00    -0.206 F 
ATOM     81  C   UNL A   1      39.820  36.137  38.640  1.00  0.00     0.006 A 
ENDBRANCH  53  74
BRANCH  65  82
ATOM     82  C   UNL A   1      44.175  29.041  34.814  1.00  0.00     0.057 A 
ATOM     83  C   UNL A   1      45.463  29.521  34.543  1.00  0.00     0.134 A 
ATOM     84  C   UNL A   1      44.052  28.027  35.773  1.00  0.00     0.134 A 
ATOM     85  F   UNL A   1      45.651  30.483  33.627  1.00  0.00    -0.206 F 
ATOM     86  C   UNL A   1      46.586  28.995  35.183  1.00  0.00     0.040 A 
ATOM     87  C   UNL A   1      45.165  27.515  36.442  1.00  0.00     0.040 A 
ATOM     88  F   UNL A   1      42.847  27.528  36.088  1.00  0.00    -0.206 F 
ATOM     89  C   UNL A   1      46.438  27.995  36.143  1.00  0.00     0.006 A 
ENDBRANCH  65  82
ENDBRANCH  39  40
ENDBRANCH  31  34
ENDBRANCH  29  30
ENDBRANCH  28  29
ENDBRANCH  27  28
ENDBRANCH   1  27
TORSDOF 16
ENDMDL
MODEL 3
REMARK VINA RESULT:     -12.0      4.644      9.682
REMARK SMILES Cc1cc(F)cc(N[C@H](C(=O)NCCCCCCNC(=O)c2ccc(-c3c4nc(c(-c5c(F)cccc5F)c5ccc([nH]5)c(-c5c(F)cccc5F)c5nc(c(-c6c(F)cccc6F)c6ccc3[nH]6)C=C5)C=C4)cc2)c2cc(C)cc(C)c2)c1
REMARK SMILES IDX 15 1 14 2 13 3 12 4 10 5 11 6 9 8 8 9 7 11 1 12 2 13 3 14
REMARK SMILES IDX 84 15 4 16 5 17 6 18 76 19 77 20 83 21 78 22 81 23 79 24
REMARK SMILES IDX 80 25 82 26 16 27 17 28 18 29 19 30 20 31 21 33 22 34 23 35
REMARK SMILES IDX 75 36 24 37 74 38 25 39 26 40 27 41 68 42 28 43 73 44 67 45
REMARK SMILES IDX 69 46 29 47 72 48 66 49 65 50 30 52 56 53 39 54 55 55 40 56
REMARK SMILES IDX 43 57 54 58 70 59 41 60 42 61 53 63 71 64 44 65 31 66 32 67
REMARK SMILES IDX 37 68 33 69 34 70 36 71 38 72 35 73 57 74 58 75 63 76 59 77
REMARK SMILES IDX 60 78 62 79 64 80 61 81 45 82 46 83 51 84 47 85 48 86 50 87
REMARK SMILES IDX 52 88 49 89
REMARK H PARENT 12 7 8 10 19 32 69 51 43 62
REMARK Flexibility Score: inf
ROOT
ATOM      1  C   UNL A   1      38.301  22.214  26.024  1.00  0.00     0.002 C 
ENDROOT
BRANCH   1   2
ATOM      2  C   UNL A   1      37.812  23.664  25.948  1.00  0.00     0.021 C 
BRANCH   2   3
ATOM      3  C   UNL A   1      36.311  23.830  25.729  1.00  0.00     0.116 C 
BRANCH   3   4
ATOM      4  N   UNL A   1      35.523  23.130  26.715  1.00  0.00    -0.354 N 
ATOM      5  C   UNL A   1      34.327  22.483  26.579  1.00  0.00     0.247 C 
ATOM      6  O   UNL A   1      33.897  21.958  27.616  1.00  0.00    -0.272 OA
ATOM      7  H   UNL A   1      35.904  23.117  27.623  1.00  0.00     0.163 HD
BRANCH   5   8
ATOM      8  C   UNL A   1      33.492  22.517  25.262  1.00  0.00     0.200 C 
BRANCH   8   9
ATOM      9  N   UNL A   1      32.491  21.426  25.100  1.00  0.00    -0.370 N 
ATOM     10  H   UNL A   1      31.609  21.632  25.485  1.00  0.00     0.161 HD
BRANCH   9  11
ATOM     11  C   UNL A   1      32.567  20.178  24.511  1.00  0.00     0.038 A 
ATOM     12  C   UNL A   1      33.018  16.547  25.702  1.00  0.00     0.044 C 
ATOM     13  C   UNL A   1      32.814  17.736  24.815  1.00  0.00    -0.046 A 
ATOM     14  C   UNL A   1      32.658  17.535  23.444  1.00  0.00     0.042 A 
ATOM     15  C   UNL A   1      32.798  19.051  25.327  1.00  0.00     0.029 A 
ATOM     16  C   UNL A   1      32.426  18.626  22.634  1.00  0.00     0.125 A 
ATOM     17  F   UNL A   1      32.263  18.452  21.315  1.00  0.00    -0.207 F 
ATOM     18  C   UNL A   1      32.342  19.908  23.167  1.00  0.00     0.065 A 
ENDBRANCH   9  11
ENDBRANCH   8   9
BRANCH   8  19
ATOM     19  C   UNL A   1      32.885  23.880  24.926  1.00  0.00    -0.016 A 
ATOM     20  C   UNL A   1      32.902  24.360  23.611  1.00  0.00     0.009 A 
ATOM     21  C   UNL A   1      32.452  24.750  25.938  1.00  0.00     0.009 A 
ATOM     22  C   UNL A   1      32.815  25.727  23.345  1.00  0.00    -0.051 A 
ATOM     23  C   UNL A   1      32.153  26.090  25.650  1.00  0.00    -0.051 A 
ATOM     24  C   UNL A   1      33.379  26.257  22.059  1.00  0.00     0.044 C 
ATOM     25  C   UNL A   1      32.415  26.586  24.367  1.00  0.00     0.006 A 
ATOM     26  C   UNL A   1      31.666  27.022  26.718  1.00  0.00     0.044 C 
ENDBRANCH   8  19
ENDBRANCH   5   8
ENDBRANCH   3   4
ENDBRANCH   2   3
ENDBRANCH   1   2
BRANCH   1  27
ATOM     27  C   UNL A   1      37.840  21.291  24.891  1.00  0.00     0.002 C 
BRANCH  27  28
ATOM     28  C   UNL A   1      38.490  19.907  24.858  1.00  0.00     0.021 C 
BRANCH  28  29
ATOM     29  C   UNL A   1      39.255  19.523  26.118  1.00  0.00     0.116 C 
BRANCH  29  30
ATOM     30  N   UNL A   1      40.556  18.941  25.831  1.00  0.00    -0.352 N 
ATOM     31  C   UNL A   1      41.795  19.524  25.883  1.00  0.00     0.251 C 
ATOM     32  H   UNL A   1      40.544  17.994  25.561  1.00  0.00     0.163 HD
ATOM     33  O   UNL A   1      42.782  18.925  25.457  1.00  0.00    -0.269 OA
BRANCH  31  34
ATOM     34  C   UNL A   1      41.942  20.889  26.428  1.00  0.00     0.039 A 
ATOM     35  C   UNL A   1      41.964  21.062  27.814  1.00  0.00     0.014 A 
ATOM     36  C   UNL A   1      42.063  21.992  25.578  1.00  0.00     0.014 A 
ATOM     37  C   UNL A   1      42.168  22.336  28.345  1.00  0.00     0.010 A 
ATOM     38  C   UNL A   1      42.345  23.246  26.109  1.00  0.00     0.010 A 
ATOM     39  C   UNL A   1      42.394  23.433  27.498  1.00  0.00    -0.014 A 
BRANCH  39  40
ATOM     40  C   UNL A   1      42.681  24.781  28.051  1.00  0.00     0.031 A 
ATOM     41  C   UNL A   1      44.077  25.144  28.477  1.00  0.00     0.074 A 
ATOM     42  C   UNL A   1      41.674  25.662  28.217  1.00  0.00     0.049 A 
ATOM     43  N   UNL A   1      44.515  26.252  29.019  1.00  0.00    -0.248 NA
ATOM     44  C   UNL A   1      45.114  24.117  28.294  1.00  0.00     0.031 C 
ATOM     45  C   UNL A   1      40.269  25.413  27.886  1.00  0.00     0.029 A 
ATOM     46  N   UNL A   1      41.677  26.942  28.711  1.00  0.00    -0.354 N 
ATOM     47  C   UNL A   1      45.870  26.051  29.248  1.00  0.00     0.074 A 
ATOM     48  C   UNL A   1      46.171  24.695  28.845  1.00  0.00     0.031 C 
ATOM     49  C   UNL A   1      39.552  26.514  28.158  1.00  0.00     0.029 A 
ATOM     50  C   UNL A   1      40.436  27.531  28.720  1.00  0.00     0.049 A 
ATOM     51  H   UNL A   1      42.491  27.396  29.027  1.00  0.00     0.167 HD
ATOM     52  C   UNL A   1      46.787  26.925  29.727  1.00  0.00     0.037 A 
ATOM     53  C   UNL A   1      40.051  28.751  29.142  1.00  0.00     0.037 A 
ATOM     54  C   UNL A   1      46.486  28.280  30.112  1.00  0.00     0.049 A 
ATOM     55  C   UNL A   1      41.085  29.697  29.689  1.00  0.00     0.074 A 
ATOM     56  C   UNL A   1      47.354  29.261  30.557  1.00  0.00     0.029 A 
ATOM     57  N   UNL A   1      45.218  28.841  30.102  1.00  0.00    -0.354 N 
ATOM     58  N   UNL A   1      42.376  29.518  29.833  1.00  0.00    -0.248 NA
ATOM     59  C   UNL A   1      40.610  31.017  30.125  1.00  0.00     0.031 C 
ATOM     60  C   UNL A   1      46.603  30.399  30.871  1.00  0.00     0.029 A 
ATOM     61  C   UNL A   1      45.276  30.148  30.561  1.00  0.00     0.049 A 
ATOM     62  H   UNL A   1      44.398  28.380  29.812  1.00  0.00     0.167 HD
ATOM     63  C   UNL A   1      42.871  30.711  30.344  1.00  0.00     0.074 A 
ATOM     64  C   UNL A   1      41.744  31.611  30.471  1.00  0.00     0.031 C 
ATOM     65  C   UNL A   1      44.146  31.035  30.674  1.00  0.00     0.037 A 
BRANCH  52  66
ATOM     66  C   UNL A   1      48.202  26.442  29.863  1.00  0.00     0.057 A 
ATOM     67  C   UNL A   1      48.654  25.783  31.015  1.00  0.00     0.134 A 
ATOM     68  C   UNL A   1      49.118  26.606  28.815  1.00  0.00     0.134 A 
ATOM     69  F   UNL A   1      47.832  25.603  32.061  1.00  0.00    -0.206 F 
ATOM     70  C   UNL A   1      49.969  25.332  31.132  1.00  0.00     0.040 A 
ATOM     71  C   UNL A   1      50.427  26.130  28.907  1.00  0.00     0.040 A 
ATOM     72  F   UNL A   1      48.752  27.220  27.680  1.00  0.00    -0.206 F 
ATOM     73  C   UNL A   1      50.858  25.498  30.071  1.00  0.00     0.006 A 
ENDBRANCH  52  66
BRANCH  53  74
ATOM     74  C   UNL A   1      38.625  29.157  29.046  1.00  0.00     0.057 A 
ATOM     75  C   UNL A   1      37.778  29.094  30.159  1.00  0.00     0.134 A 
ATOM     76  C   UNL A   1      38.071  29.606  27.841  1.00  0.00     0.134 A 
ATOM     77  F   UNL A   1      38.245  28.656  31.338  1.00  0.00    -0.206 F 
ATOM     78  C   UNL A   1      36.429  29.438  30.073  1.00  0.00     0.040 A 
ATOM     79  C   UNL A   1      36.730  29.981  27.747  1.00  0.00     0.040 A 
ATOM     80  F   UNL A   1      38.830  29.700  26.740  1.00  0.00    -0.206 F 
ATOM     81  C   UNL A   1      35.902  29.888  28.864  1.00  0.00     0.006 A 
ENDBRANCH  53  74
BRANCH  65  82
ATOM     82  C   UNL A   1      44.398  32.431  31.165  1.00  0.00     0.057 A 
ATOM     83  C   UNL A   1      44.378  32.755  32.528  1.00  0.00     0.134 A 
ATOM     84  C   UNL A   1      44.712  33.455  30.263  1.00  0.00     0.134 A 
ATOM     85  F   UNL A   1      44.074  31.823  33.444  1.00  0.00    -0.206 F 
ATOM     86  C   UNL A   1      44.637  34.052  32.972  1.00  0.00     0.040 A 
ATOM     87  C   UNL A   1      45.002  34.749  30.697  1.00  0.00     0.040 A 
ATOM     88  F   UNL A   1      44.758  33.211  28.944  1.00  0.00    -0.206 F 
ATOM     89  C   UNL A   1      44.959  35.052  32.056  1.00  0.00     0.006 A 
ENDBRANCH  65  82
ENDBRANCH  39  40
ENDBRANCH  31  34
ENDBRANCH  29  30
ENDBRANCH  28  29
ENDBRANCH  27  28
ENDBRANCH   1  27
TORSDOF 16
ENDMDL
