MODEL 1
REMARK VINA RESULT:      -8.4      0.000      0.000
REMARK SMILES CC[C@@H](C)c1ccccc1OCC(C)(C)C(=O)NCCCCCCNC(=O)c1ccc(-c2c3nc(c(-c4c(F)cccc4F)c4ccc([nH]4)c(-c4c(F)cccc4F)c4nc(c(-c5c(F)cccc5F)c5ccc2[nH]5)C=C4)C=C3)cc1
REMARK SMILES IDX 20 1 19 2 18 3 16 4 17 5 13 7 14 8 15 9 12 10 11 11 10 12
REMARK SMILES IDX 5 13 6 14 7 15 9 16 8 17 3 18 4 19 2 20 1 21 21 22 22 23
REMARK SMILES IDX 23 24 24 25 25 26 26 27 27 29 28 30 29 31 81 32 30 33 80 34
REMARK SMILES IDX 31 35 32 36 33 37 74 38 34 39 79 40 73 41 75 42 35 43 78 44
REMARK SMILES IDX 72 45 71 46 36 48 62 49 45 50 61 51 46 52 49 53 60 54 76 55
REMARK SMILES IDX 47 56 48 57 59 59 77 60 50 61 37 62 38 63 43 64 39 65 40 66
REMARK SMILES IDX 42 67 44 68 41 69 63 70 64 71 69 72 65 73 66 74 68 75 70 76
REMARK SMILES IDX 67 77 51 78 52 79 57 80 53 81 54 82 56 83 58 84 55 85
REMARK H PARENT 18 6 25 28 75 47 49 58
REMARK Flexibility Score: inf
ROOT
ATOM      1  C   UNL A   1      35.432  34.180  33.884  1.00  0.00     0.021 C 
ENDROOT
BRANCH   1   2
ATOM      2  C   UNL A   1      36.712  34.127  34.692  1.00  0.00     0.116 C 
BRANCH   2   3
ATOM      3  N   UNL A   1      36.452  33.828  36.093  1.00  0.00    -0.356 N 
ATOM      4  C   UNL A   1      37.015  32.897  36.927  1.00  0.00     0.229 C 
ATOM      5  O   UNL A   1      36.649  32.895  38.102  1.00  0.00    -0.274 OA
ATOM      6  H   UNL A   1      35.757  34.386  36.511  1.00  0.00     0.163 HD
BRANCH   4   7
ATOM      7  C   UNL A   1      38.060  31.919  36.372  1.00  0.00     0.077 C 
ATOM      8  C   UNL A   1      37.898  30.622  37.197  1.00  0.00     0.025 C 
ATOM      9  C   UNL A   1      39.447  32.613  36.496  1.00  0.00     0.025 C 
BRANCH   7  10
ATOM     10  C   UNL A   1      37.899  31.727  34.816  1.00  0.00     0.245 C 
BRANCH  10  11
ATOM     11  O   UNL A   1      38.997  31.269  34.045  1.00  0.00    -0.492 OA
BRANCH  11  12
ATOM     12  C   UNL A   1      39.045  30.095  33.351  1.00  0.00     0.122 A 
ATOM     13  C   UNL A   1      40.042  29.093  33.277  1.00  0.00    -0.003 A 
ATOM     14  C   UNL A   1      39.680  27.879  32.646  1.00  0.00     0.008 A 
ATOM     15  C   UNL A   1      38.405  27.663  32.114  1.00  0.00     0.001 A 
ATOM     16  C   UNL A   1      37.798  29.891  32.725  1.00  0.00     0.047 A 
ATOM     17  C   UNL A   1      37.469  28.681  32.130  1.00  0.00     0.004 A 
BRANCH  13  18
ATOM     18  C   UNL A   1      41.451  29.213  33.861  1.00  0.00     0.019 C 
ATOM     19  C   UNL A   1      42.168  27.865  33.870  1.00  0.00     0.013 C 
BRANCH  18  20
ATOM     20  C   UNL A   1      41.555  29.930  35.237  1.00  0.00     0.005 C 
ATOM     21  C   UNL A   1      42.995  30.047  35.740  1.00  0.00     0.004 C 
ENDBRANCH  18  20
ENDBRANCH  13  18
ENDBRANCH  11  12
ENDBRANCH  10  11
ENDBRANCH   7  10
ENDBRANCH   4   7
ENDBRANCH   2   3
ENDBRANCH   1   2
BRANCH   1  22
ATOM     22  C   UNL A   1      35.322  35.474  33.082  1.00  0.00     0.002 C 
BRANCH  22  23
ATOM     23  C   UNL A   1      34.093  36.326  33.432  1.00  0.00     0.002 C 
BRANCH  23  24
ATOM     24  C   UNL A   1      33.070  36.463  32.299  1.00  0.00     0.021 C 
BRANCH  24  25
ATOM     25  C   UNL A   1      33.687  36.416  30.908  1.00  0.00     0.116 C 
BRANCH  25  26
ATOM     26  N   UNL A   1      32.851  35.667  29.983  1.00  0.00    -0.352 N 
ATOM     27  C   UNL A   1      33.187  34.619  29.174  1.00  0.00     0.251 C 
ATOM     28  H   UNL A   1      31.912  35.956  29.934  1.00  0.00     0.163 HD
ATOM     29  O   UNL A   1      32.423  34.253  28.282  1.00  0.00    -0.269 OA
BRANCH  27  30
ATOM     30  C   UNL A   1      34.477  33.942  29.374  1.00  0.00     0.039 A 
ATOM     31  C   UNL A   1      35.529  34.231  28.506  1.00  0.00     0.014 A 
ATOM     32  C   UNL A   1      34.645  33.030  30.421  1.00  0.00     0.014 A 
ATOM     33  C   UNL A   1      36.769  33.635  28.715  1.00  0.00     0.010 A 
ATOM     34  C   UNL A   1      35.902  32.499  30.676  1.00  0.00     0.010 A 
ATOM     35  C   UNL A   1      36.973  32.788  29.818  1.00  0.00    -0.014 A 
BRANCH  35  36
ATOM     36  C   UNL A   1      38.308  32.206  30.087  1.00  0.00     0.031 A 
ATOM     37  C   UNL A   1      39.313  32.962  30.908  1.00  0.00     0.074 A 
ATOM     38  C   UNL A   1      38.622  31.011  29.552  1.00  0.00     0.049 A 
ATOM     39  N   UNL A   1      40.531  32.618  31.240  1.00  0.00    -0.248 NA
ATOM     40  C   UNL A   1      38.908  34.288  31.401  1.00  0.00     0.031 C 
ATOM     41  C   UNL A   1      37.744  30.212  28.693  1.00  0.00     0.029 A 
ATOM     42  N   UNL A   1      39.764  30.259  29.652  1.00  0.00    -0.354 N 
ATOM     43  C   UNL A   1      41.037  33.683  31.973  1.00  0.00     0.074 A 
ATOM     44  C   UNL A   1      40.019  34.711  31.984  1.00  0.00     0.031 C 
ATOM     45  C   UNL A   1      38.367  29.067  28.373  1.00  0.00     0.029 A 
ATOM     46  C   UNL A   1      39.699  29.069  28.970  1.00  0.00     0.049 A 
ATOM     47  H   UNL A   1      40.555  30.545  30.163  1.00  0.00     0.167 HD
ATOM     48  C   UNL A   1      42.232  33.784  32.600  1.00  0.00     0.037 A 
ATOM     49  C   UNL A   1      40.613  28.091  28.839  1.00  0.00     0.037 A 
ATOM     50  C   UNL A   1      43.233  32.750  32.594  1.00  0.00     0.049 A 
ATOM     51  C   UNL A   1      41.937  28.232  29.535  1.00  0.00     0.074 A 
ATOM     52  C   UNL A   1      44.454  32.728  33.246  1.00  0.00     0.029 A 
ATOM     53  N   UNL A   1      43.132  31.557  31.894  1.00  0.00    -0.354 N 
ATOM     54  N   UNL A   1      42.374  29.211  30.291  1.00  0.00    -0.248 NA
ATOM     55  C   UNL A   1      42.894  27.130  29.366  1.00  0.00     0.031 C 
ATOM     56  C   UNL A   1      45.116  31.547  32.895  1.00  0.00     0.029 A 
ATOM     57  C   UNL A   1      44.282  30.804  32.074  1.00  0.00     0.049 A 
ATOM     58  H   UNL A   1      42.359  31.284  31.350  1.00  0.00     0.167 HD
ATOM     59  C   UNL A   1      43.642  28.832  30.710  1.00  0.00     0.074 A 
ATOM     60  C   UNL A   1      43.897  27.526  30.139  1.00  0.00     0.031 C 
ATOM     61  C   UNL A   1      44.518  29.505  31.497  1.00  0.00     0.037 A 
BRANCH  48  62
ATOM     62  C   UNL A   1      42.520  35.056  33.345  1.00  0.00     0.057 A 
ATOM     63  C   UNL A   1      43.165  36.141  32.735  1.00  0.00     0.134 A 
ATOM     64  C   UNL A   1      42.121  35.211  34.678  1.00  0.00     0.134 A 
ATOM     65  F   UNL A   1      43.585  36.056  31.464  1.00  0.00    -0.206 F 
ATOM     66  C   UNL A   1      43.425  37.323  33.433  1.00  0.00     0.040 A 
ATOM     67  C   UNL A   1      42.347  36.399  35.376  1.00  0.00     0.040 A 
ATOM     68  F   UNL A   1      41.494  34.215  35.323  1.00  0.00    -0.206 F 
ATOM     69  C   UNL A   1      43.009  37.457  34.755  1.00  0.00     0.006 A 
ENDBRANCH  48  62
BRANCH  49  70
ATOM     70  C   UNL A   1      40.298  26.882  28.036  1.00  0.00     0.057 A 
ATOM     71  C   UNL A   1      39.473  25.872  28.543  1.00  0.00     0.134 A 
ATOM     72  C   UNL A   1      40.814  26.707  26.746  1.00  0.00     0.134 A 
ATOM     73  F   UNL A   1      38.960  25.974  29.778  1.00  0.00    -0.206 F 
ATOM     74  C   UNL A   1      39.190  24.720  27.806  1.00  0.00     0.040 A 
ATOM     75  C   UNL A   1      40.517  25.574  25.987  1.00  0.00     0.040 A 
ATOM     76  F   UNL A   1      41.601  27.643  26.197  1.00  0.00    -0.206 F 
ATOM     77  C   UNL A   1      39.709  24.571  26.522  1.00  0.00     0.006 A 
ENDBRANCH  49  70
BRANCH  61  78
ATOM     78  C   UNL A   1      45.819  28.823  31.811  1.00  0.00     0.057 A 
ATOM     79  C   UNL A   1      46.001  28.078  32.983  1.00  0.00     0.134 A 
ATOM     80  C   UNL A   1      46.891  28.887  30.912  1.00  0.00     0.134 A 
ATOM     81  F   UNL A   1      45.019  27.987  33.892  1.00  0.00    -0.206 F 
ATOM     82  C   UNL A   1      47.213  27.444  33.262  1.00  0.00     0.040 A 
ATOM     83  C   UNL A   1      48.097  28.232  31.165  1.00  0.00     0.040 A 
ATOM     84  F   UNL A   1      46.780  29.575  29.766  1.00  0.00    -0.206 F 
ATOM     85  C   UNL A   1      48.263  27.514  32.347  1.00  0.00     0.006 A 
ENDBRANCH  61  78
ENDBRANCH  35  36
ENDBRANCH  27  30
ENDBRANCH  25  26
ENDBRANCH  24  25
ENDBRANCH  23  24
ENDBRANCH  22  23
ENDBRANCH   1  22
TORSDOF 18
ENDMDL
MODEL 2
REMARK VINA RESULT:      -8.3      4.099      7.448
REMARK SMILES CC[C@@H](C)c1ccccc1OCC(C)(C)C(=O)NCCCCCCNC(=O)c1ccc(-c2c3nc(c(-c4c(F)cccc4F)c4ccc([nH]4)c(-c4c(F)cccc4F)c4nc(c(-c5c(F)cccc5F)c5ccc2[nH]5)C=C4)C=C3)cc1
REMARK SMILES IDX 20 1 19 2 18 3 16 4 17 5 13 7 14 8 15 9 12 10 11 11 10 12
REMARK SMILES IDX 5 13 6 14 7 15 9 16 8 17 3 18 4 19 2 20 1 21 21 22 22 23
REMARK SMILES IDX 23 24 24 25 25 26 26 27 27 29 28 30 29 31 81 32 30 33 80 34
REMARK SMILES IDX 31 35 32 36 33 37 74 38 34 39 79 40 73 41 75 42 35 43 78 44
REMARK SMILES IDX 72 45 71 46 36 48 62 49 45 50 61 51 46 52 49 53 60 54 76 55
REMARK SMILES IDX 47 56 48 57 59 59 77 60 50 61 37 62 38 63 43 64 39 65 40 66
REMARK SMILES IDX 42 67 44 68 41 69 63 70 64 71 69 72 65 73 66 74 68 75 70 76
REMARK SMILES IDX 67 77 51 78 52 79 57 80 53 81 54 82 56 83 58 84 55 85
REMARK H PARENT 18 6 25 28 75 47 49 58
REMARK Flexibility Score: inf
ROOT
ATOM      1  C   UNL A   1      31.607  28.615  27.376  1.00  0.00     0.021 C 
ENDROOT
BRANCH   1   2
ATOM      2  C   UNL A   1      32.040  27.493  26.455  1.00  0.00     0.116 C 
BRANCH   2   3
ATOM      3  N   UNL A   1      31.284  27.496  25.210  1.00  0.00    -0.356 N 
ATOM      4  C   UNL A   1      31.690  27.280  23.919  1.00  0.00     0.229 C 
ATOM      5  O   UNL A   1      30.822  27.282  23.046  1.00  0.00    -0.274 OA
ATOM      6  H   UNL A   1      30.323  27.684  25.313  1.00  0.00     0.163 HD
BRANCH   4   7
ATOM      7  C   UNL A   1      33.178  27.048  23.623  1.00  0.00     0.077 C 
ATOM      8  C   UNL A   1      33.872  28.404  23.885  1.00  0.00     0.025 C 
ATOM      9  C   UNL A   1      33.277  26.526  22.160  1.00  0.00     0.025 C 
BRANCH   7  10
ATOM     10  C   UNL A   1      33.752  25.848  24.466  1.00  0.00     0.245 C 
BRANCH  10  11
ATOM     11  O   UNL A   1      34.456  24.803  23.816  1.00  0.00    -0.492 OA
BRANCH  11  12
ATOM     12  C   UNL A   1      34.764  23.591  24.365  1.00  0.00     0.122 A 
ATOM     13  C   UNL A   1      34.057  22.364  24.377  1.00  0.00    -0.003 A 
ATOM     14  C   UNL A   1      34.765  21.227  24.835  1.00  0.00     0.008 A 
ATOM     15  C   UNL A   1      36.096  21.293  25.258  1.00  0.00     0.001 A 
ATOM     16  C   UNL A   1      36.072  23.652  24.885  1.00  0.00     0.047 A 
ATOM     17  C   UNL A   1      36.744  22.514  25.309  1.00  0.00     0.004 A 
BRANCH  13  18
ATOM     18  C   UNL A   1      32.617  22.177  23.898  1.00  0.00     0.019 C 
ATOM     19  C   UNL A   1      32.528  22.205  22.374  1.00  0.00     0.013 C 
BRANCH  18  20
ATOM     20  C   UNL A   1      31.558  23.108  24.554  1.00  0.00     0.005 C 
ATOM     21  C   UNL A   1      30.654  23.795  23.530  1.00  0.00     0.004 C 
ENDBRANCH  18  20
ENDBRANCH  13  18
ENDBRANCH  11  12
ENDBRANCH  10  11
ENDBRANCH   7  10
ENDBRANCH   4   7
ENDBRANCH   2   3
ENDBRANCH   1   2
BRANCH   1  22
ATOM     22  C   UNL A   1      32.271  29.938  27.006  1.00  0.00     0.002 C 
BRANCH  22  23
ATOM     23  C   UNL A   1      31.435  30.817  26.063  1.00  0.00     0.002 C 
BRANCH  23  24
ATOM     24  C   UNL A   1      31.300  32.277  26.507  1.00  0.00     0.021 C 
BRANCH  24  25
ATOM     25  C   UNL A   1      32.530  32.815  27.226  1.00  0.00     0.116 C 
BRANCH  25  26
ATOM     26  N   UNL A   1      32.346  34.201  27.627  1.00  0.00    -0.352 N 
ATOM     27  C   UNL A   1      32.974  34.901  28.616  1.00  0.00     0.251 C 
ATOM     28  H   UNL A   1      31.674  34.703  27.113  1.00  0.00     0.163 HD
ATOM     29  O   UNL A   1      32.537  35.992  28.980  1.00  0.00    -0.269 OA
BRANCH  27  30
ATOM     30  C   UNL A   1      34.173  34.331  29.250  1.00  0.00     0.039 A 
ATOM     31  C   UNL A   1      34.022  33.566  30.407  1.00  0.00     0.014 A 
ATOM     32  C   UNL A   1      35.439  34.548  28.697  1.00  0.00     0.014 A 
ATOM     33  C   UNL A   1      35.143  32.981  30.987  1.00  0.00     0.010 A 
ATOM     34  C   UNL A   1      36.543  33.897  29.230  1.00  0.00     0.010 A 
ATOM     35  C   UNL A   1      36.406  33.117  30.387  1.00  0.00    -0.014 A 
BRANCH  35  36
ATOM     36  C   UNL A   1      37.591  32.437  30.960  1.00  0.00     0.031 A 
ATOM     37  C   UNL A   1      38.224  32.951  32.221  1.00  0.00     0.074 A 
ATOM     38  C   UNL A   1      38.116  31.379  30.314  1.00  0.00     0.049 A 
ATOM     39  N   UNL A   1      39.268  32.494  32.864  1.00  0.00    -0.248 NA
ATOM     40  C   UNL A   1      37.623  34.150  32.826  1.00  0.00     0.031 C 
ATOM     41  C   UNL A   1      37.617  30.826  29.052  1.00  0.00     0.029 A 
ATOM     42  N   UNL A   1      39.184  30.579  30.628  1.00  0.00    -0.354 N 
ATOM     43  C   UNL A   1      39.450  33.349  33.942  1.00  0.00     0.074 A 
ATOM     44  C   UNL A   1      38.450  34.389  33.833  1.00  0.00     0.031 C 
ATOM     45  C   UNL A   1      38.357  29.756  28.719  1.00  0.00     0.029 A 
ATOM     46  C   UNL A   1      39.403  29.573  29.719  1.00  0.00     0.049 A 
ATOM     47  H   UNL A   1      39.741  30.713  31.429  1.00  0.00     0.167 HD
ATOM     48  C   UNL A   1      40.353  33.261  34.947  1.00  0.00     0.037 A 
ATOM     49  C   UNL A   1      40.346  28.613  29.696  1.00  0.00     0.037 A 
ATOM     50  C   UNL A   1      41.337  32.215  35.054  1.00  0.00     0.049 A 
ATOM     51  C   UNL A   1      41.345  28.544  30.815  1.00  0.00     0.074 A 
ATOM     52  C   UNL A   1      42.261  32.001  36.061  1.00  0.00     0.029 A 
ATOM     53  N   UNL A   1      41.529  31.212  34.115  1.00  0.00    -0.354 N 
ATOM     54  N   UNL A   1      41.458  29.313  31.872  1.00  0.00    -0.248 NA
ATOM     55  C   UNL A   1      42.345  27.470  30.744  1.00  0.00     0.031 C 
ATOM     56  C   UNL A   1      43.049  30.902  35.705  1.00  0.00     0.029 A 
ATOM     57  C   UNL A   1      42.577  30.394  34.506  1.00  0.00     0.049 A 
ATOM     58  H   UNL A   1      40.999  31.098  33.294  1.00  0.00     0.167 HD
ATOM     59  C   UNL A   1      42.520  28.800  32.604  1.00  0.00     0.074 A 
ATOM     60  C   UNL A   1      43.007  27.644  31.879  1.00  0.00     0.031 C 
ATOM     61  C   UNL A   1      43.047  29.246  33.771  1.00  0.00     0.037 A 
BRANCH  48  62
ATOM     62  C   UNL A   1      40.319  34.324  36.008  1.00  0.00     0.057 A 
ATOM     63  C   UNL A   1      39.513  34.205  37.149  1.00  0.00     0.134 A 
ATOM     64  C   UNL A   1      41.125  35.464  35.904  1.00  0.00     0.134 A 
ATOM     65  F   UNL A   1      38.707  33.144  37.305  1.00  0.00    -0.206 F 
ATOM     66  C   UNL A   1      39.490  35.195  38.133  1.00  0.00     0.040 A 
ATOM     67  C   UNL A   1      41.134  36.446  36.897  1.00  0.00     0.040 A 
ATOM     68  F   UNL A   1      41.925  35.640  34.841  1.00  0.00    -0.206 F 
ATOM     69  C   UNL A   1      40.309  36.316  38.013  1.00  0.00     0.006 A 
ENDBRANCH  48  62
BRANCH  49  70
ATOM     70  C   UNL A   1      40.372  27.626  28.586  1.00  0.00     0.057 A 
ATOM     71  C   UNL A   1      39.642  26.435  28.660  1.00  0.00     0.134 A 
ATOM     72  C   UNL A   1      41.128  27.848  27.428  1.00  0.00     0.134 A 
ATOM     73  F   UNL A   1      38.910  26.157  29.749  1.00  0.00    -0.206 F 
ATOM     74  C   UNL A   1      39.679  25.489  27.634  1.00  0.00     0.040 A 
ATOM     75  C   UNL A   1      41.153  26.924  26.383  1.00  0.00     0.040 A 
ATOM     76  F   UNL A   1      41.841  28.975  27.290  1.00  0.00    -0.206 F 
ATOM     77  C   UNL A   1      40.433  25.735  26.489  1.00  0.00     0.006 A 
ENDBRANCH  49  70
BRANCH  61  78
ATOM     78  C   UNL A   1      44.188  28.461  34.352  1.00  0.00     0.057 A 
ATOM     79  C   UNL A   1      45.524  28.787  34.087  1.00  0.00     0.134 A 
ATOM     80  C   UNL A   1      43.944  27.385  35.215  1.00  0.00     0.134 A 
ATOM     81  F   UNL A   1      45.826  29.798  33.259  1.00  0.00    -0.206 F 
ATOM     82  C   UNL A   1      46.576  28.053  34.637  1.00  0.00     0.040 A 
ATOM     83  C   UNL A   1      44.988  26.663  35.796  1.00  0.00     0.040 A 
ATOM     84  F   UNL A   1      42.688  27.025  35.520  1.00  0.00    -0.206 F 
ATOM     85  C   UNL A   1      46.309  26.992  35.501  1.00  0.00     0.006 A 
ENDBRANCH  61  78
ENDBRANCH  35  36
ENDBRANCH  27  30
ENDBRANCH  25  26
ENDBRANCH  24  25
ENDBRANCH  23  24
ENDBRANCH  22  23
ENDBRANCH   1  22
TORSDOF 18
ENDMDL
MODEL 3
REMARK VINA RESULT:      -8.2      3.905      9.241
REMARK SMILES CC[C@@H](C)c1ccccc1OCC(C)(C)C(=O)NCCCCCCNC(=O)c1ccc(-c2c3nc(c(-c4c(F)cccc4F)c4ccc([nH]4)c(-c4c(F)cccc4F)c4nc(c(-c5c(F)cccc5F)c5ccc2[nH]5)C=C4)C=C3)cc1
REMARK SMILES IDX 20 1 19 2 18 3 16 4 17 5 13 7 14 8 15 9 12 10 11 11 10 12
REMARK SMILES IDX 5 13 6 14 7 15 9 16 8 17 3 18 4 19 2 20 1 21 21 22 22 23
REMARK SMILES IDX 23 24 24 25 25 26 26 27 27 29 28 30 29 31 81 32 30 33 80 34
REMARK SMILES IDX 31 35 32 36 33 37 74 38 34 39 79 40 73 41 75 42 35 43 78 44
REMARK SMILES IDX 72 45 71 46 36 48 62 49 45 50 61 51 46 52 49 53 60 54 76 55
REMARK SMILES IDX 47 56 48 57 59 59 77 60 50 61 37 62 38 63 43 64 39 65 40 66
REMARK SMILES IDX 42 67 44 68 41 69 63 70 64 71 69 72 65 73 66 74 68 75 70 76
REMARK SMILES IDX 67 77 51 78 52 79 57 80 53 81 54 82 56 83 58 84 55 85
REMARK H PARENT 18 6 25 28 75 47 49 58
REMARK Flexibility Score: inf
ROOT
ATOM      1  C   UNL A   1      31.461  28.378  27.525  1.00  0.00     0.021 C 
ENDROOT
BRANCH   1   2
ATOM      2  C   UNL A   1      31.879  27.158  26.732  1.00  0.00     0.116 C 
BRANCH   2   3
ATOM      3  N   UNL A   1      31.214  27.101  25.438  1.00  0.00    -0.356 N 
ATOM      4  C   UNL A   1      31.704  26.802  24.194  1.00  0.00     0.229 C 
ATOM      5  O   UNL A   1      30.901  26.768  23.262  1.00  0.00    -0.274 OA
ATOM      6  H   UNL A   1      30.252  27.314  25.460  1.00  0.00     0.163 HD
BRANCH   4   7
ATOM      7  C   UNL A   1      33.203  26.523  24.020  1.00  0.00     0.077 C 
ATOM      8  C   UNL A   1      33.901  27.896  24.152  1.00  0.00     0.025 C 
ATOM      9  C   UNL A   1      33.381  25.821  22.642  1.00  0.00     0.025 C 
BRANCH   7  10
ATOM     10  C   UNL A   1      33.708  25.433  25.039  1.00  0.00     0.245 C 
BRANCH  10  11
ATOM     11  O   UNL A   1      32.951  24.251  25.241  1.00  0.00    -0.492 OA
BRANCH  11  12
ATOM     12  C   UNL A   1      33.369  22.982  24.959  1.00  0.00     0.122 A 
ATOM     13  C   UNL A   1      34.656  22.463  24.678  1.00  0.00    -0.003 A 
ATOM     14  C   UNL A   1      34.782  21.053  24.660  1.00  0.00     0.008 A 
ATOM     15  C   UNL A   1      33.702  20.201  24.905  1.00  0.00     0.001 A 
ATOM     16  C   UNL A   1      32.275  22.106  25.108  1.00  0.00     0.047 A 
ATOM     17  C   UNL A   1      32.438  20.727  25.103  1.00  0.00     0.004 A 
BRANCH  13  18
ATOM     18  C   UNL A   1      35.909  23.306  24.436  1.00  0.00     0.019 C 
ATOM     19  C   UNL A   1      36.675  22.826  23.207  1.00  0.00     0.013 C 
BRANCH  18  20
ATOM     20  C   UNL A   1      36.846  23.493  25.663  1.00  0.00     0.005 C 
ATOM     21  C   UNL A   1      37.979  22.467  25.708  1.00  0.00     0.004 C 
ENDBRANCH  18  20
ENDBRANCH  13  18
ENDBRANCH  11  12
ENDBRANCH  10  11
ENDBRANCH   7  10
ENDBRANCH   4   7
ENDBRANCH   2   3
ENDBRANCH   1   2
BRANCH   1  22
ATOM     22  C   UNL A   1      32.299  29.602  27.164  1.00  0.00     0.002 C 
BRANCH  22  23
ATOM     23  C   UNL A   1      31.648  30.522  26.120  1.00  0.00     0.002 C 
BRANCH  23  24
ATOM     24  C   UNL A   1      31.456  31.970  26.580  1.00  0.00     0.021 C 
BRANCH  24  25
ATOM     25  C   UNL A   1      32.661  32.546  27.312  1.00  0.00     0.116 C 
BRANCH  25  26
ATOM     26  N   UNL A   1      32.457  33.945  27.651  1.00  0.00    -0.352 N 
ATOM     27  C   UNL A   1      33.098  34.707  28.586  1.00  0.00     0.251 C 
ATOM     28  H   UNL A   1      31.759  34.408  27.134  1.00  0.00     0.163 HD
ATOM     29  O   UNL A   1      32.646  35.804  28.910  1.00  0.00    -0.269 OA
BRANCH  27  30
ATOM     30  C   UNL A   1      34.327  34.194  29.210  1.00  0.00     0.039 A 
ATOM     31  C   UNL A   1      34.222  33.423  30.367  1.00  0.00     0.014 A 
ATOM     32  C   UNL A   1      35.577  34.471  28.646  1.00  0.00     0.014 A 
ATOM     33  C   UNL A   1      35.375  32.892  30.938  1.00  0.00     0.010 A 
ATOM     34  C   UNL A   1      36.716  33.874  29.170  1.00  0.00     0.010 A 
ATOM     35  C   UNL A   1      36.625  33.088  30.328  1.00  0.00    -0.014 A 
BRANCH  35  36
ATOM     36  C   UNL A   1      37.846  32.466  30.891  1.00  0.00     0.031 A 
ATOM     37  C   UNL A   1      38.417  31.222  30.272  1.00  0.00     0.074 A 
ATOM     38  C   UNL A   1      38.412  33.006  31.986  1.00  0.00     0.049 A 
ATOM     39  N   UNL A   1      39.471  30.534  30.631  1.00  0.00    -0.248 NA
ATOM     40  C   UNL A   1      37.700  30.664  29.116  1.00  0.00     0.031 C 
ATOM     41  C   UNL A   1      37.911  34.182  32.704  1.00  0.00     0.029 A 
ATOM     42  N   UNL A   1      39.531  32.639  32.688  1.00  0.00    -0.354 N 
ATOM     43  C   UNL A   1      39.538  29.462  29.750  1.00  0.00     0.074 A 
ATOM     44  C   UNL A   1      38.385  29.555  28.881  1.00  0.00     0.031 C 
ATOM     45  C   UNL A   1      38.740  34.459  33.723  1.00  0.00     0.029 A 
ATOM     46  C   UNL A   1      39.804  33.461  33.754  1.00  0.00     0.049 A 
ATOM     47  H   UNL A   1      40.085  31.861  32.451  1.00  0.00     0.167 HD
ATOM     48  C   UNL A   1      40.488  28.503  29.659  1.00  0.00     0.037 A 
ATOM     49  C   UNL A   1      40.800  33.411  34.657  1.00  0.00     0.037 A 
ATOM     50  C   UNL A   1      41.638  28.426  30.521  1.00  0.00     0.049 A 
ATOM     51  C   UNL A   1      41.835  32.328  34.543  1.00  0.00     0.074 A 
ATOM     52  C   UNL A   1      42.690  27.527  30.477  1.00  0.00     0.029 A 
ATOM     53  N   UNL A   1      41.883  29.275  31.590  1.00  0.00    -0.354 N 
ATOM     54  N   UNL A   1      41.931  31.366  33.657  1.00  0.00    -0.248 NA
ATOM     55  C   UNL A   1      42.905  32.328  35.549  1.00  0.00     0.031 C 
ATOM     56  C   UNL A   1      43.542  27.798  31.552  1.00  0.00     0.029 A 
ATOM     57  C   UNL A   1      43.054  28.904  32.230  1.00  0.00     0.049 A 
ATOM     58  H   UNL A   1      41.310  30.031  31.853  1.00  0.00     0.167 HD
ATOM     59  C   UNL A   1      43.084  30.664  33.980  1.00  0.00     0.074 A 
ATOM     60  C   UNL A   1      43.663  31.321  35.133  1.00  0.00     0.031 C 
ATOM     61  C   UNL A   1      43.616  29.572  33.378  1.00  0.00     0.037 A 
BRANCH  48  62
ATOM     62  C   UNL A   1      40.322  27.460  28.591  1.00  0.00     0.057 A 
ATOM     63  C   UNL A   1      40.932  27.583  27.334  1.00  0.00     0.134 A 
ATOM     64  C   UNL A   1      39.571  26.303  28.831  1.00  0.00     0.134 A 
ATOM     65  F   UNL A   1      41.655  28.672  27.033  1.00  0.00    -0.206 F 
ATOM     66  C   UNL A   1      40.777  26.607  26.348  1.00  0.00     0.040 A 
ATOM     67  C   UNL A   1      39.434  25.305  27.863  1.00  0.00     0.040 A 
ATOM     68  F   UNL A   1      38.964  26.117  30.013  1.00  0.00    -0.206 F 
ATOM     69  C   UNL A   1      40.033  25.460  26.614  1.00  0.00     0.006 A 
ENDBRANCH  48  62
BRANCH  49  70
ATOM     70  C   UNL A   1      40.879  34.432  35.733  1.00  0.00     0.057 A 
ATOM     71  C   UNL A   1      41.617  35.608  35.562  1.00  0.00     0.134 A 
ATOM     72  C   UNL A   1      40.220  34.257  36.957  1.00  0.00     0.134 A 
ATOM     73  F   UNL A   1      42.282  35.828  34.418  1.00  0.00    -0.206 F 
ATOM     74  C   UNL A   1      41.718  36.563  36.576  1.00  0.00     0.040 A 
ATOM     75  C   UNL A   1      40.289  35.215  37.969  1.00  0.00     0.040 A 
ATOM     76  F   UNL A   1      39.486  33.157  37.180  1.00  0.00    -0.206 F 
ATOM     77  C   UNL A   1      41.049  36.369  37.782  1.00  0.00     0.006 A 
ENDBRANCH  49  70
BRANCH  61  78
ATOM     78  C   UNL A   1      44.905  29.042  33.936  1.00  0.00     0.057 A 
ATOM     79  C   UNL A   1      44.934  28.036  34.911  1.00  0.00     0.134 A 
ATOM     80  C   UNL A   1      46.134  29.521  33.466  1.00  0.00     0.134 A 
ATOM     81  F   UNL A   1      43.792  27.543  35.413  1.00  0.00    -0.206 F 
ATOM     82  C   UNL A   1      46.138  27.547  35.419  1.00  0.00     0.040 A 
ATOM     83  C   UNL A   1      47.346  29.018  33.943  1.00  0.00     0.040 A 
ATOM     84  F   UNL A   1      46.179  30.477  32.525  1.00  0.00    -0.206 F 
ATOM     85  C   UNL A   1      47.349  28.034  34.928  1.00  0.00     0.006 A 
ENDBRANCH  61  78
ENDBRANCH  35  36
ENDBRANCH  27  30
ENDBRANCH  25  26
ENDBRANCH  24  25
ENDBRANCH  23  24
ENDBRANCH  22  23
ENDBRANCH   1  22
TORSDOF 18
ENDMDL
