MODEL 1
REMARK VINA RESULT:     -11.5      0.000      0.000
REMARK SMILES CC(C)c1ccc2c(c1)c(SC(C)(C)C)c(CC(C)(C)C(=O)NCCCCCCNC(=O)c1ccc(-c3c4nc(c(-c5c(F)cccc5F)c5ccc([nH]5)c(-c5c(F)cccc5F)c5nc(c(-c6c(F)cccc6F)c6ccc3[nH]6)C=C5)C=C4)cc1)n2Cc1ccc(Cl)cc1
REMARK SMILES IDX 25 1 24 2 23 3 21 4 22 5 18 7 19 8 20 9 17 10 16 11 4 12
REMARK SMILES IDX 5 13 9 14 6 15 8 16 7 17 10 18 87 19 2 20 1 21 3 22 11 23
REMARK SMILES IDX 12 24 13 25 14 26 15 27 88 28 89 29 90 30 95 31 91 32 94 33
REMARK SMILES IDX 92 34 93 35 26 36 27 37 28 38 29 39 30 40 31 41 32 43 33 44
REMARK SMILES IDX 34 45 86 46 35 47 85 48 36 49 37 50 38 51 79 52 39 53 84 54
REMARK SMILES IDX 78 55 80 56 40 57 83 58 77 59 76 60 41 62 67 63 50 64 66 65
REMARK SMILES IDX 51 66 54 67 65 68 81 69 52 70 53 71 64 73 82 74 55 75 42 76
REMARK SMILES IDX 43 77 48 78 44 79 45 80 47 81 49 82 46 83 68 84 69 85 74 86
REMARK SMILES IDX 70 87 71 88 73 89 75 90 72 91 56 92 57 93 62 94 58 95 59 96
REMARK SMILES IDX 61 97 63 98 60 99
REMARK H PARENT 23 6 30 42 80 61 54 72
REMARK Flexibility Score: inf
ROOT
ATOM      1  C   UNL A   1      34.341  22.038  23.407  1.00  0.00     0.021 C 
ENDROOT
BRANCH   1   2
ATOM      2  C   UNL A   1      32.979  22.488  22.934  1.00  0.00     0.116 C 
BRANCH   2   3
ATOM      3  N   UNL A   1      32.990  22.860  21.536  1.00  0.00    -0.356 N 
ATOM      4  C   UNL A   1      32.852  24.105  20.979  1.00  0.00     0.226 C 
ATOM      5  O   UNL A   1      33.280  24.243  19.842  1.00  0.00    -0.275 OA
ATOM      6  H   UNL A   1      33.113  22.120  20.899  1.00  0.00     0.163 HD
BRANCH   4   7
ATOM      7  C   UNL A   1      32.405  25.277  21.864  1.00  0.00     0.049 C 
ATOM      8  C   UNL A   1      31.460  25.979  20.861  1.00  0.00     0.022 C 
ATOM      9  C   UNL A   1      33.656  26.061  22.359  1.00  0.00     0.022 C 
BRANCH   7  10
ATOM     10  C   UNL A   1      31.689  24.909  23.201  1.00  0.00     0.071 C 
BRANCH  10  11
ATOM     11  C   UNL A   1      31.794  25.868  24.315  1.00  0.00     0.034 A 
ATOM     12  C   UNL A   1      33.139  29.315  27.129  1.00  0.00    -0.045 A 
ATOM     13  C   UNL A   1      32.056  29.922  26.481  1.00  0.00     0.006 A 
ATOM     14  C   UNL A   1      33.386  27.955  26.846  1.00  0.00     0.015 A 
ATOM     15  C   UNL A   1      31.247  29.229  25.569  1.00  0.00     0.027 A 
ATOM     16  C   UNL A   1      32.600  27.220  25.917  1.00  0.00     0.014 A 
ATOM     17  C   UNL A   1      31.554  27.892  25.276  1.00  0.00     0.050 A 
ATOM     18  C   UNL A   1      32.657  25.871  25.404  1.00  0.00     0.037 A 
ATOM     19  N   UNL A   1      30.981  27.000  24.383  1.00  0.00    -0.339 N 
BRANCH  12  20
ATOM     20  C   UNL A   1      34.102  30.116  28.010  1.00  0.00     0.013 C 
ATOM     21  C   UNL A   1      35.564  29.644  27.964  1.00  0.00     0.012 C 
ATOM     22  C   UNL A   1      34.083  31.626  27.727  1.00  0.00     0.012 C 
ENDBRANCH  12  20
BRANCH  18  23
ATOM     23  S   UNL A   1      33.888  24.732  25.997  1.00  0.00    -0.118 SA
BRANCH  23  24
ATOM     24  C   UNL A   1      33.365  23.221  26.948  1.00  0.00     0.012 C 
ATOM     25  C   UNL A   1      33.535  21.947  26.116  1.00  0.00     0.023 C 
ATOM     26  C   UNL A   1      33.875  22.949  28.380  1.00  0.00     0.023 C 
ATOM     27  C   UNL A   1      31.851  23.481  27.187  1.00  0.00     0.023 C 
ENDBRANCH  23  24
ENDBRANCH  18  23
BRANCH  19  28
ATOM     28  C   UNL A   1      29.624  27.174  23.803  1.00  0.00     0.158 C 
BRANCH  28  29
ATOM     29  C   UNL A   1      29.301  28.494  23.126  1.00  0.00    -0.028 A 
ATOM     30  C   UNL A   1      28.049  29.114  23.318  1.00  0.00     0.007 A 
ATOM     31  C   UNL A   1      30.218  29.125  22.269  1.00  0.00     0.007 A 
ATOM     32  C   UNL A   1      27.657  30.212  22.546  1.00  0.00     0.021 A 
ATOM     33  C   UNL A   1      29.842  30.258  21.527  1.00  0.00     0.021 A 
ATOM     34  C   UNL A   1      28.550  30.764  21.635  1.00  0.00     0.041 A 
ATOM     35  Cl  UNL A   1      28.035  32.051  20.613  1.00  0.00    -0.084 Cl
ENDBRANCH  28  29
ENDBRANCH  19  28
ENDBRANCH  10  11
ENDBRANCH   7  10
ENDBRANCH   4   7
ENDBRANCH   2   3
ENDBRANCH   1   2
BRANCH   1  36
ATOM     36  C   UNL A   1      35.456  22.862  22.779  1.00  0.00     0.002 C 
BRANCH  36  37
ATOM     37  C   UNL A   1      36.461  23.428  23.790  1.00  0.00     0.002 C 
BRANCH  37  38
ATOM     38  C   UNL A   1      37.035  22.404  24.779  1.00  0.00     0.021 C 
BRANCH  38  39
ATOM     39  C   UNL A   1      37.689  23.030  26.012  1.00  0.00     0.116 C 
BRANCH  39  40
ATOM     40  N   UNL A   1      38.900  22.352  26.418  1.00  0.00    -0.352 N 
ATOM     41  C   UNL A   1      40.039  22.738  27.059  1.00  0.00     0.251 C 
ATOM     42  H   UNL A   1      38.901  21.397  26.177  1.00  0.00     0.163 HD
ATOM     43  O   UNL A   1      40.927  21.889  27.159  1.00  0.00    -0.269 OA
BRANCH  41  44
ATOM     44  C   UNL A   1      40.280  24.100  27.604  1.00  0.00     0.039 A 
ATOM     45  C   UNL A   1      41.479  24.552  28.156  1.00  0.00     0.014 A 
ATOM     46  C   UNL A   1      39.198  24.994  27.528  1.00  0.00     0.014 A 
ATOM     47  C   UNL A   1      41.580  25.830  28.687  1.00  0.00     0.010 A 
ATOM     48  C   UNL A   1      39.308  26.292  28.015  1.00  0.00     0.010 A 
ATOM     49  C   UNL A   1      40.491  26.698  28.627  1.00  0.00    -0.014 A 
BRANCH  49  50
ATOM     50  C   UNL A   1      40.685  28.049  29.146  1.00  0.00     0.031 A 
ATOM     51  C   UNL A   1      41.787  28.844  28.524  1.00  0.00     0.074 A 
ATOM     52  C   UNL A   1      39.857  28.614  30.044  1.00  0.00     0.049 A 
ATOM     53  N   UNL A   1      42.788  29.429  29.103  1.00  0.00    -0.248 NA
ATOM     54  C   UNL A   1      41.797  28.954  27.057  1.00  0.00     0.031 C 
ATOM     55  C   UNL A   1      38.582  28.091  30.542  1.00  0.00     0.029 A 
ATOM     56  N   UNL A   1      39.941  29.846  30.622  1.00  0.00    -0.354 N 
ATOM     57  C   UNL A   1      43.463  30.124  28.098  1.00  0.00     0.074 A 
ATOM     58  C   UNL A   1      42.871  29.715  26.851  1.00  0.00     0.031 C 
ATOM     59  C   UNL A   1      37.912  29.085  31.162  1.00  0.00     0.029 A 
ATOM     60  C   UNL A   1      38.763  30.262  31.219  1.00  0.00     0.049 A 
ATOM     61  H   UNL A   1      40.761  30.390  30.614  1.00  0.00     0.167 HD
ATOM     62  C   UNL A   1      44.333  31.133  28.372  1.00  0.00     0.037 A 
ATOM     63  C   UNL A   1      38.474  31.502  31.672  1.00  0.00     0.037 A 
ATOM     64  C   UNL A   1      44.818  31.078  29.724  1.00  0.00     0.049 A 
ATOM     65  C   UNL A   1      39.746  32.232  31.877  1.00  0.00     0.074 A 
ATOM     66  C   UNL A   1      45.559  30.188  30.474  1.00  0.00     0.029 A 
ATOM     67  N   UNL A   1      44.317  31.987  30.619  1.00  0.00    -0.354 N 
ATOM     68  N   UNL A   1      40.606  31.965  32.819  1.00  0.00    -0.248 NA
ATOM     69  C   UNL A   1      40.244  33.074  30.801  1.00  0.00     0.031 C 
ATOM     70  C   UNL A   1      45.094  30.345  31.814  1.00  0.00     0.029 A 
ATOM     71  C   UNL A   1      44.100  31.325  31.795  1.00  0.00     0.049 A 
ATOM     72  H   UNL A   1      44.145  32.941  30.446  1.00  0.00     0.167 HD
ATOM     73  C   UNL A   1      41.842  32.245  32.258  1.00  0.00     0.074 A 
ATOM     74  C   UNL A   1      41.549  33.053  31.081  1.00  0.00     0.031 C 
ATOM     75  C   UNL A   1      42.958  31.562  32.644  1.00  0.00     0.037 A 
BRANCH  62  76
ATOM     76  C   UNL A   1      44.468  32.388  27.538  1.00  0.00     0.057 A 
ATOM     77  C   UNL A   1      43.771  33.583  27.805  1.00  0.00     0.134 A 
ATOM     78  C   UNL A   1      45.562  32.518  26.660  1.00  0.00     0.134 A 
ATOM     79  F   UNL A   1      42.747  33.638  28.665  1.00  0.00    -0.206 F 
ATOM     80  C   UNL A   1      44.158  34.818  27.276  1.00  0.00     0.040 A 
ATOM     81  C   UNL A   1      45.987  33.758  26.166  1.00  0.00     0.040 A 
ATOM     82  F   UNL A   1      46.311  31.455  26.328  1.00  0.00    -0.206 F 
ATOM     83  C   UNL A   1      45.292  34.917  26.485  1.00  0.00     0.006 A 
ENDBRANCH  62  76
BRANCH  63  84
ATOM     84  C   UNL A   1      37.157  32.167  31.716  1.00  0.00     0.057 A 
ATOM     85  C   UNL A   1      36.436  32.283  32.919  1.00  0.00     0.134 A 
ATOM     86  C   UNL A   1      36.462  32.490  30.546  1.00  0.00     0.134 A 
ATOM     87  F   UNL A   1      36.975  31.913  34.089  1.00  0.00    -0.206 F 
ATOM     88  C   UNL A   1      35.105  32.704  32.957  1.00  0.00     0.040 A 
ATOM     89  C   UNL A   1      35.123  32.902  30.568  1.00  0.00     0.040 A 
ATOM     90  F   UNL A   1      37.049  32.364  29.348  1.00  0.00    -0.206 F 
ATOM     91  C   UNL A   1      34.439  33.005  31.776  1.00  0.00     0.006 A 
ENDBRANCH  63  84
BRANCH  75  92
ATOM     92  C   UNL A   1      42.873  30.758  33.907  1.00  0.00     0.057 A 
ATOM     93  C   UNL A   1      43.408  31.288  35.087  1.00  0.00     0.134 A 
ATOM     94  C   UNL A   1      42.392  29.442  33.959  1.00  0.00     0.134 A 
ATOM     95  F   UNL A   1      43.944  32.518  35.094  1.00  0.00    -0.206 F 
ATOM     96  C   UNL A   1      43.443  30.552  36.272  1.00  0.00     0.040 A 
ATOM     97  C   UNL A   1      42.392  28.706  35.147  1.00  0.00     0.040 A 
ATOM     98  F   UNL A   1      41.962  28.819  32.854  1.00  0.00    -0.206 F 
ATOM     99  C   UNL A   1      42.921  29.261  36.308  1.00  0.00     0.006 A 
ENDBRANCH  75  92
ENDBRANCH  49  50
ENDBRANCH  41  44
ENDBRANCH  39  40
ENDBRANCH  38  39
ENDBRANCH  37  38
ENDBRANCH  36  37
ENDBRANCH   1  36
TORSDOF 20
ENDMDL
MODEL 2
REMARK VINA RESULT:     -11.4      4.623     10.405
REMARK SMILES CC(C)c1ccc2c(c1)c(SC(C)(C)C)c(CC(C)(C)C(=O)NCCCCCCNC(=O)c1ccc(-c3c4nc(c(-c5c(F)cccc5F)c5ccc([nH]5)c(-c5c(F)cccc5F)c5nc(c(-c6c(F)cccc6F)c6ccc3[nH]6)C=C5)C=C4)cc1)n2Cc1ccc(Cl)cc1
REMARK SMILES IDX 25 1 24 2 23 3 21 4 22 5 18 7 19 8 20 9 17 10 16 11 4 12
REMARK SMILES IDX 5 13 9 14 6 15 8 16 7 17 10 18 87 19 2 20 1 21 3 22 11 23
REMARK SMILES IDX 12 24 13 25 14 26 15 27 88 28 89 29 90 30 95 31 91 32 94 33
REMARK SMILES IDX 92 34 93 35 26 36 27 37 28 38 29 39 30 40 31 41 32 43 33 44
REMARK SMILES IDX 34 45 86 46 35 47 85 48 36 49 37 50 38 51 79 52 39 53 84 54
REMARK SMILES IDX 78 55 80 56 40 57 83 58 77 59 76 60 41 62 67 63 50 64 66 65
REMARK SMILES IDX 51 66 54 67 65 68 81 69 52 70 53 71 64 73 82 74 55 75 42 76
REMARK SMILES IDX 43 77 48 78 44 79 45 80 47 81 49 82 46 83 68 84 69 85 74 86
REMARK SMILES IDX 70 87 71 88 73 89 75 90 72 91 56 92 57 93 62 94 58 95 59 96
REMARK SMILES IDX 61 97 63 98 60 99
REMARK H PARENT 23 6 30 42 80 61 54 72
REMARK Flexibility Score: inf
ROOT
ATOM      1  C   UNL A   1      38.727  29.338  27.634  1.00  0.00     0.021 C 
ENDROOT
BRANCH   1   2
ATOM      2  C   UNL A   1      39.696  28.676  28.585  1.00  0.00     0.116 C 
BRANCH   2   3
ATOM      3  N   UNL A   1      41.046  28.673  28.064  1.00  0.00    -0.356 N 
ATOM      4  C   UNL A   1      41.723  27.653  27.447  1.00  0.00     0.226 C 
ATOM      5  O   UNL A   1      42.674  27.977  26.749  1.00  0.00    -0.275 OA
ATOM      6  H   UNL A   1      41.544  29.515  28.166  1.00  0.00     0.163 HD
BRANCH   4   7
ATOM      7  C   UNL A   1      41.131  26.238  27.469  1.00  0.00     0.049 C 
ATOM      8  C   UNL A   1      40.800  26.100  25.965  1.00  0.00     0.022 C 
ATOM      9  C   UNL A   1      39.950  26.185  28.483  1.00  0.00     0.022 C 
BRANCH   7  10
ATOM     10  C   UNL A   1      42.065  25.097  27.982  1.00  0.00     0.071 C 
BRANCH  10  11
ATOM     11  C   UNL A   1      42.340  23.979  27.063  1.00  0.00     0.034 A 
ATOM     12  C   UNL A   1      44.154  20.214  25.028  1.00  0.00    -0.045 A 
ATOM     13  C   UNL A   1      43.032  19.653  25.650  1.00  0.00     0.006 A 
ATOM     14  C   UNL A   1      44.305  21.615  25.102  1.00  0.00     0.015 A 
ATOM     15  C   UNL A   1      42.094  20.431  26.341  1.00  0.00     0.027 A 
ATOM     16  C   UNL A   1      43.385  22.439  25.806  1.00  0.00     0.014 A 
ATOM     17  C   UNL A   1      42.304  21.815  26.437  1.00  0.00     0.050 A 
ATOM     18  C   UNL A   1      43.321  23.855  26.088  1.00  0.00     0.037 A 
ATOM     19  N   UNL A   1      41.592  22.802  27.101  1.00  0.00    -0.339 N 
BRANCH  12  20
ATOM     20  C   UNL A   1      45.247  19.344  24.400  1.00  0.00     0.013 C 
ATOM     21  C   UNL A   1      45.051  19.036  22.907  1.00  0.00     0.012 C 
ATOM     22  C   UNL A   1      46.664  19.909  24.585  1.00  0.00     0.012 C 
ENDBRANCH  12  20
BRANCH  18  23
ATOM     23  S   UNL A   1      44.560  24.958  25.445  1.00  0.00    -0.118 SA
BRANCH  23  24
ATOM     24  C   UNL A   1      46.165  25.175  26.362  1.00  0.00     0.012 C 
ATOM     25  C   UNL A   1      46.355  24.093  27.426  1.00  0.00     0.023 C 
ATOM     26  C   UNL A   1      47.502  25.375  25.615  1.00  0.00     0.023 C 
ATOM     27  C   UNL A   1      45.972  26.552  27.056  1.00  0.00     0.023 C 
ENDBRANCH  23  24
ENDBRANCH  18  23
BRANCH  19  28
ATOM     28  C   UNL A   1      40.187  22.638  27.555  1.00  0.00     0.158 C 
BRANCH  28  29
ATOM     29  C   UNL A   1      39.090  22.653  26.505  1.00  0.00    -0.028 A 
ATOM     30  C   UNL A   1      38.318  23.812  26.288  1.00  0.00     0.007 A 
ATOM     31  C   UNL A   1      38.789  21.515  25.739  1.00  0.00     0.007 A 
ATOM     32  C   UNL A   1      37.176  23.784  25.481  1.00  0.00     0.021 A 
ATOM     33  C   UNL A   1      37.670  21.499  24.890  1.00  0.00     0.021 A 
ATOM     34  C   UNL A   1      36.844  22.616  24.804  1.00  0.00     0.041 A 
ATOM     35  Cl  UNL A   1      35.386  22.549  23.891  1.00  0.00    -0.084 Cl
ENDBRANCH  28  29
ENDBRANCH  19  28
ENDBRANCH  10  11
ENDBRANCH   7  10
ENDBRANCH   4   7
ENDBRANCH   2   3
ENDBRANCH   1   2
BRANCH   1  36
ATOM     36  C   UNL A   1      37.524  29.913  28.367  1.00  0.00     0.002 C 
BRANCH  36  37
ATOM     37  C   UNL A   1      36.208  29.176  28.085  1.00  0.00     0.002 C 
BRANCH  37  38
ATOM     38  C   UNL A   1      34.999  30.084  27.821  1.00  0.00     0.021 C 
BRANCH  38  39
ATOM     39  C   UNL A   1      35.363  31.551  27.584  1.00  0.00     0.116 C 
BRANCH  39  40
ATOM     40  N   UNL A   1      34.493  32.471  28.282  1.00  0.00    -0.352 N 
ATOM     41  C   UNL A   1      34.543  33.098  29.491  1.00  0.00     0.251 C 
ATOM     42  H   UNL A   1      33.685  32.695  27.768  1.00  0.00     0.163 HD
ATOM     43  O   UNL A   1      33.553  33.762  29.806  1.00  0.00    -0.269 OA
BRANCH  41  44
ATOM     44  C   UNL A   1      35.681  33.004  30.444  1.00  0.00     0.039 A 
ATOM     45  C   UNL A   1      36.742  33.905  30.530  1.00  0.00     0.014 A 
ATOM     46  C   UNL A   1      35.651  31.917  31.334  1.00  0.00     0.014 A 
ATOM     47  C   UNL A   1      37.785  33.693  31.421  1.00  0.00     0.010 A 
ATOM     48  C   UNL A   1      36.668  31.725  32.262  1.00  0.00     0.010 A 
ATOM     49  C   UNL A   1      37.754  32.597  32.281  1.00  0.00    -0.014 A 
BRANCH  49  50
ATOM     50  C   UNL A   1      38.850  32.468  33.238  1.00  0.00     0.031 A 
ATOM     51  C   UNL A   1      38.757  33.314  34.467  1.00  0.00     0.074 A 
ATOM     52  C   UNL A   1      39.834  31.561  33.106  1.00  0.00     0.049 A 
ATOM     53  N   UNL A   1      39.620  34.160  34.934  1.00  0.00    -0.248 NA
ATOM     54  C   UNL A   1      37.510  33.241  35.245  1.00  0.00     0.031 C 
ATOM     55  C   UNL A   1      39.928  30.475  32.127  1.00  0.00     0.029 A 
ATOM     56  N   UNL A   1      40.918  31.357  33.909  1.00  0.00    -0.354 N 
ATOM     57  C   UNL A   1      39.107  34.602  36.154  1.00  0.00     0.074 A 
ATOM     58  C   UNL A   1      37.766  34.084  36.245  1.00  0.00     0.031 C 
ATOM     59  C   UNL A   1      40.876  29.602  32.527  1.00  0.00     0.029 A 
ATOM     60  C   UNL A   1      41.538  30.136  33.706  1.00  0.00     0.049 A 
ATOM     61  H   UNL A   1      41.229  32.016  34.571  1.00  0.00     0.167 HD
ATOM     62  C   UNL A   1      39.885  35.204  37.094  1.00  0.00     0.037 A 
ATOM     63  C   UNL A   1      42.484  29.566  34.485  1.00  0.00     0.037 A 
ATOM     64  C   UNL A   1      41.096  35.738  36.533  1.00  0.00     0.049 A 
ATOM     65  C   UNL A   1      43.107  30.622  35.313  1.00  0.00     0.074 A 
ATOM     66  C   UNL A   1      41.413  36.705  35.600  1.00  0.00     0.029 A 
ATOM     67  N   UNL A   1      42.263  35.061  36.774  1.00  0.00    -0.354 N 
ATOM     68  N   UNL A   1      43.889  31.557  34.852  1.00  0.00    -0.248 NA
ATOM     69  C   UNL A   1      42.582  30.855  36.651  1.00  0.00     0.031 C 
ATOM     70  C   UNL A   1      42.631  36.266  35.002  1.00  0.00     0.029 A 
ATOM     71  C   UNL A   1      42.982  35.060  35.610  1.00  0.00     0.049 A 
ATOM     72  H   UNL A   1      42.533  34.650  37.627  1.00  0.00     0.167 HD
ATOM     73  C   UNL A   1      43.625  32.662  35.644  1.00  0.00     0.074 A 
ATOM     74  C   UNL A   1      42.930  32.134  36.812  1.00  0.00     0.031 C 
ATOM     75  C   UNL A   1      43.745  33.927  35.147  1.00  0.00     0.037 A 
BRANCH  62  76
ATOM     76  C   UNL A   1      39.735  34.992  38.584  1.00  0.00     0.057 A 
ATOM     77  C   UNL A   1      39.209  35.960  39.462  1.00  0.00     0.134 A 
ATOM     78  C   UNL A   1      39.797  33.685  39.104  1.00  0.00     0.134 A 
ATOM     79  F   UNL A   1      39.029  37.235  39.098  1.00  0.00    -0.206 F 
ATOM     80  C   UNL A   1      38.739  35.645  40.741  1.00  0.00     0.040 A 
ATOM     81  C   UNL A   1      39.282  33.351  40.364  1.00  0.00     0.040 A 
ATOM     82  F   UNL A   1      40.273  32.670  38.367  1.00  0.00    -0.206 F 
ATOM     83  C   UNL A   1      38.739  34.332  41.182  1.00  0.00     0.006 A 
ENDBRANCH  62  76
BRANCH  63  84
ATOM     84  C   UNL A   1      42.718  28.127  34.719  1.00  0.00     0.057 A 
ATOM     85  C   UNL A   1      43.551  27.374  33.872  1.00  0.00     0.134 A 
ATOM     86  C   UNL A   1      41.945  27.399  35.631  1.00  0.00     0.134 A 
ATOM     87  F   UNL A   1      44.267  27.962  32.902  1.00  0.00    -0.206 F 
ATOM     88  C   UNL A   1      43.620  25.980  33.933  1.00  0.00     0.040 A 
ATOM     89  C   UNL A   1      41.994  26.001  35.695  1.00  0.00     0.040 A 
ATOM     90  F   UNL A   1      41.084  28.025  36.446  1.00  0.00    -0.206 F 
ATOM     91  C   UNL A   1      42.829  25.287  34.840  1.00  0.00     0.006 A 
ENDBRANCH  63  84
BRANCH  75  92
ATOM     92  C   UNL A   1      44.487  34.092  33.854  1.00  0.00     0.057 A 
ATOM     93  C   UNL A   1      45.823  34.507  33.884  1.00  0.00     0.134 A 
ATOM     94  C   UNL A   1      43.885  33.971  32.593  1.00  0.00     0.134 A 
ATOM     95  F   UNL A   1      46.443  34.706  35.058  1.00  0.00    -0.206 F 
ATOM     96  C   UNL A   1      46.537  34.768  32.715  1.00  0.00     0.040 A 
ATOM     97  C   UNL A   1      44.599  34.197  31.414  1.00  0.00     0.040 A 
ATOM     98  F   UNL A   1      42.582  33.682  32.474  1.00  0.00    -0.206 F 
ATOM     99  C   UNL A   1      45.930  34.599  31.473  1.00  0.00     0.006 A 
ENDBRANCH  75  92
ENDBRANCH  49  50
ENDBRANCH  41  44
ENDBRANCH  39  40
ENDBRANCH  38  39
ENDBRANCH  37  38
ENDBRANCH  36  37
ENDBRANCH   1  36
TORSDOF 20
ENDMDL
MODEL 3
REMARK VINA RESULT:     -11.3      4.385      9.765
REMARK SMILES CC(C)c1ccc2c(c1)c(SC(C)(C)C)c(CC(C)(C)C(=O)NCCCCCCNC(=O)c1ccc(-c3c4nc(c(-c5c(F)cccc5F)c5ccc([nH]5)c(-c5c(F)cccc5F)c5nc(c(-c6c(F)cccc6F)c6ccc3[nH]6)C=C5)C=C4)cc1)n2Cc1ccc(Cl)cc1
REMARK SMILES IDX 25 1 24 2 23 3 21 4 22 5 18 7 19 8 20 9 17 10 16 11 4 12
REMARK SMILES IDX 5 13 9 14 6 15 8 16 7 17 10 18 87 19 2 20 1 21 3 22 11 23
REMARK SMILES IDX 12 24 13 25 14 26 15 27 88 28 89 29 90 30 95 31 91 32 94 33
REMARK SMILES IDX 92 34 93 35 26 36 27 37 28 38 29 39 30 40 31 41 32 43 33 44
REMARK SMILES IDX 34 45 86 46 35 47 85 48 36 49 37 50 38 51 79 52 39 53 84 54
REMARK SMILES IDX 78 55 80 56 40 57 83 58 77 59 76 60 41 62 67 63 50 64 66 65
REMARK SMILES IDX 51 66 54 67 65 68 81 69 52 70 53 71 64 73 82 74 55 75 42 76
REMARK SMILES IDX 43 77 48 78 44 79 45 80 47 81 49 82 46 83 68 84 69 85 74 86
REMARK SMILES IDX 70 87 71 88 73 89 75 90 72 91 56 92 57 93 62 94 58 95 59 96
REMARK SMILES IDX 61 97 63 98 60 99
REMARK H PARENT 23 6 30 42 80 61 54 72
REMARK Flexibility Score: inf
ROOT
ATOM      1  C   UNL A   1      38.708  29.609  27.661  1.00  0.00     0.021 C 
ENDROOT
BRANCH   1   2
ATOM      2  C   UNL A   1      39.392  28.537  28.476  1.00  0.00     0.116 C 
BRANCH   2   3
ATOM      3  N   UNL A   1      40.822  28.526  28.260  1.00  0.00    -0.356 N 
ATOM      4  C   UNL A   1      41.609  27.510  27.784  1.00  0.00     0.226 C 
ATOM      5  O   UNL A   1      42.692  27.834  27.316  1.00  0.00    -0.275 OA
ATOM      6  H   UNL A   1      41.294  29.360  28.486  1.00  0.00     0.163 HD
BRANCH   4   7
ATOM      7  C   UNL A   1      41.014  26.101  27.647  1.00  0.00     0.049 C 
ATOM      8  C   UNL A   1      40.838  26.071  26.111  1.00  0.00     0.022 C 
ATOM      9  C   UNL A   1      39.736  25.990  28.530  1.00  0.00     0.022 C 
BRANCH   7  10
ATOM     10  C   UNL A   1      41.888  24.920  28.171  1.00  0.00     0.071 C 
BRANCH  10  11
ATOM     11  C   UNL A   1      42.171  23.816  27.237  1.00  0.00     0.034 A 
ATOM     12  C   UNL A   1      43.942  20.032  25.199  1.00  0.00    -0.045 A 
ATOM     13  C   UNL A   1      42.761  19.504  25.736  1.00  0.00     0.006 A 
ATOM     14  C   UNL A   1      44.148  21.422  25.325  1.00  0.00     0.015 A 
ATOM     15  C   UNL A   1      41.817  20.304  26.394  1.00  0.00     0.027 A 
ATOM     16  C   UNL A   1      43.223  22.267  25.997  1.00  0.00     0.014 A 
ATOM     17  C   UNL A   1      42.080  21.674  26.544  1.00  0.00     0.050 A 
ATOM     18  C   UNL A   1      43.203  23.675  26.318  1.00  0.00     0.037 A 
ATOM     19  N   UNL A   1      41.372  22.673  27.194  1.00  0.00    -0.339 N 
BRANCH  12  20
ATOM     20  C   UNL A   1      45.033  19.132  24.612  1.00  0.00     0.013 C 
ATOM     21  C   UNL A   1      45.138  19.160  23.078  1.00  0.00     0.012 C 
ATOM     22  C   UNL A   1      46.431  19.405  25.187  1.00  0.00     0.012 C 
ENDBRANCH  12  20
BRANCH  18  23
ATOM     23  S   UNL A   1      44.525  24.740  25.784  1.00  0.00    -0.118 SA
BRANCH  23  24
ATOM     24  C   UNL A   1      45.995  25.011  26.893  1.00  0.00     0.012 C 
ATOM     25  C   UNL A   1      45.843  24.263  28.219  1.00  0.00     0.023 C 
ATOM     26  C   UNL A   1      47.439  24.824  26.381  1.00  0.00     0.023 C 
ATOM     27  C   UNL A   1      45.939  26.542  27.156  1.00  0.00     0.023 C 
ENDBRANCH  23  24
ENDBRANCH  18  23
BRANCH  19  28
ATOM     28  C   UNL A   1      39.936  22.559  27.559  1.00  0.00     0.158 C 
BRANCH  28  29
ATOM     29  C   UNL A   1      38.908  22.638  26.444  1.00  0.00    -0.028 A 
ATOM     30  C   UNL A   1      38.175  23.823  26.225  1.00  0.00     0.007 A 
ATOM     31  C   UNL A   1      38.631  21.536  25.619  1.00  0.00     0.007 A 
ATOM     32  C   UNL A   1      37.086  23.851  25.348  1.00  0.00     0.021 A 
ATOM     33  C   UNL A   1      37.566  21.577  24.704  1.00  0.00     0.021 A 
ATOM     34  C   UNL A   1      36.772  22.716  24.609  1.00  0.00     0.041 A 
ATOM     35  Cl  UNL A   1      35.372  22.716  23.606  1.00  0.00    -0.084 Cl
ENDBRANCH  28  29
ENDBRANCH  19  28
ENDBRANCH  10  11
ENDBRANCH   7  10
ENDBRANCH   4   7
ENDBRANCH   2   3
ENDBRANCH   1   2
BRANCH   1  36
ATOM     36  C   UNL A   1      37.416  30.075  28.316  1.00  0.00     0.002 C 
BRANCH  36  37
ATOM     37  C   UNL A   1      36.192  29.221  27.965  1.00  0.00     0.002 C 
BRANCH  37  38
ATOM     38  C   UNL A   1      34.854  29.974  27.956  1.00  0.00     0.021 C 
BRANCH  38  39
ATOM     39  C   UNL A   1      34.972  31.443  27.544  1.00  0.00     0.116 C 
BRANCH  39  40
ATOM     40  N   UNL A   1      34.328  32.345  28.473  1.00  0.00    -0.352 N 
ATOM     41  C   UNL A   1      34.689  32.907  29.661  1.00  0.00     0.251 C 
ATOM     42  H   UNL A   1      33.427  32.613  28.181  1.00  0.00     0.163 HD
ATOM     43  O   UNL A   1      33.828  33.576  30.236  1.00  0.00    -0.269 OA
BRANCH  41  44
ATOM     44  C   UNL A   1      36.020  32.740  30.303  1.00  0.00     0.039 A 
ATOM     45  C   UNL A   1      37.203  33.351  29.889  1.00  0.00     0.014 A 
ATOM     46  C   UNL A   1      36.058  31.903  31.431  1.00  0.00     0.014 A 
ATOM     47  C   UNL A   1      38.405  33.082  30.528  1.00  0.00     0.010 A 
ATOM     48  C   UNL A   1      37.250  31.667  32.107  1.00  0.00     0.010 A 
ATOM     49  C   UNL A   1      38.432  32.231  31.631  1.00  0.00    -0.014 A 
BRANCH  49  50
ATOM     50  C   UNL A   1      39.718  32.041  32.297  1.00  0.00     0.031 A 
ATOM     51  C   UNL A   1      40.291  33.240  32.979  1.00  0.00     0.074 A 
ATOM     52  C   UNL A   1      40.313  30.840  32.410  1.00  0.00     0.049 A 
ATOM     53  N   UNL A   1      41.456  33.785  32.815  1.00  0.00    -0.248 NA
ATOM     54  C   UNL A   1      39.427  33.954  33.933  1.00  0.00     0.031 C 
ATOM     55  C   UNL A   1      39.764  29.529  32.054  1.00  0.00     0.029 A 
ATOM     56  N   UNL A   1      41.514  30.535  32.981  1.00  0.00    -0.354 N 
ATOM     57  C   UNL A   1      41.543  34.806  33.762  1.00  0.00     0.074 A 
ATOM     58  C   UNL A   1      40.234  34.930  34.350  1.00  0.00     0.031 C 
ATOM     59  C   UNL A   1      40.523  28.567  32.618  1.00  0.00     0.029 A 
ATOM     60  C   UNL A   1      41.674  29.187  33.252  1.00  0.00     0.049 A 
ATOM     61  H   UNL A   1      42.202  31.211  33.181  1.00  0.00     0.167 HD
ATOM     62  C   UNL A   1      42.732  35.351  34.135  1.00  0.00     0.037 A 
ATOM     63  C   UNL A   1      42.646  28.619  34.000  1.00  0.00     0.037 A 
ATOM     64  C   UNL A   1      43.763  35.120  33.161  1.00  0.00     0.049 A 
ATOM     65  C   UNL A   1      43.777  29.568  34.096  1.00  0.00     0.074 A 
ATOM     66  C   UNL A   1      43.976  35.470  31.843  1.00  0.00     0.029 A 
ATOM     67  N   UNL A   1      44.715  34.178  33.451  1.00  0.00    -0.354 N 
ATOM     68  N   UNL A   1      44.565  29.879  33.107  1.00  0.00    -0.248 NA
ATOM     69  C   UNL A   1      43.840  30.460  35.244  1.00  0.00     0.031 C 
ATOM     70  C   UNL A   1      44.742  34.401  31.289  1.00  0.00     0.029 A 
ATOM     71  C   UNL A   1      44.950  33.468  32.306  1.00  0.00     0.049 A 
ATOM     72  H   UNL A   1      45.149  34.037  34.324  1.00  0.00     0.167 HD
ATOM     73  C   UNL A   1      44.901  31.206  33.326  1.00  0.00     0.074 A 
ATOM     74  C   UNL A   1      44.548  31.460  34.717  1.00  0.00     0.031 C 
ATOM     75  C   UNL A   1      45.171  32.043  32.283  1.00  0.00     0.037 A 
BRANCH  62  76
ATOM     76  C   UNL A   1      43.065  35.777  35.548  1.00  0.00     0.057 A 
ATOM     77  C   UNL A   1      43.224  34.875  36.619  1.00  0.00     0.134 A 
ATOM     78  C   UNL A   1      43.570  37.071  35.778  1.00  0.00     0.134 A 
ATOM     79  F   UNL A   1      42.853  33.592  36.536  1.00  0.00    -0.206 F 
ATOM     80  C   UNL A   1      43.875  35.220  37.808  1.00  0.00     0.040 A 
ATOM     81  C   UNL A   1      44.267  37.411  36.944  1.00  0.00     0.040 A 
ATOM     82  F   UNL A   1      43.484  38.023  34.835  1.00  0.00    -0.206 F 
ATOM     83  C   UNL A   1      44.433  36.479  37.960  1.00  0.00     0.006 A 
ENDBRANCH  62  76
BRANCH  63  84
ATOM     84  C   UNL A   1      42.555  27.399  34.827  1.00  0.00     0.057 A 
ATOM     85  C   UNL A   1      43.030  26.161  34.358  1.00  0.00     0.134 A 
ATOM     86  C   UNL A   1      41.787  27.363  35.996  1.00  0.00     0.134 A 
ATOM     87  F   UNL A   1      43.699  26.068  33.199  1.00  0.00    -0.206 F 
ATOM     88  C   UNL A   1      42.764  24.957  35.016  1.00  0.00     0.040 A 
ATOM     89  C   UNL A   1      41.502  26.163  36.660  1.00  0.00     0.040 A 
ATOM     90  F   UNL A   1      41.250  28.486  36.493  1.00  0.00    -0.206 F 
ATOM     91  C   UNL A   1      41.987  24.954  36.166  1.00  0.00     0.006 A 
ENDBRANCH  63  84
BRANCH  75  92
ATOM     92  C   UNL A   1      45.425  31.417  30.944  1.00  0.00     0.057 A 
ATOM     93  C   UNL A   1      44.339  31.131  30.110  1.00  0.00     0.134 A 
ATOM     94  C   UNL A   1      46.689  30.984  30.517  1.00  0.00     0.134 A 
ATOM     95  F   UNL A   1      43.092  31.459  30.486  1.00  0.00    -0.206 F 
ATOM     96  C   UNL A   1      44.502  30.465  28.895  1.00  0.00     0.040 A 
ATOM     97  C   UNL A   1      46.870  30.346  29.288  1.00  0.00     0.040 A 
ATOM     98  F   UNL A   1      47.767  31.121  31.300  1.00  0.00    -0.206 F 
ATOM     99  C   UNL A   1      45.772  30.083  28.473  1.00  0.00     0.006 A 
ENDBRANCH  75  92
ENDBRANCH  49  50
ENDBRANCH  41  44
ENDBRANCH  39  40
ENDBRANCH  38  39
ENDBRANCH  37  38
ENDBRANCH  36  37
ENDBRANCH   1  36
TORSDOF 20
ENDMDL
