MODEL 1
REMARK VINA RESULT:     -11.7      0.000      0.000
REMARK SMILES COc1cc(OC(F)(F)F)cc2c1O[C@@H](C(F)(F)F)C(C(=O)NCCCCCCNC(=O)c1ccc(-c3c4nc(c(-c5c(F)cccc5F)c5ccc([nH]5)c(-c5c(F)cccc5F)c5nc(c(-c6c(F)cccc6F)c6ccc3[nH]6)C=C5)C=C4)cc1)=C2
REMARK SMILES IDX 26 1 25 2 24 3 23 4 21 5 22 6 20 8 3 9 4 10 13 11 5 12 12 13
REMARK SMILES IDX 14 14 11 15 87 16 15 17 2 18 1 19 6 20 7 21 8 22 9 23 10 24
REMARK SMILES IDX 16 25 17 26 18 27 19 28 27 29 28 30 29 31 30 32 31 33 32 35
REMARK SMILES IDX 33 36 34 37 86 38 35 39 85 40 36 41 37 42 38 43 79 44 39 45
REMARK SMILES IDX 84 46 78 47 80 48 40 49 83 50 77 51 76 52 41 54 67 55 50 56
REMARK SMILES IDX 66 57 51 58 54 59 65 60 81 61 52 62 53 63 64 65 82 66 55 67
REMARK SMILES IDX 42 68 43 69 48 70 44 71 45 72 47 73 49 74 46 75 68 76 69 77
REMARK SMILES IDX 74 78 70 79 71 80 73 81 75 82 72 83 56 84 57 85 62 86 58 87
REMARK SMILES IDX 59 88 61 89 63 90 60 91
REMARK H PARENT 23 7 30 34 80 53 54 64
REMARK Flexibility Score: inf
ROOT
ATOM      1  C   UNL A   1      40.730  21.931  26.088  1.00  0.00     0.002 C 
ENDROOT
BRANCH   1   2
ATOM      2  C   UNL A   1      39.273  21.446  26.125  1.00  0.00     0.021 C 
BRANCH   2   3
ATOM      3  C   UNL A   1      38.257  22.590  26.028  1.00  0.00     0.116 C 
BRANCH   3   4
ATOM      4  N   UNL A   1      37.833  22.736  24.646  1.00  0.00    -0.352 N 
ATOM      5  C   UNL A   1      36.617  22.914  24.071  1.00  0.00     0.251 C 
ATOM      6  O   UNL A   1      36.522  22.747  22.857  1.00  0.00    -0.270 OA
ATOM      7  H   UNL A   1      38.575  22.698  23.999  1.00  0.00     0.163 HD
BRANCH   5   8
ATOM      8  C   UNL A   1      35.431  23.390  24.828  1.00  0.00     0.067 C 
ATOM      9  C   UNL A   1      31.805  24.384  26.711  1.00  0.00     0.165 A 
ATOM     10  C   UNL A   1      31.358  25.711  26.685  1.00  0.00     0.097 A 
ATOM     11  C   UNL A   1      33.027  24.038  26.120  1.00  0.00     0.170 A 
ATOM     12  C   UNL A   1      32.143  26.708  26.109  1.00  0.00     0.134 A 
ATOM     13  C   UNL A   1      33.827  25.035  25.561  1.00  0.00     0.025 A 
ATOM     14  O   UNL A   1      33.347  22.718  26.006  1.00  0.00    -0.471 OA
ATOM     15  C   UNL A   1      33.383  26.364  25.563  1.00  0.00     0.059 A 
ATOM     16  C   UNL A   1      35.063  24.678  24.875  1.00  0.00     0.026 C 
ATOM     17  C   UNL A   1      34.720  22.356  25.692  1.00  0.00     0.314 C 
BRANCH   9  18
ATOM     18  O   UNL A   1      30.924  23.496  27.278  1.00  0.00    -0.493 OA
ATOM     19  C   UNL A   1      30.268  22.640  26.345  1.00  0.00     0.278 C 
ENDBRANCH   9  18
BRANCH  12  20
ATOM     20  O   UNL A   1      31.824  28.030  25.991  1.00  0.00    -0.406 OA
BRANCH  20  21
ATOM     21  C   UNL A   1      31.953  28.850  27.141  1.00  0.00     0.573 C 
ATOM     22  F   UNL A   1      31.015  28.552  28.064  1.00  0.00    -0.132 F 
ATOM     23  F   UNL A   1      33.182  28.727  27.685  1.00  0.00    -0.132 F 
ATOM     24  F   UNL A   1      31.783  30.139  26.772  1.00  0.00    -0.132 F 
ENDBRANCH  20  21
ENDBRANCH  12  20
BRANCH  17  25
ATOM     25  C   UNL A   1      34.689  20.898  25.174  1.00  0.00     0.429 C 
ATOM     26  F   UNL A   1      33.819  20.118  25.853  1.00  0.00    -0.167 F 
ATOM     27  F   UNL A   1      34.272  20.858  23.879  1.00  0.00    -0.167 F 
ATOM     28  F   UNL A   1      35.907  20.310  25.210  1.00  0.00    -0.167 F 
ENDBRANCH  17  25
ENDBRANCH   5   8
ENDBRANCH   3   4
ENDBRANCH   2   3
ENDBRANCH   1   2
BRANCH   1  29
ATOM     29  C   UNL A   1      41.754  20.924  26.626  1.00  0.00     0.002 C 
BRANCH  29  30
ATOM     30  C   UNL A   1      41.946  19.677  25.761  1.00  0.00     0.021 C 
BRANCH  30  31
ATOM     31  C   UNL A   1      43.168  18.842  26.128  1.00  0.00     0.116 C 
BRANCH  31  32
ATOM     32  N   UNL A   1      44.004  18.577  24.970  1.00  0.00    -0.352 N 
ATOM     33  C   UNL A   1      44.701  19.462  24.185  1.00  0.00     0.251 C 
ATOM     34  H   UNL A   1      44.083  17.631  24.711  1.00  0.00     0.163 HD
ATOM     35  O   UNL A   1      45.169  19.100  23.112  1.00  0.00    -0.269 OA
BRANCH  33  36
ATOM     36  C   UNL A   1      44.878  20.859  24.633  1.00  0.00     0.039 A 
ATOM     37  C   UNL A   1      44.367  21.894  23.845  1.00  0.00     0.014 A 
ATOM     38  C   UNL A   1      45.573  21.150  25.811  1.00  0.00     0.014 A 
ATOM     39  C   UNL A   1      44.518  23.218  24.258  1.00  0.00     0.010 A 
ATOM     40  C   UNL A   1      45.665  22.465  26.256  1.00  0.00     0.010 A 
ATOM     41  C   UNL A   1      45.151  23.513  25.477  1.00  0.00    -0.014 A 
BRANCH  41  42
ATOM     42  C   UNL A   1      45.310  24.914  25.940  1.00  0.00     0.031 A 
ATOM     43  C   UNL A   1      46.659  25.576  25.884  1.00  0.00     0.074 A 
ATOM     44  C   UNL A   1      44.255  25.569  26.463  1.00  0.00     0.049 A 
ATOM     45  N   UNL A   1      47.016  26.766  26.296  1.00  0.00    -0.248 NA
ATOM     46  C   UNL A   1      47.763  24.785  25.313  1.00  0.00     0.031 C 
ATOM     47  C   UNL A   1      42.905  25.022  26.610  1.00  0.00     0.029 A 
ATOM     48  N   UNL A   1      44.156  26.838  26.974  1.00  0.00    -0.354 N 
ATOM     49  C   UNL A   1      48.381  26.857  26.056  1.00  0.00     0.074 A 
ATOM     50  C   UNL A   1      48.800  25.586  25.504  1.00  0.00     0.031 C 
ATOM     51  C   UNL A   1      42.108  25.958  27.149  1.00  0.00     0.029 A 
ATOM     52  C   UNL A   1      42.896  27.157  27.418  1.00  0.00     0.049 A 
ATOM     53  H   UNL A   1      44.917  27.462  27.019  1.00  0.00     0.167 HD
ATOM     54  C   UNL A   1      49.207  27.910  26.256  1.00  0.00     0.037 A 
ATOM     55  C   UNL A   1      42.431  28.288  27.980  1.00  0.00     0.037 A 
ATOM     56  C   UNL A   1      48.780  29.186  26.766  1.00  0.00     0.049 A 
ATOM     57  C   UNL A   1      43.370  29.446  28.184  1.00  0.00     0.074 A 
ATOM     58  C   UNL A   1      49.526  30.340  26.938  1.00  0.00     0.029 A 
ATOM     59  N   UNL A   1      47.490  29.477  27.184  1.00  0.00    -0.354 N 
ATOM     60  N   UNL A   1      44.643  29.542  27.886  1.00  0.00    -0.248 NA
ATOM     61  C   UNL A   1      42.804  30.657  28.795  1.00  0.00     0.031 C 
ATOM     62  C   UNL A   1      48.697  31.316  27.499  1.00  0.00     0.029 A 
ATOM     63  C   UNL A   1      47.423  30.786  27.632  1.00  0.00     0.049 A 
ATOM     64  H   UNL A   1      46.734  28.846  27.166  1.00  0.00     0.167 HD
ATOM     65  C   UNL A   1      45.020  30.832  28.238  1.00  0.00     0.074 A 
ATOM     66  C   UNL A   1      43.839  31.484  28.764  1.00  0.00     0.031 C 
ATOM     67  C   UNL A   1      46.234  31.424  28.133  1.00  0.00     0.037 A 
BRANCH  54  68
ATOM     68  C   UNL A   1      50.659  27.730  25.920  1.00  0.00     0.057 A 
ATOM     69  C   UNL A   1      51.146  27.913  24.619  1.00  0.00     0.134 A 
ATOM     70  C   UNL A   1      51.590  27.414  26.918  1.00  0.00     0.134 A 
ATOM     71  F   UNL A   1      50.307  28.205  23.614  1.00  0.00    -0.206 F 
ATOM     72  C   UNL A   1      52.500  27.762  24.318  1.00  0.00     0.040 A 
ATOM     73  C   UNL A   1      52.950  27.287  26.635  1.00  0.00     0.040 A 
ATOM     74  F   UNL A   1      51.192  27.231  28.187  1.00  0.00    -0.206 F 
ATOM     75  C   UNL A   1      53.408  27.457  25.330  1.00  0.00     0.006 A 
ENDBRANCH  54  68
BRANCH  55  76
ATOM     76  C   UNL A   1      41.002  28.402  28.363  1.00  0.00     0.057 A 
ATOM     77  C   UNL A   1      40.564  28.001  29.632  1.00  0.00     0.134 A 
ATOM     78  C   UNL A   1      40.038  28.889  27.473  1.00  0.00     0.134 A 
ATOM     79  F   UNL A   1      41.439  27.509  30.522  1.00  0.00    -0.206 F 
ATOM     80  C   UNL A   1      39.218  28.053  29.991  1.00  0.00     0.040 A 
ATOM     81  C   UNL A   1      38.691  28.971  27.829  1.00  0.00     0.040 A 
ATOM     82  F   UNL A   1      40.394  29.297  26.247  1.00  0.00    -0.206 F 
ATOM     83  C   UNL A   1      38.277  28.543  29.089  1.00  0.00     0.006 A 
ENDBRANCH  55  76
BRANCH  67  84
ATOM     84  C   UNL A   1      46.333  32.864  28.545  1.00  0.00     0.057 A 
ATOM     85  C   UNL A   1      46.692  33.241  29.844  1.00  0.00     0.134 A 
ATOM     86  C   UNL A   1      46.099  33.884  27.614  1.00  0.00     0.134 A 
ATOM     87  F   UNL A   1      46.916  32.311  30.785  1.00  0.00    -0.206 F 
ATOM     88  C   UNL A   1      46.789  34.584  30.211  1.00  0.00     0.040 A 
ATOM     89  C   UNL A   1      46.220  35.230  27.962  1.00  0.00     0.040 A 
ATOM     90  F   UNL A   1      45.761  33.590  26.350  1.00  0.00    -0.206 F 
ATOM     91  C   UNL A   1      46.560  35.583  29.266  1.00  0.00     0.006 A 
ENDBRANCH  67  84
ENDBRANCH  41  42
ENDBRANCH  33  36
ENDBRANCH  31  32
ENDBRANCH  30  31
ENDBRANCH  29  30
ENDBRANCH   1  29
TORSDOF 17
ENDMDL
MODEL 2
REMARK VINA RESULT:     -11.4      3.128      8.818
REMARK SMILES COc1cc(OC(F)(F)F)cc2c1O[C@@H](C(F)(F)F)C(C(=O)NCCCCCCNC(=O)c1ccc(-c3c4nc(c(-c5c(F)cccc5F)c5ccc([nH]5)c(-c5c(F)cccc5F)c5nc(c(-c6c(F)cccc6F)c6ccc3[nH]6)C=C5)C=C4)cc1)=C2
REMARK SMILES IDX 26 1 25 2 24 3 23 4 21 5 22 6 20 8 3 9 4 10 13 11 5 12 12 13
REMARK SMILES IDX 14 14 11 15 87 16 15 17 2 18 1 19 6 20 7 21 8 22 9 23 10 24
REMARK SMILES IDX 16 25 17 26 18 27 19 28 27 29 28 30 29 31 30 32 31 33 32 35
REMARK SMILES IDX 33 36 34 37 86 38 35 39 85 40 36 41 37 42 38 43 79 44 39 45
REMARK SMILES IDX 84 46 78 47 80 48 40 49 83 50 77 51 76 52 41 54 67 55 50 56
REMARK SMILES IDX 66 57 51 58 54 59 65 60 81 61 52 62 53 63 64 65 82 66 55 67
REMARK SMILES IDX 42 68 43 69 48 70 44 71 45 72 47 73 49 74 46 75 68 76 69 77
REMARK SMILES IDX 74 78 70 79 71 80 73 81 75 82 72 83 56 84 57 85 62 86 58 87
REMARK SMILES IDX 59 88 61 89 63 90 60 91
REMARK H PARENT 23 7 30 34 80 53 54 64
REMARK Flexibility Score: inf
ROOT
ATOM      1  C   UNL A   1      35.125  32.167  28.060  1.00  0.00     0.002 C 
ENDROOT
BRANCH   1   2
ATOM      2  C   UNL A   1      33.838  31.431  27.658  1.00  0.00     0.021 C 
BRANCH   2   3
ATOM      3  C   UNL A   1      34.078  29.963  27.284  1.00  0.00     0.116 C 
BRANCH   3   4
ATOM      4  N   UNL A   1      32.960  29.162  27.754  1.00  0.00    -0.352 N 
ATOM      5  C   UNL A   1      32.266  28.137  27.199  1.00  0.00     0.251 C 
ATOM      6  O   UNL A   1      31.199  27.815  27.717  1.00  0.00    -0.270 OA
ATOM      7  H   UNL A   1      32.644  29.413  28.652  1.00  0.00     0.163 HD
BRANCH   5   8
ATOM      8  C   UNL A   1      32.787  27.336  26.062  1.00  0.00     0.067 C 
ATOM      9  C   UNL A   1      33.794  25.124  22.630  1.00  0.00     0.165 A 
ATOM     10  C   UNL A   1      34.306  23.828  22.773  1.00  0.00     0.097 A 
ATOM     11  C   UNL A   1      33.485  25.890  23.762  1.00  0.00     0.170 A 
ATOM     12  C   UNL A   1      34.553  23.304  24.040  1.00  0.00     0.134 A 
ATOM     13  C   UNL A   1      33.750  25.379  25.032  1.00  0.00     0.025 A 
ATOM     14  O   UNL A   1      32.826  27.072  23.590  1.00  0.00    -0.471 OA
ATOM     15  C   UNL A   1      34.286  24.091  25.164  1.00  0.00     0.059 A 
ATOM     16  C   UNL A   1      33.361  26.134  26.217  1.00  0.00     0.026 C 
ATOM     17  C   UNL A   1      32.778  28.013  24.697  1.00  0.00     0.314 C 
BRANCH   9  18
ATOM     18  O   UNL A   1      33.567  25.508  21.331  1.00  0.00    -0.493 OA
ATOM     19  C   UNL A   1      32.192  25.520  20.953  1.00  0.00     0.278 C 
ENDBRANCH   9  18
BRANCH  12  20
ATOM     20  O   UNL A   1      35.023  22.055  24.328  1.00  0.00    -0.406 OA
BRANCH  20  21
ATOM     21  C   UNL A   1      36.403  21.916  24.626  1.00  0.00     0.573 C 
ATOM     22  F   UNL A   1      36.698  22.440  25.834  1.00  0.00    -0.132 F 
ATOM     23  F   UNL A   1      36.776  20.620  24.588  1.00  0.00    -0.132 F 
ATOM     24  F   UNL A   1      37.114  22.587  23.693  1.00  0.00    -0.132 F 
ENDBRANCH  20  21
ENDBRANCH  12  20
BRANCH  17  25
ATOM     25  C   UNL A   1      31.620  28.994  24.398  1.00  0.00     0.429 C 
ATOM     26  F   UNL A   1      31.531  29.318  23.089  1.00  0.00    -0.167 F 
ATOM     27  F   UNL A   1      30.421  28.430  24.710  1.00  0.00    -0.167 F 
ATOM     28  F   UNL A   1      31.712  30.137  25.116  1.00  0.00    -0.167 F 
ENDBRANCH  17  25
ENDBRANCH   5   8
ENDBRANCH   3   4
ENDBRANCH   2   3
ENDBRANCH   1   2
BRANCH   1  29
ATOM     29  C   UNL A   1      34.907  33.577  28.621  1.00  0.00     0.002 C 
BRANCH  29  30
ATOM     30  C   UNL A   1      34.464  33.625  30.085  1.00  0.00     0.021 C 
BRANCH  30  31
ATOM     31  C   UNL A   1      34.748  32.348  30.868  1.00  0.00     0.116 C 
BRANCH  31  32
ATOM     32  N   UNL A   1      35.116  32.634  32.245  1.00  0.00    -0.352 N 
ATOM     33  C   UNL A   1      36.264  32.304  32.920  1.00  0.00     0.251 C 
ATOM     34  H   UNL A   1      34.447  33.134  32.766  1.00  0.00     0.163 HD
ATOM     35  O   UNL A   1      36.318  32.420  34.140  1.00  0.00    -0.269 OA
BRANCH  33  36
ATOM     36  C   UNL A   1      37.437  31.801  32.175  1.00  0.00     0.039 A 
ATOM     37  C   UNL A   1      38.358  30.982  32.833  1.00  0.00     0.014 A 
ATOM     38  C   UNL A   1      37.643  32.161  30.840  1.00  0.00     0.014 A 
ATOM     39  C   UNL A   1      39.466  30.490  32.141  1.00  0.00     0.010 A 
ATOM     40  C   UNL A   1      38.711  31.616  30.132  1.00  0.00     0.010 A 
ATOM     41  C   UNL A   1      39.640  30.788  30.779  1.00  0.00    -0.014 A 
BRANCH  41  42
ATOM     42  C   UNL A   1      40.804  30.265  30.023  1.00  0.00     0.031 A 
ATOM     43  C   UNL A   1      41.971  31.164  29.721  1.00  0.00     0.074 A 
ATOM     44  C   UNL A   1      40.787  29.000  29.558  1.00  0.00     0.049 A 
ATOM     45  N   UNL A   1      43.051  30.916  29.024  1.00  0.00    -0.248 NA
ATOM     46  C   UNL A   1      41.905  32.537  30.252  1.00  0.00     0.031 C 
ATOM     47  C   UNL A   1      39.695  28.043  29.749  1.00  0.00     0.029 A 
ATOM     48  N   UNL A   1      41.713  28.305  28.824  1.00  0.00    -0.354 N 
ATOM     49  C   UNL A   1      43.776  32.100  29.014  1.00  0.00     0.074 A 
ATOM     50  C   UNL A   1      42.996  33.081  29.734  1.00  0.00     0.031 C 
ATOM     51  C   UNL A   1      40.027  26.878  29.169  1.00  0.00     0.029 A 
ATOM     52  C   UNL A   1      41.336  27.016  28.538  1.00  0.00     0.049 A 
ATOM     53  H   UNL A   1      42.569  28.694  28.530  1.00  0.00     0.167 HD
ATOM     54  C   UNL A   1      44.993  32.342  28.471  1.00  0.00     0.037 A 
ATOM     55  C   UNL A   1      41.973  26.055  27.842  1.00  0.00     0.037 A 
ATOM     56  C   UNL A   1      45.786  31.352  27.791  1.00  0.00     0.049 A 
ATOM     57  C   UNL A   1      43.327  26.350  27.257  1.00  0.00     0.074 A 
ATOM     58  C   UNL A   1      47.061  31.479  27.269  1.00  0.00     0.029 A 
ATOM     59  N   UNL A   1      45.377  30.051  27.540  1.00  0.00    -0.354 N 
ATOM     60  N   UNL A   1      44.033  27.454  27.316  1.00  0.00    -0.248 NA
ATOM     61  C   UNL A   1      43.978  25.261  26.515  1.00  0.00     0.031 C 
ATOM     62  C   UNL A   1      47.409  30.266  26.665  1.00  0.00     0.029 A 
ATOM     63  C   UNL A   1      46.369  29.370  26.854  1.00  0.00     0.049 A 
ATOM     64  H   UNL A   1      44.511  29.668  27.810  1.00  0.00     0.167 HD
ATOM     65  C   UNL A   1      45.223  27.180  26.654  1.00  0.00     0.074 A 
ATOM     66  C   UNL A   1      45.147  25.805  26.208  1.00  0.00     0.031 C 
ATOM     67  C   UNL A   1      46.284  27.994  26.436  1.00  0.00     0.037 A 
BRANCH  54  68
ATOM     68  C   UNL A   1      45.546  33.732  28.594  1.00  0.00     0.057 A 
ATOM     69  C   UNL A   1      46.357  34.114  29.671  1.00  0.00     0.134 A 
ATOM     70  C   UNL A   1      45.300  34.689  27.601  1.00  0.00     0.134 A 
ATOM     71  F   UNL A   1      46.621  33.250  30.662  1.00  0.00    -0.206 F 
ATOM     72  C   UNL A   1      46.882  35.403  29.768  1.00  0.00     0.040 A 
ATOM     73  C   UNL A   1      45.843  35.972  27.673  1.00  0.00     0.040 A 
ATOM     74  F   UNL A   1      44.537  34.388  26.539  1.00  0.00    -0.206 F 
ATOM     75  C   UNL A   1      46.633  36.334  28.761  1.00  0.00     0.006 A 
ENDBRANCH  54  68
BRANCH  55  76
ATOM     76  C   UNL A   1      41.361  24.713  27.684  1.00  0.00     0.057 A 
ATOM     77  C   UNL A   1      41.792  23.630  28.460  1.00  0.00     0.134 A 
ATOM     78  C   UNL A   1      40.353  24.471  26.743  1.00  0.00     0.134 A 
ATOM     79  F   UNL A   1      42.767  23.797  29.366  1.00  0.00    -0.206 F 
ATOM     80  C   UNL A   1      41.262  22.351  28.290  1.00  0.00     0.040 A 
ATOM     81  C   UNL A   1      39.796  23.201  26.580  1.00  0.00     0.040 A 
ATOM     82  F   UNL A   1      39.890  25.467  25.975  1.00  0.00    -0.206 F 
ATOM     83  C   UNL A   1      40.259  22.135  27.349  1.00  0.00     0.006 A 
ENDBRANCH  55  76
BRANCH  67  84
ATOM     84  C   UNL A   1      47.469  27.403  25.731  1.00  0.00     0.057 A 
ATOM     85  C   UNL A   1      47.623  27.484  24.342  1.00  0.00     0.134 A 
ATOM     86  C   UNL A   1      48.486  26.773  26.460  1.00  0.00     0.134 A 
ATOM     87  F   UNL A   1      46.678  28.063  23.586  1.00  0.00    -0.206 F 
ATOM     88  C   UNL A   1      48.735  26.938  23.699  1.00  0.00     0.040 A 
ATOM     89  C   UNL A   1      49.616  26.248  25.832  1.00  0.00     0.040 A 
ATOM     90  F   UNL A   1      48.404  26.671  27.795  1.00  0.00    -0.206 F 
ATOM     91  C   UNL A   1      49.739  26.324  24.447  1.00  0.00     0.006 A 
ENDBRANCH  67  84
ENDBRANCH  41  42
ENDBRANCH  33  36
ENDBRANCH  31  32
ENDBRANCH  30  31
ENDBRANCH  29  30
ENDBRANCH   1  29
TORSDOF 17
ENDMDL
MODEL 3
REMARK VINA RESULT:     -11.2      5.987     11.855
REMARK SMILES COc1cc(OC(F)(F)F)cc2c1O[C@@H](C(F)(F)F)C(C(=O)NCCCCCCNC(=O)c1ccc(-c3c4nc(c(-c5c(F)cccc5F)c5ccc([nH]5)c(-c5c(F)cccc5F)c5nc(c(-c6c(F)cccc6F)c6ccc3[nH]6)C=C5)C=C4)cc1)=C2
REMARK SMILES IDX 26 1 25 2 24 3 23 4 21 5 22 6 20 8 3 9 4 10 13 11 5 12 12 13
REMARK SMILES IDX 14 14 11 15 87 16 15 17 2 18 1 19 6 20 7 21 8 22 9 23 10 24
REMARK SMILES IDX 16 25 17 26 18 27 19 28 27 29 28 30 29 31 30 32 31 33 32 35
REMARK SMILES IDX 33 36 34 37 86 38 35 39 85 40 36 41 37 42 38 43 79 44 39 45
REMARK SMILES IDX 84 46 78 47 80 48 40 49 83 50 77 51 76 52 41 54 67 55 50 56
REMARK SMILES IDX 66 57 51 58 54 59 65 60 81 61 52 62 53 63 64 65 82 66 55 67
REMARK SMILES IDX 42 68 43 69 48 70 44 71 45 72 47 73 49 74 46 75 68 76 69 77
REMARK SMILES IDX 74 78 70 79 71 80 73 81 75 82 72 83 56 84 57 85 62 86 58 87
REMARK SMILES IDX 59 88 61 89 63 90 60 91
REMARK H PARENT 23 7 30 34 80 53 54 64
REMARK Flexibility Score: inf
ROOT
ATOM      1  C   UNL A   1      45.002  24.931  33.170  1.00  0.00     0.002 C 
ENDROOT
BRANCH   1   2
ATOM      2  C   UNL A   1      45.244  24.749  31.664  1.00  0.00     0.021 C 
BRANCH   2   3
ATOM      3  C   UNL A   1      46.360  25.651  31.122  1.00  0.00     0.116 C 
BRANCH   3   4
ATOM      4  N   UNL A   1      45.792  26.600  30.180  1.00  0.00    -0.352 N 
ATOM      5  C   UNL A   1      45.516  26.524  28.853  1.00  0.00     0.251 C 
ATOM      6  O   UNL A   1      45.276  27.570  28.254  1.00  0.00    -0.270 OA
ATOM      7  H   UNL A   1      45.561  27.468  30.583  1.00  0.00     0.163 HD
BRANCH   5   8
ATOM      8  C   UNL A   1      45.402  25.234  28.127  1.00  0.00     0.067 C 
ATOM      9  C   UNL A   1      45.350  21.803  25.695  1.00  0.00     0.165 A 
ATOM     10  C   UNL A   1      44.124  21.212  25.368  1.00  0.00     0.097 A 
ATOM     11  C   UNL A   1      45.391  22.926  26.533  1.00  0.00     0.170 A 
ATOM     12  C   UNL A   1      42.937  21.706  25.905  1.00  0.00     0.134 A 
ATOM     13  C   UNL A   1      44.209  23.413  27.090  1.00  0.00     0.025 A 
ATOM     14  O   UNL A   1      46.577  23.582  26.687  1.00  0.00    -0.471 OA
ATOM     15  C   UNL A   1      42.989  22.798  26.777  1.00  0.00     0.059 A 
ATOM     16  C   UNL A   1      44.230  24.625  27.899  1.00  0.00     0.026 C 
ATOM     17  C   UNL A   1      46.711  24.537  27.775  1.00  0.00     0.314 C 
BRANCH   9  18
ATOM     18  O   UNL A   1      46.439  21.242  25.075  1.00  0.00    -0.493 OA
ATOM     19  C   UNL A   1      46.430  19.816  25.046  1.00  0.00     0.278 C 
ENDBRANCH   9  18
BRANCH  12  20
ATOM     20  O   UNL A   1      41.676  21.247  25.654  1.00  0.00    -0.406 OA
BRANCH  20  21
ATOM     21  C   UNL A   1      41.055  20.437  26.639  1.00  0.00     0.573 C 
ATOM     22  F   UNL A   1      41.962  19.943  27.509  1.00  0.00    -0.132 F 
ATOM     23  F   UNL A   1      40.112  21.131  27.310  1.00  0.00    -0.132 F 
ATOM     24  F   UNL A   1      40.454  19.395  26.024  1.00  0.00    -0.132 F 
ENDBRANCH  20  21
ENDBRANCH  12  20
BRANCH  17  25
ATOM     25  C   UNL A   1      47.924  25.435  27.434  1.00  0.00     0.429 C 
ATOM     26  F   UNL A   1      48.443  26.051  28.519  1.00  0.00    -0.167 F 
ATOM     27  F   UNL A   1      48.943  24.690  26.924  1.00  0.00    -0.167 F 
ATOM     28  F   UNL A   1      47.628  26.376  26.509  1.00  0.00    -0.167 F 
ENDBRANCH  17  25
ENDBRANCH   5   8
ENDBRANCH   3   4
ENDBRANCH   2   3
ENDBRANCH   1   2
BRANCH   1  29
ATOM     29  C   UNL A   1      45.185  23.659  34.006  1.00  0.00     0.002 C 
BRANCH  29  30
ATOM     30  C   UNL A   1      46.539  23.541  34.708  1.00  0.00     0.021 C 
BRANCH  30  31
ATOM     31  C   UNL A   1      47.324  24.846  34.780  1.00  0.00     0.116 C 
BRANCH  31  32
ATOM     32  N   UNL A   1      47.434  25.331  36.145  1.00  0.00    -0.352 N 
ATOM     33  C   UNL A   1      46.830  26.416  36.730  1.00  0.00     0.251 C 
ATOM     34  H   UNL A   1      48.026  24.809  36.734  1.00  0.00     0.163 HD
ATOM     35  O   UNL A   1      47.209  26.818  37.825  1.00  0.00    -0.269 OA
BRANCH  33  36
ATOM     36  C   UNL A   1      45.724  27.105  36.033  1.00  0.00     0.039 A 
ATOM     37  C   UNL A   1      46.015  28.204  35.221  1.00  0.00     0.014 A 
ATOM     38  C   UNL A   1      44.401  26.689  36.205  1.00  0.00     0.014 A 
ATOM     39  C   UNL A   1      44.984  28.861  34.548  1.00  0.00     0.010 A 
ATOM     40  C   UNL A   1      43.381  27.301  35.482  1.00  0.00     0.010 A 
ATOM     41  C   UNL A   1      43.661  28.402  34.658  1.00  0.00    -0.014 A 
BRANCH  41  42
ATOM     42  C   UNL A   1      42.552  29.078  33.941  1.00  0.00     0.031 A 
ATOM     43  C   UNL A   1      41.766  30.164  34.624  1.00  0.00     0.074 A 
ATOM     44  C   UNL A   1      42.215  28.677  32.700  1.00  0.00     0.049 A 
ATOM     45  N   UNL A   1      40.727  30.832  34.192  1.00  0.00    -0.248 NA
ATOM     46  C   UNL A   1      42.189  30.532  35.986  1.00  0.00     0.031 C 
ATOM     47  C   UNL A   1      42.873  27.608  31.947  1.00  0.00     0.029 A 
ATOM     48  N   UNL A   1      41.230  29.120  31.855  1.00  0.00    -0.354 N 
ATOM     49  C   UNL A   1      40.360  31.676  35.231  1.00  0.00     0.074 A 
ATOM     50  C   UNL A   1      41.258  31.408  36.333  1.00  0.00     0.031 C 
ATOM     51  C   UNL A   1      42.290  27.495  30.743  1.00  0.00     0.029 A 
ATOM     52  C   UNL A   1      41.196  28.458  30.651  1.00  0.00     0.049 A 
ATOM     53  H   UNL A   1      40.604  29.844  32.089  1.00  0.00     0.167 HD
ATOM     54  C   UNL A   1      39.377  32.607  35.258  1.00  0.00     0.037 A 
ATOM     55  C   UNL A   1      40.375  28.610  29.596  1.00  0.00     0.037 A 
ATOM     56  C   UNL A   1      38.512  32.901  34.147  1.00  0.00     0.049 A 
ATOM     57  C   UNL A   1      39.296  29.658  29.650  1.00  0.00     0.074 A 
ATOM     58  C   UNL A   1      37.533  33.875  34.049  1.00  0.00     0.029 A 
ATOM     59  N   UNL A   1      38.524  32.223  32.936  1.00  0.00    -0.354 N 
ATOM     60  N   UNL A   1      39.007  30.499  30.614  1.00  0.00    -0.248 NA
ATOM     61  C   UNL A   1      38.436  29.783  28.466  1.00  0.00     0.031 C 
ATOM     62  C   UNL A   1      36.925  33.760  32.795  1.00  0.00     0.029 A 
ATOM     63  C   UNL A   1      37.557  32.745  32.094  1.00  0.00     0.049 A 
ATOM     64  H   UNL A   1      39.131  31.481  32.710  1.00  0.00     0.167 HD
ATOM     65  C   UNL A   1      37.959  31.275  30.138  1.00  0.00     0.074 A 
ATOM     66  C   UNL A   1      37.669  30.811  28.798  1.00  0.00     0.031 C 
ATOM     67  C   UNL A   1      37.296  32.284  30.755  1.00  0.00     0.037 A 
BRANCH  54  68
ATOM     68  C   UNL A   1      39.185  33.381  36.530  1.00  0.00     0.057 A 
ATOM     69  C   UNL A   1      38.435  32.874  37.599  1.00  0.00     0.134 A 
ATOM     70  C   UNL A   1      39.795  34.630  36.705  1.00  0.00     0.134 A 
ATOM     71  F   UNL A   1      37.815  31.689  37.492  1.00  0.00    -0.206 F 
ATOM     72  C   UNL A   1      38.277  33.591  38.786  1.00  0.00     0.040 A 
ATOM     73  C   UNL A   1      39.667  35.344  37.897  1.00  0.00     0.040 A 
ATOM     74  F   UNL A   1      40.533  35.171  35.724  1.00  0.00    -0.206 F 
ATOM     75  C   UNL A   1      38.902  34.827  38.940  1.00  0.00     0.006 A 
ENDBRANCH  54  68
BRANCH  55  76
ATOM     76  C   UNL A   1      40.554  27.777  28.382  1.00  0.00     0.057 A 
ATOM     77  C   UNL A   1      41.325  28.231  27.304  1.00  0.00     0.134 A 
ATOM     78  C   UNL A   1      39.944  26.523  28.253  1.00  0.00     0.134 A 
ATOM     79  F   UNL A   1      41.919  29.432  27.361  1.00  0.00    -0.206 F 
ATOM     80  C   UNL A   1      41.463  27.483  26.135  1.00  0.00     0.040 A 
ATOM     81  C   UNL A   1      40.094  25.752  27.099  1.00  0.00     0.040 A 
ATOM     82  F   UNL A   1      39.200  26.027  29.252  1.00  0.00    -0.206 F 
ATOM     83  C   UNL A   1      40.848  26.238  26.032  1.00  0.00     0.006 A 
ENDBRANCH  55  76
BRANCH  67  84
ATOM     84  C   UNL A   1      36.231  32.988  29.967  1.00  0.00     0.057 A 
ATOM     85  C   UNL A   1      34.869  32.821  30.244  1.00  0.00     0.134 A 
ATOM     86  C   UNL A   1      36.580  33.874  28.939  1.00  0.00     0.134 A 
ATOM     87  F   UNL A   1      34.471  31.976  31.208  1.00  0.00    -0.206 F 
ATOM     88  C   UNL A   1      33.889  33.489  29.509  1.00  0.00     0.040 A 
ATOM     89  C   UNL A   1      35.610  34.569  28.216  1.00  0.00     0.040 A 
ATOM     90  F   UNL A   1      37.867  34.087  28.630  1.00  0.00    -0.206 F 
ATOM     91  C   UNL A   1      34.260  34.373  28.496  1.00  0.00     0.006 A 
ENDBRANCH  67  84
ENDBRANCH  41  42
ENDBRANCH  33  36
ENDBRANCH  31  32
ENDBRANCH  30  31
ENDBRANCH  29  30
ENDBRANCH   1  29
TORSDOF 17
ENDMDL
