MODEL 1
REMARK VINA RESULT:     -11.2      0.000      0.000
REMARK SMILES O=C(NCCCCCCNC(=O)c1sccc1Oc1ccc(NS(=O)(=O)Cc2ccccc2)cc1)c1ccc(-c2c3nc(c(-c4c(F)cccc4F)c4ccc([nH]4)c(-c4c(F)cccc4F)c4nc(c(-c5c(F)cccc5F)c5ccc2[nH]5)C=C4)C=C3)cc1
REMARK SMILES IDX 8 1 7 2 6 3 5 4 4 5 3 6 1 7 2 8 36 10 37 11 89 12 38 13
REMARK SMILES IDX 88 14 39 15 40 16 41 17 82 18 42 19 87 20 81 21 83 22 43 23
REMARK SMILES IDX 86 24 80 25 79 26 44 28 70 29 53 30 69 31 54 32 57 33 68 34
REMARK SMILES IDX 84 35 55 36 56 37 67 39 85 40 58 41 45 42 46 43 51 44 47 45
REMARK SMILES IDX 48 46 50 47 52 48 49 49 71 50 72 51 77 52 73 53 74 54 76 55
REMARK SMILES IDX 78 56 75 57 59 58 60 59 65 60 61 61 62 62 64 63 66 64 63 65
REMARK SMILES IDX 9 66 10 67 11 68 12 70 13 71 14 72 17 73 15 74 16 75 18 76
REMARK SMILES IDX 19 77 20 78 35 79 21 80 34 81 22 82 23 83 24 85 25 86 26 87
REMARK SMILES IDX 27 88 28 89 29 90 33 91 30 92 32 93 31 94
REMARK H PARENT 3 9 83 27 57 38 10 69 23 84
REMARK Flexibility Score: inf
ROOT
ATOM      1  C   UNL A   1      34.497  30.902  27.869  1.00  0.00     0.021 C 
ENDROOT
BRANCH   1   2
ATOM      2  C   UNL A   1      34.347  31.986  28.944  1.00  0.00     0.002 C 
BRANCH   2   3
ATOM      3  C   UNL A   1      34.532  33.430  28.478  1.00  0.00     0.002 C 
BRANCH   3   4
ATOM      4  C   UNL A   1      33.277  34.299  28.484  1.00  0.00     0.021 C 
BRANCH   4   5
ATOM      5  C   UNL A   1      33.495  35.720  28.979  1.00  0.00     0.116 C 
BRANCH   5   6
ATOM      6  N   UNL A   1      32.683  36.034  30.144  1.00  0.00    -0.352 N 
ATOM      7  O   UNL A   1      31.926  35.867  32.259  1.00  0.00    -0.269 OA
ATOM      8  C   UNL A   1      32.812  35.620  31.445  1.00  0.00     0.251 C 
ATOM      9  H   UNL A   1      31.922  36.636  29.972  1.00  0.00     0.163 HD
BRANCH   8  10
ATOM     10  C   UNL A   1      34.002  34.850  31.869  1.00  0.00     0.039 A 
ATOM     11  C   UNL A   1      35.280  35.412  31.836  1.00  0.00     0.014 A 
ATOM     12  C   UNL A   1      33.822  33.545  32.341  1.00  0.00     0.014 A 
ATOM     13  C   UNL A   1      36.390  34.633  32.141  1.00  0.00     0.010 A 
ATOM     14  C   UNL A   1      34.929  32.794  32.736  1.00  0.00     0.010 A 
ATOM     15  C   UNL A   1      36.223  33.325  32.616  1.00  0.00    -0.014 A 
BRANCH  15  16
ATOM     16  C   UNL A   1      37.398  32.538  33.056  1.00  0.00     0.031 A 
ATOM     17  C   UNL A   1      38.083  32.844  34.354  1.00  0.00     0.074 A 
ATOM     18  C   UNL A   1      37.869  31.570  32.248  1.00  0.00     0.049 A 
ATOM     19  N   UNL A   1      39.185  32.339  34.846  1.00  0.00    -0.248 NA
ATOM     20  C   UNL A   1      37.453  33.862  35.208  1.00  0.00     0.031 C 
ATOM     21  C   UNL A   1      37.281  31.188  30.962  1.00  0.00     0.029 A 
ATOM     22  N   UNL A   1      38.955  30.744  32.377  1.00  0.00    -0.354 N 
ATOM     23  C   UNL A   1      39.398  32.996  36.050  1.00  0.00     0.074 A 
ATOM     24  C   UNL A   1      38.323  33.953  36.203  1.00  0.00     0.031 C 
ATOM     25  C   UNL A   1      38.010  30.202  30.421  1.00  0.00     0.029 A 
ATOM     26  C   UNL A   1      39.153  29.934  31.286  1.00  0.00     0.049 A 
ATOM     27  H   UNL A   1      39.536  30.734  33.172  1.00  0.00     0.167 HD
ATOM     28  C   UNL A   1      40.403  32.814  36.941  1.00  0.00     0.037 A 
ATOM     29  C   UNL A   1      40.166  29.099  30.989  1.00  0.00     0.037 A 
ATOM     30  C   UNL A   1      41.466  31.858  36.769  1.00  0.00     0.049 A 
ATOM     31  C   UNL A   1      41.291  28.945  31.967  1.00  0.00     0.074 A 
ATOM     32  C   UNL A   1      42.509  31.563  37.628  1.00  0.00     0.029 A 
ATOM     33  N   UNL A   1      41.630  31.052  35.650  1.00  0.00    -0.354 N 
ATOM     34  N   UNL A   1      41.465  29.544  33.121  1.00  0.00    -0.248 NA
ATOM     35  C   UNL A   1      42.360  28.005  31.606  1.00  0.00     0.031 C 
ATOM     36  C   UNL A   1      43.338  30.626  37.003  1.00  0.00     0.029 A 
ATOM     37  C   UNL A   1      42.775  30.283  35.783  1.00  0.00     0.049 A 
ATOM     38  H   UNL A   1      41.023  31.029  34.876  1.00  0.00     0.167 HD
ATOM     39  C   UNL A   1      42.647  29.034  33.639  1.00  0.00     0.074 A 
ATOM     40  C   UNL A   1      43.147  28.077  32.672  1.00  0.00     0.031 C 
ATOM     41  C   UNL A   1      43.255  29.327  34.814  1.00  0.00     0.037 A 
BRANCH  28  42
ATOM     42  C   UNL A   1      40.418  33.701  38.155  1.00  0.00     0.057 A 
ATOM     43  C   UNL A   1      39.654  33.423  39.296  1.00  0.00     0.134 A 
ATOM     44  C   UNL A   1      41.217  34.852  38.183  1.00  0.00     0.134 A 
ATOM     45  F   UNL A   1      38.859  32.342  39.337  1.00  0.00    -0.206 F 
ATOM     46  C   UNL A   1      39.648  34.279  40.400  1.00  0.00     0.040 A 
ATOM     47  C   UNL A   1      41.244  35.699  39.292  1.00  0.00     0.040 A 
ATOM     48  F   UNL A   1      41.984  35.176  37.130  1.00  0.00    -0.206 F 
ATOM     49  C   UNL A   1      40.448  35.420  40.401  1.00  0.00     0.006 A 
ENDBRANCH  28  42
BRANCH  29  50
ATOM     50  C   UNL A   1      40.146  28.374  29.696  1.00  0.00     0.057 A 
ATOM     51  C   UNL A   1      40.903  28.812  28.606  1.00  0.00     0.134 A 
ATOM     52  C   UNL A   1      39.422  27.182  29.544  1.00  0.00     0.134 A 
ATOM     53  F   UNL A   1      41.609  29.949  28.689  1.00  0.00    -0.206 F 
ATOM     54  C   UNL A   1      40.942  28.094  27.410  1.00  0.00     0.040 A 
ATOM     55  C   UNL A   1      39.473  26.441  28.364  1.00  0.00     0.040 A 
ATOM     56  F   UNL A   1      38.689  26.702  30.559  1.00  0.00    -0.206 F 
ATOM     57  C   UNL A   1      40.235  26.899  27.291  1.00  0.00     0.006 A 
ENDBRANCH  29  50
BRANCH  41  58
ATOM     58  C   UNL A   1      44.507  28.573  35.152  1.00  0.00     0.057 A 
ATOM     59  C   UNL A   1      44.479  27.348  35.827  1.00  0.00     0.134 A 
ATOM     60  C   UNL A   1      45.754  29.048  34.721  1.00  0.00     0.134 A 
ATOM     61  F   UNL A   1      43.319  26.846  36.279  1.00  0.00    -0.206 F 
ATOM     62  C   UNL A   1      45.648  26.622  36.066  1.00  0.00     0.040 A 
ATOM     63  C   UNL A   1      46.924  28.319  34.930  1.00  0.00     0.040 A 
ATOM     64  F   UNL A   1      45.847  30.213  34.063  1.00  0.00    -0.206 F 
ATOM     65  C   UNL A   1      46.872  27.102  35.606  1.00  0.00     0.006 A 
ENDBRANCH  41  58
ENDBRANCH  15  16
ENDBRANCH   8  10
ENDBRANCH   5   6
ENDBRANCH   4   5
ENDBRANCH   3   4
ENDBRANCH   2   3
ENDBRANCH   1   2
BRANCH   1  66
ATOM     66  C   UNL A   1      33.244  30.580  27.059  1.00  0.00     0.116 C 
BRANCH  66  67
ATOM     67  N   UNL A   1      32.472  29.481  27.604  1.00  0.00    -0.351 N 
ATOM     68  C   UNL A   1      31.900  28.429  26.924  1.00  0.00     0.265 C 
ATOM     69  H   UNL A   1      32.341  29.486  28.580  1.00  0.00     0.163 HD
ATOM     70  O   UNL A   1      31.309  27.564  27.572  1.00  0.00    -0.268 OA
BRANCH  68  71
ATOM     71  C   UNL A   1      32.017  28.400  25.484  1.00  0.00     0.135 A 
ATOM     72  S   UNL A   1      31.081  29.546  24.608  1.00  0.00    -0.135 S 
ATOM     73  C   UNL A   1      32.719  27.561  24.633  1.00  0.00     0.151 A 
ATOM     74  C   UNL A   1      31.675  28.988  23.110  1.00  0.00     0.069 A 
ATOM     75  C   UNL A   1      32.539  27.929  23.264  1.00  0.00     0.059 A 
BRANCH  73  76
ATOM     76  O   UNL A   1      33.506  26.498  24.946  1.00  0.00    -0.456 OA
BRANCH  76  77
ATOM     77  C   UNL A   1      32.994  25.252  25.161  1.00  0.00     0.127 A 
ATOM     78  C   UNL A   1      33.408  24.550  26.285  1.00  0.00     0.049 A 
ATOM     79  C   UNL A   1      32.129  24.666  24.245  1.00  0.00     0.049 A 
ATOM     80  C   UNL A   1      32.889  23.282  26.537  1.00  0.00     0.030 A 
ATOM     81  C   UNL A   1      31.645  23.376  24.484  1.00  0.00     0.030 A 
ATOM     82  C   UNL A   1      32.011  22.674  25.639  1.00  0.00     0.049 A 
BRANCH  82  83
ATOM     83  N   UNL A   1      31.761  21.267  25.640  1.00  0.00    -0.283 N 
ATOM     84  H   UNL A   1      31.032  20.945  26.219  1.00  0.00     0.180 HD
BRANCH  83  85
ATOM     85  S   UNL A   1      32.577  20.121  24.763  1.00  0.00     0.236 S 
ATOM     86  O   UNL A   1      32.041  18.832  25.154  1.00  0.00    -0.206 OA
ATOM     87  O   UNL A   1      32.430  20.557  23.386  1.00  0.00    -0.206 OA
BRANCH  85  88
ATOM     88  C   UNL A   1      34.328  20.117  25.138  1.00  0.00     0.195 C 
BRANCH  88  89
ATOM     89  C   UNL A   1      35.232  21.282  24.795  1.00  0.00    -0.031 A 
ATOM     90  C   UNL A   1      35.091  22.172  23.727  1.00  0.00     0.005 A 
ATOM     91  C   UNL A   1      36.192  21.617  25.775  1.00  0.00     0.005 A 
ATOM     92  C   UNL A   1      35.784  23.386  23.685  1.00  0.00     0.000 A 
ATOM     93  C   UNL A   1      36.924  22.807  25.712  1.00  0.00     0.000 A 
ATOM     94  C   UNL A   1      36.696  23.708  24.681  1.00  0.00     0.000 A 
ENDBRANCH  88  89
ENDBRANCH  85  88
ENDBRANCH  83  85
ENDBRANCH  82  83
ENDBRANCH  76  77
ENDBRANCH  73  76
ENDBRANCH  68  71
ENDBRANCH  66  67
ENDBRANCH   1  66
TORSDOF 19
ENDMDL
MODEL 2
REMARK VINA RESULT:     -11.1      5.491     10.525
REMARK SMILES O=C(NCCCCCCNC(=O)c1sccc1Oc1ccc(NS(=O)(=O)Cc2ccccc2)cc1)c1ccc(-c2c3nc(c(-c4c(F)cccc4F)c4ccc([nH]4)c(-c4c(F)cccc4F)c4nc(c(-c5c(F)cccc5F)c5ccc2[nH]5)C=C4)C=C3)cc1
REMARK SMILES IDX 8 1 7 2 6 3 5 4 4 5 3 6 1 7 2 8 36 10 37 11 89 12 38 13
REMARK SMILES IDX 88 14 39 15 40 16 41 17 82 18 42 19 87 20 81 21 83 22 43 23
REMARK SMILES IDX 86 24 80 25 79 26 44 28 70 29 53 30 69 31 54 32 57 33 68 34
REMARK SMILES IDX 84 35 55 36 56 37 67 39 85 40 58 41 45 42 46 43 51 44 47 45
REMARK SMILES IDX 48 46 50 47 52 48 49 49 71 50 72 51 77 52 73 53 74 54 76 55
REMARK SMILES IDX 78 56 75 57 59 58 60 59 65 60 61 61 62 62 64 63 66 64 63 65
REMARK SMILES IDX 9 66 10 67 11 68 12 70 13 71 14 72 17 73 15 74 16 75 18 76
REMARK SMILES IDX 19 77 20 78 35 79 21 80 34 81 22 82 23 83 24 85 25 86 26 87
REMARK SMILES IDX 27 88 28 89 29 90 33 91 30 92 32 93 31 94
REMARK H PARENT 3 9 83 27 57 38 10 69 23 84
REMARK Flexibility Score: inf
ROOT
ATOM      1  C   UNL A   1      36.597  23.216  24.385  1.00  0.00     0.021 C 
ENDROOT
BRANCH   1   2
ATOM      2  C   UNL A   1      37.205  22.162  25.319  1.00  0.00     0.002 C 
BRANCH   2   3
ATOM      3  C   UNL A   1      36.856  20.706  25.012  1.00  0.00     0.002 C 
BRANCH   3   4
ATOM      4  C   UNL A   1      38.030  19.730  24.986  1.00  0.00     0.021 C 
BRANCH   4   5
ATOM      5  C   UNL A   1      39.050  19.939  26.095  1.00  0.00     0.116 C 
BRANCH   5   6
ATOM      6  N   UNL A   1      40.191  19.044  25.977  1.00  0.00    -0.352 N 
ATOM      7  O   UNL A   1      42.350  18.445  25.751  1.00  0.00    -0.269 OA
ATOM      8  C   UNL A   1      41.534  19.317  26.036  1.00  0.00     0.251 C 
ATOM      9  H   UNL A   1      39.964  18.097  25.831  1.00  0.00     0.163 HD
BRANCH   8  10
ATOM     10  C   UNL A   1      42.006  20.667  26.413  1.00  0.00     0.039 A 
ATOM     11  C   UNL A   1      42.233  21.652  25.449  1.00  0.00     0.014 A 
ATOM     12  C   UNL A   1      42.195  20.956  27.768  1.00  0.00     0.014 A 
ATOM     13  C   UNL A   1      42.774  22.877  25.820  1.00  0.00     0.010 A 
ATOM     14  C   UNL A   1      42.651  22.219  28.149  1.00  0.00     0.010 A 
ATOM     15  C   UNL A   1      42.966  23.180  27.175  1.00  0.00    -0.014 A 
BRANCH  15  16
ATOM     16  C   UNL A   1      43.429  24.528  27.578  1.00  0.00     0.031 A 
ATOM     17  C   UNL A   1      42.448  25.578  28.007  1.00  0.00     0.074 A 
ATOM     18  C   UNL A   1      44.743  24.810  27.508  1.00  0.00     0.049 A 
ATOM     19  N   UNL A   1      42.657  26.839  28.284  1.00  0.00    -0.248 NA
ATOM     20  C   UNL A   1      41.045  25.159  28.129  1.00  0.00     0.031 C 
ATOM     21  C   UNL A   1      45.785  23.864  27.101  1.00  0.00     0.029 A 
ATOM     22  N   UNL A   1      45.426  25.972  27.758  1.00  0.00    -0.354 N 
ATOM     23  C   UNL A   1      41.411  27.372  28.585  1.00  0.00     0.074 A 
ATOM     24  C   UNL A   1      40.448  26.302  28.434  1.00  0.00     0.031 C 
ATOM     25  C   UNL A   1      46.974  24.481  27.133  1.00  0.00     0.029 A 
ATOM     26  C   UNL A   1      46.770  25.880  27.490  1.00  0.00     0.049 A 
ATOM     27  H   UNL A   1      44.995  26.791  28.095  1.00  0.00     0.167 HD
ATOM     28  C   UNL A   1      41.105  28.640  28.952  1.00  0.00     0.037 A 
ATOM     29  C   UNL A   1      47.726  26.826  27.486  1.00  0.00     0.037 A 
ATOM     30  C   UNL A   1      42.078  29.693  29.094  1.00  0.00     0.049 A 
ATOM     31  C   UNL A   1      47.360  28.232  27.851  1.00  0.00     0.074 A 
ATOM     32  C   UNL A   1      41.882  31.000  29.500  1.00  0.00     0.029 A 
ATOM     33  N   UNL A   1      43.433  29.560  28.816  1.00  0.00    -0.354 N 
ATOM     34  N   UNL A   1      46.185  28.719  28.170  1.00  0.00    -0.248 NA
ATOM     35  C   UNL A   1      48.445  29.222  27.854  1.00  0.00     0.031 C 
ATOM     36  C   UNL A   1      43.104  31.674  29.408  1.00  0.00     0.029 A 
ATOM     37  C   UNL A   1      44.078  30.770  29.012  1.00  0.00     0.049 A 
ATOM     38  H   UNL A   1      43.870  28.728  28.525  1.00  0.00     0.167 HD
ATOM     39  C   UNL A   1      46.391  30.065  28.440  1.00  0.00     0.074 A 
ATOM     40  C   UNL A   1      47.805  30.316  28.247  1.00  0.00     0.031 C 
ATOM     41  C   UNL A   1      45.490  31.002  28.823  1.00  0.00     0.037 A 
BRANCH  28  42
ATOM     42  C   UNL A   1      39.654  28.963  29.177  1.00  0.00     0.057 A 
ATOM     43  C   UNL A   1      38.808  29.379  28.140  1.00  0.00     0.134 A 
ATOM     44  C   UNL A   1      39.093  28.851  30.457  1.00  0.00     0.134 A 
ATOM     45  F   UNL A   1      39.279  29.517  26.891  1.00  0.00    -0.206 F 
ATOM     46  C   UNL A   1      37.473  29.714  28.375  1.00  0.00     0.040 A 
ATOM     47  C   UNL A   1      37.752  29.153  30.698  1.00  0.00     0.040 A 
ATOM     48  F   UNL A   1      39.840  28.448  31.497  1.00  0.00    -0.206 F 
ATOM     49  C   UNL A   1      36.940  29.599  29.657  1.00  0.00     0.006 A 
ENDBRANCH  28  42
BRANCH  29  50
ATOM     50  C   UNL A   1      49.109  26.450  27.104  1.00  0.00     0.057 A 
ATOM     51  C   UNL A   1      50.034  26.019  28.059  1.00  0.00     0.134 A 
ATOM     52  C   UNL A   1      49.514  26.446  25.762  1.00  0.00     0.134 A 
ATOM     53  F   UNL A   1      49.707  26.009  29.359  1.00  0.00    -0.206 F 
ATOM     54  C   UNL A   1      51.314  25.598  27.695  1.00  0.00     0.040 A 
ATOM     55  C   UNL A   1      50.780  26.003  25.382  1.00  0.00     0.040 A 
ATOM     56  F   UNL A   1      48.666  26.834  24.798  1.00  0.00    -0.206 F 
ATOM     57  C   UNL A   1      51.686  25.579  26.351  1.00  0.00     0.006 A 
ENDBRANCH  29  50
BRANCH  41  58
ATOM     58  C   UNL A   1      46.005  32.381  29.108  1.00  0.00     0.057 A 
ATOM     59  C   UNL A   1      46.505  32.744  30.364  1.00  0.00     0.134 A 
ATOM     60  C   UNL A   1      46.075  33.334  28.082  1.00  0.00     0.134 A 
ATOM     61  F   UNL A   1      46.453  31.883  31.393  1.00  0.00    -0.206 F 
ATOM     62  C   UNL A   1      47.051  34.009  30.592  1.00  0.00     0.040 A 
ATOM     63  C   UNL A   1      46.643  34.590  28.291  1.00  0.00     0.040 A 
ATOM     64  F   UNL A   1      45.618  33.045  26.855  1.00  0.00    -0.206 F 
ATOM     65  C   UNL A   1      47.133  34.930  29.549  1.00  0.00     0.006 A 
ENDBRANCH  41  58
ENDBRANCH  15  16
ENDBRANCH   8  10
ENDBRANCH   5   6
ENDBRANCH   4   5
ENDBRANCH   3   4
ENDBRANCH   2   3
ENDBRANCH   1   2
BRANCH   1  66
ATOM     66  C   UNL A   1      35.994  22.693  23.084  1.00  0.00     0.116 C 
BRANCH  66  67
ATOM     67  N   UNL A   1      34.750  23.343  22.725  1.00  0.00    -0.351 N 
ATOM     68  C   UNL A   1      33.513  23.186  23.310  1.00  0.00     0.265 C 
ATOM     69  H   UNL A   1      34.793  23.975  21.970  1.00  0.00     0.163 HD
ATOM     70  O   UNL A   1      32.574  23.860  22.885  1.00  0.00    -0.268 OA
BRANCH  68  71
ATOM     71  C   UNL A   1      33.380  22.232  24.387  1.00  0.00     0.135 A 
ATOM     72  S   UNL A   1      32.975  20.620  23.948  1.00  0.00    -0.135 S 
ATOM     73  C   UNL A   1      33.465  22.378  25.763  1.00  0.00     0.151 A 
ATOM     74  C   UNL A   1      32.999  20.099  25.573  1.00  0.00     0.069 A 
ATOM     75  C   UNL A   1      33.273  21.133  26.437  1.00  0.00     0.059 A 
BRANCH  73  76
ATOM     76  O   UNL A   1      33.694  23.506  26.485  1.00  0.00    -0.456 OA
BRANCH  76  77
ATOM     77  C   UNL A   1      33.136  24.707  26.156  1.00  0.00     0.127 A 
ATOM     78  C   UNL A   1      31.759  24.848  26.258  1.00  0.00     0.049 A 
ATOM     79  C   UNL A   1      33.915  25.747  25.664  1.00  0.00     0.049 A 
ATOM     80  C   UNL A   1      31.164  26.069  25.944  1.00  0.00     0.030 A 
ATOM     81  C   UNL A   1      33.306  26.955  25.311  1.00  0.00     0.030 A 
ATOM     82  C   UNL A   1      31.925  27.132  25.457  1.00  0.00     0.049 A 
BRANCH  82  83
ATOM     83  N   UNL A   1      31.343  28.241  24.766  1.00  0.00    -0.283 N 
ATOM     84  H   UNL A   1      31.269  29.087  25.264  1.00  0.00     0.180 HD
BRANCH  83  85
ATOM     85  S   UNL A   1      30.781  28.243  23.206  1.00  0.00     0.236 S 
ATOM     86  O   UNL A   1      31.516  29.270  22.496  1.00  0.00    -0.206 OA
ATOM     87  O   UNL A   1      30.911  26.861  22.781  1.00  0.00    -0.206 OA
BRANCH  85  88
ATOM     88  C   UNL A   1      29.042  28.664  23.126  1.00  0.00     0.195 C 
BRANCH  88  89
ATOM     89  C   UNL A   1      28.561  30.053  22.763  1.00  0.00    -0.031 A 
ATOM     90  C   UNL A   1      28.585  31.192  23.573  1.00  0.00     0.005 A 
ATOM     91  C   UNL A   1      28.248  30.253  21.400  1.00  0.00     0.005 A 
ATOM     92  C   UNL A   1      28.419  32.475  23.042  1.00  0.00     0.000 A 
ATOM     93  C   UNL A   1      28.032  31.530  20.874  1.00  0.00     0.000 A 
ATOM     94  C   UNL A   1      28.148  32.646  21.691  1.00  0.00     0.000 A 
ENDBRANCH  88  89
ENDBRANCH  85  88
ENDBRANCH  83  85
ENDBRANCH  82  83
ENDBRANCH  76  77
ENDBRANCH  73  76
ENDBRANCH  68  71
ENDBRANCH  66  67
ENDBRANCH   1  66
TORSDOF 19
ENDMDL
MODEL 3
REMARK VINA RESULT:     -11.0      1.683      6.202
REMARK SMILES O=C(NCCCCCCNC(=O)c1sccc1Oc1ccc(NS(=O)(=O)Cc2ccccc2)cc1)c1ccc(-c2c3nc(c(-c4c(F)cccc4F)c4ccc([nH]4)c(-c4c(F)cccc4F)c4nc(c(-c5c(F)cccc5F)c5ccc2[nH]5)C=C4)C=C3)cc1
REMARK SMILES IDX 8 1 7 2 6 3 5 4 4 5 3 6 1 7 2 8 36 10 37 11 89 12 38 13
REMARK SMILES IDX 88 14 39 15 40 16 41 17 82 18 42 19 87 20 81 21 83 22 43 23
REMARK SMILES IDX 86 24 80 25 79 26 44 28 70 29 53 30 69 31 54 32 57 33 68 34
REMARK SMILES IDX 84 35 55 36 56 37 67 39 85 40 58 41 45 42 46 43 51 44 47 45
REMARK SMILES IDX 48 46 50 47 52 48 49 49 71 50 72 51 77 52 73 53 74 54 76 55
REMARK SMILES IDX 78 56 75 57 59 58 60 59 65 60 61 61 62 62 64 63 66 64 63 65
REMARK SMILES IDX 9 66 10 67 11 68 12 70 13 71 14 72 17 73 15 74 16 75 18 76
REMARK SMILES IDX 19 77 20 78 35 79 21 80 34 81 22 82 23 83 24 85 25 86 26 87
REMARK SMILES IDX 27 88 28 89 29 90 33 91 30 92 32 93 31 94
REMARK H PARENT 3 9 83 27 57 38 10 69 23 84
REMARK Flexibility Score: inf
ROOT
ATOM      1  C   UNL A   1      34.183  28.884  27.239  1.00  0.00     0.021 C 
ENDROOT
BRANCH   1   2
ATOM      2  C   UNL A   1      33.576  30.270  27.491  1.00  0.00     0.002 C 
BRANCH   2   3
ATOM      3  C   UNL A   1      32.163  30.497  26.951  1.00  0.00     0.002 C 
BRANCH   3   4
ATOM      4  C   UNL A   1      31.675  31.943  26.948  1.00  0.00     0.021 C 
BRANCH   4   5
ATOM      5  C   UNL A   1      32.783  32.984  26.896  1.00  0.00     0.116 C 
BRANCH   5   6
ATOM      6  N   UNL A   1      32.458  34.181  27.655  1.00  0.00    -0.352 N 
ATOM      7  O   UNL A   1      32.527  35.638  29.372  1.00  0.00    -0.269 OA
ATOM      8  C   UNL A   1      33.050  34.698  28.780  1.00  0.00     0.251 C 
ATOM      9  H   UNL A   1      31.695  34.699  27.310  1.00  0.00     0.163 HD
BRANCH   8  10
ATOM     10  C   UNL A   1      34.302  34.109  29.303  1.00  0.00     0.039 A 
ATOM     11  C   UNL A   1      34.284  33.141  30.310  1.00  0.00     0.014 A 
ATOM     12  C   UNL A   1      35.518  34.518  28.745  1.00  0.00     0.014 A 
ATOM     13  C   UNL A   1      35.478  32.681  30.853  1.00  0.00     0.010 A 
ATOM     14  C   UNL A   1      36.714  33.986  29.229  1.00  0.00     0.010 A 
ATOM     15  C   UNL A   1      36.702  33.082  30.303  1.00  0.00    -0.014 A 
BRANCH  15  16
ATOM     16  C   UNL A   1      37.969  32.499  30.803  1.00  0.00     0.031 A 
ATOM     17  C   UNL A   1      38.566  31.289  30.150  1.00  0.00     0.074 A 
ATOM     18  C   UNL A   1      38.553  33.048  31.885  1.00  0.00     0.049 A 
ATOM     19  N   UNL A   1      39.601  30.578  30.516  1.00  0.00    -0.248 NA
ATOM     20  C   UNL A   1      37.905  30.805  28.928  1.00  0.00     0.031 C 
ATOM     21  C   UNL A   1      38.057  34.226  32.601  1.00  0.00     0.029 A 
ATOM     22  N   UNL A   1      39.675  32.682  32.581  1.00  0.00    -0.354 N 
ATOM     23  C   UNL A   1      39.700  29.548  29.592  1.00  0.00     0.074 A 
ATOM     24  C   UNL A   1      38.605  29.713  28.659  1.00  0.00     0.031 C 
ATOM     25  C   UNL A   1      38.871  34.488  33.632  1.00  0.00     0.029 A 
ATOM     26  C   UNL A   1      39.901  33.457  33.692  1.00  0.00     0.049 A 
ATOM     27  H   UNL A   1      40.260  31.937  32.312  1.00  0.00     0.167 HD
ATOM     28  C   UNL A   1      40.622  28.556  29.532  1.00  0.00     0.037 A 
ATOM     29  C   UNL A   1      40.808  33.329  34.677  1.00  0.00     0.037 A 
ATOM     30  C   UNL A   1      41.703  28.407  30.472  1.00  0.00     0.049 A 
ATOM     31  C   UNL A   1      41.791  32.199  34.618  1.00  0.00     0.074 A 
ATOM     32  C   UNL A   1      42.716  27.465  30.480  1.00  0.00     0.029 A 
ATOM     33  N   UNL A   1      41.901  29.216  31.584  1.00  0.00    -0.354 N 
ATOM     34  N   UNL A   1      41.900  31.251  33.719  1.00  0.00    -0.248 NA
ATOM     35  C   UNL A   1      42.774  32.117  35.705  1.00  0.00     0.031 C 
ATOM     36  C   UNL A   1      43.488  27.664  31.629  1.00  0.00     0.029 A 
ATOM     37  C   UNL A   1      43.001  28.774  32.302  1.00  0.00     0.049 A 
ATOM     38  H   UNL A   1      41.343  29.990  31.825  1.00  0.00     0.167 HD
ATOM     39  C   UNL A   1      42.980  30.474  34.114  1.00  0.00     0.074 A 
ATOM     40  C   UNL A   1      43.492  31.064  35.335  1.00  0.00     0.031 C 
ATOM     41  C   UNL A   1      43.503  29.378  33.512  1.00  0.00     0.037 A 
BRANCH  28  42
ATOM     42  C   UNL A   1      40.468  27.534  28.440  1.00  0.00     0.057 A 
ATOM     43  C   UNL A   1      39.667  26.393  28.589  1.00  0.00     0.134 A 
ATOM     44  C   UNL A   1      41.130  27.697  27.217  1.00  0.00     0.134 A 
ATOM     45  F   UNL A   1      39.010  26.167  29.737  1.00  0.00    -0.206 F 
ATOM     46  C   UNL A   1      39.567  25.432  27.580  1.00  0.00     0.040 A 
ATOM     47  C   UNL A   1      41.014  26.760  26.189  1.00  0.00     0.040 A 
ATOM     48  F   UNL A   1      41.906  28.771  26.998  1.00  0.00    -0.206 F 
ATOM     49  C   UNL A   1      40.240  25.617  26.373  1.00  0.00     0.006 A 
ENDBRANCH  28  42
BRANCH  29  50
ATOM     50  C   UNL A   1      40.794  34.298  35.800  1.00  0.00     0.057 A 
ATOM     51  C   UNL A   1      41.473  35.516  35.715  1.00  0.00     0.134 A 
ATOM     52  C   UNL A   1      40.041  34.055  36.957  1.00  0.00     0.134 A 
ATOM     53  F   UNL A   1      42.216  35.800  34.636  1.00  0.00    -0.206 F 
ATOM     54  C   UNL A   1      41.405  36.461  36.740  1.00  0.00     0.040 A 
ATOM     55  C   UNL A   1      39.943  35.001  37.977  1.00  0.00     0.040 A 
ATOM     56  F   UNL A   1      39.354  32.911  37.091  1.00  0.00    -0.206 F 
ATOM     57  C   UNL A   1      40.629  36.209  37.870  1.00  0.00     0.006 A 
ENDBRANCH  29  50
BRANCH  41  58
ATOM     58  C   UNL A   1      44.724  28.765  34.132  1.00  0.00     0.057 A 
ATOM     59  C   UNL A   1      44.643  27.713  35.052  1.00  0.00     0.134 A 
ATOM     60  C   UNL A   1      46.002  29.184  33.737  1.00  0.00     0.134 A 
ATOM     61  F   UNL A   1      43.449  27.275  35.482  1.00  0.00    -0.206 F 
ATOM     62  C   UNL A   1      45.790  27.103  35.562  1.00  0.00     0.040 A 
ATOM     63  C   UNL A   1      47.154  28.564  34.218  1.00  0.00     0.040 A 
ATOM     64  F   UNL A   1      46.146  30.183  32.854  1.00  0.00    -0.206 F 
ATOM     65  C   UNL A   1      47.050  27.520  35.134  1.00  0.00     0.006 A 
ENDBRANCH  41  58
ENDBRANCH  15  16
ENDBRANCH   8  10
ENDBRANCH   5   6
ENDBRANCH   4   5
ENDBRANCH   3   4
ENDBRANCH   2   3
ENDBRANCH   1   2
BRANCH   1  66
ATOM     66  C   UNL A   1      33.225  27.813  26.726  1.00  0.00     0.116 C 
BRANCH  66  67
ATOM     67  N   UNL A   1      33.819  26.934  25.739  1.00  0.00    -0.351 N 
ATOM     68  C   UNL A   1      33.412  26.721  24.440  1.00  0.00     0.265 C 
ATOM     69  H   UNL A   1      34.611  26.427  26.032  1.00  0.00     0.163 HD
ATOM     70  O   UNL A   1      34.074  25.957  23.737  1.00  0.00    -0.268 OA
BRANCH  68  71
ATOM     71  C   UNL A   1      32.224  27.399  23.974  1.00  0.00     0.135 A 
ATOM     72  S   UNL A   1      32.452  28.649  22.815  1.00  0.00    -0.135 S 
ATOM     73  C   UNL A   1      30.891  27.274  24.332  1.00  0.00     0.151 A 
ATOM     74  C   UNL A   1      30.777  28.962  22.724  1.00  0.00     0.069 A 
ATOM     75  C   UNL A   1      30.060  28.160  23.581  1.00  0.00     0.059 A 
BRANCH  73  76
ATOM     76  O   UNL A   1      30.334  26.453  25.260  1.00  0.00    -0.456 OA
BRANCH  76  77
ATOM     77  C   UNL A   1      30.597  25.115  25.299  1.00  0.00     0.127 A 
ATOM     78  C   UNL A   1      30.905  24.536  26.522  1.00  0.00     0.049 A 
ATOM     79  C   UNL A   1      30.624  24.357  24.135  1.00  0.00     0.049 A 
ATOM     80  C   UNL A   1      31.162  23.167  26.594  1.00  0.00     0.030 A 
ATOM     81  C   UNL A   1      30.923  22.993  24.209  1.00  0.00     0.030 A 
ATOM     82  C   UNL A   1      31.185  22.381  25.441  1.00  0.00     0.049 A 
BRANCH  82  83
ATOM     83  N   UNL A   1      31.810  21.096  25.399  1.00  0.00    -0.283 N 
ATOM     84  H   UNL A   1      31.564  20.458  26.109  1.00  0.00     0.180 HD
BRANCH  83  85
ATOM     85  S   UNL A   1      32.909  20.571  24.274  1.00  0.00     0.236 S 
ATOM     86  O   UNL A   1      33.883  19.766  24.983  1.00  0.00    -0.206 OA
ATOM     87  O   UNL A   1      32.093  19.950  23.246  1.00  0.00    -0.206 OA
BRANCH  85  88
ATOM     88  C   UNL A   1      33.783  21.935  23.511  1.00  0.00     0.195 C 
BRANCH  88  89
ATOM     89  C   UNL A   1      34.852  22.721  24.239  1.00  0.00    -0.031 A 
ATOM     90  C   UNL A   1      34.808  23.182  25.558  1.00  0.00     0.005 A 
ATOM     91  C   UNL A   1      36.096  22.815  23.577  1.00  0.00     0.005 A 
ATOM     92  C   UNL A   1      35.960  23.611  26.225  1.00  0.00     0.000 A 
ATOM     93  C   UNL A   1      37.240  23.290  24.225  1.00  0.00     0.000 A 
ATOM     94  C   UNL A   1      37.178  23.659  25.561  1.00  0.00     0.000 A 
ENDBRANCH  88  89
ENDBRANCH  85  88
ENDBRANCH  83  85
ENDBRANCH  82  83
ENDBRANCH  76  77
ENDBRANCH  73  76
ENDBRANCH  68  71
ENDBRANCH  66  67
ENDBRANCH   1  66
TORSDOF 19
ENDMDL
