MODEL 1
REMARK VINA RESULT:     -12.5      0.000      0.000
REMARK SMILES O=C(NCCCCCCNC(=O)c1ccc(-c2c3nc(c(-c4c(F)cccc4F)c4ccc([nH]4)c(-c4c(F)cccc4F)c4nc(c(-c5c(F)cccc5F)c5ccc2[nH]5)C=C4)C=C3)cc1)C1=N[C@@H]2NC=NN2[C@@H]([C@H]2C=NN=C2c2ccc(F)cc2)C1
REMARK SMILES IDX 6 1 5 2 4 3 3 4 1 5 2 6 67 8 68 9 87 10 69 11 74 12 70 13
REMARK SMILES IDX 73 14 71 15 72 17 75 18 76 19 79 20 77 21 78 22 80 23 81 24
REMARK SMILES IDX 86 25 82 26 85 27 83 28 84 29 7 30 8 31 9 32 10 33 11 34
REMARK SMILES IDX 12 36 13 37 14 38 66 39 15 40 65 41 16 42 17 43 18 44 59 45
REMARK SMILES IDX 19 46 64 47 58 48 60 49 20 50 63 51 57 52 56 53 21 55 47 56
REMARK SMILES IDX 30 57 46 58 31 59 34 60 45 61 61 62 32 63 33 64 44 66 62 67
REMARK SMILES IDX 35 68 22 69 23 70 28 71 24 72 25 73 27 74 29 75 26 76 48 77
REMARK SMILES IDX 49 78 54 79 50 80 51 81 53 82 55 83 52 84 36 85 37 86 42 87
REMARK SMILES IDX 38 88 39 89 41 90 43 91 40 92
REMARK H PARENT 3 7 70 16 10 35 60 54 34 65
REMARK Flexibility Score: inf
ROOT
ATOM      1  C   UNL A   1      31.285  28.516  24.448  1.00  0.00     0.002 C 
ENDROOT
BRANCH   1   2
ATOM      2  C   UNL A   1      30.348  27.741  23.517  1.00  0.00     0.021 C 
BRANCH   2   3
ATOM      3  C   UNL A   1      30.153  26.250  23.779  1.00  0.00     0.116 C 
BRANCH   3   4
ATOM      4  N   UNL A   1      29.319  25.917  24.913  1.00  0.00    -0.351 N 
ATOM      5  O   UNL A   1      28.843  25.152  26.978  1.00  0.00    -0.268 OA
ATOM      6  C   UNL A   1      29.610  25.147  26.019  1.00  0.00     0.265 C 
ATOM      7  H   UNL A   1      28.411  26.296  24.892  1.00  0.00     0.163 HD
BRANCH   6   8
ATOM      8  C   UNL A   1      30.800  24.169  26.037  1.00  0.00     0.106 C 
ATOM      9  N   UNL A   1      31.078  23.652  27.186  1.00  0.00    -0.237 NA
ATOM     10  C   UNL A   1      31.569  23.889  24.767  1.00  0.00     0.090 C 
ATOM     11  C   UNL A   1      31.949  22.509  27.252  1.00  0.00     0.319 C 
ATOM     12  C   UNL A   1      32.780  22.998  25.051  1.00  0.00     0.127 C 
ATOM     13  N   UNL A   1      33.122  22.551  28.077  1.00  0.00    -0.335 N 
ATOM     14  N   UNL A   1      32.424  21.900  25.988  1.00  0.00    -0.249 NA
ATOM     15  C   UNL A   1      33.946  21.626  27.508  1.00  0.00     0.217 C 
ATOM     16  H   UNL A   1      33.293  23.114  28.867  1.00  0.00     0.165 HD
ATOM     17  N   UNL A   1      33.577  21.156  26.345  1.00  0.00    -0.164 NA
BRANCH  12  18
ATOM     18  C   UNL A   1      33.472  22.369  23.829  1.00  0.00     0.109 C 
ATOM     19  C   UNL A   1      32.812  22.718  22.539  1.00  0.00     0.120 C 
ATOM     20  C   UNL A   1      34.834  22.891  23.501  1.00  0.00     0.081 C 
ATOM     21  N   UNL A   1      33.602  23.312  21.708  1.00  0.00    -0.162 NA
ATOM     22  N   UNL A   1      34.886  23.426  22.318  1.00  0.00    -0.155 NA
BRANCH  20  23
ATOM     23  C   UNL A   1      35.979  22.818  24.430  1.00  0.00    -0.001 A 
ATOM     24  C   UNL A   1      36.340  23.890  25.258  1.00  0.00     0.013 A 
ATOM     25  C   UNL A   1      36.742  21.644  24.439  1.00  0.00     0.013 A 
ATOM     26  C   UNL A   1      37.498  23.809  26.035  1.00  0.00     0.040 A 
ATOM     27  C   UNL A   1      37.892  21.563  25.223  1.00  0.00     0.040 A 
ATOM     28  C   UNL A   1      38.269  22.652  26.001  1.00  0.00     0.123 A 
ATOM     29  F   UNL A   1      39.390  22.585  26.731  1.00  0.00    -0.207 F 
ENDBRANCH  20  23
ENDBRANCH  12  18
ENDBRANCH   6   8
ENDBRANCH   3   4
ENDBRANCH   2   3
ENDBRANCH   1   2
BRANCH   1  30
ATOM     30  C   UNL A   1      32.306  27.701  25.245  1.00  0.00     0.002 C 
BRANCH  30  31
ATOM     31  C   UNL A   1      32.514  28.104  26.706  1.00  0.00     0.021 C 
BRANCH  31  32
ATOM     32  C   UNL A   1      33.891  28.654  27.066  1.00  0.00     0.116 C 
BRANCH  32  33
ATOM     33  N   UNL A   1      33.847  29.985  27.649  1.00  0.00    -0.352 N 
ATOM     34  C   UNL A   1      34.805  30.666  28.359  1.00  0.00     0.251 C 
ATOM     35  H   UNL A   1      33.002  30.473  27.515  1.00  0.00     0.163 HD
ATOM     36  O   UNL A   1      34.527  31.748  28.880  1.00  0.00    -0.269 OA
BRANCH  34  37
ATOM     37  C   UNL A   1      36.162  30.101  28.534  1.00  0.00     0.039 A 
ATOM     38  C   UNL A   1      37.068  30.186  27.471  1.00  0.00     0.014 A 
ATOM     39  C   UNL A   1      36.546  29.481  29.725  1.00  0.00     0.014 A 
ATOM     40  C   UNL A   1      38.375  29.715  27.630  1.00  0.00     0.010 A 
ATOM     41  C   UNL A   1      37.870  29.083  29.908  1.00  0.00     0.010 A 
ATOM     42  C   UNL A   1      38.799  29.196  28.863  1.00  0.00    -0.014 A 
BRANCH  42  43
ATOM     43  C   UNL A   1      40.210  28.781  29.078  1.00  0.00     0.031 A 
ATOM     44  C   UNL A   1      41.206  29.738  29.674  1.00  0.00     0.074 A 
ATOM     45  C   UNL A   1      40.615  27.558  28.681  1.00  0.00     0.049 A 
ATOM     46  N   UNL A   1      42.490  29.578  29.877  1.00  0.00    -0.248 NA
ATOM     47  C   UNL A   1      40.697  31.060  30.069  1.00  0.00     0.031 C 
ATOM     48  C   UNL A   1      39.762  26.552  28.045  1.00  0.00     0.029 A 
ATOM     49  N   UNL A   1      41.848  26.958  28.739  1.00  0.00    -0.354 N 
ATOM     50  C   UNL A   1      42.940  30.776  30.419  1.00  0.00     0.074 A 
ATOM     51  C   UNL A   1      41.806  31.674  30.451  1.00  0.00     0.031 C 
ATOM     52  C   UNL A   1      40.492  25.456  27.788  1.00  0.00     0.029 A 
ATOM     53  C   UNL A   1      41.872  25.694  28.199  1.00  0.00     0.049 A 
ATOM     54  H   UNL A   1      42.641  27.392  29.130  1.00  0.00     0.167 HD
ATOM     55  C   UNL A   1      44.178  31.092  30.872  1.00  0.00     0.037 A 
ATOM     56  C   UNL A   1      42.892  24.830  28.038  1.00  0.00     0.037 A 
ATOM     57  C   UNL A   1      45.305  30.196  30.839  1.00  0.00     0.049 A 
ATOM     58  C   UNL A   1      44.264  25.211  28.523  1.00  0.00     0.074 A 
ATOM     59  C   UNL A   1      46.590  30.408  31.311  1.00  0.00     0.029 A 
ATOM     60  N   UNL A   1      45.286  28.919  30.296  1.00  0.00    -0.354 N 
ATOM     61  N   UNL A   1      44.660  26.322  29.094  1.00  0.00    -0.248 NA
ATOM     62  C   UNL A   1      45.329  24.214  28.347  1.00  0.00     0.031 C 
ATOM     63  C   UNL A   1      47.360  29.281  31.005  1.00  0.00     0.029 A 
ATOM     64  C   UNL A   1      46.542  28.341  30.399  1.00  0.00     0.049 A 
ATOM     65  H   UNL A   1      44.497  28.487  29.896  1.00  0.00     0.167 HD
ATOM     66  C   UNL A   1      46.010  26.149  29.371  1.00  0.00     0.074 A 
ATOM     67  C   UNL A   1      46.362  24.819  28.918  1.00  0.00     0.031 C 
ATOM     68  C   UNL A   1      46.880  27.015  29.947  1.00  0.00     0.037 A 
BRANCH  55  69
ATOM     69  C   UNL A   1      44.372  32.469  31.441  1.00  0.00     0.057 A 
ATOM     70  C   UNL A   1      44.180  32.741  32.803  1.00  0.00     0.134 A 
ATOM     71  C   UNL A   1      44.776  33.534  30.624  1.00  0.00     0.134 A 
ATOM     72  F   UNL A   1      43.784  31.770  33.641  1.00  0.00    -0.206 F 
ATOM     73  C   UNL A   1      44.345  34.025  33.324  1.00  0.00     0.040 A 
ATOM     74  C   UNL A   1      44.976  34.816  31.141  1.00  0.00     0.040 A 
ATOM     75  F   UNL A   1      44.988  33.346  29.314  1.00  0.00    -0.206 F 
ATOM     76  C   UNL A   1      44.750  35.066  32.493  1.00  0.00     0.006 A 
ENDBRANCH  55  69
BRANCH  56  77
ATOM     77  C   UNL A   1      42.651  23.512  27.396  1.00  0.00     0.057 A 
ATOM     78  C   UNL A   1      42.351  22.377  28.156  1.00  0.00     0.134 A 
ATOM     79  C   UNL A   1      42.713  23.357  26.004  1.00  0.00     0.134 A 
ATOM     80  F   UNL A   1      42.295  22.455  29.493  1.00  0.00    -0.206 F 
ATOM     81  C   UNL A   1      42.141  21.131  27.560  1.00  0.00     0.040 A 
ATOM     82  C   UNL A   1      42.477  22.126  25.393  1.00  0.00     0.040 A 
ATOM     83  F   UNL A   1      42.988  24.409  25.218  1.00  0.00    -0.206 F 
ATOM     84  C   UNL A   1      42.197  21.005  26.174  1.00  0.00     0.006 A 
ENDBRANCH  56  77
BRANCH  68  85
ATOM     85  C   UNL A   1      48.290  26.539  30.156  1.00  0.00     0.057 A 
ATOM     86  C   UNL A   1      49.311  26.810  29.236  1.00  0.00     0.134 A 
ATOM     87  C   UNL A   1      48.637  25.831  31.314  1.00  0.00     0.134 A 
ATOM     88  F   UNL A   1      49.046  27.472  28.100  1.00  0.00    -0.206 F 
ATOM     89  C   UNL A   1      50.620  26.372  29.449  1.00  0.00     0.040 A 
ATOM     90  C   UNL A   1      49.947  25.415  31.553  1.00  0.00     0.040 A 
ATOM     91  F   UNL A   1      47.711  25.545  32.242  1.00  0.00    -0.206 F 
ATOM     92  C   UNL A   1      50.942  25.678  30.614  1.00  0.00     0.006 A 
ENDBRANCH  68  85
ENDBRANCH  42  43
ENDBRANCH  34  37
ENDBRANCH  32  33
ENDBRANCH  31  32
ENDBRANCH  30  31
ENDBRANCH   1  30
TORSDOF 15
ENDMDL
MODEL 2
REMARK VINA RESULT:     -12.2      3.600      7.594
REMARK SMILES O=C(NCCCCCCNC(=O)c1ccc(-c2c3nc(c(-c4c(F)cccc4F)c4ccc([nH]4)c(-c4c(F)cccc4F)c4nc(c(-c5c(F)cccc5F)c5ccc2[nH]5)C=C4)C=C3)cc1)C1=N[C@@H]2NC=NN2[C@@H]([C@H]2C=NN=C2c2ccc(F)cc2)C1
REMARK SMILES IDX 6 1 5 2 4 3 3 4 1 5 2 6 67 8 68 9 87 10 69 11 74 12 70 13
REMARK SMILES IDX 73 14 71 15 72 17 75 18 76 19 79 20 77 21 78 22 80 23 81 24
REMARK SMILES IDX 86 25 82 26 85 27 83 28 84 29 7 30 8 31 9 32 10 33 11 34
REMARK SMILES IDX 12 36 13 37 14 38 66 39 15 40 65 41 16 42 17 43 18 44 59 45
REMARK SMILES IDX 19 46 64 47 58 48 60 49 20 50 63 51 57 52 56 53 21 55 47 56
REMARK SMILES IDX 30 57 46 58 31 59 34 60 45 61 61 62 32 63 33 64 44 66 62 67
REMARK SMILES IDX 35 68 22 69 23 70 28 71 24 72 25 73 27 74 29 75 26 76 48 77
REMARK SMILES IDX 49 78 54 79 50 80 51 81 53 82 55 83 52 84 36 85 37 86 42 87
REMARK SMILES IDX 38 88 39 89 41 90 43 91 40 92
REMARK H PARENT 3 7 70 16 10 35 60 54 34 65
REMARK Flexibility Score: inf
ROOT
ATOM      1  C   UNL A   1      31.391  30.034  24.927  1.00  0.00     0.002 C 
ENDROOT
BRANCH   1   2
ATOM      2  C   UNL A   1      31.947  28.662  24.537  1.00  0.00     0.021 C 
BRANCH   2   3
ATOM      3  C   UNL A   1      31.903  27.550  25.583  1.00  0.00     0.116 C 
BRANCH   3   4
ATOM      4  N   UNL A   1      30.607  26.946  25.802  1.00  0.00    -0.351 N 
ATOM      5  O   UNL A   1      29.140  25.411  26.554  1.00  0.00    -0.268 OA
ATOM      6  C   UNL A   1      30.294  25.672  26.225  1.00  0.00     0.265 C 
ATOM      7  H   UNL A   1      29.836  27.531  25.621  1.00  0.00     0.163 HD
BRANCH   6   8
ATOM      8  C   UNL A   1      31.318  24.523  26.171  1.00  0.00     0.106 C 
ATOM      9  N   UNL A   1      31.539  23.921  27.290  1.00  0.00    -0.237 NA
ATOM     10  C   UNL A   1      32.006  24.184  24.868  1.00  0.00     0.090 C 
ATOM     11  C   UNL A   1      32.224  22.655  27.286  1.00  0.00     0.319 C 
ATOM     12  C   UNL A   1      33.070  23.105  25.083  1.00  0.00     0.127 C 
ATOM     13  N   UNL A   1      33.408  22.481  28.077  1.00  0.00    -0.335 N 
ATOM     14  N   UNL A   1      32.570  22.035  25.985  1.00  0.00    -0.249 NA
ATOM     15  C   UNL A   1      34.065  21.466  27.449  1.00  0.00     0.217 C 
ATOM     16  H   UNL A   1      33.682  22.977  28.883  1.00  0.00     0.165 HD
ATOM     17  N   UNL A   1      33.602  21.109  26.279  1.00  0.00    -0.164 NA
BRANCH  12  18
ATOM     18  C   UNL A   1      33.629  22.430  23.817  1.00  0.00     0.109 C 
ATOM     19  C   UNL A   1      32.911  22.832  22.574  1.00  0.00     0.120 C 
ATOM     20  C   UNL A   1      35.000  22.851  23.396  1.00  0.00     0.081 C 
ATOM     21  N   UNL A   1      33.685  23.369  21.690  1.00  0.00    -0.162 NA
ATOM     22  N   UNL A   1      35.012  23.384  22.211  1.00  0.00    -0.155 NA
BRANCH  20  23
ATOM     23  C   UNL A   1      36.198  22.688  24.246  1.00  0.00    -0.001 A 
ATOM     24  C   UNL A   1      36.860  21.459  24.376  1.00  0.00     0.013 A 
ATOM     25  C   UNL A   1      36.645  23.801  24.968  1.00  0.00     0.013 A 
ATOM     26  C   UNL A   1      37.918  21.333  25.279  1.00  0.00     0.040 A 
ATOM     27  C   UNL A   1      37.709  23.673  25.861  1.00  0.00     0.040 A 
ATOM     28  C   UNL A   1      38.325  22.437  26.020  1.00  0.00     0.123 A 
ATOM     29  F   UNL A   1      39.325  22.308  26.900  1.00  0.00    -0.207 F 
ENDBRANCH  20  23
ENDBRANCH  12  18
ENDBRANCH   6   8
ENDBRANCH   3   4
ENDBRANCH   2   3
ENDBRANCH   1   2
BRANCH   1  30
ATOM     30  C   UNL A   1      31.594  30.482  26.376  1.00  0.00     0.002 C 
BRANCH  30  31
ATOM     31  C   UNL A   1      31.416  31.975  26.663  1.00  0.00     0.021 C 
BRANCH  31  32
ATOM     32  C   UNL A   1      32.628  32.701  27.240  1.00  0.00     0.116 C 
BRANCH  32  33
ATOM     33  N   UNL A   1      32.353  34.080  27.609  1.00  0.00    -0.352 N 
ATOM     34  C   UNL A   1      32.974  34.882  28.535  1.00  0.00     0.251 C 
ATOM     35  H   UNL A   1      31.610  34.503  27.122  1.00  0.00     0.163 HD
ATOM     36  O   UNL A   1      32.509  35.994  28.790  1.00  0.00    -0.269 OA
BRANCH  34  37
ATOM     37  C   UNL A   1      34.180  34.414  29.255  1.00  0.00     0.039 A 
ATOM     38  C   UNL A   1      34.024  33.811  30.508  1.00  0.00     0.014 A 
ATOM     39  C   UNL A   1      35.458  34.573  28.716  1.00  0.00     0.014 A 
ATOM     40  C   UNL A   1      35.139  33.307  31.183  1.00  0.00     0.010 A 
ATOM     41  C   UNL A   1      36.559  34.001  29.353  1.00  0.00     0.010 A 
ATOM     42  C   UNL A   1      36.412  33.361  30.592  1.00  0.00    -0.014 A 
BRANCH  42  43
ATOM     43  C   UNL A   1      37.592  32.743  31.253  1.00  0.00     0.031 A 
ATOM     44  C   UNL A   1      38.254  31.531  30.656  1.00  0.00     0.074 A 
ATOM     45  C   UNL A   1      38.036  33.235  32.426  1.00  0.00     0.049 A 
ATOM     46  N   UNL A   1      39.251  30.818  31.119  1.00  0.00    -0.248 NA
ATOM     47  C   UNL A   1      37.707  31.039  29.383  1.00  0.00     0.031 C 
ATOM     48  C   UNL A   1      37.453  34.375  33.137  1.00  0.00     0.029 A 
ATOM     49  N   UNL A   1      39.068  32.833  33.237  1.00  0.00    -0.354 N 
ATOM     50  C   UNL A   1      39.446  29.796  30.198  1.00  0.00     0.074 A 
ATOM     51  C   UNL A   1      38.423  29.943  29.185  1.00  0.00     0.031 C 
ATOM     52  C   UNL A   1      38.146  34.590  34.266  1.00  0.00     0.029 A 
ATOM     53  C   UNL A   1      39.193  33.580  34.383  1.00  0.00     0.049 A 
ATOM     54  H   UNL A   1      39.663  32.080  33.016  1.00  0.00     0.167 HD
ATOM     55  C   UNL A   1      40.404  28.838  30.183  1.00  0.00     0.037 A 
ATOM     56  C   UNL A   1      40.044  33.458  35.420  1.00  0.00     0.037 A 
ATOM     57  C   UNL A   1      41.421  28.693  31.193  1.00  0.00     0.049 A 
ATOM     58  C   UNL A   1      41.082  32.370  35.396  1.00  0.00     0.074 A 
ATOM     59  C   UNL A   1      42.460  27.780  31.246  1.00  0.00     0.029 A 
ATOM     60  N   UNL A   1      41.522  29.479  32.333  1.00  0.00    -0.354 N 
ATOM     61  N   UNL A   1      41.297  31.452  34.485  1.00  0.00    -0.248 NA
ATOM     62  C   UNL A   1      42.001  32.306  36.541  1.00  0.00     0.031 C 
ATOM     63  C   UNL A   1      43.156  27.978  32.443  1.00  0.00     0.029 A 
ATOM     64  C   UNL A   1      42.591  29.055  33.107  1.00  0.00     0.049 A 
ATOM     65  H   UNL A   1      40.923  30.226  32.558  1.00  0.00     0.167 HD
ATOM     66  C   UNL A   1      42.390  30.720  34.933  1.00  0.00     0.074 A 
ATOM     67  C   UNL A   1      42.803  31.311  36.188  1.00  0.00     0.031 C 
ATOM     68  C   UNL A   1      42.995  29.653  34.354  1.00  0.00     0.037 A 
BRANCH  55  69
ATOM     69  C   UNL A   1      40.391  27.869  29.034  1.00  0.00     0.057 A 
ATOM     70  C   UNL A   1      41.153  28.084  27.877  1.00  0.00     0.134 A 
ATOM     71  C   UNL A   1      39.625  26.697  29.091  1.00  0.00     0.134 A 
ATOM     72  F   UNL A   1      41.902  29.191  27.752  1.00  0.00    -0.206 F 
ATOM     73  C   UNL A   1      41.125  27.190  26.805  1.00  0.00     0.040 A 
ATOM     74  C   UNL A   1      39.615  25.779  28.038  1.00  0.00     0.040 A 
ATOM     75  F   UNL A   1      38.880  26.420  30.170  1.00  0.00    -0.206 F 
ATOM     76  C   UNL A   1      40.359  26.031  26.886  1.00  0.00     0.006 A 
ENDBRANCH  55  69
BRANCH  56  77
ATOM     77  C   UNL A   1      39.955  34.400  36.565  1.00  0.00     0.057 A 
ATOM     78  C   UNL A   1      40.599  35.642  36.537  1.00  0.00     0.134 A 
ATOM     79  C   UNL A   1      39.221  34.081  37.715  1.00  0.00     0.134 A 
ATOM     80  F   UNL A   1      41.332  35.998  35.472  1.00  0.00    -0.206 F 
ATOM     81  C   UNL A   1      40.534  36.524  37.617  1.00  0.00     0.040 A 
ATOM     82  C   UNL A   1      39.123  34.965  38.790  1.00  0.00     0.040 A 
ATOM     83  F   UNL A   1      38.572  32.910  37.802  1.00  0.00    -0.206 F 
ATOM     84  C   UNL A   1      39.789  36.189  38.745  1.00  0.00     0.006 A 
ENDBRANCH  56  77
BRANCH  68  85
ATOM     85  C   UNL A   1      44.194  29.078  35.055  1.00  0.00     0.057 A 
ATOM     86  C   UNL A   1      45.495  29.523  34.792  1.00  0.00     0.134 A 
ATOM     87  C   UNL A   1      44.036  28.089  36.036  1.00  0.00     0.134 A 
ATOM     88  F   UNL A   1      45.718  30.459  33.856  1.00  0.00    -0.206 F 
ATOM     89  C   UNL A   1      46.599  28.989  35.460  1.00  0.00     0.040 A 
ATOM     90  C   UNL A   1      45.128  27.569  36.732  1.00  0.00     0.040 A 
ATOM     91  F   UNL A   1      42.817  27.623  36.345  1.00  0.00    -0.206 F 
ATOM     92  C   UNL A   1      46.416  28.013  36.439  1.00  0.00     0.006 A 
ENDBRANCH  68  85
ENDBRANCH  42  43
ENDBRANCH  34  37
ENDBRANCH  32  33
ENDBRANCH  31  32
ENDBRANCH  30  31
ENDBRANCH   1  30
TORSDOF 15
ENDMDL
MODEL 3
REMARK VINA RESULT:     -12.2      1.964      6.370
REMARK SMILES O=C(NCCCCCCNC(=O)c1ccc(-c2c3nc(c(-c4c(F)cccc4F)c4ccc([nH]4)c(-c4c(F)cccc4F)c4nc(c(-c5c(F)cccc5F)c5ccc2[nH]5)C=C4)C=C3)cc1)C1=N[C@@H]2NC=NN2[C@@H]([C@H]2C=NN=C2c2ccc(F)cc2)C1
REMARK SMILES IDX 6 1 5 2 4 3 3 4 1 5 2 6 67 8 68 9 87 10 69 11 74 12 70 13
REMARK SMILES IDX 73 14 71 15 72 17 75 18 76 19 79 20 77 21 78 22 80 23 81 24
REMARK SMILES IDX 86 25 82 26 85 27 83 28 84 29 7 30 8 31 9 32 10 33 11 34
REMARK SMILES IDX 12 36 13 37 14 38 66 39 15 40 65 41 16 42 17 43 18 44 59 45
REMARK SMILES IDX 19 46 64 47 58 48 60 49 20 50 63 51 57 52 56 53 21 55 47 56
REMARK SMILES IDX 30 57 46 58 31 59 34 60 45 61 61 62 32 63 33 64 44 66 62 67
REMARK SMILES IDX 35 68 22 69 23 70 28 71 24 72 25 73 27 74 29 75 26 76 48 77
REMARK SMILES IDX 49 78 54 79 50 80 51 81 53 82 55 83 52 84 36 85 37 86 42 87
REMARK SMILES IDX 38 88 39 89 41 90 43 91 40 92
REMARK H PARENT 3 7 70 16 10 35 60 54 34 65
REMARK Flexibility Score: inf
ROOT
ATOM      1  C   UNL A   1      32.068  29.801  25.863  1.00  0.00     0.002 C 
ENDROOT
BRANCH   1   2
ATOM      2  C   UNL A   1      31.412  28.858  24.852  1.00  0.00     0.021 C 
BRANCH   2   3
ATOM      3  C   UNL A   1      31.510  27.356  25.107  1.00  0.00     0.116 C 
BRANCH   3   4
ATOM      4  N   UNL A   1      30.276  26.703  25.486  1.00  0.00    -0.351 N 
ATOM      5  O   UNL A   1      28.970  25.188  26.523  1.00  0.00    -0.268 OA
ATOM      6  C   UNL A   1      30.081  25.478  26.088  1.00  0.00     0.265 C 
ATOM      7  H   UNL A   1      29.455  27.208  25.284  1.00  0.00     0.163 HD
BRANCH   6   8
ATOM      8  C   UNL A   1      31.182  24.401  26.112  1.00  0.00     0.106 C 
ATOM      9  N   UNL A   1      31.388  23.841  27.256  1.00  0.00    -0.237 NA
ATOM     10  C   UNL A   1      31.955  24.080  24.853  1.00  0.00     0.090 C 
ATOM     11  C   UNL A   1      32.156  22.626  27.317  1.00  0.00     0.319 C 
ATOM     12  C   UNL A   1      33.077  23.082  25.145  1.00  0.00     0.127 C 
ATOM     13  N   UNL A   1      33.309  22.551  28.168  1.00  0.00    -0.335 N 
ATOM     14  N   UNL A   1      32.606  22.002  26.051  1.00  0.00    -0.249 NA
ATOM     15  C   UNL A   1      34.063  21.570  27.598  1.00  0.00     0.217 C 
ATOM     16  H   UNL A   1      33.509  23.083  28.973  1.00  0.00     0.165 HD
ATOM     17  N   UNL A   1      33.683  21.155  26.417  1.00  0.00    -0.164 NA
BRANCH  12  18
ATOM     18  C   UNL A   1      33.741  22.419  23.926  1.00  0.00     0.109 C 
ATOM     19  C   UNL A   1      33.092  22.785  22.635  1.00  0.00     0.120 C 
ATOM     20  C   UNL A   1      35.121  22.886  23.591  1.00  0.00     0.081 C 
ATOM     21  N   UNL A   1      33.902  23.342  21.798  1.00  0.00    -0.162 NA
ATOM     22  N   UNL A   1      35.191  23.410  22.404  1.00  0.00    -0.155 NA
BRANCH  20  23
ATOM     23  C   UNL A   1      36.266  22.774  24.518  1.00  0.00    -0.001 A 
ATOM     24  C   UNL A   1      36.686  23.845  25.319  1.00  0.00     0.013 A 
ATOM     25  C   UNL A   1      36.966  21.562  24.552  1.00  0.00     0.013 A 
ATOM     26  C   UNL A   1      37.841  23.721  26.093  1.00  0.00     0.040 A 
ATOM     27  C   UNL A   1      38.114  21.439  25.334  1.00  0.00     0.040 A 
ATOM     28  C   UNL A   1      38.550  22.525  26.085  1.00  0.00     0.123 A 
ATOM     29  F   UNL A   1      39.670  22.416  26.812  1.00  0.00    -0.207 F 
ENDBRANCH  20  23
ENDBRANCH  12  18
ENDBRANCH   6   8
ENDBRANCH   3   4
ENDBRANCH   2   3
ENDBRANCH   1   2
BRANCH   1  30
ATOM     30  C   UNL A   1      32.753  29.160  27.072  1.00  0.00     0.002 C 
BRANCH  30  31
ATOM     31  C   UNL A   1      34.184  28.659  26.864  1.00  0.00     0.021 C 
BRANCH  31  32
ATOM     32  C   UNL A   1      35.297  29.553  27.402  1.00  0.00     0.116 C 
BRANCH  32  33
ATOM     33  N   UNL A   1      35.192  29.810  28.829  1.00  0.00    -0.352 N 
ATOM     34  C   UNL A   1      36.161  29.773  29.801  1.00  0.00     0.251 C 
ATOM     35  H   UNL A   1      34.291  30.047  29.147  1.00  0.00     0.163 HD
ATOM     36  O   UNL A   1      35.844  29.903  30.986  1.00  0.00    -0.269 OA
BRANCH  34  37
ATOM     37  C   UNL A   1      37.581  29.547  29.448  1.00  0.00     0.039 A 
ATOM     38  C   UNL A   1      38.464  29.127  30.448  1.00  0.00     0.014 A 
ATOM     39  C   UNL A   1      38.051  29.755  28.150  1.00  0.00     0.014 A 
ATOM     40  C   UNL A   1      39.796  28.848  30.130  1.00  0.00     0.010 A 
ATOM     41  C   UNL A   1      39.359  29.404  27.818  1.00  0.00     0.010 A 
ATOM     42  C   UNL A   1      40.245  28.945  28.803  1.00  0.00    -0.014 A 
BRANCH  42  43
ATOM     43  C   UNL A   1      41.633  28.559  28.432  1.00  0.00     0.031 A 
ATOM     44  C   UNL A   1      41.958  27.138  28.064  1.00  0.00     0.074 A 
ATOM     45  C   UNL A   1      42.618  29.478  28.482  1.00  0.00     0.049 A 
ATOM     46  N   UNL A   1      43.118  26.601  27.775  1.00  0.00    -0.248 NA
ATOM     47  C   UNL A   1      40.837  26.187  28.046  1.00  0.00     0.031 C 
ATOM     48  C   UNL A   1      42.446  30.879  28.869  1.00  0.00     0.029 A 
ATOM     49  N   UNL A   1      43.961  29.369  28.221  1.00  0.00    -0.354 N 
ATOM     50  C   UNL A   1      42.864  25.254  27.544  1.00  0.00     0.074 A 
ATOM     51  C   UNL A   1      41.454  25.044  27.792  1.00  0.00     0.031 C 
ATOM     52  C   UNL A   1      43.633  31.503  28.804  1.00  0.00     0.029 A 
ATOM     53  C   UNL A   1      44.657  30.539  28.413  1.00  0.00     0.049 A 
ATOM     54  H   UNL A   1      44.386  28.532  27.923  1.00  0.00     0.167 HD
ATOM     55  C   UNL A   1      43.722  24.286  27.138  1.00  0.00     0.037 A 
ATOM     56  C   UNL A   1      45.973  30.803  28.304  1.00  0.00     0.037 A 
ATOM     57  C   UNL A   1      45.125  24.498  26.892  1.00  0.00     0.049 A 
ATOM     58  C   UNL A   1      46.911  29.707  27.879  1.00  0.00     0.074 A 
ATOM     59  C   UNL A   1      46.068  23.591  26.440  1.00  0.00     0.029 A 
ATOM     60  N   UNL A   1      45.790  25.701  27.087  1.00  0.00    -0.354 N 
ATOM     61  N   UNL A   1      46.646  28.454  27.599  1.00  0.00    -0.248 NA
ATOM     62  C   UNL A   1      48.331  30.065  27.747  1.00  0.00     0.031 C 
ATOM     63  C   UNL A   1      47.312  24.230  26.413  1.00  0.00     0.029 A 
ATOM     64  C   UNL A   1      47.135  25.552  26.787  1.00  0.00     0.049 A 
ATOM     65  H   UNL A   1      45.368  26.536  27.393  1.00  0.00     0.167 HD
ATOM     66  C   UNL A   1      47.858  27.881  27.233  1.00  0.00     0.074 A 
ATOM     67  C   UNL A   1      48.856  28.928  27.311  1.00  0.00     0.031 C 
ATOM     68  C   UNL A   1      48.119  26.602  26.866  1.00  0.00     0.037 A 
BRANCH  55  69
ATOM     69  C   UNL A   1      43.158  22.907  26.938  1.00  0.00     0.057 A 
ATOM     70  C   UNL A   1      42.933  22.379  25.659  1.00  0.00     0.134 A 
ATOM     71  C   UNL A   1      42.857  22.088  28.034  1.00  0.00     0.134 A 
ATOM     72  F   UNL A   1      43.191  23.112  24.565  1.00  0.00    -0.206 F 
ATOM     73  C   UNL A   1      42.394  21.104  25.478  1.00  0.00     0.040 A 
ATOM     74  C   UNL A   1      42.348  20.799  27.864  1.00  0.00     0.040 A 
ATOM     75  F   UNL A   1      43.056  22.523  29.287  1.00  0.00    -0.206 F 
ATOM     76  C   UNL A   1      42.105  20.307  26.583  1.00  0.00     0.006 A 
ENDBRANCH  55  69
BRANCH  56  77
ATOM     77  C   UNL A   1      46.479  32.169  28.592  1.00  0.00     0.057 A 
ATOM     78  C   UNL A   1      46.947  32.518  29.864  1.00  0.00     0.134 A 
ATOM     79  C   UNL A   1      46.510  33.160  27.602  1.00  0.00     0.134 A 
ATOM     80  F   UNL A   1      46.927  31.620  30.860  1.00  0.00    -0.206 F 
ATOM     81  C   UNL A   1      47.408  33.805  30.147  1.00  0.00     0.040 A 
ATOM     82  C   UNL A   1      46.995  34.441  27.862  1.00  0.00     0.040 A 
ATOM     83  F   UNL A   1      46.084  32.888  26.359  1.00  0.00    -0.206 F 
ATOM     84  C   UNL A   1      47.439  34.770  29.142  1.00  0.00     0.006 A 
ENDBRANCH  56  77
BRANCH  68  85
ATOM     85  C   UNL A   1      49.534  26.271  26.484  1.00  0.00     0.057 A 
ATOM     86  C   UNL A   1      50.432  25.688  27.387  1.00  0.00     0.134 A 
ATOM     87  C   UNL A   1      49.992  26.504  25.180  1.00  0.00     0.134 A 
ATOM     88  F   UNL A   1      50.063  25.449  28.655  1.00  0.00    -0.206 F 
ATOM     89  C   UNL A   1      51.741  25.373  27.015  1.00  0.00     0.040 A 
ATOM     90  C   UNL A   1      51.288  26.166  24.788  1.00  0.00     0.040 A 
ATOM     91  F   UNL A   1      49.183  27.051  24.261  1.00  0.00    -0.206 F 
ATOM     92  C   UNL A   1      52.169  25.606  25.710  1.00  0.00     0.006 A 
ENDBRANCH  68  85
ENDBRANCH  42  43
ENDBRANCH  34  37
ENDBRANCH  32  33
ENDBRANCH  31  32
ENDBRANCH  30  31
ENDBRANCH   1  30
TORSDOF 15
ENDMDL
