MODEL 1
REMARK VINA RESULT:     -10.7      0.000      0.000
REMARK SMILES C[C@@]([NH3+])(C(=O)Nc1cc(C(=O)NCCCCCCNC(=O)c2ccc(-c3c4nc(c(-c5c(F)cccc5F)c5ccc([nH]5)c(-c5c(F)cccc5F)c5nc(c(-c6c(F)cccc6F)c6ccc3[nH]6)C=C5)C=C4)cc2)ccc1F)C(F)(F)F
REMARK SMILES IDX 15 1 14 2 13 3 12 4 10 5 11 6 9 8 7 9 8 10 78 11 77 12 79 13
REMARK SMILES IDX 76 14 6 15 4 16 5 17 2 19 1 20 3 21 80 25 81 26 82 27 83 28
REMARK SMILES IDX 16 29 17 30 18 31 19 32 20 33 21 35 22 36 23 37 75 38 24 39
REMARK SMILES IDX 74 40 25 41 26 42 27 43 68 44 28 45 73 46 67 47 69 48 29 49
REMARK SMILES IDX 72 50 66 51 65 52 30 54 56 55 39 56 55 57 40 58 43 59 54 60
REMARK SMILES IDX 70 61 41 62 42 63 53 65 71 66 44 67 31 68 32 69 37 70 33 71
REMARK SMILES IDX 34 72 36 73 38 74 35 75 57 76 58 77 63 78 59 79 60 80 62 81
REMARK SMILES IDX 64 82 61 83 45 84 46 85 51 86 47 87 48 88 50 89 52 90 49 91
REMARK H PARENT 12 7 6 18 3 22 3 23 3 24 19 34 69 53 43 64
REMARK Flexibility Score: inf
ROOT
ATOM      1  C   UNL A   1      30.838  28.069  24.902  1.00  0.00     0.002 C 
ENDROOT
BRANCH   1   2
ATOM      2  C   UNL A   1      31.336  28.430  23.494  1.00  0.00     0.021 C 
BRANCH   2   3
ATOM      3  C   UNL A   1      30.692  27.609  22.375  1.00  0.00     0.116 C 
BRANCH   3   4
ATOM      4  N   UNL A   1      31.705  26.941  21.583  1.00  0.00    -0.352 N 
ATOM      5  C   UNL A   1      32.559  25.906  21.849  1.00  0.00     0.251 C 
ATOM      6  O   UNL A   1      33.281  25.515  20.931  1.00  0.00    -0.269 OA
ATOM      7  H   UNL A   1      31.796  27.303  20.673  1.00  0.00     0.163 HD
BRANCH   5   8
ATOM      8  C   UNL A   1      32.636  25.205  23.161  1.00  0.00     0.042 A 
ATOM      9  C   UNL A   1      34.070  24.562  25.024  1.00  0.00     0.078 A 
ATOM     10  C   UNL A   1      33.881  25.235  23.815  1.00  0.00     0.043 A 
ATOM     11  C   UNL A   1      32.979  23.947  25.636  1.00  0.00     0.146 A 
ATOM     12  C   UNL A   1      31.730  23.942  25.027  1.00  0.00     0.042 A 
ATOM     13  F   UNL A   1      33.095  23.423  26.864  1.00  0.00    -0.205 F 
ATOM     14  C   UNL A   1      31.556  24.577  23.795  1.00  0.00     0.017 A 
BRANCH   9  15
ATOM     15  N   UNL A   1      35.324  24.630  25.640  1.00  0.00    -0.318 N 
ATOM     16  C   UNL A   1      36.319  23.686  25.707  1.00  0.00     0.295 C 
ATOM     17  O   UNL A   1      37.202  23.887  26.547  1.00  0.00    -0.267 OA
ATOM     18  H   UNL A   1      35.522  25.482  26.095  1.00  0.00     0.170 HD
BRANCH  16  19
ATOM     19  C   UNL A   1      36.414  22.526  24.674  1.00  0.00     0.267 C 
ATOM     20  C   UNL A   1      35.895  22.881  23.279  1.00  0.00     0.100 C 
BRANCH  19  21
ATOM     21  N   UNL A   1      37.862  22.099  24.540  1.00  0.00    -0.337 N 
ATOM     22  H   UNL A   1      37.995  21.623  23.648  1.00  0.00     0.345 HD
ATOM     23  H   UNL A   1      38.101  21.464  25.302  1.00  0.00     0.345 HD
ATOM     24  H   UNL A   1      38.464  22.921  24.581  1.00  0.00     0.345 HD
ENDBRANCH  19  21
BRANCH  19  25
ATOM     25  C   UNL A   1      35.508  21.386  25.227  1.00  0.00     0.453 C 
ATOM     26  F   UNL A   1      36.083  20.168  25.172  1.00  0.00    -0.164 F 
ATOM     27  F   UNL A   1      35.234  21.629  26.541  1.00  0.00    -0.164 F 
ATOM     28  F   UNL A   1      34.307  21.339  24.605  1.00  0.00    -0.164 F 
ENDBRANCH  19  25
ENDBRANCH  16  19
ENDBRANCH   9  15
ENDBRANCH   5   8
ENDBRANCH   3   4
ENDBRANCH   2   3
ENDBRANCH   1   2
BRANCH   1  29
ATOM     29  C   UNL A   1      31.685  28.609  26.059  1.00  0.00     0.002 C 
BRANCH  29  30
ATOM     30  C   UNL A   1      32.776  27.664  26.571  1.00  0.00     0.021 C 
BRANCH  30  31
ATOM     31  C   UNL A   1      34.111  28.334  26.878  1.00  0.00     0.116 C 
BRANCH  31  32
ATOM     32  N   UNL A   1      33.937  29.673  27.413  1.00  0.00    -0.352 N 
ATOM     33  C   UNL A   1      34.796  30.427  28.169  1.00  0.00     0.251 C 
ATOM     34  H   UNL A   1      33.076  30.101  27.202  1.00  0.00     0.163 HD
ATOM     35  O   UNL A   1      34.397  31.462  28.702  1.00  0.00    -0.269 OA
BRANCH  33  36
ATOM     36  C   UNL A   1      36.200  30.003  28.359  1.00  0.00     0.039 A 
ATOM     37  C   UNL A   1      36.573  29.444  29.585  1.00  0.00     0.014 A 
ATOM     38  C   UNL A   1      37.157  30.200  27.358  1.00  0.00     0.014 A 
ATOM     39  C   UNL A   1      37.898  29.053  29.796  1.00  0.00     0.010 A 
ATOM     40  C   UNL A   1      38.463  29.753  27.547  1.00  0.00     0.010 A 
ATOM     41  C   UNL A   1      38.849  29.189  28.773  1.00  0.00    -0.014 A 
BRANCH  41  42
ATOM     42  C   UNL A   1      40.260  28.784  28.983  1.00  0.00     0.031 A 
ATOM     43  C   UNL A   1      41.226  29.734  29.637  1.00  0.00     0.074 A 
ATOM     44  C   UNL A   1      40.685  27.581  28.551  1.00  0.00     0.049 A 
ATOM     45  N   UNL A   1      42.508  29.590  29.853  1.00  0.00    -0.248 NA
ATOM     46  C   UNL A   1      40.683  31.026  30.085  1.00  0.00     0.031 C 
ATOM     47  C   UNL A   1      39.852  26.585  27.875  1.00  0.00     0.029 A 
ATOM     48  N   UNL A   1      41.922  26.995  28.614  1.00  0.00    -0.354 N 
ATOM     49  C   UNL A   1      42.926  30.775  30.445  1.00  0.00     0.074 A 
ATOM     50  C   UNL A   1      41.773  31.644  30.514  1.00  0.00     0.031 C 
ATOM     51  C   UNL A   1      40.597  25.499  27.611  1.00  0.00     0.029 A 
ATOM     52  C   UNL A   1      41.963  25.735  28.069  1.00  0.00     0.049 A 
ATOM     53  H   UNL A   1      42.708  27.434  29.013  1.00  0.00     0.167 HD
ATOM     54  C   UNL A   1      44.155  31.098  30.911  1.00  0.00     0.037 A 
ATOM     55  C   UNL A   1      42.986  24.866  27.956  1.00  0.00     0.037 A 
ATOM     56  C   UNL A   1      45.293  30.219  30.876  1.00  0.00     0.049 A 
ATOM     57  C   UNL A   1      44.337  25.242  28.495  1.00  0.00     0.074 A 
ATOM     58  C   UNL A   1      46.570  30.441  31.361  1.00  0.00     0.029 A 
ATOM     59  N   UNL A   1      45.287  28.943  30.334  1.00  0.00    -0.354 N 
ATOM     60  N   UNL A   1      44.711  26.353  29.081  1.00  0.00    -0.248 NA
ATOM     61  C   UNL A   1      45.407  24.243  28.363  1.00  0.00     0.031 C 
ATOM     62  C   UNL A   1      47.345  29.311  31.086  1.00  0.00     0.029 A 
ATOM     63  C   UNL A   1      46.539  28.369  30.466  1.00  0.00     0.049 A 
ATOM     64  H   UNL A   1      44.508  28.509  29.917  1.00  0.00     0.167 HD
ATOM     65  C   UNL A   1      46.048  26.178  29.412  1.00  0.00     0.074 A 
ATOM     66  C   UNL A   1      46.419  24.852  28.967  1.00  0.00     0.031 C 
ATOM     67  C   UNL A   1      46.889  27.041  30.030  1.00  0.00     0.037 A 
BRANCH  54  68
ATOM     68  C   UNL A   1      44.332  32.460  31.516  1.00  0.00     0.057 A 
ATOM     69  C   UNL A   1      44.743  33.545  30.731  1.00  0.00     0.134 A 
ATOM     70  C   UNL A   1      44.143  32.687  32.885  1.00  0.00     0.134 A 
ATOM     71  F   UNL A   1      44.949  33.395  29.413  1.00  0.00    -0.206 F 
ATOM     72  C   UNL A   1      44.967  34.805  31.289  1.00  0.00     0.040 A 
ATOM     73  C   UNL A   1      44.338  33.948  33.449  1.00  0.00     0.040 A 
ATOM     74  F   UNL A   1      43.736  31.692  33.689  1.00  0.00    -0.206 F 
ATOM     75  C   UNL A   1      44.759  35.010  32.651  1.00  0.00     0.006 A 
ENDBRANCH  54  68
BRANCH  55  76
ATOM     76  C   UNL A   1      42.753  23.535  27.344  1.00  0.00     0.057 A 
ATOM     77  C   UNL A   1      42.907  23.322  25.969  1.00  0.00     0.134 A 
ATOM     78  C   UNL A   1      42.341  22.449  28.125  1.00  0.00     0.134 A 
ATOM     79  F   UNL A   1      43.289  24.326  25.167  1.00  0.00    -0.206 F 
ATOM     80  C   UNL A   1      42.647  22.078  25.391  1.00  0.00     0.040 A 
ATOM     81  C   UNL A   1      42.098  21.196  27.563  1.00  0.00     0.040 A 
ATOM     82  F   UNL A   1      42.193  22.590  29.450  1.00  0.00    -0.206 F 
ATOM     83  C   UNL A   1      42.244  21.010  26.190  1.00  0.00     0.006 A 
ENDBRANCH  55  76
BRANCH  67  84
ATOM     84  C   UNL A   1      48.289  26.574  30.296  1.00  0.00     0.057 A 
ATOM     85  C   UNL A   1      49.299  26.783  29.349  1.00  0.00     0.134 A 
ATOM     86  C   UNL A   1      48.618  25.854  31.450  1.00  0.00     0.134 A 
ATOM     87  F   UNL A   1      49.044  27.457  28.218  1.00  0.00    -0.206 F 
ATOM     88  C   UNL A   1      50.588  26.281  29.535  1.00  0.00     0.040 A 
ATOM     89  C   UNL A   1      49.908  25.365  31.657  1.00  0.00     0.040 A 
ATOM     90  F   UNL A   1      47.696  25.629  32.398  1.00  0.00    -0.206 F 
ATOM     91  C   UNL A   1      50.896  25.571  30.694  1.00  0.00     0.006 A 
ENDBRANCH  67  84
ENDBRANCH  41  42
ENDBRANCH  33  36
ENDBRANCH  31  32
ENDBRANCH  30  31
ENDBRANCH  29  30
ENDBRANCH   1  29
TORSDOF 17
ENDMDL
MODEL 2
REMARK VINA RESULT:     -10.7      1.846      2.237
REMARK SMILES C[C@@]([NH3+])(C(=O)Nc1cc(C(=O)NCCCCCCNC(=O)c2ccc(-c3c4nc(c(-c5c(F)cccc5F)c5ccc([nH]5)c(-c5c(F)cccc5F)c5nc(c(-c6c(F)cccc6F)c6ccc3[nH]6)C=C5)C=C4)cc2)ccc1F)C(F)(F)F
REMARK SMILES IDX 15 1 14 2 13 3 12 4 10 5 11 6 9 8 7 9 8 10 78 11 77 12 79 13
REMARK SMILES IDX 76 14 6 15 4 16 5 17 2 19 1 20 3 21 80 25 81 26 82 27 83 28
REMARK SMILES IDX 16 29 17 30 18 31 19 32 20 33 21 35 22 36 23 37 75 38 24 39
REMARK SMILES IDX 74 40 25 41 26 42 27 43 68 44 28 45 73 46 67 47 69 48 29 49
REMARK SMILES IDX 72 50 66 51 65 52 30 54 56 55 39 56 55 57 40 58 43 59 54 60
REMARK SMILES IDX 70 61 41 62 42 63 53 65 71 66 44 67 31 68 32 69 37 70 33 71
REMARK SMILES IDX 34 72 36 73 38 74 35 75 57 76 58 77 63 78 59 79 60 80 62 81
REMARK SMILES IDX 64 82 61 83 45 84 46 85 51 86 47 87 48 88 50 89 52 90 49 91
REMARK H PARENT 12 7 6 18 3 22 3 23 3 24 19 34 69 53 43 64
REMARK Flexibility Score: inf
ROOT
ATOM      1  C   UNL A   1      30.890  27.936  25.019  1.00  0.00     0.002 C 
ENDROOT
BRANCH   1   2
ATOM      2  C   UNL A   1      31.447  28.387  23.660  1.00  0.00     0.021 C 
BRANCH   2   3
ATOM      3  C   UNL A   1      30.775  27.719  22.459  1.00  0.00     0.116 C 
BRANCH   3   4
ATOM      4  N   UNL A   1      31.759  27.057  21.627  1.00  0.00    -0.352 N 
ATOM      5  C   UNL A   1      32.570  25.972  21.829  1.00  0.00     0.251 C 
ATOM      6  O   UNL A   1      33.274  25.606  20.887  1.00  0.00    -0.269 OA
ATOM      7  H   UNL A   1      31.866  27.468  20.739  1.00  0.00     0.163 HD
BRANCH   5   8
ATOM      8  C   UNL A   1      32.616  25.192  23.097  1.00  0.00     0.042 A 
ATOM      9  C   UNL A   1      33.996  24.473  24.973  1.00  0.00     0.078 A 
ATOM     10  C   UNL A   1      33.834  25.216  23.802  1.00  0.00     0.043 A 
ATOM     11  C   UNL A   1      32.901  23.791  25.501  1.00  0.00     0.146 A 
ATOM     12  C   UNL A   1      31.677  23.789  24.843  1.00  0.00     0.042 A 
ATOM     13  F   UNL A   1      32.985  23.194  26.698  1.00  0.00    -0.205 F 
ATOM     14  C   UNL A   1      31.532  24.496  23.646  1.00  0.00     0.017 A 
BRANCH   9  15
ATOM     15  N   UNL A   1      35.222  24.537  25.642  1.00  0.00    -0.318 N 
ATOM     16  C   UNL A   1      36.225  23.602  25.724  1.00  0.00     0.295 C 
ATOM     17  O   UNL A   1      37.070  23.788  26.605  1.00  0.00    -0.267 OA
ATOM     18  H   UNL A   1      35.390  25.377  26.129  1.00  0.00     0.170 HD
BRANCH  16  19
ATOM     19  C   UNL A   1      36.376  22.474  24.664  1.00  0.00     0.267 C 
ATOM     20  C   UNL A   1      35.949  22.876  23.251  1.00  0.00     0.100 C 
BRANCH  19  21
ATOM     21  N   UNL A   1      37.826  22.036  24.608  1.00  0.00    -0.337 N 
ATOM     22  H   UNL A   1      38.137  22.011  23.637  1.00  0.00     0.345 HD
ATOM     23  H   UNL A   1      37.917  21.106  25.018  1.00  0.00     0.345 HD
ATOM     24  H   UNL A   1      38.401  22.696  25.133  1.00  0.00     0.345 HD
ENDBRANCH  19  21
BRANCH  19  25
ATOM     25  C   UNL A   1      35.428  21.326  25.122  1.00  0.00     0.453 C 
ATOM     26  F   UNL A   1      34.320  21.208  24.364  1.00  0.00    -0.164 F 
ATOM     27  F   UNL A   1      36.090  20.136  25.034  1.00  0.00    -0.164 F 
ATOM     28  F   UNL A   1      35.067  21.449  26.421  1.00  0.00    -0.164 F 
ENDBRANCH  19  25
ENDBRANCH  16  19
ENDBRANCH   9  15
ENDBRANCH   5   8
ENDBRANCH   3   4
ENDBRANCH   2   3
ENDBRANCH   1   2
BRANCH   1  29
ATOM     29  C   UNL A   1      31.702  28.377  26.242  1.00  0.00     0.002 C 
BRANCH  29  30
ATOM     30  C   UNL A   1      33.136  27.842  26.305  1.00  0.00     0.021 C 
BRANCH  30  31
ATOM     31  C   UNL A   1      34.215  28.860  25.950  1.00  0.00     0.116 C 
BRANCH  31  32
ATOM     32  N   UNL A   1      33.962  30.154  26.560  1.00  0.00    -0.352 N 
ATOM     33  C   UNL A   1      34.610  30.769  27.599  1.00  0.00     0.251 C 
ATOM     34  H   UNL A   1      33.217  30.665  26.169  1.00  0.00     0.163 HD
ATOM     35  O   UNL A   1      34.129  31.779  28.111  1.00  0.00    -0.269 OA
BRANCH  33  36
ATOM     36  C   UNL A   1      35.883  30.223  28.119  1.00  0.00     0.039 A 
ATOM     37  C   UNL A   1      35.859  29.465  29.293  1.00  0.00     0.014 A 
ATOM     38  C   UNL A   1      37.100  30.498  27.487  1.00  0.00     0.014 A 
ATOM     39  C   UNL A   1      37.050  28.953  29.815  1.00  0.00     0.010 A 
ATOM     40  C   UNL A   1      38.279  29.936  27.973  1.00  0.00     0.010 A 
ATOM     41  C   UNL A   1      38.267  29.172  29.150  1.00  0.00    -0.014 A 
BRANCH  41  42
ATOM     42  C   UNL A   1      39.541  28.641  29.694  1.00  0.00     0.031 A 
ATOM     43  C   UNL A   1      40.154  29.266  30.917  1.00  0.00     0.074 A 
ATOM     44  C   UNL A   1      40.167  27.628  29.068  1.00  0.00     0.049 A 
ATOM     45  N   UNL A   1      41.288  28.987  31.508  1.00  0.00    -0.248 NA
ATOM     46  C   UNL A   1      39.405  30.365  31.546  1.00  0.00     0.031 C 
ATOM     47  C   UNL A   1      39.690  26.959  27.856  1.00  0.00     0.029 A 
ATOM     48  N   UNL A   1      41.342  26.984  29.362  1.00  0.00    -0.354 N 
ATOM     49  C   UNL A   1      41.394  29.883  32.563  1.00  0.00     0.074 A 
ATOM     50  C   UNL A   1      40.234  30.744  32.506  1.00  0.00     0.031 C 
ATOM     51  C   UNL A   1      40.550  25.982  27.527  1.00  0.00     0.029 A 
ATOM     52  C   UNL A   1      41.653  25.976  28.484  1.00  0.00     0.049 A 
ATOM     53  H   UNL A   1      41.909  27.222  30.132  1.00  0.00     0.167 HD
ATOM     54  C   UNL A   1      42.360  29.965  33.508  1.00  0.00     0.037 A 
ATOM     55  C   UNL A   1      42.707  25.137  28.456  1.00  0.00     0.037 A 
ATOM     56  C   UNL A   1      43.495  29.084  33.585  1.00  0.00     0.049 A 
ATOM     57  C   UNL A   1      43.758  25.238  29.524  1.00  0.00     0.074 A 
ATOM     58  C   UNL A   1      44.506  29.061  34.529  1.00  0.00     0.029 A 
ATOM     59  N   UNL A   1      43.762  28.061  32.688  1.00  0.00    -0.354 N 
ATOM     60  N   UNL A   1      43.830  26.069  30.535  1.00  0.00    -0.248 NA
ATOM     61  C   UNL A   1      44.871  24.280  29.454  1.00  0.00     0.031 C 
ATOM     62  C   UNL A   1      45.401  28.044  34.187  1.00  0.00     0.029 A 
ATOM     63  C   UNL A   1      44.926  27.406  33.052  1.00  0.00     0.049 A 
ATOM     64  H   UNL A   1      43.207  27.835  31.906  1.00  0.00     0.167 HD
ATOM     65  C   UNL A   1      44.977  25.720  31.235  1.00  0.00     0.074 A 
ATOM     66  C   UNL A   1      45.567  24.596  30.538  1.00  0.00     0.031 C 
ATOM     67  C   UNL A   1      45.492  26.281  32.355  1.00  0.00     0.037 A 
BRANCH  54  68
ATOM     68  C   UNL A   1      42.225  31.038  34.547  1.00  0.00     0.057 A 
ATOM     69  C   UNL A   1      42.863  32.275  34.389  1.00  0.00     0.134 A 
ATOM     70  C   UNL A   1      41.504  30.828  35.730  1.00  0.00     0.134 A 
ATOM     71  F   UNL A   1      43.575  32.537  33.282  1.00  0.00    -0.206 F 
ATOM     72  C   UNL A   1      42.793  33.262  35.373  1.00  0.00     0.040 A 
ATOM     73  C   UNL A   1      41.406  31.818  36.710  1.00  0.00     0.040 A 
ATOM     74  F   UNL A   1      40.859  29.670  35.937  1.00  0.00    -0.206 F 
ATOM     75  C   UNL A   1      42.059  33.036  36.535  1.00  0.00     0.006 A 
ENDBRANCH  54  68
BRANCH  55  76
ATOM     76  C   UNL A   1      42.790  24.099  27.400  1.00  0.00     0.057 A 
ATOM     77  C   UNL A   1      43.372  24.363  26.155  1.00  0.00     0.134 A 
ATOM     78  C   UNL A   1      42.257  22.821  27.608  1.00  0.00     0.134 A 
ATOM     79  F   UNL A   1      43.890  25.572  25.892  1.00  0.00    -0.206 F 
ATOM     80  C   UNL A   1      43.412  23.396  25.149  1.00  0.00     0.040 A 
ATOM     81  C   UNL A   1      42.309  21.839  26.618  1.00  0.00     0.040 A 
ATOM     82  F   UNL A   1      41.702  22.506  28.787  1.00  0.00    -0.206 F 
ATOM     83  C   UNL A   1      42.882  22.129  25.381  1.00  0.00     0.006 A 
ENDBRANCH  55  76
BRANCH  67  84
ATOM     84  C   UNL A   1      46.740  25.674  32.924  1.00  0.00     0.057 A 
ATOM     85  C   UNL A   1      47.998  26.045  32.433  1.00  0.00     0.134 A 
ATOM     86  C   UNL A   1      46.693  24.672  33.899  1.00  0.00     0.134 A 
ATOM     87  F   UNL A   1      48.109  26.993  31.490  1.00  0.00    -0.206 F 
ATOM     88  C   UNL A   1      49.167  25.432  32.884  1.00  0.00     0.040 A 
ATOM     89  C   UNL A   1      47.857  24.065  34.374  1.00  0.00     0.040 A 
ATOM     90  F   UNL A   1      45.519  24.279  34.415  1.00  0.00    -0.206 F 
ATOM     91  C   UNL A   1      49.098  24.440  33.860  1.00  0.00     0.006 A 
ENDBRANCH  67  84
ENDBRANCH  41  42
ENDBRANCH  33  36
ENDBRANCH  31  32
ENDBRANCH  30  31
ENDBRANCH  29  30
ENDBRANCH   1  29
TORSDOF 17
ENDMDL
MODEL 3
REMARK VINA RESULT:     -10.7      3.024      7.908
REMARK SMILES C[C@@]([NH3+])(C(=O)Nc1cc(C(=O)NCCCCCCNC(=O)c2ccc(-c3c4nc(c(-c5c(F)cccc5F)c5ccc([nH]5)c(-c5c(F)cccc5F)c5nc(c(-c6c(F)cccc6F)c6ccc3[nH]6)C=C5)C=C4)cc2)ccc1F)C(F)(F)F
REMARK SMILES IDX 15 1 14 2 13 3 12 4 10 5 11 6 9 8 7 9 8 10 78 11 77 12 79 13
REMARK SMILES IDX 76 14 6 15 4 16 5 17 2 19 1 20 3 21 80 25 81 26 82 27 83 28
REMARK SMILES IDX 16 29 17 30 18 31 19 32 20 33 21 35 22 36 23 37 75 38 24 39
REMARK SMILES IDX 74 40 25 41 26 42 27 43 68 44 28 45 73 46 67 47 69 48 29 49
REMARK SMILES IDX 72 50 66 51 65 52 30 54 56 55 39 56 55 57 40 58 43 59 54 60
REMARK SMILES IDX 70 61 41 62 42 63 53 65 71 66 44 67 31 68 32 69 37 70 33 71
REMARK SMILES IDX 34 72 36 73 38 74 35 75 57 76 58 77 63 78 59 79 60 80 62 81
REMARK SMILES IDX 64 82 61 83 45 84 46 85 51 86 47 87 48 88 50 89 52 90 49 91
REMARK H PARENT 12 7 6 18 3 22 3 23 3 24 19 34 69 53 43 64
REMARK Flexibility Score: inf
ROOT
ATOM      1  C   UNL A   1      34.617  20.609  24.731  1.00  0.00     0.002 C 
ENDROOT
BRANCH   1   2
ATOM      2  C   UNL A   1      33.607  20.954  25.835  1.00  0.00     0.021 C 
BRANCH   2   3
ATOM      3  C   UNL A   1      32.166  21.096  25.340  1.00  0.00     0.116 C 
BRANCH   3   4
ATOM      4  N   UNL A   1      31.388  21.901  26.259  1.00  0.00    -0.352 N 
ATOM      5  C   UNL A   1      31.178  23.249  26.366  1.00  0.00     0.251 C 
ATOM      6  O   UNL A   1      30.397  23.636  27.237  1.00  0.00    -0.269 OA
ATOM      7  H   UNL A   1      30.914  21.374  26.942  1.00  0.00     0.163 HD
BRANCH   5   8
ATOM      8  C   UNL A   1      31.801  24.263  25.469  1.00  0.00     0.042 A 
ATOM      9  C   UNL A   1      33.269  26.204  25.334  1.00  0.00     0.078 A 
ATOM     10  C   UNL A   1      32.677  25.182  26.077  1.00  0.00     0.043 A 
ATOM     11  C   UNL A   1      33.072  26.241  23.954  1.00  0.00     0.146 A 
ATOM     12  C   UNL A   1      32.245  25.317  23.327  1.00  0.00     0.042 A 
ATOM     13  F   UNL A   1      33.745  27.117  23.195  1.00  0.00    -0.205 F 
ATOM     14  C   UNL A   1      31.617  24.323  24.083  1.00  0.00     0.017 A 
BRANCH   9  15
ATOM     15  N   UNL A   1      34.139  27.086  25.981  1.00  0.00    -0.318 N 
ATOM     16  C   UNL A   1      33.928  28.380  26.392  1.00  0.00     0.295 C 
ATOM     17  O   UNL A   1      34.938  29.031  26.678  1.00  0.00    -0.267 OA
ATOM     18  H   UNL A   1      35.037  26.727  26.170  1.00  0.00     0.170 HD
BRANCH  16  19
ATOM     19  C   UNL A   1      32.495  28.934  26.640  1.00  0.00     0.267 C 
ATOM     20  C   UNL A   1      31.508  27.902  27.190  1.00  0.00     0.100 C 
BRANCH  19  21
ATOM     21  N   UNL A   1      32.572  30.081  27.628  1.00  0.00    -0.337 N 
ATOM     22  H   UNL A   1      33.383  30.661  27.415  1.00  0.00     0.345 HD
ATOM     23  H   UNL A   1      32.659  29.710  28.575  1.00  0.00     0.345 HD
ATOM     24  H   UNL A   1      31.723  30.644  27.562  1.00  0.00     0.345 HD
ENDBRANCH  19  21
BRANCH  19  25
ATOM     25  C   UNL A   1      31.964  29.385  25.248  1.00  0.00     0.453 C 
ATOM     26  F   UNL A   1      31.071  28.530  24.710  1.00  0.00    -0.164 F 
ATOM     27  F   UNL A   1      31.326  30.584  25.379  1.00  0.00    -0.164 F 
ATOM     28  F   UNL A   1      32.965  29.598  24.363  1.00  0.00    -0.164 F 
ENDBRANCH  19  25
ENDBRANCH  16  19
ENDBRANCH   9  15
ENDBRANCH   5   8
ENDBRANCH   3   4
ENDBRANCH   2   3
ENDBRANCH   1   2
BRANCH   1  29
ATOM     29  C   UNL A   1      35.687  21.674  24.460  1.00  0.00     0.002 C 
BRANCH  29  30
ATOM     30  C   UNL A   1      35.441  23.034  25.120  1.00  0.00     0.021 C 
BRANCH  30  31
ATOM     31  C   UNL A   1      36.659  23.640  25.809  1.00  0.00     0.116 C 
BRANCH  31  32
ATOM     32  N   UNL A   1      37.708  22.658  26.022  1.00  0.00    -0.352 N 
ATOM     33  C   UNL A   1      39.011  22.844  26.403  1.00  0.00     0.251 C 
ATOM     34  H   UNL A   1      37.443  21.721  25.872  1.00  0.00     0.163 HD
ATOM     35  O   UNL A   1      39.809  21.909  26.338  1.00  0.00    -0.269 OA
BRANCH  33  36
ATOM     36  C   UNL A   1      39.472  24.165  26.884  1.00  0.00     0.039 A 
ATOM     37  C   UNL A   1      39.278  24.496  28.228  1.00  0.00     0.014 A 
ATOM     38  C   UNL A   1      40.043  25.095  26.009  1.00  0.00     0.014 A 
ATOM     39  C   UNL A   1      39.687  25.744  28.703  1.00  0.00     0.010 A 
ATOM     40  C   UNL A   1      40.506  26.315  26.496  1.00  0.00     0.010 A 
ATOM     41  C   UNL A   1      40.319  26.657  27.844  1.00  0.00    -0.014 A 
BRANCH  41  42
ATOM     42  C   UNL A   1      40.754  27.989  28.331  1.00  0.00     0.031 A 
ATOM     43  C   UNL A   1      42.218  28.326  28.390  1.00  0.00     0.074 A 
ATOM     44  C   UNL A   1      39.839  28.879  28.757  1.00  0.00     0.049 A 
ATOM     45  N   UNL A   1      42.800  29.408  28.841  1.00  0.00    -0.248 NA
ATOM     46  C   UNL A   1      43.155  27.302  27.901  1.00  0.00     0.031 C 
ATOM     47  C   UNL A   1      38.392  28.659  28.778  1.00  0.00     0.029 A 
ATOM     48  N   UNL A   1      39.990  30.147  29.257  1.00  0.00    -0.354 N 
ATOM     49  C   UNL A   1      44.164  29.188  28.704  1.00  0.00     0.074 A 
ATOM     50  C   UNL A   1      44.328  27.854  28.172  1.00  0.00     0.031 C 
ATOM     51  C   UNL A   1      37.787  29.765  29.241  1.00  0.00     0.029 A 
ATOM     52  C   UNL A   1      38.803  30.759  29.577  1.00  0.00     0.049 A 
ATOM     53  H   UNL A   1      40.868  30.579  29.375  1.00  0.00     0.167 HD
ATOM     54  C   UNL A   1      45.188  30.032  28.976  1.00  0.00     0.037 A 
ATOM     55  C   UNL A   1      38.560  31.984  30.081  1.00  0.00     0.037 A 
ATOM     56  C   UNL A   1      45.022  31.373  29.470  1.00  0.00     0.049 A 
ATOM     57  C   UNL A   1      39.712  32.908  30.359  1.00  0.00     0.074 A 
ATOM     58  C   UNL A   1      45.996  32.320  29.737  1.00  0.00     0.029 A 
ATOM     59  N   UNL A   1      43.802  31.962  29.762  1.00  0.00    -0.354 N 
ATOM     60  N   UNL A   1      40.995  32.699  30.196  1.00  0.00    -0.248 NA
ATOM     61  C   UNL A   1      39.382  34.241  30.885  1.00  0.00     0.031 C 
ATOM     62  C   UNL A   1      45.367  33.471  30.217  1.00  0.00     0.029 A 
ATOM     63  C   UNL A   1      43.998  33.256  30.211  1.00  0.00     0.049 A 
ATOM     64  H   UNL A   1      42.925  31.524  29.663  1.00  0.00     0.167 HD
ATOM     65  C   UNL A   1      41.624  33.878  30.572  1.00  0.00     0.074 A 
ATOM     66  C   UNL A   1      40.581  34.802  30.966  1.00  0.00     0.031 C 
ATOM     67  C   UNL A   1      42.948  34.167  30.587  1.00  0.00     0.037 A 
BRANCH  54  68
ATOM     68  C   UNL A   1      46.581  29.535  28.729  1.00  0.00     0.057 A 
ATOM     69  C   UNL A   1      47.181  29.677  27.471  1.00  0.00     0.134 A 
ATOM     70  C   UNL A   1      47.311  28.870  29.723  1.00  0.00     0.134 A 
ATOM     71  F   UNL A   1      46.533  30.298  26.474  1.00  0.00    -0.206 F 
ATOM     72  C   UNL A   1      48.454  29.169  27.209  1.00  0.00     0.040 A 
ATOM     73  C   UNL A   1      48.596  28.381  29.480  1.00  0.00     0.040 A 
ATOM     74  F   UNL A   1      46.799  28.713  30.953  1.00  0.00    -0.206 F 
ATOM     75  C   UNL A   1      49.167  28.523  28.217  1.00  0.00     0.006 A 
ENDBRANCH  54  68
BRANCH  55  76
ATOM     76  C   UNL A   1      37.161  32.419  30.309  1.00  0.00     0.057 A 
ATOM     77  C   UNL A   1      36.442  33.121  29.335  1.00  0.00     0.134 A 
ATOM     78  C   UNL A   1      36.520  32.162  31.527  1.00  0.00     0.134 A 
ATOM     79  F   UNL A   1      37.005  33.406  28.152  1.00  0.00    -0.206 F 
ATOM     80  C   UNL A   1      35.139  33.564  29.568  1.00  0.00     0.040 A 
ATOM     81  C   UNL A   1      35.211  32.581  31.765  1.00  0.00     0.040 A 
ATOM     82  F   UNL A   1      37.154  31.479  32.491  1.00  0.00    -0.206 F 
ATOM     83  C   UNL A   1      34.519  33.291  30.786  1.00  0.00     0.006 A 
ENDBRANCH  55  76
BRANCH  67  84
ATOM     84  C   UNL A   1      43.351  35.547  31.012  1.00  0.00     0.057 A 
ATOM     85  C   UNL A   1      43.541  36.557  30.060  1.00  0.00     0.134 A 
ATOM     86  C   UNL A   1      43.623  35.856  32.349  1.00  0.00     0.134 A 
ATOM     87  F   UNL A   1      43.306  36.321  28.760  1.00  0.00    -0.206 F 
ATOM     88  C   UNL A   1      43.999  37.824  30.422  1.00  0.00     0.040 A 
ATOM     89  C   UNL A   1      44.062  37.125  32.727  1.00  0.00     0.040 A 
ATOM     90  F   UNL A   1      43.452  34.934  33.309  1.00  0.00    -0.206 F 
ATOM     91  C   UNL A   1      44.259  38.111  31.761  1.00  0.00     0.006 A 
ENDBRANCH  67  84
ENDBRANCH  41  42
ENDBRANCH  33  36
ENDBRANCH  31  32
ENDBRANCH  30  31
ENDBRANCH  29  30
ENDBRANCH   1  29
TORSDOF 17
ENDMDL
