MODEL 1
REMARK VINA RESULT:     -10.4      0.000      0.000
REMARK SMILES COc1ccc(C(=O)C[C@H](C)CC(=O)NCCCCCCNC(=O)c2ccc(-c3c4nc(c(-c5c(F)cccc5F)c5ccc([nH]5)c(-c5c(F)cccc5F)c5nc(c(-c6c(F)cccc6F)c6ccc3[nH]6)C=C5)C=C4)cc2)c(OC)c1
REMARK SMILES IDX 17 1 16 2 15 3 13 4 14 5 12 7 10 8 11 9 9 10 7 11 8 12 6 13
REMARK SMILES IDX 3 14 4 15 82 16 5 17 79 18 2 19 1 20 80 21 81 22 18 23 19 24
REMARK SMILES IDX 20 25 21 26 22 27 23 28 24 30 25 31 26 32 78 33 27 34 77 35
REMARK SMILES IDX 28 36 29 37 30 38 71 39 31 40 76 41 70 42 72 43 32 44 75 45
REMARK SMILES IDX 69 46 68 47 33 49 59 50 42 51 58 52 43 53 46 54 57 55 73 56
REMARK SMILES IDX 44 57 45 58 56 60 74 61 47 62 34 63 35 64 40 65 36 66 37 67
REMARK SMILES IDX 39 68 41 69 38 70 60 71 61 72 66 73 62 74 63 75 65 76 67 77
REMARK SMILES IDX 64 78 48 79 49 80 54 81 50 82 51 83 53 84 55 85 52 86
REMARK H PARENT 15 6 22 29 72 48 46 59
REMARK Flexibility Score: inf
ROOT
ATOM      1  C   UNL A   1      35.526  22.007  25.862  1.00  0.00     0.021 C 
ENDROOT
BRANCH   1   2
ATOM      2  C   UNL A   1      34.350  21.447  26.658  1.00  0.00     0.116 C 
BRANCH   2   3
ATOM      3  N   UNL A   1      33.823  20.290  25.962  1.00  0.00    -0.356 N 
ATOM      4  C   UNL A   1      32.630  20.194  25.305  1.00  0.00     0.220 C 
ATOM      5  O   UNL A   1      32.106  19.093  25.157  1.00  0.00    -0.275 OA
ATOM      6  H   UNL A   1      34.387  19.483  25.963  1.00  0.00     0.163 HD
BRANCH   4   7
ATOM      7  C   UNL A   1      32.073  21.441  24.661  1.00  0.00     0.103 C 
BRANCH   7   8
ATOM      8  C   UNL A   1      32.637  21.907  23.316  1.00  0.00     0.003 C 
ATOM      9  C   UNL A   1      32.014  21.172  22.126  1.00  0.00     0.008 C 
BRANCH   8  10
ATOM     10  C   UNL A   1      32.392  23.425  23.138  1.00  0.00     0.085 C 
BRANCH  10  11
ATOM     11  C   UNL A   1      33.616  24.304  23.353  1.00  0.00     0.166 C 
ATOM     12  O   UNL A   1      34.724  23.907  22.984  1.00  0.00    -0.294 OA
BRANCH  11  13
ATOM     13  C   UNL A   1      33.537  25.612  24.077  1.00  0.00     0.060 A 
ATOM     14  C   UNL A   1      33.653  28.166  25.212  1.00  0.00     0.122 A 
ATOM     15  C   UNL A   1      33.725  28.030  23.834  1.00  0.00     0.047 A 
ATOM     16  C   UNL A   1      33.447  27.052  26.025  1.00  0.00     0.093 A 
ATOM     17  C   UNL A   1      33.673  26.756  23.269  1.00  0.00     0.019 A 
ATOM     18  C   UNL A   1      33.394  25.764  25.471  1.00  0.00     0.133 A 
BRANCH  14  19
ATOM     19  O   UNL A   1      33.718  29.430  25.732  1.00  0.00    -0.497 OA
ATOM     20  C   UNL A   1      32.460  29.837  26.274  1.00  0.00     0.278 C 
ENDBRANCH  14  19
BRANCH  18  21
ATOM     21  O   UNL A   1      33.184  24.645  26.234  1.00  0.00    -0.496 OA
ATOM     22  C   UNL A   1      31.857  24.433  26.718  1.00  0.00     0.278 C 
ENDBRANCH  18  21
ENDBRANCH  11  13
ENDBRANCH  10  11
ENDBRANCH   8  10
ENDBRANCH   7   8
ENDBRANCH   4   7
ENDBRANCH   2   3
ENDBRANCH   1   2
BRANCH   1  23
ATOM     23  C   UNL A   1      36.047  21.028  24.808  1.00  0.00     0.002 C 
BRANCH  23  24
ATOM     24  C   UNL A   1      37.565  21.072  24.612  1.00  0.00     0.002 C 
BRANCH  24  25
ATOM     25  C   UNL A   1      38.275  19.731  24.817  1.00  0.00     0.021 C 
BRANCH  25  26
ATOM     26  C   UNL A   1      39.117  19.649  26.086  1.00  0.00     0.116 C 
BRANCH  26  27
ATOM     27  N   UNL A   1      40.407  19.033  25.833  1.00  0.00    -0.352 N 
ATOM     28  C   UNL A   1      41.658  19.587  25.880  1.00  0.00     0.251 C 
ATOM     29  H   UNL A   1      40.378  18.078  25.595  1.00  0.00     0.163 HD
ATOM     30  O   UNL A   1      42.618  18.976  25.422  1.00  0.00    -0.269 OA
BRANCH  28  31
ATOM     31  C   UNL A   1      41.850  20.923  26.479  1.00  0.00     0.039 A 
ATOM     32  C   UNL A   1      42.240  21.976  25.650  1.00  0.00     0.014 A 
ATOM     33  C   UNL A   1      41.699  21.127  27.854  1.00  0.00     0.014 A 
ATOM     34  C   UNL A   1      42.465  23.238  26.198  1.00  0.00     0.010 A 
ATOM     35  C   UNL A   1      41.852  22.402  28.389  1.00  0.00     0.010 A 
ATOM     36  C   UNL A   1      42.266  23.463  27.570  1.00  0.00    -0.014 A 
BRANCH  36  37
ATOM     37  C   UNL A   1      42.546  24.792  28.164  1.00  0.00     0.031 A 
ATOM     38  C   UNL A   1      43.946  25.149  28.579  1.00  0.00     0.074 A 
ATOM     39  C   UNL A   1      41.541  25.668  28.341  1.00  0.00     0.049 A 
ATOM     40  N   UNL A   1      44.395  26.262  29.102  1.00  0.00    -0.248 NA
ATOM     41  C   UNL A   1      44.976  24.110  28.410  1.00  0.00     0.031 C 
ATOM     42  C   UNL A   1      40.133  25.418  28.025  1.00  0.00     0.029 A 
ATOM     43  N   UNL A   1      41.550  26.950  28.828  1.00  0.00    -0.354 N 
ATOM     44  C   UNL A   1      45.750  26.053  29.332  1.00  0.00     0.074 A 
ATOM     45  C   UNL A   1      46.038  24.688  28.949  1.00  0.00     0.031 C 
ATOM     46  C   UNL A   1      39.419  26.523  28.295  1.00  0.00     0.029 A 
ATOM     47  C   UNL A   1      40.313  27.548  28.825  1.00  0.00     0.049 A 
ATOM     48  H   UNL A   1      42.364  27.397  29.151  1.00  0.00     0.167 HD
ATOM     49  C   UNL A   1      46.676  26.925  29.794  1.00  0.00     0.037 A 
ATOM     50  C   UNL A   1      39.949  28.789  29.194  1.00  0.00     0.037 A 
ATOM     51  C   UNL A   1      46.392  28.291  30.147  1.00  0.00     0.049 A 
ATOM     52  C   UNL A   1      41.001  29.750  29.675  1.00  0.00     0.074 A 
ATOM     53  C   UNL A   1      47.265  29.270  30.585  1.00  0.00     0.029 A 
ATOM     54  N   UNL A   1      45.132  28.870  30.099  1.00  0.00    -0.354 N 
ATOM     55  N   UNL A   1      42.289  29.558  29.827  1.00  0.00    -0.248 NA
ATOM     56  C   UNL A   1      40.550  31.105  30.016  1.00  0.00     0.031 C 
ATOM     57  C   UNL A   1      46.529  30.435  30.830  1.00  0.00     0.029 A 
ATOM     58  C   UNL A   1      45.204  30.193  30.504  1.00  0.00     0.049 A 
ATOM     59  H   UNL A   1      44.309  28.409  29.817  1.00  0.00     0.167 HD
ATOM     60  C   UNL A   1      42.807  30.776  30.247  1.00  0.00     0.074 A 
ATOM     61  C   UNL A   1      41.694  31.702  30.314  1.00  0.00     0.031 C 
ATOM     62  C   UNL A   1      44.088  31.102  30.550  1.00  0.00     0.037 A 
BRANCH  49  63
ATOM     63  C   UNL A   1      48.086  26.427  29.931  1.00  0.00     0.057 A 
ATOM     64  C   UNL A   1      48.532  25.783  31.093  1.00  0.00     0.134 A 
ATOM     65  C   UNL A   1      49.003  26.575  28.884  1.00  0.00     0.134 A 
ATOM     66  F   UNL A   1      47.708  25.623  32.140  1.00  0.00    -0.206 F 
ATOM     67  C   UNL A   1      49.847  25.332  31.220  1.00  0.00     0.040 A 
ATOM     68  C   UNL A   1      50.313  26.103  28.988  1.00  0.00     0.040 A 
ATOM     69  F   UNL A   1      48.643  27.178  27.741  1.00  0.00    -0.206 F 
ATOM     70  C   UNL A   1      50.740  25.485  30.162  1.00  0.00     0.006 A 
ENDBRANCH  49  63
BRANCH  50  71
ATOM     71  C   UNL A   1      38.531  29.213  29.075  1.00  0.00     0.057 A 
ATOM     72  C   UNL A   1      38.016  29.671  27.857  1.00  0.00     0.134 A 
ATOM     73  C   UNL A   1      37.664  29.180  30.172  1.00  0.00     0.134 A 
ATOM     74  F   UNL A   1      38.804  29.740  26.774  1.00  0.00    -0.206 F 
ATOM     75  C   UNL A   1      36.694  30.104  27.738  1.00  0.00     0.040 A 
ATOM     76  C   UNL A   1      36.333  29.586  30.062  1.00  0.00     0.040 A 
ATOM     77  F   UNL A   1      38.094  28.740  31.363  1.00  0.00    -0.206 F 
ATOM     78  C   UNL A   1      35.847  30.058  28.844  1.00  0.00     0.006 A 
ENDBRANCH  50  71
BRANCH  62  79
ATOM     79  C   UNL A   1      44.357  32.528  30.931  1.00  0.00     0.057 A 
ATOM     80  C   UNL A   1      44.664  33.506  29.978  1.00  0.00     0.134 A 
ATOM     81  C   UNL A   1      44.294  32.926  32.273  1.00  0.00     0.134 A 
ATOM     82  F   UNL A   1      44.753  33.186  28.678  1.00  0.00    -0.206 F 
ATOM     83  C   UNL A   1      44.930  34.825  30.349  1.00  0.00     0.040 A 
ATOM     84  C   UNL A   1      44.530  34.247  32.652  1.00  0.00     0.040 A 
ATOM     85  F   UNL A   1      43.995  32.039  33.234  1.00  0.00    -0.206 F 
ATOM     86  C   UNL A   1      44.859  35.199  31.690  1.00  0.00     0.006 A 
ENDBRANCH  62  79
ENDBRANCH  36  37
ENDBRANCH  28  31
ENDBRANCH  26  27
ENDBRANCH  25  26
ENDBRANCH  24  25
ENDBRANCH  23  24
ENDBRANCH   1  23
TORSDOF 19
ENDMDL
MODEL 2
REMARK VINA RESULT:     -10.2      1.962      6.624
REMARK SMILES COc1ccc(C(=O)C[C@H](C)CC(=O)NCCCCCCNC(=O)c2ccc(-c3c4nc(c(-c5c(F)cccc5F)c5ccc([nH]5)c(-c5c(F)cccc5F)c5nc(c(-c6c(F)cccc6F)c6ccc3[nH]6)C=C5)C=C4)cc2)c(OC)c1
REMARK SMILES IDX 17 1 16 2 15 3 13 4 14 5 12 7 10 8 11 9 9 10 7 11 8 12 6 13
REMARK SMILES IDX 3 14 4 15 82 16 5 17 79 18 2 19 1 20 80 21 81 22 18 23 19 24
REMARK SMILES IDX 20 25 21 26 22 27 23 28 24 30 25 31 26 32 78 33 27 34 77 35
REMARK SMILES IDX 28 36 29 37 30 38 71 39 31 40 76 41 70 42 72 43 32 44 75 45
REMARK SMILES IDX 69 46 68 47 33 49 59 50 42 51 58 52 43 53 46 54 57 55 73 56
REMARK SMILES IDX 44 57 45 58 56 60 74 61 47 62 34 63 35 64 40 65 36 66 37 67
REMARK SMILES IDX 39 68 41 69 38 70 60 71 61 72 66 73 62 74 63 75 65 76 67 77
REMARK SMILES IDX 64 78 48 79 49 80 54 81 50 82 51 83 53 84 55 85 52 86
REMARK H PARENT 15 6 22 29 72 48 46 59
REMARK Flexibility Score: inf
ROOT
ATOM      1  C   UNL A   1      35.349  22.775  24.599  1.00  0.00     0.021 C 
ENDROOT
BRANCH   1   2
ATOM      2  C   UNL A   1      34.244  22.799  23.547  1.00  0.00     0.116 C 
BRANCH   2   3
ATOM      3  N   UNL A   1      33.315  21.719  23.820  1.00  0.00    -0.356 N 
ATOM      4  C   UNL A   1      32.227  21.754  24.642  1.00  0.00     0.220 C 
ATOM      5  O   UNL A   1      31.803  20.711  25.133  1.00  0.00    -0.275 OA
ATOM      6  H   UNL A   1      33.490  20.865  23.362  1.00  0.00     0.163 HD
BRANCH   4   7
ATOM      7  C   UNL A   1      31.500  23.068  24.800  1.00  0.00     0.103 C 
BRANCH   7   8
ATOM      8  C   UNL A   1      31.712  23.895  26.071  1.00  0.00     0.003 C 
ATOM      9  C   UNL A   1      32.568  23.170  27.113  1.00  0.00     0.008 C 
BRANCH   8  10
ATOM     10  C   UNL A   1      32.400  25.236  25.720  1.00  0.00     0.085 C 
BRANCH  10  11
ATOM     11  C   UNL A   1      31.590  26.481  26.057  1.00  0.00     0.166 C 
ATOM     12  O   UNL A   1      31.324  26.736  27.234  1.00  0.00    -0.294 OA
BRANCH  11  13
ATOM     13  C   UNL A   1      31.028  27.374  24.994  1.00  0.00     0.060 A 
ATOM     14  C   UNL A   1      29.947  28.746  22.809  1.00  0.00     0.122 A 
ATOM     15  C   UNL A   1      29.405  27.525  23.183  1.00  0.00     0.047 A 
ATOM     16  C   UNL A   1      30.969  29.327  23.559  1.00  0.00     0.093 A 
ATOM     17  C   UNL A   1      29.948  26.839  24.268  1.00  0.00     0.019 A 
ATOM     18  C   UNL A   1      31.526  28.648  24.653  1.00  0.00     0.133 A 
BRANCH  14  19
ATOM     19  O   UNL A   1      29.395  29.386  21.733  1.00  0.00    -0.497 OA
ATOM     20  C   UNL A   1      28.057  29.809  22.007  1.00  0.00     0.278 C 
ENDBRANCH  14  19
BRANCH  18  21
ATOM     21  O   UNL A   1      32.525  29.188  25.420  1.00  0.00    -0.496 OA
ATOM     22  C   UNL A   1      32.149  30.207  26.347  1.00  0.00     0.278 C 
ENDBRANCH  18  21
ENDBRANCH  11  13
ENDBRANCH  10  11
ENDBRANCH   8  10
ENDBRANCH   7   8
ENDBRANCH   4   7
ENDBRANCH   2   3
ENDBRANCH   1   2
BRANCH   1  23
ATOM     23  C   UNL A   1      36.488  21.818  24.240  1.00  0.00     0.002 C 
BRANCH  23  24
ATOM     24  C   UNL A   1      36.450  20.490  25.002  1.00  0.00     0.002 C 
BRANCH  24  25
ATOM     25  C   UNL A   1      37.728  19.655  24.893  1.00  0.00     0.021 C 
BRANCH  25  26
ATOM     26  C   UNL A   1      38.911  20.203  25.685  1.00  0.00     0.116 C 
BRANCH  26  27
ATOM     27  N   UNL A   1      39.941  19.198  25.874  1.00  0.00    -0.352 N 
ATOM     28  C   UNL A   1      41.284  19.360  26.083  1.00  0.00     0.251 C 
ATOM     29  H   UNL A   1      39.629  18.264  25.849  1.00  0.00     0.163 HD
ATOM     30  O   UNL A   1      42.040  18.398  25.999  1.00  0.00    -0.269 OA
BRANCH  28  31
ATOM     31  C   UNL A   1      41.823  20.697  26.404  1.00  0.00     0.039 A 
ATOM     32  C   UNL A   1      41.977  21.049  27.746  1.00  0.00     0.014 A 
ATOM     33  C   UNL A   1      42.126  21.616  25.395  1.00  0.00     0.014 A 
ATOM     34  C   UNL A   1      42.448  22.320  28.076  1.00  0.00     0.010 A 
ATOM     35  C   UNL A   1      42.665  22.856  25.723  1.00  0.00     0.010 A 
ATOM     36  C   UNL A   1      42.803  23.230  27.067  1.00  0.00    -0.014 A 
BRANCH  36  37
ATOM     37  C   UNL A   1      43.263  24.596  27.414  1.00  0.00     0.031 A 
ATOM     38  C   UNL A   1      42.268  25.636  27.848  1.00  0.00     0.074 A 
ATOM     39  C   UNL A   1      44.570  24.902  27.324  1.00  0.00     0.049 A 
ATOM     40  N   UNL A   1      42.473  26.879  28.205  1.00  0.00    -0.248 NA
ATOM     41  C   UNL A   1      40.850  25.238  27.857  1.00  0.00     0.031 C 
ATOM     42  C   UNL A   1      45.623  23.994  26.868  1.00  0.00     0.029 A 
ATOM     43  N   UNL A   1      45.236  26.064  27.618  1.00  0.00    -0.354 N 
ATOM     44  C   UNL A   1      41.216  27.409  28.469  1.00  0.00     0.074 A 
ATOM     45  C   UNL A   1      40.250  26.374  28.174  1.00  0.00     0.031 C 
ATOM     46  C   UNL A   1      46.808  24.622  26.943  1.00  0.00     0.029 A 
ATOM     47  C   UNL A   1      46.594  25.982  27.429  1.00  0.00     0.049 A 
ATOM     48  H   UNL A   1      44.784  26.880  27.932  1.00  0.00     0.167 HD
ATOM     49  C   UNL A   1      40.896  28.637  28.942  1.00  0.00     0.037 A 
ATOM     50  C   UNL A   1      47.557  26.897  27.641  1.00  0.00     0.037 A 
ATOM     51  C   UNL A   1      41.861  29.655  29.262  1.00  0.00     0.049 A 
ATOM     52  C   UNL A   1      47.180  28.243  28.194  1.00  0.00     0.074 A 
ATOM     53  C   UNL A   1      41.646  30.916  29.786  1.00  0.00     0.029 A 
ATOM     54  N   UNL A   1      43.231  29.522  29.087  1.00  0.00    -0.354 N 
ATOM     55  N   UNL A   1      45.993  28.709  28.501  1.00  0.00    -0.248 NA
ATOM     56  C   UNL A   1      48.279  29.183  28.451  1.00  0.00     0.031 C 
ATOM     57  C   UNL A   1      42.883  31.559  29.901  1.00  0.00     0.029 A 
ATOM     58  C   UNL A   1      43.874  30.681  29.490  1.00  0.00     0.049 A 
ATOM     59  H   UNL A   1      43.680  28.721  28.732  1.00  0.00     0.167 HD
ATOM     60  C   UNL A   1      46.206  29.980  29.018  1.00  0.00     0.074 A 
ATOM     61  C   UNL A   1      47.636  30.206  28.994  1.00  0.00     0.031 C 
ATOM     62  C   UNL A   1      45.299  30.881  29.472  1.00  0.00     0.037 A 
BRANCH  49  63
ATOM     63  C   UNL A   1      39.439  28.937  29.151  1.00  0.00     0.057 A 
ATOM     64  C   UNL A   1      38.629  29.423  28.115  1.00  0.00     0.134 A 
ATOM     65  C   UNL A   1      38.835  28.724  30.395  1.00  0.00     0.134 A 
ATOM     66  F   UNL A   1      39.150  29.664  26.901  1.00  0.00    -0.206 F 
ATOM     67  C   UNL A   1      37.279  29.711  28.317  1.00  0.00     0.040 A 
ATOM     68  C   UNL A   1      37.479  28.983  30.602  1.00  0.00     0.040 A 
ATOM     69  F   UNL A   1      39.550  28.257  31.430  1.00  0.00    -0.206 F 
ATOM     70  C   UNL A   1      36.698  29.485  29.563  1.00  0.00     0.006 A 
ENDBRANCH  49  63
BRANCH  50  71
ATOM     71  C   UNL A   1      48.977  26.556  27.377  1.00  0.00     0.057 A 
ATOM     72  C   UNL A   1      49.768  25.950  28.360  1.00  0.00     0.134 A 
ATOM     73  C   UNL A   1      49.579  26.833  26.145  1.00  0.00     0.134 A 
ATOM     74  F   UNL A   1      49.250  25.675  29.567  1.00  0.00    -0.206 F 
ATOM     75  C   UNL A   1      51.113  25.654  28.138  1.00  0.00     0.040 A 
ATOM     76  C   UNL A   1      50.917  26.520  25.900  1.00  0.00     0.040 A 
ATOM     77  F   UNL A   1      48.872  27.402  25.158  1.00  0.00    -0.206 F 
ATOM     78  C   UNL A   1      51.690  25.936  26.901  1.00  0.00     0.006 A 
ENDBRANCH  50  71
BRANCH  62  79
ATOM     79  C   UNL A   1      45.836  32.169  30.024  1.00  0.00     0.057 A 
ATOM     80  C   UNL A   1      46.027  33.299  29.220  1.00  0.00     0.134 A 
ATOM     81  C   UNL A   1      46.152  32.278  31.385  1.00  0.00     0.134 A 
ATOM     82  F   UNL A   1      45.756  33.254  27.907  1.00  0.00    -0.206 F 
ATOM     83  C   UNL A   1      46.544  34.485  29.744  1.00  0.00     0.040 A 
ATOM     84  C   UNL A   1      46.644  33.467  31.925  1.00  0.00     0.040 A 
ATOM     85  F   UNL A   1      45.983  31.235  32.211  1.00  0.00    -0.206 F 
ATOM     86  C   UNL A   1      46.850  34.572  31.101  1.00  0.00     0.006 A 
ENDBRANCH  62  79
ENDBRANCH  36  37
ENDBRANCH  28  31
ENDBRANCH  26  27
ENDBRANCH  25  26
ENDBRANCH  24  25
ENDBRANCH  23  24
ENDBRANCH   1  23
TORSDOF 19
ENDMDL
MODEL 3
REMARK VINA RESULT:     -10.1      1.249      2.062
REMARK SMILES COc1ccc(C(=O)C[C@H](C)CC(=O)NCCCCCCNC(=O)c2ccc(-c3c4nc(c(-c5c(F)cccc5F)c5ccc([nH]5)c(-c5c(F)cccc5F)c5nc(c(-c6c(F)cccc6F)c6ccc3[nH]6)C=C5)C=C4)cc2)c(OC)c1
REMARK SMILES IDX 17 1 16 2 15 3 13 4 14 5 12 7 10 8 11 9 9 10 7 11 8 12 6 13
REMARK SMILES IDX 3 14 4 15 82 16 5 17 79 18 2 19 1 20 80 21 81 22 18 23 19 24
REMARK SMILES IDX 20 25 21 26 22 27 23 28 24 30 25 31 26 32 78 33 27 34 77 35
REMARK SMILES IDX 28 36 29 37 30 38 71 39 31 40 76 41 70 42 72 43 32 44 75 45
REMARK SMILES IDX 69 46 68 47 33 49 59 50 42 51 58 52 43 53 46 54 57 55 73 56
REMARK SMILES IDX 44 57 45 58 56 60 74 61 47 62 34 63 35 64 40 65 36 66 37 67
REMARK SMILES IDX 39 68 41 69 38 70 60 71 61 72 66 73 62 74 63 75 65 76 67 77
REMARK SMILES IDX 64 78 48 79 49 80 54 81 50 82 51 83 53 84 55 85 52 86
REMARK H PARENT 15 6 22 29 72 48 46 59
REMARK Flexibility Score: inf
ROOT
ATOM      1  C   UNL A   1      34.995  22.386  26.166  1.00  0.00     0.021 C 
ENDROOT
BRANCH   1   2
ATOM      2  C   UNL A   1      33.886  21.352  26.343  1.00  0.00     0.116 C 
BRANCH   2   3
ATOM      3  N   UNL A   1      32.810  21.947  27.111  1.00  0.00    -0.356 N 
ATOM      4  C   UNL A   1      31.881  22.846  26.671  1.00  0.00     0.220 C 
ATOM      5  O   UNL A   1      31.333  23.594  27.476  1.00  0.00    -0.275 OA
ATOM      6  H   UNL A   1      32.741  21.674  28.054  1.00  0.00     0.163 HD
BRANCH   4   7
ATOM      7  C   UNL A   1      31.464  22.781  25.222  1.00  0.00     0.103 C 
BRANCH   7   8
ATOM      8  C   UNL A   1      31.929  23.876  24.257  1.00  0.00     0.003 C 
ATOM      9  C   UNL A   1      32.842  23.340  23.150  1.00  0.00     0.008 C 
BRANCH   8  10
ATOM     10  C   UNL A   1      30.705  24.553  23.597  1.00  0.00     0.085 C 
BRANCH  10  11
ATOM     11  C   UNL A   1      30.216  25.817  24.292  1.00  0.00     0.166 C 
ATOM     12  O   UNL A   1      29.011  25.968  24.506  1.00  0.00    -0.294 OA
BRANCH  11  13
ATOM     13  C   UNL A   1      31.146  26.933  24.655  1.00  0.00     0.060 A 
ATOM     14  C   UNL A   1      32.749  28.991  25.666  1.00  0.00     0.122 A 
ATOM     15  C   UNL A   1      32.573  27.835  26.412  1.00  0.00     0.047 A 
ATOM     16  C   UNL A   1      32.199  29.100  24.388  1.00  0.00     0.093 A 
ATOM     17  C   UNL A   1      31.769  26.813  25.911  1.00  0.00     0.019 A 
ATOM     18  C   UNL A   1      31.387  28.079  23.871  1.00  0.00     0.133 A 
BRANCH  14  19
ATOM     19  O   UNL A   1      33.536  29.978  26.194  1.00  0.00    -0.497 OA
ATOM     20  C   UNL A   1      32.827  30.744  27.170  1.00  0.00     0.278 C 
ENDBRANCH  14  19
BRANCH  18  21
ATOM     21  O   UNL A   1      30.836  28.145  22.618  1.00  0.00    -0.496 OA
ATOM     22  C   UNL A   1      30.434  29.435  22.157  1.00  0.00     0.278 C 
ENDBRANCH  18  21
ENDBRANCH  11  13
ENDBRANCH  10  11
ENDBRANCH   8  10
ENDBRANCH   7   8
ENDBRANCH   4   7
ENDBRANCH   2   3
ENDBRANCH   1   2
BRANCH   1  23
ATOM     23  C   UNL A   1      36.333  21.758  25.770  1.00  0.00     0.002 C 
BRANCH  23  24
ATOM     24  C   UNL A   1      36.199  20.457  24.973  1.00  0.00     0.002 C 
BRANCH  24  25
ATOM     25  C   UNL A   1      37.476  19.616  24.906  1.00  0.00     0.021 C 
BRANCH  25  26
ATOM     26  C   UNL A   1      38.691  20.256  25.571  1.00  0.00     0.116 C 
BRANCH  26  27
ATOM     27  N   UNL A   1      39.786  19.314  25.706  1.00  0.00    -0.352 N 
ATOM     28  C   UNL A   1      41.095  19.546  26.032  1.00  0.00     0.251 C 
ATOM     29  H   UNL A   1      39.554  18.371  25.541  1.00  0.00     0.163 HD
ATOM     30  O   UNL A   1      41.932  18.661  25.883  1.00  0.00    -0.269 OA
BRANCH  28  31
ATOM     31  C   UNL A   1      41.501  20.865  26.558  1.00  0.00     0.039 A 
ATOM     32  C   UNL A   1      41.365  21.108  27.925  1.00  0.00     0.014 A 
ATOM     33  C   UNL A   1      41.963  21.873  25.704  1.00  0.00     0.014 A 
ATOM     34  C   UNL A   1      41.705  22.358  28.441  1.00  0.00     0.010 A 
ATOM     35  C   UNL A   1      42.371  23.094  26.229  1.00  0.00     0.010 A 
ATOM     36  C   UNL A   1      42.218  23.358  27.598  1.00  0.00    -0.014 A 
BRANCH  36  37
ATOM     37  C   UNL A   1      42.540  24.702  28.134  1.00  0.00     0.031 A 
ATOM     38  C   UNL A   1      43.966  25.064  28.449  1.00  0.00     0.074 A 
ATOM     39  C   UNL A   1      41.551  25.588  28.350  1.00  0.00     0.049 A 
ATOM     40  N   UNL A   1      44.451  26.189  28.909  1.00  0.00    -0.248 NA
ATOM     41  C   UNL A   1      44.979  24.016  28.244  1.00  0.00     0.031 C 
ATOM     42  C   UNL A   1      40.126  25.337  28.132  1.00  0.00     0.029 A 
ATOM     43  N   UNL A   1      41.596  26.884  28.798  1.00  0.00    -0.354 N 
ATOM     44  C   UNL A   1      45.817  25.979  29.058  1.00  0.00     0.074 A 
ATOM     45  C   UNL A   1      46.075  24.603  28.697  1.00  0.00     0.031 C 
ATOM     46  C   UNL A   1      39.434  26.453  28.415  1.00  0.00     0.029 A 
ATOM     47  C   UNL A   1      40.364  27.488  28.857  1.00  0.00     0.049 A 
ATOM     48  H   UNL A   1      42.431  27.336  29.055  1.00  0.00     0.167 HD
ATOM     49  C   UNL A   1      46.773  26.860  29.435  1.00  0.00     0.037 A 
ATOM     50  C   UNL A   1      40.028  28.741  29.212  1.00  0.00     0.037 A 
ATOM     51  C   UNL A   1      46.517  28.237  29.766  1.00  0.00     0.049 A 
ATOM     52  C   UNL A   1      41.112  29.710  29.597  1.00  0.00     0.074 A 
ATOM     53  C   UNL A   1      47.420  29.224  30.118  1.00  0.00     0.029 A 
ATOM     54  N   UNL A   1      45.259  28.821  29.781  1.00  0.00    -0.354 N 
ATOM     55  N   UNL A   1      42.406  29.516  29.671  1.00  0.00    -0.248 NA
ATOM     56  C   UNL A   1      40.688  31.077  29.927  1.00  0.00     0.031 C 
ATOM     57  C   UNL A   1      46.705  30.399  30.376  1.00  0.00     0.029 A 
ATOM     58  C   UNL A   1      45.361  30.154  30.142  1.00  0.00     0.049 A 
ATOM     59  H   UNL A   1      44.418  28.357  29.566  1.00  0.00     0.167 HD
ATOM     60  C   UNL A   1      42.955  30.743  30.022  1.00  0.00     0.074 A 
ATOM     61  C   UNL A   1      41.852  31.676  30.133  1.00  0.00     0.031 C 
ATOM     62  C   UNL A   1      44.253  31.070  30.233  1.00  0.00     0.037 A 
BRANCH  49  63
ATOM     63  C   UNL A   1      48.188  26.358  29.495  1.00  0.00     0.057 A 
ATOM     64  C   UNL A   1      48.706  25.747  30.646  1.00  0.00     0.134 A 
ATOM     65  C   UNL A   1      49.036  26.471  28.387  1.00  0.00     0.134 A 
ATOM     66  F   UNL A   1      47.950  25.622  31.747  1.00  0.00    -0.206 F 
ATOM     67  C   UNL A   1      50.024  25.293  30.701  1.00  0.00     0.040 A 
ATOM     68  C   UNL A   1      50.348  25.995  28.422  1.00  0.00     0.040 A 
ATOM     69  F   UNL A   1      48.605  27.041  27.252  1.00  0.00    -0.206 F 
ATOM     70  C   UNL A   1      50.848  25.410  29.583  1.00  0.00     0.006 A 
ENDBRANCH  49  63
BRANCH  50  71
ATOM     71  C   UNL A   1      38.607  29.169  29.172  1.00  0.00     0.057 A 
ATOM     72  C   UNL A   1      38.029  29.637  27.986  1.00  0.00     0.134 A 
ATOM     73  C   UNL A   1      37.799  29.129  30.313  1.00  0.00     0.134 A 
ATOM     74  F   UNL A   1      38.759  29.713  26.864  1.00  0.00    -0.206 F 
ATOM     75  C   UNL A   1      36.704  30.073  27.941  1.00  0.00     0.040 A 
ATOM     76  C   UNL A   1      36.465  29.539  30.277  1.00  0.00     0.040 A 
ATOM     77  F   UNL A   1      38.291  28.679  31.476  1.00  0.00    -0.206 F 
ATOM     78  C   UNL A   1      35.917  30.021  29.090  1.00  0.00     0.006 A 
ENDBRANCH  50  71
BRANCH  62  79
ATOM     79  C   UNL A   1      44.551  32.505  30.555  1.00  0.00     0.057 A 
ATOM     80  C   UNL A   1      44.718  32.951  31.872  1.00  0.00     0.134 A 
ATOM     81  C   UNL A   1      44.686  33.448  29.528  1.00  0.00     0.134 A 
ATOM     82  F   UNL A   1      44.588  32.099  32.901  1.00  0.00    -0.206 F 
ATOM     83  C   UNL A   1      44.977  34.292  32.158  1.00  0.00     0.040 A 
ATOM     84  C   UNL A   1      44.973  34.786  29.801  1.00  0.00     0.040 A 
ATOM     85  F   UNL A   1      44.548  33.083  28.245  1.00  0.00    -0.206 F 
ATOM     86  C   UNL A   1      45.110  35.213  31.120  1.00  0.00     0.006 A 
ENDBRANCH  62  79
ENDBRANCH  36  37
ENDBRANCH  28  31
ENDBRANCH  26  27
ENDBRANCH  25  26
ENDBRANCH  24  25
ENDBRANCH  23  24
ENDBRANCH   1  23
TORSDOF 19
ENDMDL
