MODEL 1
REMARK VINA RESULT:     -13.4      0.000      0.000
REMARK SMILES COc1ccccc1[C@@H]1C[N@@H+](Cc2cn3cc(C)ccc3n2)C[C@H]1C(=O)NCCCCCCNC(=O)c1ccc(-c2c3nc(c(-c4c(F)cccc4F)c4ccc([nH]4)c(-c4c(F)cccc4F)c4nc(c(-c5c(F)cccc5F)c5ccc2[nH]5)C=C4)C=C3)cc1
REMARK SMILES IDX 30 1 29 2 28 3 27 4 25 5 26 6 24 8 9 9 10 10 11 11 23 12
REMARK SMILES IDX 8 14 3 15 4 16 5 17 7 18 6 19 2 20 1 21 12 22 13 23 14 24
REMARK SMILES IDX 22 25 15 26 21 27 16 28 20 29 17 30 19 31 18 32 31 33 32 34
REMARK SMILES IDX 33 35 34 36 35 37 36 39 37 40 38 41 90 42 39 43 89 44 40 45
REMARK SMILES IDX 41 46 42 47 83 48 43 49 88 50 82 51 84 52 44 53 87 54 81 55
REMARK SMILES IDX 80 56 45 58 71 59 54 60 70 61 55 62 58 63 69 64 85 65 56 66
REMARK SMILES IDX 57 67 68 69 86 70 59 71 46 72 47 73 52 74 48 75 49 76 51 77
REMARK SMILES IDX 53 78 50 79 72 80 73 81 78 82 74 83 75 84 77 85 79 86 76 87
REMARK SMILES IDX 60 88 61 89 66 90 62 91 63 92 65 93 67 94 64 95
REMARK H PARENT 27 7 11 13 34 38 84 57 58 68
REMARK Flexibility Score: inf
ROOT
ATOM      1  C   UNL A   1      32.461  27.176  26.381  1.00  0.00     0.002 C 
ENDROOT
BRANCH   1   2
ATOM      2  C   UNL A   1      33.700  26.635  25.681  1.00  0.00     0.021 C 
BRANCH   2   3
ATOM      3  C   UNL A   1      34.062  25.139  25.767  1.00  0.00     0.116 C 
BRANCH   3   4
ATOM      4  N   UNL A   1      34.921  24.709  24.643  1.00  0.00    -0.356 N 
ATOM      5  C   UNL A   1      34.823  23.884  23.559  1.00  0.00     0.229 C 
ATOM      6  O   UNL A   1      35.931  23.539  23.107  1.00  0.00    -0.275 OA
ATOM      7  H   UNL A   1      35.807  25.133  24.689  1.00  0.00     0.163 HD
BRANCH   5   8
ATOM      8  C   UNL A   1      33.570  23.436  22.762  1.00  0.00     0.146 C 
ATOM      9  C   UNL A   1      32.595  22.444  23.473  1.00  0.00     0.096 C 
ATOM     10  C   UNL A   1      31.200  22.811  22.942  1.00  0.00     0.272 C 
ATOM     11  N   UNL A   1      31.258  24.257  22.662  1.00  0.00    -0.329 N 
ATOM     12  C   UNL A   1      32.631  24.490  22.172  1.00  0.00     0.276 C 
ATOM     13  H   UNL A   1      30.573  24.526  21.954  1.00  0.00     0.348 HD
BRANCH   9  14
ATOM     14  C   UNL A   1      32.844  20.981  23.796  1.00  0.00     0.004 A 
ATOM     15  C   UNL A   1      33.747  20.430  24.708  1.00  0.00     0.122 A 
ATOM     16  C   UNL A   1      33.925  19.031  24.768  1.00  0.00     0.047 A 
ATOM     17  C   UNL A   1      33.247  18.160  23.911  1.00  0.00     0.004 A 
ATOM     18  C   UNL A   1      32.190  20.056  22.925  1.00  0.00     0.008 A 
ATOM     19  C   UNL A   1      32.388  18.679  22.966  1.00  0.00     0.001 A 
BRANCH  15  20
ATOM     20  O   UNL A   1      34.657  21.127  25.454  1.00  0.00    -0.496 OA
ATOM     21  C   UNL A   1      36.013  20.781  25.233  1.00  0.00     0.278 C 
ENDBRANCH  15  20
ENDBRANCH   9  14
BRANCH  11  22
ATOM     22  C   UNL A   1      30.796  25.143  23.769  1.00  0.00     0.321 C 
BRANCH  22  23
ATOM     23  C   UNL A   1      30.317  26.523  23.388  1.00  0.00     0.114 A 
ATOM     24  C   UNL A   1      30.894  27.570  22.680  1.00  0.00     0.122 A 
ATOM     25  N   UNL A   1      29.071  26.907  23.781  1.00  0.00    -0.228 NA
ATOM     26  N   UNL A   1      29.917  28.551  22.578  1.00  0.00    -0.306 N 
ATOM     27  C   UNL A   1      28.787  28.018  23.153  1.00  0.00     0.137 A 
ATOM     28  C   UNL A   1      29.945  29.864  22.107  1.00  0.00     0.096 A 
ATOM     29  C   UNL A   1      27.570  28.747  23.081  1.00  0.00     0.048 A 
ATOM     30  C   UNL A   1      28.839  30.636  22.230  1.00  0.00    -0.034 A 
ATOM     31  C   UNL A   1      27.594  30.018  22.665  1.00  0.00     0.009 A 
ATOM     32  C   UNL A   1      28.771  32.113  22.025  1.00  0.00     0.046 C 
ENDBRANCH  22  23
ENDBRANCH  11  22
ENDBRANCH   5   8
ENDBRANCH   3   4
ENDBRANCH   2   3
ENDBRANCH   1   2
BRANCH   1  33
ATOM     33  C   UNL A   1      32.696  28.224  27.465  1.00  0.00     0.002 C 
BRANCH  33  34
ATOM     34  C   UNL A   1      32.583  29.700  27.048  1.00  0.00     0.021 C 
BRANCH  34  35
ATOM     35  C   UNL A   1      33.901  30.463  26.971  1.00  0.00     0.116 C 
BRANCH  35  36
ATOM     36  N   UNL A   1      33.918  31.651  27.814  1.00  0.00    -0.352 N 
ATOM     37  C   UNL A   1      34.769  31.956  28.857  1.00  0.00     0.251 C 
ATOM     38  H   UNL A   1      33.230  32.325  27.613  1.00  0.00     0.163 HD
ATOM     39  O   UNL A   1      34.476  32.826  29.661  1.00  0.00    -0.269 OA
BRANCH  37  40
ATOM     40  C   UNL A   1      36.059  31.245  28.981  1.00  0.00     0.039 A 
ATOM     41  C   UNL A   1      37.231  31.950  29.278  1.00  0.00     0.014 A 
ATOM     42  C   UNL A   1      36.114  29.879  28.723  1.00  0.00     0.014 A 
ATOM     43  C   UNL A   1      38.446  31.267  29.334  1.00  0.00     0.010 A 
ATOM     44  C   UNL A   1      37.297  29.196  28.880  1.00  0.00     0.010 A 
ATOM     45  C   UNL A   1      38.470  29.883  29.124  1.00  0.00    -0.014 A 
BRANCH  45  46
ATOM     46  C   UNL A   1      39.692  29.111  29.296  1.00  0.00     0.031 A 
ATOM     47  C   UNL A   1      39.991  28.788  30.708  1.00  0.00     0.074 A 
ATOM     48  C   UNL A   1      40.418  28.561  28.299  1.00  0.00     0.049 A 
ATOM     49  N   UNL A   1      40.899  29.342  31.435  1.00  0.00    -0.248 NA
ATOM     50  C   UNL A   1      39.097  27.884  31.445  1.00  0.00     0.031 C 
ATOM     51  C   UNL A   1      40.128  28.512  26.868  1.00  0.00     0.029 A 
ATOM     52  N   UNL A   1      41.577  27.854  28.385  1.00  0.00    -0.354 N 
ATOM     53  C   UNL A   1      40.840  28.708  32.668  1.00  0.00     0.074 A 
ATOM     54  C   UNL A   1      39.608  27.961  32.676  1.00  0.00     0.031 C 
ATOM     55  C   UNL A   1      40.946  27.623  26.258  1.00  0.00     0.029 A 
ATOM     56  C   UNL A   1      41.950  27.198  27.217  1.00  0.00     0.049 A 
ATOM     57  H   UNL A   1      42.111  27.809  29.211  1.00  0.00     0.167 HD
ATOM     58  C   UNL A   1      41.939  28.670  33.471  1.00  0.00     0.037 A 
ATOM     59  C   UNL A   1      43.023  26.384  27.050  1.00  0.00     0.037 A 
ATOM     60  C   UNL A   1      42.933  29.623  33.029  1.00  0.00     0.049 A 
ATOM     61  C   UNL A   1      43.987  26.703  28.132  1.00  0.00     0.074 A 
ATOM     62  C   UNL A   1      42.951  30.992  32.841  1.00  0.00     0.029 A 
ATOM     63  N   UNL A   1      44.003  29.137  32.315  1.00  0.00    -0.354 N 
ATOM     64  N   UNL A   1      44.649  27.823  28.201  1.00  0.00    -0.248 NA
ATOM     65  C   UNL A   1      43.862  25.974  29.384  1.00  0.00     0.031 C 
ATOM     66  C   UNL A   1      43.707  31.189  31.646  1.00  0.00     0.029 A 
ATOM     67  C   UNL A   1      44.169  29.944  31.219  1.00  0.00     0.049 A 
ATOM     68  H   UNL A   1      44.549  28.353  32.549  1.00  0.00     0.167 HD
ATOM     69  C   UNL A   1      44.620  28.164  29.544  1.00  0.00     0.074 A 
ATOM     70  C   UNL A   1      44.205  26.944  30.236  1.00  0.00     0.031 C 
ATOM     71  C   UNL A   1      44.649  29.471  29.941  1.00  0.00     0.037 A 
BRANCH  58  72
ATOM     72  C   UNL A   1      42.287  27.528  34.388  1.00  0.00     0.057 A 
ATOM     73  C   UNL A   1      42.032  27.663  35.766  1.00  0.00     0.134 A 
ATOM     74  C   UNL A   1      43.124  26.451  34.037  1.00  0.00     0.134 A 
ATOM     75  F   UNL A   1      41.253  28.653  36.227  1.00  0.00    -0.206 F 
ATOM     76  C   UNL A   1      42.642  26.849  36.724  1.00  0.00     0.040 A 
ATOM     77  C   UNL A   1      43.698  25.599  34.983  1.00  0.00     0.040 A 
ATOM     78  F   UNL A   1      43.520  26.225  32.779  1.00  0.00    -0.206 F 
ATOM     79  C   UNL A   1      43.488  25.818  36.334  1.00  0.00     0.006 A 
ENDBRANCH  58  72
BRANCH  59  80
ATOM     80  C   UNL A   1      43.170  25.178  26.205  1.00  0.00     0.057 A 
ATOM     81  C   UNL A   1      44.199  25.078  25.256  1.00  0.00     0.134 A 
ATOM     82  C   UNL A   1      42.507  23.982  26.524  1.00  0.00     0.134 A 
ATOM     83  F   UNL A   1      44.913  26.160  24.910  1.00  0.00    -0.206 F 
ATOM     84  C   UNL A   1      44.575  23.854  24.688  1.00  0.00     0.040 A 
ATOM     85  C   UNL A   1      42.871  22.752  25.964  1.00  0.00     0.040 A 
ATOM     86  F   UNL A   1      41.549  23.954  27.464  1.00  0.00    -0.206 F 
ATOM     87  C   UNL A   1      43.921  22.682  25.055  1.00  0.00     0.006 A 
ENDBRANCH  59  80
BRANCH  71  88
ATOM     88  C   UNL A   1      44.996  30.513  28.911  1.00  0.00     0.057 A 
ATOM     89  C   UNL A   1      46.304  30.885  28.559  1.00  0.00     0.134 A 
ATOM     90  C   UNL A   1      43.961  31.075  28.157  1.00  0.00     0.134 A 
ATOM     91  F   UNL A   1      47.370  30.329  29.150  1.00  0.00    -0.206 F 
ATOM     92  C   UNL A   1      46.561  31.811  27.543  1.00  0.00     0.040 A 
ATOM     93  C   UNL A   1      44.203  31.974  27.116  1.00  0.00     0.040 A 
ATOM     94  F   UNL A   1      42.686  30.727  28.397  1.00  0.00    -0.206 F 
ATOM     95  C   UNL A   1      45.507  32.356  26.814  1.00  0.00     0.006 A 
ENDBRANCH  71  88
ENDBRANCH  45  46
ENDBRANCH  37  40
ENDBRANCH  35  36
ENDBRANCH  34  35
ENDBRANCH  33  34
ENDBRANCH   1  33
TORSDOF 17
ENDMDL
MODEL 2
REMARK VINA RESULT:     -13.3      2.506      8.434
REMARK SMILES COc1ccccc1[C@@H]1C[N@@H+](Cc2cn3cc(C)ccc3n2)C[C@H]1C(=O)NCCCCCCNC(=O)c1ccc(-c2c3nc(c(-c4c(F)cccc4F)c4ccc([nH]4)c(-c4c(F)cccc4F)c4nc(c(-c5c(F)cccc5F)c5ccc2[nH]5)C=C4)C=C3)cc1
REMARK SMILES IDX 30 1 29 2 28 3 27 4 25 5 26 6 24 8 9 9 10 10 11 11 23 12
REMARK SMILES IDX 8 14 3 15 4 16 5 17 7 18 6 19 2 20 1 21 12 22 13 23 14 24
REMARK SMILES IDX 22 25 15 26 21 27 16 28 20 29 17 30 19 31 18 32 31 33 32 34
REMARK SMILES IDX 33 35 34 36 35 37 36 39 37 40 38 41 90 42 39 43 89 44 40 45
REMARK SMILES IDX 41 46 42 47 83 48 43 49 88 50 82 51 84 52 44 53 87 54 81 55
REMARK SMILES IDX 80 56 45 58 71 59 54 60 70 61 55 62 58 63 69 64 85 65 56 66
REMARK SMILES IDX 57 67 68 69 86 70 59 71 46 72 47 73 52 74 48 75 49 76 51 77
REMARK SMILES IDX 53 78 50 79 72 80 73 81 78 82 74 83 75 84 77 85 79 86 76 87
REMARK SMILES IDX 60 88 61 89 66 90 62 91 63 92 65 93 67 94 64 95
REMARK H PARENT 27 7 11 13 34 38 84 57 58 68
REMARK Flexibility Score: inf
ROOT
ATOM      1  C   UNL A   1      35.508  23.904  24.259  1.00  0.00     0.002 C 
ENDROOT
BRANCH   1   2
ATOM      2  C   UNL A   1      34.767  24.604  25.389  1.00  0.00     0.021 C 
BRANCH   2   3
ATOM      3  C   UNL A   1      34.101  25.975  25.163  1.00  0.00     0.116 C 
BRANCH   3   4
ATOM      4  N   UNL A   1      33.181  26.335  26.262  1.00  0.00    -0.356 N 
ATOM      5  C   UNL A   1      31.833  26.450  26.449  1.00  0.00     0.229 C 
ATOM      6  O   UNL A   1      31.536  27.154  27.433  1.00  0.00    -0.275 OA
ATOM      7  H   UNL A   1      33.675  26.551  27.085  1.00  0.00     0.163 HD
BRANCH   5   8
ATOM      8  C   UNL A   1      30.664  25.749  25.711  1.00  0.00     0.146 C 
ATOM      9  C   UNL A   1      30.439  26.132  24.214  1.00  0.00     0.096 C 
ATOM     10  C   UNL A   1      29.911  24.849  23.551  1.00  0.00     0.272 C 
ATOM     11  N   UNL A   1      30.527  23.741  24.303  1.00  0.00    -0.329 N 
ATOM     12  C   UNL A   1      30.584  24.220  25.698  1.00  0.00     0.276 C 
ATOM     13  H   UNL A   1      29.966  22.891  24.237  1.00  0.00     0.348 HD
BRANCH   9  14
ATOM     14  C   UNL A   1      29.917  27.451  23.669  1.00  0.00     0.004 A 
ATOM     15  C   UNL A   1      30.599  28.658  23.507  1.00  0.00     0.122 A 
ATOM     16  C   UNL A   1      29.898  29.817  23.106  1.00  0.00     0.047 A 
ATOM     17  C   UNL A   1      28.517  29.812  22.895  1.00  0.00     0.004 A 
ATOM     18  C   UNL A   1      28.504  27.497  23.464  1.00  0.00     0.008 A 
ATOM     19  C   UNL A   1      27.810  28.645  23.097  1.00  0.00     0.001 A 
BRANCH  15  20
ATOM     20  O   UNL A   1      31.888  28.908  23.889  1.00  0.00    -0.496 OA
ATOM     21  C   UNL A   1      32.033  29.724  25.038  1.00  0.00     0.278 C 
ENDBRANCH  15  20
ENDBRANCH   9  14
BRANCH  11  22
ATOM     22  C   UNL A   1      31.801  23.213  23.737  1.00  0.00     0.321 C 
BRANCH  22  23
ATOM     23  C   UNL A   1      32.129  21.767  24.020  1.00  0.00     0.114 A 
ATOM     24  C   UNL A   1      32.258  21.031  25.192  1.00  0.00     0.122 A 
ATOM     25  N   UNL A   1      32.366  20.938  22.965  1.00  0.00    -0.228 NA
ATOM     26  N   UNL A   1      32.480  19.718  24.800  1.00  0.00    -0.306 N 
ATOM     27  C   UNL A   1      32.394  19.715  23.427  1.00  0.00     0.137 A 
ATOM     28  C   UNL A   1      32.817  18.566  25.511  1.00  0.00     0.096 A 
ATOM     29  C   UNL A   1      32.448  18.474  22.737  1.00  0.00     0.048 A 
ATOM     30  C   UNL A   1      33.078  17.421  24.834  1.00  0.00    -0.034 A 
ATOM     31  C   UNL A   1      32.806  17.372  23.405  1.00  0.00     0.009 A 
ATOM     32  C   UNL A   1      33.696  16.187  25.402  1.00  0.00     0.046 C 
ENDBRANCH  22  23
ENDBRANCH  11  22
ENDBRANCH   5   8
ENDBRANCH   3   4
ENDBRANCH   2   3
ENDBRANCH   1   2
BRANCH   1  33
ATOM     33  C   UNL A   1      35.678  22.392  24.391  1.00  0.00     0.002 C 
BRANCH  33  34
ATOM     34  C   UNL A   1      37.097  21.870  24.668  1.00  0.00     0.021 C 
BRANCH  34  35
ATOM     35  C   UNL A   1      37.884  22.638  25.724  1.00  0.00     0.116 C 
BRANCH  35  36
ATOM     36  N   UNL A   1      38.903  21.827  26.374  1.00  0.00    -0.352 N 
ATOM     37  C   UNL A   1      40.052  22.238  27.020  1.00  0.00     0.251 C 
ATOM     38  H   UNL A   1      38.754  20.854  26.348  1.00  0.00     0.163 HD
ATOM     39  O   UNL A   1      40.956  21.449  27.241  1.00  0.00    -0.269 OA
BRANCH  37  40
ATOM     40  C   UNL A   1      40.171  23.639  27.478  1.00  0.00     0.039 A 
ATOM     41  C   UNL A   1      39.125  24.545  27.268  1.00  0.00     0.014 A 
ATOM     42  C   UNL A   1      41.364  24.071  28.051  1.00  0.00     0.014 A 
ATOM     43  C   UNL A   1      39.282  25.875  27.657  1.00  0.00     0.010 A 
ATOM     44  C   UNL A   1      41.473  25.357  28.525  1.00  0.00     0.010 A 
ATOM     45  C   UNL A   1      40.470  26.276  28.281  1.00  0.00    -0.014 A 
BRANCH  45  46
ATOM     46  C   UNL A   1      40.629  27.620  28.817  1.00  0.00     0.031 A 
ATOM     47  C   UNL A   1      41.736  28.376  28.191  1.00  0.00     0.074 A 
ATOM     48  C   UNL A   1      39.774  28.233  29.663  1.00  0.00     0.049 A 
ATOM     49  N   UNL A   1      42.880  28.627  28.728  1.00  0.00    -0.248 NA
ATOM     50  C   UNL A   1      41.640  28.752  26.774  1.00  0.00     0.031 C 
ATOM     51  C   UNL A   1      38.480  27.771  30.158  1.00  0.00     0.029 A 
ATOM     52  N   UNL A   1      39.873  29.470  30.220  1.00  0.00    -0.354 N 
ATOM     53  C   UNL A   1      43.581  29.382  27.799  1.00  0.00     0.074 A 
ATOM     54  C   UNL A   1      42.851  29.271  26.561  1.00  0.00     0.031 C 
ATOM     55  C   UNL A   1      37.812  28.794  30.741  1.00  0.00     0.029 A 
ATOM     56  C   UNL A   1      38.717  29.925  30.844  1.00  0.00     0.049 A 
ATOM     57  H   UNL A   1      40.701  30.003  30.185  1.00  0.00     0.167 HD
ATOM     58  C   UNL A   1      44.568  30.225  28.207  1.00  0.00     0.037 A 
ATOM     59  C   UNL A   1      38.531  31.139  31.423  1.00  0.00     0.037 A 
ATOM     60  C   UNL A   1      44.961  29.937  29.568  1.00  0.00     0.049 A 
ATOM     61  C   UNL A   1      39.874  31.689  31.728  1.00  0.00     0.074 A 
ATOM     62  C   UNL A   1      45.457  28.824  30.222  1.00  0.00     0.029 A 
ATOM     63  N   UNL A   1      44.477  30.761  30.556  1.00  0.00    -0.354 N 
ATOM     64  N   UNL A   1      40.665  31.199  32.640  1.00  0.00    -0.248 NA
ATOM     65  C   UNL A   1      40.525  32.486  30.701  1.00  0.00     0.031 C 
ATOM     66  C   UNL A   1      44.799  28.818  31.489  1.00  0.00     0.029 A 
ATOM     67  C   UNL A   1      44.004  29.962  31.566  1.00  0.00     0.049 A 
ATOM     68  H   UNL A   1      44.471  31.745  30.541  1.00  0.00     0.167 HD
ATOM     69  C   UNL A   1      41.925  31.228  32.063  1.00  0.00     0.074 A 
ATOM     70  C   UNL A   1      41.791  32.116  30.909  1.00  0.00     0.031 C 
ATOM     71  C   UNL A   1      42.876  30.308  32.400  1.00  0.00     0.037 A 
BRANCH  58  72
ATOM     72  C   UNL A   1      44.895  31.539  27.548  1.00  0.00     0.057 A 
ATOM     73  C   UNL A   1      46.133  31.678  26.892  1.00  0.00     0.134 A 
ATOM     74  C   UNL A   1      44.206  32.744  27.787  1.00  0.00     0.134 A 
ATOM     75  F   UNL A   1      46.887  30.604  26.612  1.00  0.00    -0.206 F 
ATOM     76  C   UNL A   1      46.683  32.926  26.584  1.00  0.00     0.040 A 
ATOM     77  C   UNL A   1      44.723  33.993  27.438  1.00  0.00     0.040 A 
ATOM     78  F   UNL A   1      43.052  32.793  28.462  1.00  0.00    -0.206 F 
ATOM     79  C   UNL A   1      45.982  34.090  26.868  1.00  0.00     0.006 A 
ENDBRANCH  58  72
BRANCH  59  80
ATOM     80  C   UNL A   1      37.311  31.974  31.492  1.00  0.00     0.057 A 
ATOM     81  C   UNL A   1      36.723  32.496  30.329  1.00  0.00     0.134 A 
ATOM     82  C   UNL A   1      36.523  32.015  32.654  1.00  0.00     0.134 A 
ATOM     83  F   UNL A   1      37.384  32.471  29.162  1.00  0.00    -0.206 F 
ATOM     84  C   UNL A   1      35.413  32.993  30.314  1.00  0.00     0.040 A 
ATOM     85  C   UNL A   1      35.214  32.510  32.653  1.00  0.00     0.040 A 
ATOM     86  F   UNL A   1      36.965  31.487  33.806  1.00  0.00    -0.206 F 
ATOM     87  C   UNL A   1      34.647  32.985  31.475  1.00  0.00     0.006 A 
ENDBRANCH  59  80
BRANCH  71  88
ATOM     88  C   UNL A   1      42.625  29.443  33.607  1.00  0.00     0.057 A 
ATOM     89  C   UNL A   1      41.939  28.218  33.583  1.00  0.00     0.134 A 
ATOM     90  C   UNL A   1      43.213  29.809  34.822  1.00  0.00     0.134 A 
ATOM     91  F   UNL A   1      41.427  27.728  32.447  1.00  0.00    -0.206 F 
ATOM     92  C   UNL A   1      41.801  27.427  34.729  1.00  0.00     0.040 A 
ATOM     93  C   UNL A   1      43.114  29.012  35.964  1.00  0.00     0.040 A 
ATOM     94  F   UNL A   1      43.933  30.940  34.910  1.00  0.00    -0.206 F 
ATOM     95  C   UNL A   1      42.394  27.822  35.924  1.00  0.00     0.006 A 
ENDBRANCH  71  88
ENDBRANCH  45  46
ENDBRANCH  37  40
ENDBRANCH  35  36
ENDBRANCH  34  35
ENDBRANCH  33  34
ENDBRANCH   1  33
TORSDOF 17
ENDMDL
MODEL 3
REMARK VINA RESULT:     -13.0      1.565      2.032
REMARK SMILES COc1ccccc1[C@@H]1C[N@@H+](Cc2cn3cc(C)ccc3n2)C[C@H]1C(=O)NCCCCCCNC(=O)c1ccc(-c2c3nc(c(-c4c(F)cccc4F)c4ccc([nH]4)c(-c4c(F)cccc4F)c4nc(c(-c5c(F)cccc5F)c5ccc2[nH]5)C=C4)C=C3)cc1
REMARK SMILES IDX 30 1 29 2 28 3 27 4 25 5 26 6 24 8 9 9 10 10 11 11 23 12
REMARK SMILES IDX 8 14 3 15 4 16 5 17 7 18 6 19 2 20 1 21 12 22 13 23 14 24
REMARK SMILES IDX 22 25 15 26 21 27 16 28 20 29 17 30 19 31 18 32 31 33 32 34
REMARK SMILES IDX 33 35 34 36 35 37 36 39 37 40 38 41 90 42 39 43 89 44 40 45
REMARK SMILES IDX 41 46 42 47 83 48 43 49 88 50 82 51 84 52 44 53 87 54 81 55
REMARK SMILES IDX 80 56 45 58 71 59 54 60 70 61 55 62 58 63 69 64 85 65 56 66
REMARK SMILES IDX 57 67 68 69 86 70 59 71 46 72 47 73 52 74 48 75 49 76 51 77
REMARK SMILES IDX 53 78 50 79 72 80 73 81 78 82 74 83 75 84 77 85 79 86 76 87
REMARK SMILES IDX 60 88 61 89 66 90 62 91 63 92 65 93 67 94 64 95
REMARK H PARENT 27 7 11 13 34 38 84 57 58 68
REMARK Flexibility Score: inf
ROOT
ATOM      1  C   UNL A   1      33.818  28.934  25.767  1.00  0.00     0.002 C 
ENDROOT
BRANCH   1   2
ATOM      2  C   UNL A   1      33.978  28.389  24.354  1.00  0.00     0.021 C 
BRANCH   2   3
ATOM      3  C   UNL A   1      34.082  26.873  24.103  1.00  0.00     0.116 C 
BRANCH   3   4
ATOM      4  N   UNL A   1      33.542  26.489  22.781  1.00  0.00    -0.356 N 
ATOM      5  C   UNL A   1      33.104  25.352  22.164  1.00  0.00     0.229 C 
ATOM      6  O   UNL A   1      33.102  25.442  20.922  1.00  0.00    -0.275 OA
ATOM      7  H   UNL A   1      33.481  27.267  22.182  1.00  0.00     0.163 HD
BRANCH   5   8
ATOM      8  C   UNL A   1      32.510  24.057  22.774  1.00  0.00     0.146 C 
ATOM      9  C   UNL A   1      33.074  23.600  24.157  1.00  0.00     0.096 C 
ATOM     10  C   UNL A   1      31.887  22.932  24.869  1.00  0.00     0.272 C 
ATOM     11  N   UNL A   1      30.690  23.628  24.366  1.00  0.00    -0.329 N 
ATOM     12  C   UNL A   1      30.996  23.930  22.954  1.00  0.00     0.276 C 
ATOM     13  H   UNL A   1      29.859  23.039  24.437  1.00  0.00     0.348 HD
BRANCH   9  14
ATOM     14  C   UNL A   1      34.455  23.036  24.446  1.00  0.00     0.004 A 
ATOM     15  C   UNL A   1      35.032  22.733  25.682  1.00  0.00     0.122 A 
ATOM     16  C   UNL A   1      36.386  22.339  25.751  1.00  0.00     0.047 A 
ATOM     17  C   UNL A   1      37.198  22.273  24.615  1.00  0.00     0.004 A 
ATOM     18  C   UNL A   1      35.327  22.977  23.316  1.00  0.00     0.008 A 
ATOM     19  C   UNL A   1      36.669  22.616  23.389  1.00  0.00     0.001 A 
BRANCH  15  20
ATOM     20  O   UNL A   1      34.469  22.963  26.906  1.00  0.00    -0.496 OA
ATOM     21  C   UNL A   1      34.000  21.811  27.585  1.00  0.00     0.278 C 
ENDBRANCH  15  20
ENDBRANCH   9  14
BRANCH  11  22
ATOM     22  C   UNL A   1      30.221  24.775  25.196  1.00  0.00     0.321 C 
BRANCH  22  23
ATOM     23  C   UNL A   1      29.784  26.019  24.460  1.00  0.00     0.114 A 
ATOM     24  C   UNL A   1      28.578  26.422  23.900  1.00  0.00     0.122 A 
ATOM     25  N   UNL A   1      30.702  27.006  24.255  1.00  0.00    -0.228 NA
ATOM     26  N   UNL A   1      28.778  27.717  23.444  1.00  0.00    -0.306 N 
ATOM     27  C   UNL A   1      30.057  28.056  23.820  1.00  0.00     0.137 A 
ATOM     28  C   UNL A   1      27.990  28.580  22.682  1.00  0.00     0.096 A 
ATOM     29  C   UNL A   1      30.507  29.386  23.606  1.00  0.00     0.048 A 
ATOM     30  C   UNL A   1      28.499  29.774  22.293  1.00  0.00    -0.034 A 
ATOM     31  C   UNL A   1      29.774  30.208  22.846  1.00  0.00     0.009 A 
ATOM     32  C   UNL A   1      27.908  30.692  21.276  1.00  0.00     0.046 C 
ENDBRANCH  22  23
ENDBRANCH  11  22
ENDBRANCH   5   8
ENDBRANCH   3   4
ENDBRANCH   2   3
ENDBRANCH   1   2
BRANCH   1  33
ATOM     33  C   UNL A   1      32.824  30.079  25.945  1.00  0.00     0.002 C 
BRANCH  33  34
ATOM     34  C   UNL A   1      32.882  30.855  27.271  1.00  0.00     0.021 C 
BRANCH  34  35
ATOM     35  C   UNL A   1      34.280  31.240  27.745  1.00  0.00     0.116 C 
BRANCH  35  36
ATOM     36  N   UNL A   1      34.264  32.075  28.938  1.00  0.00    -0.352 N 
ATOM     37  C   UNL A   1      35.055  31.984  30.066  1.00  0.00     0.251 C 
ATOM     38  H   UNL A   1      33.599  32.801  28.941  1.00  0.00     0.163 HD
ATOM     39  O   UNL A   1      34.727  32.544  31.099  1.00  0.00    -0.269 OA
BRANCH  37  40
ATOM     40  C   UNL A   1      36.325  31.230  30.009  1.00  0.00     0.039 A 
ATOM     41  C   UNL A   1      37.531  31.891  29.752  1.00  0.00     0.014 A 
ATOM     42  C   UNL A   1      36.303  29.844  30.137  1.00  0.00     0.014 A 
ATOM     43  C   UNL A   1      38.709  31.151  29.647  1.00  0.00     0.010 A 
ATOM     44  C   UNL A   1      37.480  29.134  30.135  1.00  0.00     0.010 A 
ATOM     45  C   UNL A   1      38.672  29.764  29.834  1.00  0.00    -0.014 A 
BRANCH  45  46
ATOM     46  C   UNL A   1      39.891  28.969  29.858  1.00  0.00     0.031 A 
ATOM     47  C   UNL A   1      40.443  28.779  31.218  1.00  0.00     0.074 A 
ATOM     48  C   UNL A   1      40.408  28.296  28.808  1.00  0.00     0.049 A 
ATOM     49  N   UNL A   1      41.480  29.369  31.703  1.00  0.00    -0.248 NA
ATOM     50  C   UNL A   1      39.686  27.987  32.197  1.00  0.00     0.031 C 
ATOM     51  C   UNL A   1      39.856  28.114  27.469  1.00  0.00     0.029 A 
ATOM     52  N   UNL A   1      41.551  27.559  28.754  1.00  0.00    -0.354 N 
ATOM     53  C   UNL A   1      41.642  28.865  32.985  1.00  0.00     0.074 A 
ATOM     54  C   UNL A   1      40.420  28.168  33.298  1.00  0.00     0.031 C 
ATOM     55  C   UNL A   1      40.530  27.139  26.815  1.00  0.00     0.029 A 
ATOM     56  C   UNL A   1      41.688  26.776  27.613  1.00  0.00     0.049 A 
ATOM     57  H   UNL A   1      42.229  27.578  29.467  1.00  0.00     0.167 HD
ATOM     58  C   UNL A   1      42.870  28.868  33.571  1.00  0.00     0.037 A 
ATOM     59  C   UNL A   1      42.698  25.911  27.338  1.00  0.00     0.037 A 
ATOM     60  C   UNL A   1      43.780  29.734  32.856  1.00  0.00     0.049 A 
ATOM     61  C   UNL A   1      43.851  26.302  28.184  1.00  0.00     0.074 A 
ATOM     62  C   UNL A   1      43.786  31.076  32.525  1.00  0.00     0.029 A 
ATOM     63  N   UNL A   1      44.689  29.141  32.014  1.00  0.00    -0.354 N 
ATOM     64  N   UNL A   1      44.534  27.398  28.012  1.00  0.00    -0.248 NA
ATOM     65  C   UNL A   1      43.950  25.707  29.508  1.00  0.00     0.031 C 
ATOM     66  C   UNL A   1      44.309  31.125  31.198  1.00  0.00     0.029 A 
ATOM     67  C   UNL A   1      44.662  29.828  30.826  1.00  0.00     0.049 A 
ATOM     68  H   UNL A   1      45.256  28.364  32.224  1.00  0.00     0.167 HD
ATOM     69  C   UNL A   1      44.761  27.873  29.294  1.00  0.00     0.074 A 
ATOM     70  C   UNL A   1      44.462  26.744  30.175  1.00  0.00     0.031 C 
ATOM     71  C   UNL A   1      44.887  29.211  29.539  1.00  0.00     0.037 A 
BRANCH  58  72
ATOM     72  C   UNL A   1      43.363  27.811  34.524  1.00  0.00     0.057 A 
ATOM     73  C   UNL A   1      43.788  28.201  35.808  1.00  0.00     0.134 A 
ATOM     74  C   UNL A   1      43.725  26.503  34.145  1.00  0.00     0.134 A 
ATOM     75  F   UNL A   1      43.510  29.425  36.282  1.00  0.00    -0.206 F 
ATOM     76  C   UNL A   1      44.592  27.387  36.611  1.00  0.00     0.040 A 
ATOM     77  C   UNL A   1      44.485  25.663  34.962  1.00  0.00     0.040 A 
ATOM     78  F   UNL A   1      43.460  26.004  32.933  1.00  0.00    -0.206 F 
ATOM     79  C   UNL A   1      44.953  26.116  36.184  1.00  0.00     0.006 A 
ENDBRANCH  58  72
BRANCH  59  80
ATOM     80  C   UNL A   1      42.663  24.622  26.612  1.00  0.00     0.057 A 
ATOM     81  C   UNL A   1      43.327  24.462  25.386  1.00  0.00     0.134 A 
ATOM     82  C   UNL A   1      42.250  23.440  27.249  1.00  0.00     0.134 A 
ATOM     83  F   UNL A   1      43.789  25.529  24.718  1.00  0.00    -0.206 F 
ATOM     84  C   UNL A   1      43.601  23.199  24.845  1.00  0.00     0.040 A 
ATOM     85  C   UNL A   1      42.516  22.172  26.719  1.00  0.00     0.040 A 
ATOM     86  F   UNL A   1      41.661  23.476  28.454  1.00  0.00    -0.206 F 
ATOM     87  C   UNL A   1      43.210  22.047  25.521  1.00  0.00     0.006 A 
ENDBRANCH  59  80
BRANCH  71  88
ATOM     88  C   UNL A   1      45.054  30.132  28.359  1.00  0.00     0.057 A 
ATOM     89  C   UNL A   1      43.996  30.744  27.666  1.00  0.00     0.134 A 
ATOM     90  C   UNL A   1      46.348  30.509  27.988  1.00  0.00     0.134 A 
ATOM     91  F   UNL A   1      42.720  30.529  28.012  1.00  0.00    -0.206 F 
ATOM     92  C   UNL A   1      44.222  31.646  26.621  1.00  0.00     0.040 A 
ATOM     93  C   UNL A   1      46.588  31.435  26.970  1.00  0.00     0.040 A 
ATOM     94  F   UNL A   1      47.411  30.009  28.639  1.00  0.00    -0.206 F 
ATOM     95  C   UNL A   1      45.523  31.998  26.273  1.00  0.00     0.006 A 
ENDBRANCH  71  88
ENDBRANCH  45  46
ENDBRANCH  37  40
ENDBRANCH  35  36
ENDBRANCH  34  35
ENDBRANCH  33  34
ENDBRANCH   1  33
TORSDOF 17
ENDMDL
