MODEL 1
REMARK VINA RESULT:     -11.9      0.000      0.000
REMARK SMILES C[C@@H]1CCCN(C(=O)c2ccncc2/C=C/C(=O)NCCCCCCNC(=O)c2ccc(-c3c4nc(c(-c5c(F)cccc5F)c5ccc([nH]5)c(-c5c(F)cccc5F)c5nc(c(-c6c(F)cccc6F)c6ccc3[nH]6)C=C5)C=C4)cc2)[C@@H]1C
REMARK SMILES IDX 22 1 21 2 20 3 19 4 17 5 18 6 16 8 15 9 14 10 9 11 10 12
REMARK SMILES IDX 11 13 13 14 12 15 7 16 8 17 6 18 1 19 2 20 3 21 83 22 4 23
REMARK SMILES IDX 84 24 5 25 23 26 24 27 25 28 26 29 27 30 28 32 29 33 30 34
REMARK SMILES IDX 82 35 31 36 81 37 32 38 33 39 34 40 75 41 35 42 80 43 74 44
REMARK SMILES IDX 76 45 36 46 79 47 73 48 72 49 37 51 63 52 46 53 62 54 47 55
REMARK SMILES IDX 50 56 61 57 77 58 48 59 49 60 60 62 78 63 51 64 38 65 39 66
REMARK SMILES IDX 44 67 40 68 41 69 43 70 45 71 42 72 64 73 65 74 70 75 66 76
REMARK SMILES IDX 67 77 69 78 71 79 68 80 52 81 53 82 58 83 54 84 55 85 57 86
REMARK SMILES IDX 59 87 56 88
REMARK H PARENT 19 7 26 31 76 50 50 61
REMARK Flexibility Score: inf
ROOT
ATOM      1  C   UNL A   1      34.706  19.817  24.784  1.00  0.00     0.002 C 
ENDROOT
BRANCH   1   2
ATOM      2  C   UNL A   1      33.580  20.260  25.725  1.00  0.00     0.021 C 
BRANCH   2   3
ATOM      3  C   UNL A   1      34.009  21.263  26.792  1.00  0.00     0.116 C 
BRANCH   3   4
ATOM      4  N   UNL A   1      32.844  21.888  27.388  1.00  0.00    -0.353 N 
ATOM      5  C   UNL A   1      32.089  22.933  26.971  1.00  0.00     0.244 C 
ATOM      6  O   UNL A   1      31.095  23.260  27.616  1.00  0.00    -0.270 OA
ATOM      7  H   UNL A   1      32.552  21.484  28.237  1.00  0.00     0.163 HD
BRANCH   5   8
ATOM      8  C   UNL A   1      32.374  23.636  25.697  1.00  0.00     0.072 C 
ATOM      9  C   UNL A   1      31.498  23.865  24.705  1.00  0.00     0.016 C 
BRANCH   9  10
ATOM     10  C   UNL A   1      31.882  24.559  23.459  1.00  0.00     0.006 A 
ATOM     11  C   UNL A   1      31.397  25.824  23.091  1.00  0.00     0.050 A 
ATOM     12  C   UNL A   1      31.846  26.446  21.917  1.00  0.00     0.034 A 
ATOM     13  C   UNL A   1      32.711  25.747  21.097  1.00  0.00     0.112 A 
ATOM     14  C   UNL A   1      32.739  23.951  22.542  1.00  0.00     0.119 A 
ATOM     15  N   UNL A   1      33.154  24.507  21.376  1.00  0.00    -0.264 NA
BRANCH  11  16
ATOM     16  C   UNL A   1      30.470  26.587  23.963  1.00  0.00     0.254 C 
ATOM     17  O   UNL A   1      29.271  26.380  23.796  1.00  0.00    -0.269 OA
BRANCH  16  18
ATOM     18  N   UNL A   1      30.999  27.458  24.924  1.00  0.00    -0.336 N 
ATOM     19  C   UNL A   1      33.446  28.699  23.446  1.00  0.00     0.010 C 
ATOM     20  C   UNL A   1      32.712  29.253  24.667  1.00  0.00     0.008 C 
ATOM     21  C   UNL A   1      33.373  28.759  25.965  1.00  0.00     0.007 C 
ATOM     22  C   UNL A   1      31.200  28.905  24.671  1.00  0.00     0.085 C 
ATOM     23  C   UNL A   1      33.075  27.288  26.245  1.00  0.00     0.022 C 
ATOM     24  C   UNL A   1      30.455  29.531  23.487  1.00  0.00     0.031 C 
ATOM     25  C   UNL A   1      31.576  27.004  26.198  1.00  0.00     0.120 C 
ENDBRANCH  16  18
ENDBRANCH  11  16
ENDBRANCH   9  10
ENDBRANCH   5   8
ENDBRANCH   3   4
ENDBRANCH   2   3
ENDBRANCH   1   2
BRANCH   1  26
ATOM     26  C   UNL A   1      36.046  20.531  24.999  1.00  0.00     0.002 C 
BRANCH  26  27
ATOM     27  C   UNL A   1      37.287  19.631  24.982  1.00  0.00     0.021 C 
BRANCH  27  28
ATOM     28  C   UNL A   1      38.587  20.321  25.384  1.00  0.00     0.116 C 
BRANCH  28  29
ATOM     29  N   UNL A   1      39.659  19.370  25.613  1.00  0.00    -0.352 N 
ATOM     30  C   UNL A   1      40.950  19.577  26.028  1.00  0.00     0.251 C 
ATOM     31  H   UNL A   1      39.423  18.429  25.444  1.00  0.00     0.163 HD
ATOM     32  O   UNL A   1      41.764  18.662  25.956  1.00  0.00    -0.269 OA
BRANCH  30  33
ATOM     33  C   UNL A   1      41.376  20.889  26.565  1.00  0.00     0.039 A 
ATOM     34  C   UNL A   1      41.173  21.150  27.924  1.00  0.00     0.014 A 
ATOM     35  C   UNL A   1      41.893  21.888  25.735  1.00  0.00     0.014 A 
ATOM     36  C   UNL A   1      41.504  22.400  28.452  1.00  0.00     0.010 A 
ATOM     37  C   UNL A   1      42.287  23.112  26.276  1.00  0.00     0.010 A 
ATOM     38  C   UNL A   1      42.072  23.390  27.634  1.00  0.00    -0.014 A 
BRANCH  38  39
ATOM     39  C   UNL A   1      42.387  24.736  28.175  1.00  0.00     0.031 A 
ATOM     40  C   UNL A   1      43.795  25.069  28.594  1.00  0.00     0.074 A 
ATOM     41  C   UNL A   1      41.409  25.651  28.319  1.00  0.00     0.049 A 
ATOM     42  N   UNL A   1      44.265  26.170  29.125  1.00  0.00    -0.248 NA
ATOM     43  C   UNL A   1      44.804  24.013  28.416  1.00  0.00     0.031 C 
ATOM     44  C   UNL A   1      40.000  25.444  27.984  1.00  0.00     0.029 A 
ATOM     45  N   UNL A   1      41.455  26.940  28.788  1.00  0.00    -0.354 N 
ATOM     46  C   UNL A   1      45.614  25.932  29.358  1.00  0.00     0.074 A 
ATOM     47  C   UNL A   1      45.876  24.565  28.963  1.00  0.00     0.031 C 
ATOM     48  C   UNL A   1      39.319  26.573  28.237  1.00  0.00     0.029 A 
ATOM     49  C   UNL A   1      40.235  27.572  28.778  1.00  0.00     0.049 A 
ATOM     50  H   UNL A   1      42.282  27.371  29.103  1.00  0.00     0.167 HD
ATOM     51  C   UNL A   1      46.556  26.781  29.834  1.00  0.00     0.037 A 
ATOM     52  C   UNL A   1      39.897  28.819  29.159  1.00  0.00     0.037 A 
ATOM     53  C   UNL A   1      46.302  28.150  30.200  1.00  0.00     0.049 A 
ATOM     54  C   UNL A   1      40.964  29.748  29.670  1.00  0.00     0.074 A 
ATOM     55  C   UNL A   1      47.195  29.104  30.655  1.00  0.00     0.029 A 
ATOM     56  N   UNL A   1      45.058  28.763  30.144  1.00  0.00    -0.354 N 
ATOM     57  N   UNL A   1      42.244  29.525  29.840  1.00  0.00    -0.248 NA
ATOM     58  C   UNL A   1      40.538  31.108  30.027  1.00  0.00     0.031 C 
ATOM     59  C   UNL A   1      46.487  30.284  30.909  1.00  0.00     0.029 A 
ATOM     60  C   UNL A   1      45.160  30.079  30.564  1.00  0.00     0.049 A 
ATOM     61  H   UNL A   1      44.226  28.327  29.850  1.00  0.00     0.167 HD
ATOM     62  C   UNL A   1      42.783  30.725  30.285  1.00  0.00     0.074 A 
ATOM     63  C   UNL A   1      41.692  31.674  30.350  1.00  0.00     0.031 C 
ATOM     64  C   UNL A   1      44.067  31.017  30.607  1.00  0.00     0.037 A 
BRANCH  51  65
ATOM     65  C   UNL A   1      47.953  26.250  29.983  1.00  0.00     0.057 A 
ATOM     66  C   UNL A   1      48.868  26.267  28.921  1.00  0.00     0.134 A 
ATOM     67  C   UNL A   1      48.398  25.735  31.207  1.00  0.00     0.134 A 
ATOM     68  F   UNL A   1      48.503  26.735  27.718  1.00  0.00    -0.206 F 
ATOM     69  C   UNL A   1      50.162  25.762  29.062  1.00  0.00     0.040 A 
ATOM     70  C   UNL A   1      49.699  25.254  31.369  1.00  0.00     0.040 A 
ATOM     71  F   UNL A   1      47.577  25.692  32.268  1.00  0.00    -0.206 F 
ATOM     72  C   UNL A   1      50.582  25.261  30.292  1.00  0.00     0.006 A 
ENDBRANCH  51  65
BRANCH  52  73
ATOM     73  C   UNL A   1      38.490  29.278  29.035  1.00  0.00     0.057 A 
ATOM     74  C   UNL A   1      37.628  29.269  30.138  1.00  0.00     0.134 A 
ATOM     75  C   UNL A   1      37.970  29.719  27.813  1.00  0.00     0.134 A 
ATOM     76  F   UNL A   1      38.065  28.839  31.332  1.00  0.00    -0.206 F 
ATOM     77  C   UNL A   1      36.294  29.659  30.027  1.00  0.00     0.040 A 
ATOM     78  C   UNL A   1      36.643  30.137  27.693  1.00  0.00     0.040 A 
ATOM     79  F   UNL A   1      38.746  29.757  26.719  1.00  0.00    -0.206 F 
ATOM     80  C   UNL A   1      35.798  30.099  28.801  1.00  0.00     0.006 A 
ENDBRANCH  52  73
BRANCH  64  81
ATOM     81  C   UNL A   1      44.370  32.434  31.002  1.00  0.00     0.057 A 
ATOM     82  C   UNL A   1      44.350  32.856  32.336  1.00  0.00     0.134 A 
ATOM     83  C   UNL A   1      44.703  33.384  30.027  1.00  0.00     0.134 A 
ATOM     84  F   UNL A   1      44.027  31.999  33.316  1.00  0.00    -0.206 F 
ATOM     85  C   UNL A   1      44.617  34.182  32.685  1.00  0.00     0.040 A 
ATOM     86  C   UNL A   1      44.999  34.705  30.365  1.00  0.00     0.040 A 
ATOM     87  F   UNL A   1      44.750  33.042  28.730  1.00  0.00    -0.206 F 
ATOM     88  C   UNL A   1      44.947  35.109  31.697  1.00  0.00     0.006 A 
ENDBRANCH  64  81
ENDBRANCH  38  39
ENDBRANCH  30  33
ENDBRANCH  28  29
ENDBRANCH  27  28
ENDBRANCH  26  27
ENDBRANCH   1  26
TORSDOF 16
ENDMDL
MODEL 2
REMARK VINA RESULT:     -11.8      0.472      6.198
REMARK SMILES C[C@@H]1CCCN(C(=O)c2ccncc2/C=C/C(=O)NCCCCCCNC(=O)c2ccc(-c3c4nc(c(-c5c(F)cccc5F)c5ccc([nH]5)c(-c5c(F)cccc5F)c5nc(c(-c6c(F)cccc6F)c6ccc3[nH]6)C=C5)C=C4)cc2)[C@@H]1C
REMARK SMILES IDX 22 1 21 2 20 3 19 4 17 5 18 6 16 8 15 9 14 10 9 11 10 12
REMARK SMILES IDX 11 13 13 14 12 15 7 16 8 17 6 18 1 19 2 20 3 21 83 22 4 23
REMARK SMILES IDX 84 24 5 25 23 26 24 27 25 28 26 29 27 30 28 32 29 33 30 34
REMARK SMILES IDX 82 35 31 36 81 37 32 38 33 39 34 40 75 41 35 42 80 43 74 44
REMARK SMILES IDX 76 45 36 46 79 47 73 48 72 49 37 51 63 52 46 53 62 54 47 55
REMARK SMILES IDX 50 56 61 57 77 58 48 59 49 60 60 62 78 63 51 64 38 65 39 66
REMARK SMILES IDX 44 67 40 68 41 69 43 70 45 71 42 72 64 73 65 74 70 75 66 76
REMARK SMILES IDX 67 77 69 78 71 79 68 80 52 81 53 82 58 83 54 84 55 85 57 86
REMARK SMILES IDX 59 87 56 88
REMARK H PARENT 19 7 26 31 76 50 50 61
REMARK Flexibility Score: inf
ROOT
ATOM      1  C   UNL A   1      34.784  19.884  24.859  1.00  0.00     0.002 C 
ENDROOT
BRANCH   1   2
ATOM      2  C   UNL A   1      33.615  20.361  25.728  1.00  0.00     0.021 C 
BRANCH   2   3
ATOM      3  C   UNL A   1      33.965  21.496  26.687  1.00  0.00     0.116 C 
BRANCH   3   4
ATOM      4  N   UNL A   1      32.766  21.985  27.341  1.00  0.00    -0.353 N 
ATOM      5  C   UNL A   1      31.792  22.816  26.899  1.00  0.00     0.244 C 
ATOM      6  O   UNL A   1      30.821  23.050  27.616  1.00  0.00    -0.270 OA
ATOM      7  H   UNL A   1      32.639  21.656  28.261  1.00  0.00     0.163 HD
BRANCH   5   8
ATOM      8  C   UNL A   1      31.815  23.377  25.527  1.00  0.00     0.072 C 
ATOM      9  C   UNL A   1      32.543  24.427  25.111  1.00  0.00     0.016 C 
BRANCH   9  10
ATOM     10  C   UNL A   1      32.483  24.928  23.724  1.00  0.00     0.006 A 
ATOM     11  C   UNL A   1      31.590  25.921  23.291  1.00  0.00     0.050 A 
ATOM     12  C   UNL A   1      31.627  26.386  21.969  1.00  0.00     0.034 A 
ATOM     13  C   UNL A   1      32.505  25.785  21.089  1.00  0.00     0.112 A 
ATOM     14  C   UNL A   1      33.311  24.392  22.738  1.00  0.00     0.119 A 
ATOM     15  N   UNL A   1      33.336  24.787  21.441  1.00  0.00    -0.264 NA
BRANCH  11  16
ATOM     16  C   UNL A   1      30.644  26.578  24.227  1.00  0.00     0.254 C 
ATOM     17  O   UNL A   1      29.488  26.162  24.213  1.00  0.00    -0.269 OA
BRANCH  16  18
ATOM     18  N   UNL A   1      31.112  27.591  25.073  1.00  0.00    -0.336 N 
ATOM     19  C   UNL A   1      33.604  28.662  23.539  1.00  0.00     0.010 C 
ATOM     20  C   UNL A   1      32.805  29.370  24.632  1.00  0.00     0.008 C 
ATOM     21  C   UNL A   1      33.412  29.084  26.017  1.00  0.00     0.007 C 
ATOM     22  C   UNL A   1      31.300  28.991  24.621  1.00  0.00     0.085 C 
ATOM     23  C   UNL A   1      33.127  27.663  26.495  1.00  0.00     0.022 C 
ATOM     24  C   UNL A   1      30.601  29.421  23.327  1.00  0.00     0.031 C 
ATOM     25  C   UNL A   1      31.636  27.339  26.423  1.00  0.00     0.120 C 
ENDBRANCH  16  18
ENDBRANCH  11  16
ENDBRANCH   9  10
ENDBRANCH   5   8
ENDBRANCH   3   4
ENDBRANCH   2   3
ENDBRANCH   1   2
BRANCH   1  26
ATOM     26  C   UNL A   1      36.079  20.691  25.019  1.00  0.00     0.002 C 
BRANCH  26  27
ATOM     27  C   UNL A   1      37.379  19.903  24.827  1.00  0.00     0.021 C 
BRANCH  27  28
ATOM     28  C   UNL A   1      38.585  20.460  25.578  1.00  0.00     0.116 C 
BRANCH  28  29
ATOM     29  N   UNL A   1      39.643  19.475  25.714  1.00  0.00    -0.352 N 
ATOM     30  C   UNL A   1      40.965  19.640  26.037  1.00  0.00     0.251 C 
ATOM     31  H   UNL A   1      39.368  18.544  25.549  1.00  0.00     0.163 HD
ATOM     32  O   UNL A   1      41.745  18.703  25.892  1.00  0.00    -0.269 OA
BRANCH  30  33
ATOM     33  C   UNL A   1      41.467  20.930  26.561  1.00  0.00     0.039 A 
ATOM     34  C   UNL A   1      41.365  21.177  27.934  1.00  0.00     0.014 A 
ATOM     35  C   UNL A   1      41.958  21.925  25.711  1.00  0.00     0.014 A 
ATOM     36  C   UNL A   1      41.770  22.408  28.455  1.00  0.00     0.010 A 
ATOM     37  C   UNL A   1      42.424  23.129  26.240  1.00  0.00     0.010 A 
ATOM     38  C   UNL A   1      42.310  23.393  27.613  1.00  0.00    -0.014 A 
BRANCH  38  39
ATOM     39  C   UNL A   1      42.703  24.721  28.148  1.00  0.00     0.031 A 
ATOM     40  C   UNL A   1      41.660  25.785  28.363  1.00  0.00     0.074 A 
ATOM     41  C   UNL A   1      43.997  24.984  28.414  1.00  0.00     0.049 A 
ATOM     42  N   UNL A   1      41.805  27.017  28.782  1.00  0.00    -0.248 NA
ATOM     43  C   UNL A   1      40.271  25.423  28.038  1.00  0.00     0.031 C 
ATOM     44  C   UNL A   1      45.108  24.054  28.217  1.00  0.00     0.029 A 
ATOM     45  N   UNL A   1      44.594  26.119  28.906  1.00  0.00    -0.354 N 
ATOM     46  C   UNL A   1      40.533  27.578  28.755  1.00  0.00     0.074 A 
ATOM     47  C   UNL A   1      39.639  26.572  28.227  1.00  0.00     0.031 C 
ATOM     48  C   UNL A   1      46.250  24.646  28.606  1.00  0.00     0.029 A 
ATOM     49  C   UNL A   1      45.955  26.004  29.050  1.00  0.00     0.049 A 
ATOM     50  H   UNL A   1      44.094  26.936  29.133  1.00  0.00     0.167 HD
ATOM     51  C   UNL A   1      40.141  28.811  29.156  1.00  0.00     0.037 A 
ATOM     52  C   UNL A   1      46.861  26.895  29.495  1.00  0.00     0.037 A 
ATOM     53  C   UNL A   1      41.026  29.803  29.710  1.00  0.00     0.049 A 
ATOM     54  C   UNL A   1      46.399  28.252  29.950  1.00  0.00     0.074 A 
ATOM     55  C   UNL A   1      40.721  31.067  30.183  1.00  0.00     0.029 A 
ATOM     56  N   UNL A   1      42.394  29.637  29.870  1.00  0.00    -0.354 N 
ATOM     57  N   UNL A   1      45.187  28.752  29.963  1.00  0.00    -0.248 NA
ATOM     58  C   UNL A   1      47.430  29.163  30.466  1.00  0.00     0.031 C 
ATOM     59  C   UNL A   1      41.908  31.680  30.598  1.00  0.00     0.029 A 
ATOM     60  C   UNL A   1      42.947  30.778  30.428  1.00  0.00     0.049 A 
ATOM     61  H   UNL A   1      42.897  28.828  29.624  1.00  0.00     0.167 HD
ATOM     62  C   UNL A   1      45.305  30.018  30.525  1.00  0.00     0.074 A 
ATOM     63  C   UNL A   1      46.704  30.204  30.846  1.00  0.00     0.031 C 
ATOM     64  C   UNL A   1      44.340  30.941  30.757  1.00  0.00     0.037 A 
BRANCH  51  65
ATOM     65  C   UNL A   1      38.686  29.153  29.013  1.00  0.00     0.057 A 
ATOM     66  C   UNL A   1      37.795  29.062  30.092  1.00  0.00     0.134 A 
ATOM     67  C   UNL A   1      38.170  29.600  27.790  1.00  0.00     0.134 A 
ATOM     68  F   UNL A   1      38.219  28.628  31.289  1.00  0.00    -0.206 F 
ATOM     69  C   UNL A   1      36.441  29.371  29.951  1.00  0.00     0.040 A 
ATOM     70  C   UNL A   1      36.824  29.941  27.644  1.00  0.00     0.040 A 
ATOM     71  F   UNL A   1      38.967  29.716  26.717  1.00  0.00    -0.206 F 
ATOM     72  C   UNL A   1      35.954  29.819  28.725  1.00  0.00     0.006 A 
ENDBRANCH  51  65
BRANCH  52  73
ATOM     73  C   UNL A   1      48.296  26.521  29.571  1.00  0.00     0.057 A 
ATOM     74  C   UNL A   1      49.175  26.810  28.520  1.00  0.00     0.134 A 
ATOM     75  C   UNL A   1      48.820  25.853  30.684  1.00  0.00     0.134 A 
ATOM     76  F   UNL A   1      48.726  27.432  27.419  1.00  0.00    -0.206 F 
ATOM     77  C   UNL A   1      50.516  26.429  28.561  1.00  0.00     0.040 A 
ATOM     78  C   UNL A   1      50.166  25.488  30.750  1.00  0.00     0.040 A 
ATOM     79  F   UNL A   1      48.032  25.553  31.728  1.00  0.00    -0.206 F 
ATOM     80  C   UNL A   1      51.016  25.768  29.682  1.00  0.00     0.006 A 
ENDBRANCH  52  73
BRANCH  64  81
ATOM     81  C   UNL A   1      44.757  32.210  31.442  1.00  0.00     0.057 A 
ATOM     82  C   UNL A   1      45.177  33.339  30.729  1.00  0.00     0.134 A 
ATOM     83  C   UNL A   1      44.721  32.305  32.840  1.00  0.00     0.134 A 
ATOM     84  F   UNL A   1      45.246  33.310  29.389  1.00  0.00    -0.206 F 
ATOM     85  C   UNL A   1      45.578  34.507  31.382  1.00  0.00     0.040 A 
ATOM     86  C   UNL A   1      45.092  33.475  33.503  1.00  0.00     0.040 A 
ATOM     87  F   UNL A   1      44.318  31.263  33.584  1.00  0.00    -0.206 F 
ATOM     88  C   UNL A   1      45.532  34.577  32.773  1.00  0.00     0.006 A 
ENDBRANCH  64  81
ENDBRANCH  38  39
ENDBRANCH  30  33
ENDBRANCH  28  29
ENDBRANCH  27  28
ENDBRANCH  26  27
ENDBRANCH   1  26
TORSDOF 16
ENDMDL
MODEL 3
REMARK VINA RESULT:     -11.4      2.292      3.591
REMARK SMILES C[C@@H]1CCCN(C(=O)c2ccncc2/C=C/C(=O)NCCCCCCNC(=O)c2ccc(-c3c4nc(c(-c5c(F)cccc5F)c5ccc([nH]5)c(-c5c(F)cccc5F)c5nc(c(-c6c(F)cccc6F)c6ccc3[nH]6)C=C5)C=C4)cc2)[C@@H]1C
REMARK SMILES IDX 22 1 21 2 20 3 19 4 17 5 18 6 16 8 15 9 14 10 9 11 10 12
REMARK SMILES IDX 11 13 13 14 12 15 7 16 8 17 6 18 1 19 2 20 3 21 83 22 4 23
REMARK SMILES IDX 84 24 5 25 23 26 24 27 25 28 26 29 27 30 28 32 29 33 30 34
REMARK SMILES IDX 82 35 31 36 81 37 32 38 33 39 34 40 75 41 35 42 80 43 74 44
REMARK SMILES IDX 76 45 36 46 79 47 73 48 72 49 37 51 63 52 46 53 62 54 47 55
REMARK SMILES IDX 50 56 61 57 77 58 48 59 49 60 60 62 78 63 51 64 38 65 39 66
REMARK SMILES IDX 44 67 40 68 41 69 43 70 45 71 42 72 64 73 65 74 70 75 66 76
REMARK SMILES IDX 67 77 69 78 71 79 68 80 52 81 53 82 58 83 54 84 55 85 57 86
REMARK SMILES IDX 59 87 56 88
REMARK H PARENT 19 7 26 31 76 50 50 61
REMARK Flexibility Score: inf
ROOT
ATOM      1  C   UNL A   1      35.023  20.800  25.240  1.00  0.00     0.002 C 
ENDROOT
BRANCH   1   2
ATOM      2  C   UNL A   1      33.732  20.759  26.064  1.00  0.00     0.021 C 
BRANCH   2   3
ATOM      3  C   UNL A   1      33.781  21.578  27.352  1.00  0.00     0.116 C 
BRANCH   3   4
ATOM      4  N   UNL A   1      32.453  22.048  27.695  1.00  0.00    -0.353 N 
ATOM      5  C   UNL A   1      31.640  22.936  27.074  1.00  0.00     0.244 C 
ATOM      6  O   UNL A   1      30.512  23.142  27.519  1.00  0.00    -0.270 OA
ATOM      7  H   UNL A   1      32.080  21.656  28.518  1.00  0.00     0.163 HD
BRANCH   5   8
ATOM      8  C   UNL A   1      32.036  23.598  25.808  1.00  0.00     0.072 C 
ATOM      9  C   UNL A   1      31.217  23.932  24.797  1.00  0.00     0.016 C 
BRANCH   9  10
ATOM     10  C   UNL A   1      31.710  24.572  23.562  1.00  0.00     0.006 A 
ATOM     11  C   UNL A   1      31.331  25.858  23.144  1.00  0.00     0.050 A 
ATOM     12  C   UNL A   1      31.881  26.423  21.985  1.00  0.00     0.034 A 
ATOM     13  C   UNL A   1      32.738  25.652  21.226  1.00  0.00     0.112 A 
ATOM     14  C   UNL A   1      32.572  23.890  22.703  1.00  0.00     0.119 A 
ATOM     15  N   UNL A   1      33.083  24.392  21.550  1.00  0.00    -0.264 NA
BRANCH  11  16
ATOM     16  C   UNL A   1      30.413  26.699  23.952  1.00  0.00     0.254 C 
ATOM     17  O   UNL A   1      29.213  26.563  23.730  1.00  0.00    -0.269 OA
BRANCH  16  18
ATOM     18  N   UNL A   1      30.949  27.560  24.918  1.00  0.00    -0.336 N 
ATOM     19  C   UNL A   1      33.444  28.739  23.473  1.00  0.00     0.010 C 
ATOM     20  C   UNL A   1      32.707  29.313  24.682  1.00  0.00     0.008 C 
ATOM     21  C   UNL A   1      33.337  28.807  25.990  1.00  0.00     0.007 C 
ATOM     22  C   UNL A   1      31.187  29.001  24.666  1.00  0.00     0.085 C 
ATOM     23  C   UNL A   1      33.001  27.344  26.270  1.00  0.00     0.022 C 
ATOM     24  C   UNL A   1      30.474  29.641  23.470  1.00  0.00     0.031 C 
ATOM     25  C   UNL A   1      31.497  27.095  26.201  1.00  0.00     0.120 C 
ENDBRANCH  16  18
ENDBRANCH  11  16
ENDBRANCH   9  10
ENDBRANCH   5   8
ENDBRANCH   3   4
ENDBRANCH   2   3
ENDBRANCH   1   2
BRANCH   1  26
ATOM     26  C   UNL A   1      35.281  22.123  24.507  1.00  0.00     0.002 C 
BRANCH  26  27
ATOM     27  C   UNL A   1      35.798  23.273  25.378  1.00  0.00     0.021 C 
BRANCH  27  28
ATOM     28  C   UNL A   1      37.188  23.783  25.011  1.00  0.00     0.116 C 
BRANCH  28  29
ATOM     29  N   UNL A   1      38.229  22.841  25.384  1.00  0.00    -0.352 N 
ATOM     30  C   UNL A   1      39.376  23.035  26.111  1.00  0.00     0.251 C 
ATOM     31  H   UNL A   1      38.089  21.919  25.067  1.00  0.00     0.163 HD
ATOM     32  O   UNL A   1      40.233  22.157  26.136  1.00  0.00    -0.269 OA
BRANCH  30  33
ATOM     33  C   UNL A   1      39.594  24.288  26.868  1.00  0.00     0.039 A 
ATOM     34  C   UNL A   1      40.352  25.302  26.274  1.00  0.00     0.014 A 
ATOM     35  C   UNL A   1      39.134  24.441  28.180  1.00  0.00     0.014 A 
ATOM     36  C   UNL A   1      40.632  26.472  26.984  1.00  0.00     0.010 A 
ATOM     37  C   UNL A   1      39.356  25.637  28.863  1.00  0.00     0.010 A 
ATOM     38  C   UNL A   1      40.129  26.653  28.282  1.00  0.00    -0.014 A 
BRANCH  38  39
ATOM     39  C   UNL A   1      40.456  27.874  29.062  1.00  0.00     0.031 A 
ATOM     40  C   UNL A   1      41.804  28.007  29.722  1.00  0.00     0.074 A 
ATOM     41  C   UNL A   1      39.538  28.848  29.205  1.00  0.00     0.049 A 
ATOM     42  N   UNL A   1      42.266  28.972  30.477  1.00  0.00    -0.248 NA
ATOM     43  C   UNL A   1      42.747  26.895  29.529  1.00  0.00     0.031 C 
ATOM     44  C   UNL A   1      38.186  28.826  28.647  1.00  0.00     0.029 A 
ATOM     45  N   UNL A   1      39.606  30.049  29.868  1.00  0.00    -0.354 N 
ATOM     46  C   UNL A   1      43.542  28.576  30.859  1.00  0.00     0.074 A 
ATOM     47  C   UNL A   1      43.760  27.260  30.299  1.00  0.00     0.031 C 
ATOM     48  C   UNL A   1      37.559  29.969  28.971  1.00  0.00     0.029 A 
ATOM     49  C   UNL A   1      38.453  30.789  29.783  1.00  0.00     0.049 A 
ATOM     50  H   UNL A   1      40.405  30.349  30.359  1.00  0.00     0.167 HD
ATOM     51  C   UNL A   1      44.460  29.255  31.588  1.00  0.00     0.037 A 
ATOM     52  C   UNL A   1      38.153  31.997  30.299  1.00  0.00     0.037 A 
ATOM     53  C   UNL A   1      44.254  30.577  32.120  1.00  0.00     0.049 A 
ATOM     54  C   UNL A   1      39.194  32.738  31.092  1.00  0.00     0.074 A 
ATOM     55  C   UNL A   1      45.135  31.368  32.838  1.00  0.00     0.029 A 
ATOM     56  N   UNL A   1      43.083  31.308  31.983  1.00  0.00    -0.354 N 
ATOM     57  N   UNL A   1      40.413  32.371  31.405  1.00  0.00    -0.248 NA
ATOM     58  C   UNL A   1      38.820  34.069  31.590  1.00  0.00     0.031 C 
ATOM     59  C   UNL A   1      44.485  32.563  33.166  1.00  0.00     0.029 A 
ATOM     60  C   UNL A   1      43.216  32.536  32.610  1.00  0.00     0.049 A 
ATOM     61  H   UNL A   1      42.276  31.000  31.511  1.00  0.00     0.167 HD
ATOM     62  C   UNL A   1      40.964  33.440  32.100  1.00  0.00     0.074 A 
ATOM     63  C   UNL A   1      39.950  34.471  32.155  1.00  0.00     0.031 C 
ATOM     64  C   UNL A   1      42.202  33.559  32.642  1.00  0.00     0.037 A 
BRANCH  51  65
ATOM     65  C   UNL A   1      45.774  28.577  31.849  1.00  0.00     0.057 A 
ATOM     66  C   UNL A   1      45.980  27.775  32.981  1.00  0.00     0.134 A 
ATOM     67  C   UNL A   1      46.840  28.706  30.950  1.00  0.00     0.134 A 
ATOM     68  F   UNL A   1      45.006  27.619  33.890  1.00  0.00    -0.206 F 
ATOM     69  C   UNL A   1      47.207  27.155  33.224  1.00  0.00     0.040 A 
ATOM     70  C   UNL A   1      48.062  28.067  31.167  1.00  0.00     0.040 A 
ATOM     71  F   UNL A   1      46.710  29.453  29.843  1.00  0.00    -0.206 F 
ATOM     72  C   UNL A   1      48.250  27.295  32.311  1.00  0.00     0.006 A 
ENDBRANCH  51  65
BRANCH  52  73
ATOM     73  C   UNL A   1      36.820  32.601  30.049  1.00  0.00     0.057 A 
ATOM     74  C   UNL A   1      36.616  33.482  28.980  1.00  0.00     0.134 A 
ATOM     75  C   UNL A   1      35.726  32.328  30.878  1.00  0.00     0.134 A 
ATOM     76  F   UNL A   1      37.632  33.797  28.162  1.00  0.00    -0.206 F 
ATOM     77  C   UNL A   1      35.380  34.089  28.757  1.00  0.00     0.040 A 
ATOM     78  C   UNL A   1      34.476  32.908  30.651  1.00  0.00     0.040 A 
ATOM     79  F   UNL A   1      35.855  31.487  31.915  1.00  0.00    -0.206 F 
ATOM     80  C   UNL A   1      34.303  33.798  29.593  1.00  0.00     0.006 A 
ENDBRANCH  52  73
BRANCH  64  81
ATOM     81  C   UNL A   1      42.544  34.871  33.288  1.00  0.00     0.057 A 
ATOM     82  C   UNL A   1      43.170  35.907  32.585  1.00  0.00     0.134 A 
ATOM     83  C   UNL A   1      42.223  35.102  34.632  1.00  0.00     0.134 A 
ATOM     84  F   UNL A   1      43.514  35.745  31.299  1.00  0.00    -0.206 F 
ATOM     85  C   UNL A   1      43.496  37.115  33.205  1.00  0.00     0.040 A 
ATOM     86  C   UNL A   1      42.518  36.315  35.256  1.00  0.00     0.040 A 
ATOM     87  F   UNL A   1      41.612  34.154  35.360  1.00  0.00    -0.206 F 
ATOM     88  C   UNL A   1      43.166  37.322  34.544  1.00  0.00     0.006 A 
ENDBRANCH  64  81
ENDBRANCH  38  39
ENDBRANCH  30  33
ENDBRANCH  28  29
ENDBRANCH  27  28
ENDBRANCH  26  27
ENDBRANCH   1  26
TORSDOF 16
ENDMDL
