MODEL 1
REMARK VINA RESULT:     -10.6      0.000      0.000
REMARK SMILES CCC(CC)(CC(=O)Nc1cccc(C#N)c1)C(=O)NCCCCCCNC(=O)c1ccc(-c2c3nc(c(-c4c(F)cccc4F)c4ccc([nH]4)c(-c4c(F)cccc4F)c4nc(c(-c5c(F)cccc5F)c5ccc2[nH]5)C=C4)C=C3)cc1
REMARK SMILES IDX 22 1 21 2 20 3 18 4 19 5 3 7 2 8 1 9 4 10 5 11 6 12 7 13
REMARK SMILES IDX 8 14 9 15 10 17 11 18 17 19 12 20 14 21 13 22 15 23 16 24
REMARK SMILES IDX 23 25 24 26 25 27 26 28 27 29 28 30 29 32 30 33 31 34 83 35
REMARK SMILES IDX 32 36 82 37 33 38 34 39 35 40 76 41 36 42 81 43 75 44 77 45
REMARK SMILES IDX 37 46 80 47 74 48 73 49 38 51 64 52 47 53 63 54 48 55 51 56
REMARK SMILES IDX 62 57 78 58 49 59 50 60 61 62 79 63 52 64 39 65 40 66 45 67
REMARK SMILES IDX 41 68 42 69 44 70 46 71 43 72 65 73 66 74 71 75 67 76 68 77
REMARK SMILES IDX 70 78 72 79 69 80 53 81 54 82 59 83 55 84 56 85 58 86 60 87
REMARK SMILES IDX 57 88
REMARK H PARENT 20 6 9 16 27 31 77 50 51 61
REMARK Flexibility Score: inf
ROOT
ATOM      1  C   UNL A   1      32.053  28.860  27.450  1.00  0.00     0.021 C 
ENDROOT
BRANCH   1   2
ATOM      2  C   UNL A   1      31.677  27.648  26.609  1.00  0.00     0.116 C 
BRANCH   2   3
ATOM      3  N   UNL A   1      32.848  26.865  26.304  1.00  0.00    -0.356 N 
ATOM      4  C   UNL A   1      33.310  26.351  25.149  1.00  0.00     0.226 C 
ATOM      5  O   UNL A   1      34.183  25.484  25.270  1.00  0.00    -0.274 OA
ATOM      6  H   UNL A   1      33.415  26.672  27.086  1.00  0.00     0.163 HD
BRANCH   4   7
ATOM      7  C   UNL A   1      32.802  26.815  23.767  1.00  0.00     0.057 C 
BRANCH   7   8
ATOM      8  C   UNL A   1      33.266  28.278  23.609  1.00  0.00     0.014 C 
ATOM      9  C   UNL A   1      34.358  28.633  22.615  1.00  0.00     0.005 C 
ENDBRANCH   7   8
BRANCH   7  10
ATOM     10  C   UNL A   1      31.242  26.801  23.681  1.00  0.00     0.014 C 
ATOM     11  C   UNL A   1      30.606  28.021  23.023  1.00  0.00     0.005 C 
ENDBRANCH   7  10
BRANCH   7  12
ATOM     12  C   UNL A   1      33.476  25.996  22.620  1.00  0.00     0.117 C 
BRANCH  12  13
ATOM     13  C   UNL A   1      32.605  25.139  21.681  1.00  0.00     0.225 C 
ATOM     14  O   UNL A   1      32.312  25.565  20.559  1.00  0.00    -0.275 OA
ATOM     15  N   UNL A   1      32.321  23.818  21.973  1.00  0.00    -0.326 N 
ATOM     16  H   UNL A   1      32.063  23.263  21.201  1.00  0.00     0.169 HD
BRANCH  15  17
ATOM     17  C   UNL A   1      32.348  23.151  23.206  1.00  0.00     0.042 A 
ATOM     18  C   UNL A   1      33.417  22.324  23.537  1.00  0.00     0.026 A 
ATOM     19  C   UNL A   1      31.392  23.404  24.183  1.00  0.00     0.045 A 
ATOM     20  C   UNL A   1      33.362  21.474  24.640  1.00  0.00     0.004 A 
ATOM     21  C   UNL A   1      31.390  22.640  25.363  1.00  0.00     0.054 A 
ATOM     22  C   UNL A   1      32.316  21.606  25.540  1.00  0.00     0.019 A 
BRANCH  21  23
ATOM     23  C   UNL A   1      30.482  22.940  26.433  1.00  0.00     0.099 C 
ATOM     24  N   UNL A   1      29.777  23.139  27.326  1.00  0.00    -0.192 NA
ENDBRANCH  21  23
ENDBRANCH  15  17
ENDBRANCH  12  13
ENDBRANCH   7  12
ENDBRANCH   4   7
ENDBRANCH   2   3
ENDBRANCH   1   2
BRANCH   1  25
ATOM     25  C   UNL A   1      32.263  30.144  26.641  1.00  0.00     0.002 C 
BRANCH  25  26
ATOM     26  C   UNL A   1      31.058  31.090  26.606  1.00  0.00     0.002 C 
BRANCH  26  27
ATOM     27  C   UNL A   1      31.413  32.563  26.403  1.00  0.00     0.021 C 
BRANCH  27  28
ATOM     28  C   UNL A   1      32.591  33.031  27.238  1.00  0.00     0.116 C 
BRANCH  28  29
ATOM     29  N   UNL A   1      32.398  34.384  27.726  1.00  0.00    -0.352 N 
ATOM     30  C   UNL A   1      33.040  35.021  28.755  1.00  0.00     0.251 C 
ATOM     31  H   UNL A   1      31.715  34.915  27.256  1.00  0.00     0.163 HD
ATOM     32  O   UNL A   1      32.606  36.075  29.204  1.00  0.00    -0.269 OA
BRANCH  30  33
ATOM     33  C   UNL A   1      34.255  34.409  29.329  1.00  0.00     0.039 A 
ATOM     34  C   UNL A   1      34.139  33.633  30.482  1.00  0.00     0.014 A 
ATOM     35  C   UNL A   1      35.502  34.596  28.723  1.00  0.00     0.014 A 
ATOM     36  C   UNL A   1      35.271  33.016  31.008  1.00  0.00     0.010 A 
ATOM     37  C   UNL A   1      36.609  33.900  29.190  1.00  0.00     0.010 A 
ATOM     38  C   UNL A   1      36.511  33.122  30.352  1.00  0.00    -0.014 A 
BRANCH  38  39
ATOM     39  C   UNL A   1      37.719  32.451  30.894  1.00  0.00     0.031 A 
ATOM     40  C   UNL A   1      38.371  32.974  32.146  1.00  0.00     0.074 A 
ATOM     41  C   UNL A   1      38.240  31.392  30.248  1.00  0.00     0.049 A 
ATOM     42  N   UNL A   1      39.444  32.544  32.759  1.00  0.00    -0.248 NA
ATOM     43  C   UNL A   1      37.749  34.148  32.780  1.00  0.00     0.031 C 
ATOM     44  C   UNL A   1      37.725  30.820  29.002  1.00  0.00     0.029 A 
ATOM     45  N   UNL A   1      39.322  30.605  30.550  1.00  0.00    -0.354 N 
ATOM     46  C   UNL A   1      39.620  33.388  33.848  1.00  0.00     0.074 A 
ATOM     47  C   UNL A   1      38.595  34.404  33.767  1.00  0.00     0.031 C 
ATOM     48  C   UNL A   1      38.470  29.757  28.663  1.00  0.00     0.029 A 
ATOM     49  C   UNL A   1      39.544  29.599  29.640  1.00  0.00     0.049 A 
ATOM     50  H   UNL A   1      39.887  30.747  31.344  1.00  0.00     0.167 HD
ATOM     51  C   UNL A   1      40.530  33.304  34.847  1.00  0.00     0.037 A 
ATOM     52  C   UNL A   1      40.510  28.663  29.593  1.00  0.00     0.037 A 
ATOM     53  C   UNL A   1      41.549  32.292  34.925  1.00  0.00     0.049 A 
ATOM     54  C   UNL A   1      41.538  28.623  30.692  1.00  0.00     0.074 A 
ATOM     55  C   UNL A   1      42.510  32.110  35.904  1.00  0.00     0.029 A 
ATOM     56  N   UNL A   1      41.741  31.290  33.984  1.00  0.00    -0.354 N 
ATOM     57  N   UNL A   1      41.658  29.394  31.746  1.00  0.00    -0.248 NA
ATOM     58  C   UNL A   1      42.559  27.571  30.602  1.00  0.00     0.031 C 
ATOM     59  C   UNL A   1      43.318  31.032  35.527  1.00  0.00     0.029 A 
ATOM     60  C   UNL A   1      42.816  30.498  34.352  1.00  0.00     0.049 A 
ATOM     61  H   UNL A   1      41.194  31.163  33.176  1.00  0.00     0.167 HD
ATOM     62  C   UNL A   1      42.738  28.895  32.463  1.00  0.00     0.074 A 
ATOM     63  C   UNL A   1      43.227  27.744  31.732  1.00  0.00     0.031 C 
ATOM     64  C   UNL A   1      43.280  29.346  33.622  1.00  0.00     0.037 A 
BRANCH  51  65
ATOM     65  C   UNL A   1      40.453  34.332  35.941  1.00  0.00     0.057 A 
ATOM     66  C   UNL A   1      41.154  35.545  35.864  1.00  0.00     0.134 A 
ATOM     67  C   UNL A   1      39.644  34.129  37.065  1.00  0.00     0.134 A 
ATOM     68  F   UNL A   1      41.957  35.801  34.820  1.00  0.00    -0.206 F 
ATOM     69  C   UNL A   1      41.074  36.503  36.876  1.00  0.00     0.040 A 
ATOM     70  C   UNL A   1      39.530  35.092  38.069  1.00  0.00     0.040 A 
ATOM     71  F   UNL A   1      38.941  32.994  37.203  1.00  0.00    -0.206 F 
ATOM     72  C   UNL A   1      40.253  36.281  37.979  1.00  0.00     0.006 A 
ENDBRANCH  51  65
BRANCH  52  73
ATOM     73  C   UNL A   1      40.559  27.686  28.474  1.00  0.00     0.057 A 
ATOM     74  C   UNL A   1      41.295  27.944  27.311  1.00  0.00     0.134 A 
ATOM     75  C   UNL A   1      39.832  26.490  28.519  1.00  0.00     0.134 A 
ATOM     76  F   UNL A   1      42.003  29.079  27.197  1.00  0.00    -0.206 F 
ATOM     77  C   UNL A   1      41.272  27.074  26.219  1.00  0.00     0.040 A 
ATOM     78  C   UNL A   1      39.828  25.594  27.450  1.00  0.00     0.040 A 
ATOM     79  F   UNL A   1      39.115  26.173  29.608  1.00  0.00    -0.206 F 
ATOM     80  C   UNL A   1      40.536  25.893  26.289  1.00  0.00     0.006 A 
ENDBRANCH  52  73
BRANCH  64  81
ATOM     81  C   UNL A   1      44.417  28.554  34.204  1.00  0.00     0.057 A 
ATOM     82  C   UNL A   1      44.212  27.494  35.097  1.00  0.00     0.134 A 
ATOM     83  C   UNL A   1      45.739  28.849  33.847  1.00  0.00     0.134 A 
ATOM     84  F   UNL A   1      42.972  27.164  35.490  1.00  0.00    -0.206 F 
ATOM     85  C   UNL A   1      45.283  26.784  35.645  1.00  0.00     0.040 A 
ATOM     86  C   UNL A   1      46.815  28.122  34.359  1.00  0.00     0.040 A 
ATOM     87  F   UNL A   1      46.009  29.842  32.987  1.00  0.00    -0.206 F 
ATOM     88  C   UNL A   1      46.588  27.094  35.271  1.00  0.00     0.006 A 
ENDBRANCH  64  81
ENDBRANCH  38  39
ENDBRANCH  30  33
ENDBRANCH  28  29
ENDBRANCH  27  28
ENDBRANCH  26  27
ENDBRANCH  25  26
ENDBRANCH   1  25
TORSDOF 19
ENDMDL
MODEL 2
REMARK VINA RESULT:     -10.3      1.369      2.996
REMARK SMILES CCC(CC)(CC(=O)Nc1cccc(C#N)c1)C(=O)NCCCCCCNC(=O)c1ccc(-c2c3nc(c(-c4c(F)cccc4F)c4ccc([nH]4)c(-c4c(F)cccc4F)c4nc(c(-c5c(F)cccc5F)c5ccc2[nH]5)C=C4)C=C3)cc1
REMARK SMILES IDX 22 1 21 2 20 3 18 4 19 5 3 7 2 8 1 9 4 10 5 11 6 12 7 13
REMARK SMILES IDX 8 14 9 15 10 17 11 18 17 19 12 20 14 21 13 22 15 23 16 24
REMARK SMILES IDX 23 25 24 26 25 27 26 28 27 29 28 30 29 32 30 33 31 34 83 35
REMARK SMILES IDX 32 36 82 37 33 38 34 39 35 40 76 41 36 42 81 43 75 44 77 45
REMARK SMILES IDX 37 46 80 47 74 48 73 49 38 51 64 52 47 53 63 54 48 55 51 56
REMARK SMILES IDX 62 57 78 58 49 59 50 60 61 62 79 63 52 64 39 65 40 66 45 67
REMARK SMILES IDX 41 68 42 69 44 70 46 71 43 72 65 73 66 74 71 75 67 76 68 77
REMARK SMILES IDX 70 78 72 79 69 80 53 81 54 82 59 83 55 84 56 85 58 86 60 87
REMARK SMILES IDX 57 88
REMARK H PARENT 20 6 9 16 27 31 77 50 51 61
REMARK Flexibility Score: inf
ROOT
ATOM      1  C   UNL A   1      33.782  28.100  26.511  1.00  0.00     0.021 C 
ENDROOT
BRANCH   1   2
ATOM      2  C   UNL A   1      33.182  26.755  26.130  1.00  0.00     0.116 C 
BRANCH   2   3
ATOM      3  N   UNL A   1      34.094  26.017  25.293  1.00  0.00    -0.356 N 
ATOM      4  C   UNL A   1      34.352  24.700  25.187  1.00  0.00     0.226 C 
ATOM      5  O   UNL A   1      35.394  24.414  24.587  1.00  0.00    -0.274 OA
ATOM      6  H   UNL A   1      34.625  26.581  24.685  1.00  0.00     0.163 HD
BRANCH   4   7
ATOM      7  C   UNL A   1      33.413  23.617  25.760  1.00  0.00     0.057 C 
BRANCH   7   8
ATOM      8  C   UNL A   1      34.212  22.897  26.865  1.00  0.00     0.014 C 
ATOM      9  C   UNL A   1      33.496  22.290  28.059  1.00  0.00     0.005 C 
ENDBRANCH   7   8
BRANCH   7  10
ATOM     10  C   UNL A   1      33.023  22.552  24.685  1.00  0.00     0.014 C 
ATOM     11  C   UNL A   1      33.717  21.200  24.814  1.00  0.00     0.005 C 
ENDBRANCH   7  10
BRANCH   7  12
ATOM     12  C   UNL A   1      32.167  24.265  26.445  1.00  0.00     0.117 C 
BRANCH  12  13
ATOM     13  C   UNL A   1      30.751  23.820  26.032  1.00  0.00     0.225 C 
ATOM     14  O   UNL A   1      30.203  22.887  26.628  1.00  0.00    -0.275 OA
ATOM     15  N   UNL A   1      29.989  24.573  25.158  1.00  0.00    -0.326 N 
ATOM     16  H   UNL A   1      29.018  24.419  25.206  1.00  0.00     0.169 HD
BRANCH  15  17
ATOM     17  C   UNL A   1      30.396  25.527  24.214  1.00  0.00     0.042 A 
ATOM     18  C   UNL A   1      30.171  26.881  24.439  1.00  0.00     0.026 A 
ATOM     19  C   UNL A   1      31.156  25.167  23.107  1.00  0.00     0.045 A 
ATOM     20  C   UNL A   1      30.349  27.824  23.427  1.00  0.00     0.004 A 
ATOM     21  C   UNL A   1      31.454  26.132  22.129  1.00  0.00     0.054 A 
ATOM     22  C   UNL A   1      30.959  27.436  22.246  1.00  0.00     0.019 A 
BRANCH  21  23
ATOM     23  C   UNL A   1      32.317  25.820  21.026  1.00  0.00     0.099 C 
ATOM     24  N   UNL A   1      32.983  25.517  20.132  1.00  0.00    -0.192 NA
ENDBRANCH  21  23
ENDBRANCH  15  17
ENDBRANCH  12  13
ENDBRANCH   7  12
ENDBRANCH   4   7
ENDBRANCH   2   3
ENDBRANCH   1   2
BRANCH   1  25
ATOM     25  C   UNL A   1      32.966  29.308  26.039  1.00  0.00     0.002 C 
BRANCH  25  26
ATOM     26  C   UNL A   1      31.911  29.804  27.033  1.00  0.00     0.002 C 
BRANCH  26  27
ATOM     27  C   UNL A   1      31.609  31.299  26.945  1.00  0.00     0.021 C 
BRANCH  27  28
ATOM     28  C   UNL A   1      32.848  32.168  26.807  1.00  0.00     0.116 C 
BRANCH  28  29
ATOM     29  N   UNL A   1      32.617  33.512  27.303  1.00  0.00    -0.352 N 
ATOM     30  C   UNL A   1      33.213  34.146  28.360  1.00  0.00     0.251 C 
ATOM     31  H   UNL A   1      31.944  34.039  26.814  1.00  0.00     0.163 HD
ATOM     32  O   UNL A   1      32.748  35.188  28.806  1.00  0.00    -0.269 OA
BRANCH  30  33
ATOM     33  C   UNL A   1      34.416  33.544  28.970  1.00  0.00     0.039 A 
ATOM     34  C   UNL A   1      34.257  32.575  29.959  1.00  0.00     0.014 A 
ATOM     35  C   UNL A   1      35.695  33.934  28.558  1.00  0.00     0.014 A 
ATOM     36  C   UNL A   1      35.384  31.970  30.512  1.00  0.00     0.010 A 
ATOM     37  C   UNL A   1      36.810  33.260  29.037  1.00  0.00     0.010 A 
ATOM     38  C   UNL A   1      36.668  32.287  30.037  1.00  0.00    -0.014 A 
BRANCH  38  39
ATOM     39  C   UNL A   1      37.873  31.633  30.605  1.00  0.00     0.031 A 
ATOM     40  C   UNL A   1      38.382  32.043  31.961  1.00  0.00     0.074 A 
ATOM     41  C   UNL A   1      38.521  30.692  29.892  1.00  0.00     0.049 A 
ATOM     42  N   UNL A   1      39.430  31.611  32.615  1.00  0.00    -0.248 NA
ATOM     43  C   UNL A   1      37.628  33.093  32.666  1.00  0.00     0.031 C 
ATOM     44  C   UNL A   1      38.150  30.241  28.549  1.00  0.00     0.029 A 
ATOM     45  N   UNL A   1      39.628  29.943  30.199  1.00  0.00    -0.354 N 
ATOM     46  C   UNL A   1      39.456  32.329  33.803  1.00  0.00     0.074 A 
ATOM     47  C   UNL A   1      38.370  33.282  33.746  1.00  0.00     0.031 C 
ATOM     48  C   UNL A   1      38.995  29.274  28.160  1.00  0.00     0.029 A 
ATOM     49  C   UNL A   1      39.994  29.069  29.205  1.00  0.00     0.049 A 
ATOM     50  H   UNL A   1      40.115  30.025  31.051  1.00  0.00     0.167 HD
ATOM     51  C   UNL A   1      40.285  32.184  34.864  1.00  0.00     0.037 A 
ATOM     52  C   UNL A   1      41.026  28.206  29.139  1.00  0.00     0.037 A 
ATOM     53  C   UNL A   1      41.364  31.235  34.918  1.00  0.00     0.049 A 
ATOM     54  C   UNL A   1      41.962  28.099  30.313  1.00  0.00     0.074 A 
ATOM     55  C   UNL A   1      42.254  30.997  35.951  1.00  0.00     0.029 A 
ATOM     56  N   UNL A   1      41.704  30.365  33.891  1.00  0.00    -0.354 N 
ATOM     57  N   UNL A   1      41.940  28.746  31.454  1.00  0.00    -0.248 NA
ATOM     58  C   UNL A   1      43.060  27.131  30.197  1.00  0.00     0.031 C 
ATOM     59  C   UNL A   1      43.165  30.024  35.529  1.00  0.00     0.029 A 
ATOM     60  C   UNL A   1      42.799  29.603  34.261  1.00  0.00     0.049 A 
ATOM     61  H   UNL A   1      41.235  30.300  33.028  1.00  0.00     0.167 HD
ATOM     62  C   UNL A   1      42.991  28.233  32.204  1.00  0.00     0.074 A 
ATOM     63  C   UNL A   1      43.619  27.210  31.394  1.00  0.00     0.031 C 
ATOM     64  C   UNL A   1      43.403  28.576  33.450  1.00  0.00     0.037 A 
BRANCH  51  65
ATOM     65  C   UNL A   1      40.046  33.068  36.055  1.00  0.00     0.057 A 
ATOM     66  C   UNL A   1      39.155  32.705  37.075  1.00  0.00     0.134 A 
ATOM     67  C   UNL A   1      40.738  34.275  36.207  1.00  0.00     0.134 A 
ATOM     68  F   UNL A   1      38.449  31.567  36.990  1.00  0.00    -0.206 F 
ATOM     69  C   UNL A   1      38.941  33.523  38.187  1.00  0.00     0.040 A 
ATOM     70  C   UNL A   1      40.558  35.086  37.329  1.00  0.00     0.040 A 
ATOM     71  F   UNL A   1      41.611  34.683  35.273  1.00  0.00    -0.206 F 
ATOM     72  C   UNL A   1      39.650  34.714  38.319  1.00  0.00     0.006 A 
ENDBRANCH  51  65
BRANCH  52  73
ATOM     73  C   UNL A   1      41.237  27.373  27.926  1.00  0.00     0.057 A 
ATOM     74  C   UNL A   1      41.958  27.854  26.826  1.00  0.00     0.134 A 
ATOM     75  C   UNL A   1      40.679  26.093  27.816  1.00  0.00     0.134 A 
ATOM     76  F   UNL A   1      42.506  29.079  26.861  1.00  0.00    -0.206 F 
ATOM     77  C   UNL A   1      42.080  27.114  25.649  1.00  0.00     0.040 A 
ATOM     78  C   UNL A   1      40.824  25.328  26.659  1.00  0.00     0.040 A 
ATOM     79  F   UNL A   1      39.987  25.565  28.836  1.00  0.00    -0.206 F 
ATOM     80  C   UNL A   1      41.513  25.845  25.564  1.00  0.00     0.006 A 
ENDBRANCH  52  73
BRANCH  64  81
ATOM     81  C   UNL A   1      44.543  27.793  34.038  1.00  0.00     0.057 A 
ATOM     82  C   UNL A   1      44.348  26.591  34.731  1.00  0.00     0.134 A 
ATOM     83  C   UNL A   1      45.861  28.244  33.890  1.00  0.00     0.134 A 
ATOM     84  F   UNL A   1      43.110  26.106  34.919  1.00  0.00    -0.206 F 
ATOM     85  C   UNL A   1      45.418  25.888  35.290  1.00  0.00     0.040 A 
ATOM     86  C   UNL A   1      46.942  27.531  34.411  1.00  0.00     0.040 A 
ATOM     87  F   UNL A   1      46.123  29.380  33.226  1.00  0.00    -0.206 F 
ATOM     88  C   UNL A   1      46.719  26.356  35.125  1.00  0.00     0.006 A 
ENDBRANCH  64  81
ENDBRANCH  38  39
ENDBRANCH  30  33
ENDBRANCH  28  29
ENDBRANCH  27  28
ENDBRANCH  26  27
ENDBRANCH  25  26
ENDBRANCH   1  25
TORSDOF 19
ENDMDL
MODEL 3
REMARK VINA RESULT:     -10.3      3.996      9.256
REMARK SMILES CCC(CC)(CC(=O)Nc1cccc(C#N)c1)C(=O)NCCCCCCNC(=O)c1ccc(-c2c3nc(c(-c4c(F)cccc4F)c4ccc([nH]4)c(-c4c(F)cccc4F)c4nc(c(-c5c(F)cccc5F)c5ccc2[nH]5)C=C4)C=C3)cc1
REMARK SMILES IDX 22 1 21 2 20 3 18 4 19 5 3 7 2 8 1 9 4 10 5 11 6 12 7 13
REMARK SMILES IDX 8 14 9 15 10 17 11 18 17 19 12 20 14 21 13 22 15 23 16 24
REMARK SMILES IDX 23 25 24 26 25 27 26 28 27 29 28 30 29 32 30 33 31 34 83 35
REMARK SMILES IDX 32 36 82 37 33 38 34 39 35 40 76 41 36 42 81 43 75 44 77 45
REMARK SMILES IDX 37 46 80 47 74 48 73 49 38 51 64 52 47 53 63 54 48 55 51 56
REMARK SMILES IDX 62 57 78 58 49 59 50 60 61 62 79 63 52 64 39 65 40 66 45 67
REMARK SMILES IDX 41 68 42 69 44 70 46 71 43 72 65 73 66 74 71 75 67 76 68 77
REMARK SMILES IDX 70 78 72 79 69 80 53 81 54 82 59 83 55 84 56 85 58 86 60 87
REMARK SMILES IDX 57 88
REMARK H PARENT 20 6 9 16 27 31 77 50 51 61
REMARK Flexibility Score: inf
ROOT
ATOM      1  C   UNL A   1      37.012  22.687  23.777  1.00  0.00     0.021 C 
ENDROOT
BRANCH   1   2
ATOM      2  C   UNL A   1      35.733  23.424  23.407  1.00  0.00     0.116 C 
BRANCH   2   3
ATOM      3  N   UNL A   1      34.594  22.551  23.540  1.00  0.00    -0.356 N 
ATOM      4  C   UNL A   1      33.446  22.670  24.235  1.00  0.00     0.226 C 
ATOM      5  O   UNL A   1      32.805  21.623  24.375  1.00  0.00    -0.274 OA
ATOM      6  H   UNL A   1      34.668  21.713  23.028  1.00  0.00     0.163 HD
BRANCH   4   7
ATOM      7  C   UNL A   1      32.954  24.017  24.807  1.00  0.00     0.057 C 
BRANCH   7   8
ATOM      8  C   UNL A   1      33.326  25.088  23.762  1.00  0.00     0.014 C 
ATOM      9  C   UNL A   1      34.084  26.337  24.178  1.00  0.00     0.005 C 
ENDBRANCH   7   8
BRANCH   7  10
ATOM     10  C   UNL A   1      33.677  24.385  26.143  1.00  0.00     0.014 C 
ATOM     11  C   UNL A   1      34.055  23.207  27.035  1.00  0.00     0.005 C 
ENDBRANCH   7  10
BRANCH   7  12
ATOM     12  C   UNL A   1      31.397  24.030  24.942  1.00  0.00     0.117 C 
BRANCH  12  13
ATOM     13  C   UNL A   1      30.751  24.423  26.285  1.00  0.00     0.225 C 
ATOM     14  O   UNL A   1      30.330  23.542  27.042  1.00  0.00    -0.275 OA
ATOM     15  N   UNL A   1      30.824  25.717  26.764  1.00  0.00    -0.326 N 
ATOM     16  H   UNL A   1      30.698  25.813  27.736  1.00  0.00     0.169 HD
BRANCH  15  17
ATOM     17  C   UNL A   1      31.053  26.914  26.070  1.00  0.00     0.042 A 
ATOM     18  C   UNL A   1      31.959  27.850  26.560  1.00  0.00     0.026 A 
ATOM     19  C   UNL A   1      30.499  27.137  24.815  1.00  0.00     0.045 A 
ATOM     20  C   UNL A   1      32.034  29.135  26.027  1.00  0.00     0.004 A 
ATOM     21  C   UNL A   1      30.665  28.390  24.199  1.00  0.00     0.054 A 
ATOM     22  C   UNL A   1      31.347  29.419  24.857  1.00  0.00     0.019 A 
BRANCH  21  23
ATOM     23  C   UNL A   1      30.192  28.622  22.864  1.00  0.00     0.099 C 
ATOM     24  N   UNL A   1      29.778  28.851  21.811  1.00  0.00    -0.192 NA
ENDBRANCH  21  23
ENDBRANCH  15  17
ENDBRANCH  12  13
ENDBRANCH   7  12
ENDBRANCH   4   7
ENDBRANCH   2   3
ENDBRANCH   1   2
BRANCH   1  25
ATOM     25  C   UNL A   1      37.043  22.168  25.219  1.00  0.00     0.002 C 
BRANCH  25  26
ATOM     26  C   UNL A   1      38.427  21.756  25.729  1.00  0.00     0.002 C 
BRANCH  26  27
ATOM     27  C   UNL A   1      38.897  20.383  25.249  1.00  0.00     0.021 C 
BRANCH  27  28
ATOM     28  C   UNL A   1      39.581  19.558  26.325  1.00  0.00     0.116 C 
BRANCH  28  29
ATOM     29  N   UNL A   1      40.851  19.027  25.867  1.00  0.00    -0.352 N 
ATOM     30  C   UNL A   1      42.048  19.677  25.727  1.00  0.00     0.251 C 
ATOM     31  H   UNL A   1      40.854  18.072  25.625  1.00  0.00     0.163 HD
ATOM     32  O   UNL A   1      42.970  19.162  25.105  1.00  0.00    -0.269 OA
BRANCH  30  33
ATOM     33  C   UNL A   1      42.207  21.020  26.321  1.00  0.00     0.039 A 
ATOM     34  C   UNL A   1      42.135  21.156  27.707  1.00  0.00     0.014 A 
ATOM     35  C   UNL A   1      42.433  22.137  25.510  1.00  0.00     0.014 A 
ATOM     36  C   UNL A   1      42.324  22.410  28.282  1.00  0.00     0.010 A 
ATOM     37  C   UNL A   1      42.721  23.365  26.090  1.00  0.00     0.010 A 
ATOM     38  C   UNL A   1      42.646  23.520  27.482  1.00  0.00    -0.014 A 
BRANCH  38  39
ATOM     39  C   UNL A   1      42.870  24.857  28.087  1.00  0.00     0.031 A 
ATOM     40  C   UNL A   1      44.245  25.248  28.557  1.00  0.00     0.074 A 
ATOM     41  C   UNL A   1      41.834  25.705  28.234  1.00  0.00     0.049 A 
ATOM     42  N   UNL A   1      44.636  26.355  29.134  1.00  0.00    -0.248 NA
ATOM     43  C   UNL A   1      45.318  24.255  28.377  1.00  0.00     0.031 C 
ATOM     44  C   UNL A   1      40.447  25.423  27.858  1.00  0.00     0.029 A 
ATOM     45  N   UNL A   1      41.788  26.978  28.741  1.00  0.00    -0.354 N 
ATOM     46  C   UNL A   1      45.994  26.194  29.378  1.00  0.00     0.074 A 
ATOM     47  C   UNL A   1      46.343  24.854  28.964  1.00  0.00     0.031 C 
ATOM     48  C   UNL A   1      39.693  26.502  28.118  1.00  0.00     0.029 A 
ATOM     49  C   UNL A   1      40.531  27.533  28.722  1.00  0.00     0.049 A 
ATOM     50  H   UNL A   1      42.580  27.450  29.086  1.00  0.00     0.167 HD
ATOM     51  C   UNL A   1      46.880  27.093  29.868  1.00  0.00     0.037 A 
ATOM     52  C   UNL A   1      40.102  28.735  29.153  1.00  0.00     0.037 A 
ATOM     53  C   UNL A   1      46.530  28.426  30.279  1.00  0.00     0.049 A 
ATOM     54  C   UNL A   1      41.100  29.698  29.738  1.00  0.00     0.074 A 
ATOM     55  C   UNL A   1      47.355  29.421  30.775  1.00  0.00     0.029 A 
ATOM     56  N   UNL A   1      45.246  28.953  30.244  1.00  0.00    -0.354 N 
ATOM     57  N   UNL A   1      42.392  29.551  29.911  1.00  0.00    -0.248 NA
ATOM     58  C   UNL A   1      40.582  31.000  30.176  1.00  0.00     0.031 C 
ATOM     59  C   UNL A   1      46.562  30.529  31.091  1.00  0.00     0.029 A 
ATOM     60  C   UNL A   1      45.255  30.251  30.725  1.00  0.00     0.049 A 
ATOM     61  H   UNL A   1      44.448  28.473  29.924  1.00  0.00     0.167 HD
ATOM     62  C   UNL A   1      42.846  30.755  30.436  1.00  0.00     0.074 A 
ATOM     63  C   UNL A   1      41.692  31.625  30.537  1.00  0.00     0.031 C 
ATOM     64  C   UNL A   1      44.101  31.111  30.804  1.00  0.00     0.037 A 
BRANCH  51  65
ATOM     65  C   UNL A   1      48.315  26.663  29.974  1.00  0.00     0.057 A 
ATOM     66  C   UNL A   1      48.807  26.010  31.114  1.00  0.00     0.134 A 
ATOM     67  C   UNL A   1      49.209  26.866  28.916  1.00  0.00     0.134 A 
ATOM     68  F   UNL A   1      48.009  25.793  32.171  1.00  0.00    -0.206 F 
ATOM     69  C   UNL A   1      50.139  25.602  31.208  1.00  0.00     0.040 A 
ATOM     70  C   UNL A   1      50.535  26.434  28.984  1.00  0.00     0.040 A 
ATOM     71  F   UNL A   1      48.807  27.479  27.792  1.00  0.00    -0.206 F 
ATOM     72  C   UNL A   1      51.005  25.806  30.136  1.00  0.00     0.006 A 
ENDBRANCH  51  65
BRANCH  52  73
ATOM     73  C   UNL A   1      38.665  29.103  29.051  1.00  0.00     0.057 A 
ATOM     74  C   UNL A   1      38.114  29.569  27.851  1.00  0.00     0.134 A 
ATOM     75  C   UNL A   1      37.818  29.043  30.165  1.00  0.00     0.134 A 
ATOM     76  F   UNL A   1      38.876  29.663  26.750  1.00  0.00    -0.206 F 
ATOM     77  C   UNL A   1      36.790  30.004  27.773  1.00  0.00     0.040 A 
ATOM     78  C   UNL A   1      36.483  29.441  30.092  1.00  0.00     0.040 A 
ATOM     79  F   UNL A   1      38.276  28.595  31.343  1.00  0.00    -0.206 F 
ATOM     80  C   UNL A   1      35.969  29.939  28.896  1.00  0.00     0.006 A 
ENDBRANCH  52  73
BRANCH  64  81
ATOM     81  C   UNL A   1      44.305  32.521  31.283  1.00  0.00     0.057 A 
ATOM     82  C   UNL A   1      44.621  33.571  30.412  1.00  0.00     0.134 A 
ATOM     83  C   UNL A   1      44.161  32.832  32.642  1.00  0.00     0.134 A 
ATOM     84  F   UNL A   1      44.784  33.342  29.100  1.00  0.00    -0.206 F 
ATOM     85  C   UNL A   1      44.828  34.871  30.880  1.00  0.00     0.040 A 
ATOM     86  C   UNL A   1      44.329  34.134  33.117  1.00  0.00     0.040 A 
ATOM     87  F   UNL A   1      43.846  31.879  33.531  1.00  0.00    -0.206 F 
ATOM     88  C   UNL A   1      44.676  35.155  32.235  1.00  0.00     0.006 A 
ENDBRANCH  64  81
ENDBRANCH  38  39
ENDBRANCH  30  33
ENDBRANCH  28  29
ENDBRANCH  27  28
ENDBRANCH  26  27
ENDBRANCH  25  26
ENDBRANCH   1  25
TORSDOF 19
ENDMDL
