MODEL 1
REMARK VINA RESULT:     -11.7      0.000      0.000
REMARK SMILES O=C(NCCCCCCNC(=O)[C@H](NC(=O)c1ccc(Br)nc1)c1ccccc1)c1ccc(-c2c3nc(c(-c4c(F)cccc4F)c4ccc([nH]4)c(-c4c(F)cccc4F)c4nc(c(-c5c(F)cccc5F)c5ccc2[nH]5)C=C4)C=C3)cc1
REMARK SMILES IDX 6 1 5 2 4 3 3 4 1 5 2 6 30 8 31 9 83 10 32 11 82 12 33 13
REMARK SMILES IDX 34 14 35 15 76 16 36 17 81 18 75 19 77 20 37 21 80 22 74 23
REMARK SMILES IDX 73 24 38 26 64 27 47 28 63 29 48 30 51 31 62 32 78 33 49 34
REMARK SMILES IDX 50 35 61 37 79 38 52 39 39 40 40 41 45 42 41 43 42 44 44 45
REMARK SMILES IDX 46 46 43 47 65 48 66 49 71 50 67 51 68 52 70 53 72 54 69 55
REMARK SMILES IDX 53 56 54 57 59 58 55 59 56 60 58 61 60 62 57 63 7 64 8 65
REMARK SMILES IDX 9 66 10 67 11 68 12 70 13 71 24 72 25 73 29 74 26 75 28 76
REMARK SMILES IDX 27 77 14 78 15 79 16 81 17 82 18 83 23 84 19 85 22 86 20 87
REMARK SMILES IDX 21 88
REMARK H PARENT 3 7 77 25 51 36 10 69 14 80
REMARK Flexibility Score: inf
ROOT
ATOM      1  C   UNL A   1      36.531  21.576  25.454  1.00  0.00     0.002 C 
ENDROOT
BRANCH   1   2
ATOM      2  C   UNL A   1      37.710  20.750  24.963  1.00  0.00     0.021 C 
BRANCH   2   3
ATOM      3  C   UNL A   1      38.984  20.890  25.784  1.00  0.00     0.116 C 
BRANCH   3   4
ATOM      4  N   UNL A   1      39.882  19.745  25.688  1.00  0.00    -0.352 N 
ATOM      5  O   UNL A   1      41.912  18.715  25.793  1.00  0.00    -0.269 OA
ATOM      6  C   UNL A   1      41.227  19.711  25.998  1.00  0.00     0.251 C 
ATOM      7  H   UNL A   1      39.485  18.903  25.366  1.00  0.00     0.163 HD
BRANCH   6   8
ATOM      8  C   UNL A   1      41.835  20.935  26.557  1.00  0.00     0.039 A 
ATOM      9  C   UNL A   1      41.814  21.129  27.938  1.00  0.00     0.014 A 
ATOM     10  C   UNL A   1      42.282  21.944  25.700  1.00  0.00     0.014 A 
ATOM     11  C   UNL A   1      42.058  22.397  28.446  1.00  0.00     0.010 A 
ATOM     12  C   UNL A   1      42.636  23.190  26.230  1.00  0.00     0.010 A 
ATOM     13  C   UNL A   1      42.484  23.440  27.602  1.00  0.00    -0.014 A 
BRANCH  13  14
ATOM     14  C   UNL A   1      42.822  24.750  28.217  1.00  0.00     0.031 A 
ATOM     15  C   UNL A   1      44.239  25.147  28.529  1.00  0.00     0.074 A 
ATOM     16  C   UNL A   1      41.814  25.624  28.419  1.00  0.00     0.049 A 
ATOM     17  N   UNL A   1      44.686  26.284  29.005  1.00  0.00    -0.248 NA
ATOM     18  C   UNL A   1      45.290  24.148  28.288  1.00  0.00     0.031 C 
ATOM     19  C   UNL A   1      40.399  25.339  28.172  1.00  0.00     0.029 A 
ATOM     20  N   UNL A   1      41.823  26.928  28.834  1.00  0.00    -0.354 N 
ATOM     21  C   UNL A   1      46.061  26.133  29.139  1.00  0.00     0.074 A 
ATOM     22  C   UNL A   1      46.375  24.785  28.711  1.00  0.00     0.031 C 
ATOM     23  C   UNL A   1      39.685  26.456  28.365  1.00  0.00     0.029 A 
ATOM     24  C   UNL A   1      40.578  27.510  28.826  1.00  0.00     0.049 A 
ATOM     25  H   UNL A   1      42.640  27.404  29.111  1.00  0.00     0.167 HD
ATOM     26  C   UNL A   1      46.972  27.037  29.573  1.00  0.00     0.037 A 
ATOM     27  C   UNL A   1      40.189  28.750  29.168  1.00  0.00     0.037 A 
ATOM     28  C   UNL A   1      46.651  28.381  29.988  1.00  0.00     0.049 A 
ATOM     29  C   UNL A   1      41.221  29.729  29.635  1.00  0.00     0.074 A 
ATOM     30  C   UNL A   1      47.504  29.373  30.442  1.00  0.00     0.029 A 
ATOM     31  N   UNL A   1      45.374  28.924  29.994  1.00  0.00    -0.354 N 
ATOM     32  N   UNL A   1      42.516  29.566  29.752  1.00  0.00    -0.248 NA
ATOM     33  C   UNL A   1      40.739  31.060  30.024  1.00  0.00     0.031 C 
ATOM     34  C   UNL A   1      46.741  30.503  30.753  1.00  0.00     0.029 A 
ATOM     35  C   UNL A   1      45.416  30.232  30.453  1.00  0.00     0.049 A 
ATOM     36  H   UNL A   1      44.558  28.449  29.714  1.00  0.00     0.167 HD
ATOM     37  C   UNL A   1      43.005  30.772  30.235  1.00  0.00     0.074 A 
ATOM     38  C   UNL A   1      41.871  31.668  30.347  1.00  0.00     0.031 C 
ATOM     39  C   UNL A   1      44.276  31.101  30.571  1.00  0.00     0.037 A 
BRANCH  26  40
ATOM     40  C   UNL A   1      48.412  26.608  29.638  1.00  0.00     0.057 A 
ATOM     41  C   UNL A   1      48.934  25.937  30.751  1.00  0.00     0.134 A 
ATOM     42  C   UNL A   1      49.267  26.803  28.544  1.00  0.00     0.134 A 
ATOM     43  F   UNL A   1      48.172  25.725  31.835  1.00  0.00    -0.206 F 
ATOM     44  C   UNL A   1      50.256  25.485  30.779  1.00  0.00     0.040 A 
ATOM     45  C   UNL A   1      50.584  26.339  28.552  1.00  0.00     0.040 A 
ATOM     46  F   UNL A   1      48.831  27.431  27.442  1.00  0.00    -0.206 F 
ATOM     47  C   UNL A   1      51.082  25.679  29.673  1.00  0.00     0.006 A 
ENDBRANCH  26  40
BRANCH  27  48
ATOM     48  C   UNL A   1      38.752  29.113  29.100  1.00  0.00     0.057 A 
ATOM     49  C   UNL A   1      37.923  29.025  30.224  1.00  0.00     0.134 A 
ATOM     50  C   UNL A   1      38.179  29.580  27.911  1.00  0.00     0.134 A 
ATOM     51  F   UNL A   1      38.410  28.570  31.388  1.00  0.00    -0.206 F 
ATOM     52  C   UNL A   1      36.575  29.376  30.164  1.00  0.00     0.040 A 
ATOM     53  C   UNL A   1      36.841  29.966  27.844  1.00  0.00     0.040 A 
ATOM     54  F   UNL A   1      38.925  29.699  26.801  1.00  0.00    -0.206 F 
ATOM     55  C   UNL A   1      36.033  29.858  28.972  1.00  0.00     0.006 A 
ENDBRANCH  27  48
BRANCH  39  56
ATOM     56  C   UNL A   1      44.489  32.494  31.085  1.00  0.00     0.057 A 
ATOM     57  C   UNL A   1      44.421  32.788  32.454  1.00  0.00     0.134 A 
ATOM     58  C   UNL A   1      44.749  33.551  30.205  1.00  0.00     0.134 A 
ATOM     59  F   UNL A   1      44.157  31.822  33.345  1.00  0.00    -0.206 F 
ATOM     60  C   UNL A   1      44.573  34.093  32.926  1.00  0.00     0.040 A 
ATOM     61  C   UNL A   1      44.928  34.855  30.668  1.00  0.00     0.040 A 
ATOM     62  F   UNL A   1      44.832  33.333  28.884  1.00  0.00    -0.206 F 
ATOM     63  C   UNL A   1      44.829  35.130  32.031  1.00  0.00     0.006 A 
ENDBRANCH  39  56
ENDBRANCH  13  14
ENDBRANCH   6   8
ENDBRANCH   3   4
ENDBRANCH   2   3
ENDBRANCH   1   2
BRANCH   1  64
ATOM     64  C   UNL A   1      36.824  23.051  25.712  1.00  0.00     0.002 C 
BRANCH  64  65
ATOM     65  C   UNL A   1      35.657  24.036  25.625  1.00  0.00     0.021 C 
BRANCH  65  66
ATOM     66  C   UNL A   1      34.249  23.461  25.445  1.00  0.00     0.116 C 
BRANCH  66  67
ATOM     67  N   UNL A   1      33.368  23.402  26.602  1.00  0.00    -0.354 N 
ATOM     68  C   UNL A   1      32.129  23.952  26.836  1.00  0.00     0.247 C 
ATOM     69  H   UNL A   1      33.722  22.873  27.352  1.00  0.00     0.163 HD
ATOM     70  O   UNL A   1      31.440  23.350  27.664  1.00  0.00    -0.272 OA
BRANCH  68  71
ATOM     71  C   UNL A   1      31.649  25.200  26.058  1.00  0.00     0.202 C 
BRANCH  71  72
ATOM     72  C   UNL A   1      32.150  26.609  26.418  1.00  0.00    -0.016 A 
ATOM     73  C   UNL A   1      33.459  26.988  26.027  1.00  0.00     0.006 A 
ATOM     74  C   UNL A   1      31.364  27.604  27.016  1.00  0.00     0.006 A 
ATOM     75  C   UNL A   1      33.971  28.266  26.269  1.00  0.00     0.000 A 
ATOM     76  C   UNL A   1      31.874  28.889  27.256  1.00  0.00     0.000 A 
ATOM     77  C   UNL A   1      33.176  29.219  26.889  1.00  0.00     0.000 A 
ENDBRANCH  71  72
BRANCH  71  78
ATOM     78  N   UNL A   1      31.661  25.017  24.602  1.00  0.00    -0.336 N 
ATOM     79  C   UNL A   1      30.947  25.535  23.555  1.00  0.00     0.253 C 
ATOM     80  H   UNL A   1      32.341  24.368  24.308  1.00  0.00     0.165 HD
ATOM     81  O   UNL A   1      30.818  24.764  22.598  1.00  0.00    -0.269 OA
BRANCH  79  82
ATOM     82  C   UNL A   1      30.455  26.932  23.385  1.00  0.00     0.058 A 
ATOM     83  C   UNL A   1      31.153  28.024  22.877  1.00  0.00     0.018 A 
ATOM     84  C   UNL A   1      29.076  27.112  23.512  1.00  0.00     0.126 A 
ATOM     85  C   UNL A   1      30.471  29.159  22.419  1.00  0.00     0.037 A 
ATOM     86  N   UNL A   1      28.383  28.213  23.111  1.00  0.00    -0.249 NA
ATOM     87  C   UNL A   1      29.094  29.200  22.537  1.00  0.00     0.106 A 
ATOM     88  Br  UNL A   1      28.150  30.663  21.793  1.00  0.00    -0.029 Br
ENDBRANCH  79  82
ENDBRANCH  71  78
ENDBRANCH  68  71
ENDBRANCH  66  67
ENDBRANCH  65  66
ENDBRANCH  64  65
ENDBRANCH   1  64
TORSDOF 16
ENDMDL
MODEL 2
REMARK VINA RESULT:     -11.7      4.319      9.139
REMARK SMILES O=C(NCCCCCCNC(=O)[C@H](NC(=O)c1ccc(Br)nc1)c1ccccc1)c1ccc(-c2c3nc(c(-c4c(F)cccc4F)c4ccc([nH]4)c(-c4c(F)cccc4F)c4nc(c(-c5c(F)cccc5F)c5ccc2[nH]5)C=C4)C=C3)cc1
REMARK SMILES IDX 6 1 5 2 4 3 3 4 1 5 2 6 30 8 31 9 83 10 32 11 82 12 33 13
REMARK SMILES IDX 34 14 35 15 76 16 36 17 81 18 75 19 77 20 37 21 80 22 74 23
REMARK SMILES IDX 73 24 38 26 64 27 47 28 63 29 48 30 51 31 62 32 78 33 49 34
REMARK SMILES IDX 50 35 61 37 79 38 52 39 39 40 40 41 45 42 41 43 42 44 44 45
REMARK SMILES IDX 46 46 43 47 65 48 66 49 71 50 67 51 68 52 70 53 72 54 69 55
REMARK SMILES IDX 53 56 54 57 59 58 55 59 56 60 58 61 60 62 57 63 7 64 8 65
REMARK SMILES IDX 9 66 10 67 11 68 12 70 13 71 24 72 25 73 29 74 26 75 28 76
REMARK SMILES IDX 27 77 14 78 15 79 16 81 17 82 18 83 23 84 19 85 22 86 20 87
REMARK SMILES IDX 21 88
REMARK H PARENT 3 7 77 25 51 36 10 69 14 80
REMARK Flexibility Score: inf
ROOT
ATOM      1  C   UNL A   1      31.422  30.483  25.986  1.00  0.00     0.002 C 
ENDROOT
BRANCH   1   2
ATOM      2  C   UNL A   1      31.235  31.913  26.471  1.00  0.00     0.021 C 
BRANCH   2   3
ATOM      3  C   UNL A   1      32.517  32.636  26.858  1.00  0.00     0.116 C 
BRANCH   3   4
ATOM      4  N   UNL A   1      32.301  33.890  27.570  1.00  0.00    -0.352 N 
ATOM      5  O   UNL A   1      32.768  35.454  29.161  1.00  0.00    -0.269 OA
ATOM      6  C   UNL A   1      33.092  34.434  28.562  1.00  0.00     0.251 C 
ATOM      7  H   UNL A   1      31.502  34.406  27.315  1.00  0.00     0.163 HD
BRANCH   6   8
ATOM      8  C   UNL A   1      34.339  33.725  28.914  1.00  0.00     0.039 A 
ATOM      9  C   UNL A   1      34.256  32.526  29.623  1.00  0.00     0.014 A 
ATOM     10  C   UNL A   1      35.576  34.328  28.671  1.00  0.00     0.014 A 
ATOM     11  C   UNL A   1      35.390  32.034  30.252  1.00  0.00     0.010 A 
ATOM     12  C   UNL A   1      36.734  33.764  29.215  1.00  0.00     0.010 A 
ATOM     13  C   UNL A   1      36.646  32.637  30.047  1.00  0.00    -0.014 A 
BRANCH  13  14
ATOM     14  C   UNL A   1      37.839  32.010  30.672  1.00  0.00     0.031 A 
ATOM     15  C   UNL A   1      38.269  32.329  32.078  1.00  0.00     0.074 A 
ATOM     16  C   UNL A   1      38.495  31.069  29.961  1.00  0.00     0.049 A 
ATOM     17  N   UNL A   1      39.251  31.809  32.773  1.00  0.00    -0.248 NA
ATOM     18  C   UNL A   1      37.514  33.366  32.797  1.00  0.00     0.031 C 
ATOM     19  C   UNL A   1      38.179  30.693  28.581  1.00  0.00     0.029 A 
ATOM     20  N   UNL A   1      39.524  30.235  30.305  1.00  0.00    -0.354 N 
ATOM     21  C   UNL A   1      39.245  32.463  33.999  1.00  0.00     0.074 A 
ATOM     22  C   UNL A   1      38.173  33.435  33.947  1.00  0.00     0.031 C 
ATOM     23  C   UNL A   1      38.943  29.654  28.222  1.00  0.00     0.029 A 
ATOM     24  C   UNL A   1      39.856  29.343  29.314  1.00  0.00     0.049 A 
ATOM     25  H   UNL A   1      39.983  30.270  31.176  1.00  0.00     0.167 HD
ATOM     26  C   UNL A   1      40.057  32.266  35.066  1.00  0.00     0.037 A 
ATOM     27  C   UNL A   1      40.802  28.390  29.275  1.00  0.00     0.037 A 
ATOM     28  C   UNL A   1      41.117  31.288  35.112  1.00  0.00     0.049 A 
ATOM     29  C   UNL A   1      41.677  28.189  30.473  1.00  0.00     0.074 A 
ATOM     30  C   UNL A   1      41.993  31.011  36.148  1.00  0.00     0.029 A 
ATOM     31  N   UNL A   1      41.442  30.423  34.077  1.00  0.00    -0.354 N 
ATOM     32  N   UNL A   1      41.654  28.818  31.624  1.00  0.00    -0.248 NA
ATOM     33  C   UNL A   1      42.713  27.155  30.368  1.00  0.00     0.031 C 
ATOM     34  C   UNL A   1      42.867  30.002  35.728  1.00  0.00     0.029 A 
ATOM     35  C   UNL A   1      42.510  29.620  34.446  1.00  0.00     0.049 A 
ATOM     36  H   UNL A   1      40.981  30.386  33.207  1.00  0.00     0.167 HD
ATOM     37  C   UNL A   1      42.676  28.260  32.378  1.00  0.00     0.074 A 
ATOM     38  C   UNL A   1      43.269  27.214  31.569  1.00  0.00     0.031 C 
ATOM     39  C   UNL A   1      43.096  28.595  33.622  1.00  0.00     0.037 A 
BRANCH  26  40
ATOM     40  C   UNL A   1      39.847  33.130  36.278  1.00  0.00     0.057 A 
ATOM     41  C   UNL A   1      40.548  34.328  36.462  1.00  0.00     0.134 A 
ATOM     42  C   UNL A   1      38.879  32.797  37.236  1.00  0.00     0.134 A 
ATOM     43  F   UNL A   1      41.495  34.703  35.587  1.00  0.00    -0.206 F 
ATOM     44  C   UNL A   1      40.303  35.158  37.559  1.00  0.00     0.040 A 
ATOM     45  C   UNL A   1      38.611  33.628  38.326  1.00  0.00     0.040 A 
ATOM     46  F   UNL A   1      38.165  31.668  37.118  1.00  0.00    -0.206 F 
ATOM     47  C   UNL A   1      39.326  34.812  38.490  1.00  0.00     0.006 A 
ENDBRANCH  26  40
BRANCH  27  48
ATOM     48  C   UNL A   1      40.975  27.577  28.046  1.00  0.00     0.057 A 
ATOM     49  C   UNL A   1      40.290  26.370  27.867  1.00  0.00     0.134 A 
ATOM     50  C   UNL A   1      41.815  28.003  27.010  1.00  0.00     0.134 A 
ATOM     51  F   UNL A   1      39.483  25.902  28.830  1.00  0.00    -0.206 F 
ATOM     52  C   UNL A   1      40.444  25.611  26.707  1.00  0.00     0.040 A 
ATOM     53  C   UNL A   1      41.953  27.271  25.831  1.00  0.00     0.040 A 
ATOM     54  F   UNL A   1      42.490  29.158  27.116  1.00  0.00    -0.206 F 
ATOM     55  C   UNL A   1      41.271  26.066  25.680  1.00  0.00     0.006 A 
ENDBRANCH  27  48
BRANCH  39  56
ATOM     56  C   UNL A   1      44.249  27.810  34.170  1.00  0.00     0.057 A 
ATOM     57  C   UNL A   1      44.055  26.603  34.855  1.00  0.00     0.134 A 
ATOM     58  C   UNL A   1      45.563  28.269  34.023  1.00  0.00     0.134 A 
ATOM     59  F   UNL A   1      42.819  26.120  35.044  1.00  0.00    -0.206 F 
ATOM     60  C   UNL A   1      45.127  25.898  35.405  1.00  0.00     0.040 A 
ATOM     61  C   UNL A   1      46.644  27.560  34.546  1.00  0.00     0.040 A 
ATOM     62  F   UNL A   1      45.816  29.415  33.372  1.00  0.00    -0.206 F 
ATOM     63  C   UNL A   1      46.426  26.376  35.249  1.00  0.00     0.006 A 
ENDBRANCH  39  56
ENDBRANCH  13  14
ENDBRANCH   6   8
ENDBRANCH   3   4
ENDBRANCH   2   3
ENDBRANCH   1   2
BRANCH   1  64
ATOM     64  C   UNL A   1      31.791  29.467  27.063  1.00  0.00     0.002 C 
BRANCH  64  65
ATOM     65  C   UNL A   1      33.133  28.744  26.931  1.00  0.00     0.021 C 
BRANCH  65  66
ATOM     66  C   UNL A   1      33.275  27.699  25.821  1.00  0.00     0.116 C 
BRANCH  66  67
ATOM     67  N   UNL A   1      33.833  28.113  24.542  1.00  0.00    -0.354 N 
ATOM     68  C   UNL A   1      33.258  28.274  23.303  1.00  0.00     0.247 C 
ATOM     69  H   UNL A   1      34.796  28.315  24.569  1.00  0.00     0.163 HD
ATOM     70  O   UNL A   1      33.832  29.076  22.562  1.00  0.00    -0.272 OA
BRANCH  68  71
ATOM     71  C   UNL A   1      31.955  27.531  22.925  1.00  0.00     0.202 C 
BRANCH  71  72
ATOM     72  C   UNL A   1      30.623  28.283  22.764  1.00  0.00    -0.016 A 
ATOM     73  C   UNL A   1      29.437  27.682  23.257  1.00  0.00     0.006 A 
ATOM     74  C   UNL A   1      30.500  29.584  22.257  1.00  0.00     0.006 A 
ATOM     75  C   UNL A   1      28.195  28.321  23.197  1.00  0.00     0.000 A 
ATOM     76  C   UNL A   1      29.255  30.229  22.199  1.00  0.00     0.000 A 
ATOM     77  C   UNL A   1      28.104  29.598  22.663  1.00  0.00     0.000 A 
ENDBRANCH  71  72
BRANCH  71  78
ATOM     78  N   UNL A   1      32.130  26.573  21.827  1.00  0.00    -0.336 N 
ATOM     79  C   UNL A   1      32.840  25.414  21.657  1.00  0.00     0.253 C 
ATOM     80  H   UNL A   1      31.619  26.821  21.024  1.00  0.00     0.165 HD
ATOM     81  O   UNL A   1      33.211  25.213  20.496  1.00  0.00    -0.269 OA
BRANCH  79  82
ATOM     82  C   UNL A   1      33.076  24.331  22.653  1.00  0.00     0.058 A 
ATOM     83  C   UNL A   1      32.427  23.103  22.745  1.00  0.00     0.018 A 
ATOM     84  C   UNL A   1      34.238  24.450  23.419  1.00  0.00     0.126 A 
ATOM     85  C   UNL A   1      32.996  22.044  23.465  1.00  0.00     0.037 A 
ATOM     86  N   UNL A   1      34.802  23.456  24.158  1.00  0.00    -0.249 NA
ATOM     87  C   UNL A   1      34.186  22.260  24.135  1.00  0.00     0.106 A 
ATOM     88  Br  UNL A   1      35.037  20.802  24.992  1.00  0.00    -0.029 Br
ENDBRANCH  79  82
ENDBRANCH  71  78
ENDBRANCH  68  71
ENDBRANCH  66  67
ENDBRANCH  65  66
ENDBRANCH  64  65
ENDBRANCH   1  64
TORSDOF 16
ENDMDL
MODEL 3
REMARK VINA RESULT:     -11.7      4.383      8.607
REMARK SMILES O=C(NCCCCCCNC(=O)[C@H](NC(=O)c1ccc(Br)nc1)c1ccccc1)c1ccc(-c2c3nc(c(-c4c(F)cccc4F)c4ccc([nH]4)c(-c4c(F)cccc4F)c4nc(c(-c5c(F)cccc5F)c5ccc2[nH]5)C=C4)C=C3)cc1
REMARK SMILES IDX 6 1 5 2 4 3 3 4 1 5 2 6 30 8 31 9 83 10 32 11 82 12 33 13
REMARK SMILES IDX 34 14 35 15 76 16 36 17 81 18 75 19 77 20 37 21 80 22 74 23
REMARK SMILES IDX 73 24 38 26 64 27 47 28 63 29 48 30 51 31 62 32 78 33 49 34
REMARK SMILES IDX 50 35 61 37 79 38 52 39 39 40 40 41 45 42 41 43 42 44 44 45
REMARK SMILES IDX 46 46 43 47 65 48 66 49 71 50 67 51 68 52 70 53 72 54 69 55
REMARK SMILES IDX 53 56 54 57 59 58 55 59 56 60 58 61 60 62 57 63 7 64 8 65
REMARK SMILES IDX 9 66 10 67 11 68 12 70 13 71 24 72 25 73 29 74 26 75 28 76
REMARK SMILES IDX 27 77 14 78 15 79 16 81 17 82 18 83 23 84 19 85 22 86 20 87
REMARK SMILES IDX 21 88
REMARK H PARENT 3 7 77 25 51 36 10 69 14 80
REMARK Flexibility Score: inf
ROOT
ATOM      1  C   UNL A   1      31.369  30.338  25.808  1.00  0.00     0.002 C 
ENDROOT
BRANCH   1   2
ATOM      2  C   UNL A   1      31.144  31.755  26.315  1.00  0.00     0.021 C 
BRANCH   2   3
ATOM      3  C   UNL A   1      32.407  32.583  26.501  1.00  0.00     0.116 C 
BRANCH   3   4
ATOM      4  N   UNL A   1      32.200  33.826  27.234  1.00  0.00    -0.352 N 
ATOM      5  O   UNL A   1      32.651  35.339  28.878  1.00  0.00    -0.269 OA
ATOM      6  C   UNL A   1      32.968  34.324  28.267  1.00  0.00     0.251 C 
ATOM      7  H   UNL A   1      31.426  34.371  26.962  1.00  0.00     0.163 HD
BRANCH   6   8
ATOM      8  C   UNL A   1      34.180  33.571  28.648  1.00  0.00     0.039 A 
ATOM      9  C   UNL A   1      34.052  32.235  29.029  1.00  0.00     0.014 A 
ATOM     10  C   UNL A   1      35.404  34.234  28.768  1.00  0.00     0.014 A 
ATOM     11  C   UNL A   1      35.095  31.623  29.707  1.00  0.00     0.010 A 
ATOM     12  C   UNL A   1      36.490  33.574  29.353  1.00  0.00     0.010 A 
ATOM     13  C   UNL A   1      36.332  32.278  29.867  1.00  0.00    -0.014 A 
BRANCH  13  14
ATOM     14  C   UNL A   1      37.442  31.537  30.519  1.00  0.00     0.031 A 
ATOM     15  C   UNL A   1      38.328  30.588  29.757  1.00  0.00     0.074 A 
ATOM     16  C   UNL A   1      37.692  31.800  31.818  1.00  0.00     0.049 A 
ATOM     17  N   UNL A   1      39.375  29.924  30.183  1.00  0.00    -0.248 NA
ATOM     18  C   UNL A   1      38.000  30.343  28.345  1.00  0.00     0.031 C 
ATOM     19  C   UNL A   1      36.886  32.686  32.662  1.00  0.00     0.029 A 
ATOM     20  N   UNL A   1      38.705  31.389  32.642  1.00  0.00    -0.354 N 
ATOM     21  C   UNL A   1      39.819  29.171  29.103  1.00  0.00     0.074 A 
ATOM     22  C   UNL A   1      38.915  29.444  28.004  1.00  0.00     0.031 C 
ATOM     23  C   UNL A   1      37.477  32.814  33.857  1.00  0.00     0.029 A 
ATOM     24  C   UNL A   1      38.655  31.958  33.892  1.00  0.00     0.049 A 
ATOM     25  H   UNL A   1      39.402  30.749  32.367  1.00  0.00     0.167 HD
ATOM     26  C   UNL A   1      40.883  28.334  29.037  1.00  0.00     0.037 A 
ATOM     27  C   UNL A   1      39.455  31.798  34.959  1.00  0.00     0.037 A 
ATOM     28  C   UNL A   1      41.784  28.075  30.133  1.00  0.00     0.049 A 
ATOM     29  C   UNL A   1      40.629  30.875  34.852  1.00  0.00     0.074 A 
ATOM     30  C   UNL A   1      42.893  27.246  30.164  1.00  0.00     0.029 A 
ATOM     31  N   UNL A   1      41.683  28.647  31.393  1.00  0.00    -0.354 N 
ATOM     32  N   UNL A   1      41.032  30.173  33.820  1.00  0.00    -0.248 NA
ATOM     33  C   UNL A   1      41.454  30.714  36.055  1.00  0.00     0.031 C 
ATOM     34  C   UNL A   1      43.442  27.291  31.451  1.00  0.00     0.029 A 
ATOM     35  C   UNL A   1      42.702  28.182  32.210  1.00  0.00     0.049 A 
ATOM     36  H   UNL A   1      40.989  29.290  31.667  1.00  0.00     0.167 HD
ATOM     37  C   UNL A   1      42.154  29.481  34.252  1.00  0.00     0.074 A 
ATOM     38  C   UNL A   1      42.392  29.882  35.624  1.00  0.00     0.031 C 
ATOM     39  C   UNL A   1      42.911  28.582  33.577  1.00  0.00     0.037 A 
BRANCH  26  40
ATOM     40  C   UNL A   1      41.136  27.620  27.738  1.00  0.00     0.057 A 
ATOM     41  C   UNL A   1      41.979  28.152  26.754  1.00  0.00     0.134 A 
ATOM     42  C   UNL A   1      40.589  26.352  27.500  1.00  0.00     0.134 A 
ATOM     43  F   UNL A   1      42.529  29.365  26.915  1.00  0.00    -0.206 F 
ATOM     44  C   UNL A   1      42.260  27.454  25.577  1.00  0.00     0.040 A 
ATOM     45  C   UNL A   1      40.878  25.636  26.336  1.00  0.00     0.040 A 
ATOM     46  F   UNL A   1      39.779  25.779  28.403  1.00  0.00    -0.206 F 
ATOM     47  C   UNL A   1      41.715  26.189  25.369  1.00  0.00     0.006 A 
ENDBRANCH  26  40
BRANCH  27  48
ATOM     48  C   UNL A   1      39.148  32.516  36.221  1.00  0.00     0.057 A 
ATOM     49  C   UNL A   1      38.312  31.957  37.193  1.00  0.00     0.134 A 
ATOM     50  C   UNL A   1      39.705  33.772  36.492  1.00  0.00     0.134 A 
ATOM     51  F   UNL A   1      37.737  30.764  36.985  1.00  0.00    -0.206 F 
ATOM     52  C   UNL A   1      38.032  32.626  38.385  1.00  0.00     0.040 A 
ATOM     53  C   UNL A   1      39.460  34.438  37.692  1.00  0.00     0.040 A 
ATOM     54  F   UNL A   1      40.525  34.355  35.604  1.00  0.00    -0.206 F 
ATOM     55  C   UNL A   1      38.615  33.868  38.640  1.00  0.00     0.006 A 
ENDBRANCH  27  48
BRANCH  39  56
ATOM     56  C   UNL A   1      44.064  27.985  34.328  1.00  0.00     0.057 A 
ATOM     57  C   UNL A   1      45.328  28.590  34.332  1.00  0.00     0.134 A 
ATOM     58  C   UNL A   1      43.913  26.790  35.040  1.00  0.00     0.134 A 
ATOM     59  F   UNL A   1      45.540  29.727  33.654  1.00  0.00    -0.206 F 
ATOM     60  C   UNL A   1      46.412  28.008  34.992  1.00  0.00     0.040 A 
ATOM     61  C   UNL A   1      44.983  26.212  35.725  1.00  0.00     0.040 A 
ATOM     62  F   UNL A   1      42.727  26.164  35.080  1.00  0.00    -0.206 F 
ATOM     63  C   UNL A   1      46.239  26.816  35.693  1.00  0.00     0.006 A 
ENDBRANCH  39  56
ENDBRANCH  13  14
ENDBRANCH   6   8
ENDBRANCH   3   4
ENDBRANCH   2   3
ENDBRANCH   1   2
BRANCH   1  64
ATOM     64  C   UNL A   1      31.778  29.319  26.868  1.00  0.00     0.002 C 
BRANCH  64  65
ATOM     65  C   UNL A   1      33.181  28.715  26.773  1.00  0.00     0.021 C 
BRANCH  65  66
ATOM     66  C   UNL A   1      33.432  27.655  25.697  1.00  0.00     0.116 C 
BRANCH  66  67
ATOM     67  N   UNL A   1      33.935  28.084  24.400  1.00  0.00    -0.354 N 
ATOM     68  C   UNL A   1      33.307  28.260  23.189  1.00  0.00     0.247 C 
ATOM     69  H   UNL A   1      34.898  28.284  24.388  1.00  0.00     0.163 HD
ATOM     70  O   UNL A   1      33.850  29.070  22.434  1.00  0.00    -0.272 OA
BRANCH  68  71
ATOM     71  C   UNL A   1      31.988  27.522  22.859  1.00  0.00     0.202 C 
BRANCH  71  72
ATOM     72  C   UNL A   1      30.659  28.283  22.715  1.00  0.00    -0.016 A 
ATOM     73  C   UNL A   1      29.476  27.693  23.226  1.00  0.00     0.006 A 
ATOM     74  C   UNL A   1      30.539  29.585  22.208  1.00  0.00     0.006 A 
ATOM     75  C   UNL A   1      28.239  28.341  23.183  1.00  0.00     0.000 A 
ATOM     76  C   UNL A   1      29.299  30.239  22.167  1.00  0.00     0.000 A 
ATOM     77  C   UNL A   1      28.150  29.617  22.648  1.00  0.00     0.000 A 
ENDBRANCH  71  72
BRANCH  71  78
ATOM     78  N   UNL A   1      32.127  26.540  21.776  1.00  0.00    -0.336 N 
ATOM     79  C   UNL A   1      32.824  25.373  21.611  1.00  0.00     0.253 C 
ATOM     80  H   UNL A   1      31.596  26.776  20.982  1.00  0.00     0.165 HD
ATOM     81  O   UNL A   1      33.162  25.146  20.444  1.00  0.00    -0.269 OA
BRANCH  79  82
ATOM     82  C   UNL A   1      33.080  24.309  22.623  1.00  0.00     0.058 A 
ATOM     83  C   UNL A   1      32.428  23.086  22.755  1.00  0.00     0.018 A 
ATOM     84  C   UNL A   1      34.261  24.438  23.358  1.00  0.00     0.126 A 
ATOM     85  C   UNL A   1      33.010  22.039  23.482  1.00  0.00     0.037 A 
ATOM     86  N   UNL A   1      34.838  23.456  24.102  1.00  0.00    -0.249 NA
ATOM     87  C   UNL A   1      34.217  22.263  24.118  1.00  0.00     0.106 A 
ATOM     88  Br  UNL A   1      35.083  20.818  24.983  1.00  0.00    -0.029 Br
ENDBRANCH  79  82
ENDBRANCH  71  78
ENDBRANCH  68  71
ENDBRANCH  66  67
ENDBRANCH  65  66
ENDBRANCH  64  65
ENDBRANCH   1  64
TORSDOF 16
ENDMDL
