MODEL 1
REMARK VINA RESULT:     -10.5      0.000      0.000
REMARK SMILES C#CCN(CC(=O)NCCCCCCNC(=O)c1ccc(-c2c3nc(c(-c4c(F)cccc4F)c4ccc([nH]4)c(-c4c(F)cccc4F)c4nc(c(-c5c(F)cccc5F)c5ccc2[nH]5)C=C4)C=C3)cc1)C(=O)[C@H](c1ccc(Cl)cc1)C(C)C
REMARK SMILES IDX 10 1 9 2 8 3 6 4 7 5 5 7 4 8 3 9 2 10 1 11 72 12 73 13 74 14
REMARK SMILES IDX 82 15 83 16 84 17 75 18 76 19 81 20 77 21 80 22 78 23 79 24
REMARK SMILES IDX 11 25 12 26 13 27 14 28 15 29 16 30 17 32 18 33 19 34 71 35
REMARK SMILES IDX 20 36 70 37 21 38 22 39 23 40 64 41 24 42 69 43 63 44 65 45
REMARK SMILES IDX 25 46 68 47 62 48 61 49 26 51 52 52 35 53 51 54 36 55 39 56
REMARK SMILES IDX 50 57 66 58 37 59 38 60 49 62 67 63 40 64 27 65 28 66 33 67
REMARK SMILES IDX 29 68 30 69 32 70 34 71 31 72 53 73 54 74 59 75 55 76 56 77
REMARK SMILES IDX 58 78 60 79 57 80 41 81 42 82 47 83 43 84 44 85 46 86 48 87
REMARK SMILES IDX 45 88
REMARK H PARENT 8 6 15 31 65 50 39 61
REMARK Flexibility Score: inf
ROOT
ATOM      1  C   UNL A   1      32.071  28.893  23.215  1.00  0.00     0.021 C 
ENDROOT
BRANCH   1   2
ATOM      2  C   UNL A   1      31.091  27.809  22.727  1.00  0.00     0.116 C 
BRANCH   2   3
ATOM      3  N   UNL A   1      31.608  27.042  21.622  1.00  0.00    -0.355 N 
ATOM      4  C   UNL A   1      32.580  26.118  21.859  1.00  0.00     0.239 C 
ATOM      5  O   UNL A   1      33.721  26.502  21.631  1.00  0.00    -0.273 OA
ATOM      6  H   UNL A   1      31.266  27.183  20.709  1.00  0.00     0.163 HD
BRANCH   4   7
ATOM      7  C   UNL A   1      32.222  24.788  22.537  1.00  0.00     0.220 C 
BRANCH   7   8
ATOM      8  N   UNL A   1      33.137  24.453  23.615  1.00  0.00    -0.322 N 
BRANCH   8   9
ATOM      9  C   UNL A   1      33.274  25.500  24.659  1.00  0.00     0.209 C 
BRANCH   9  10
ATOM     10  C   UNL A   1      31.984  25.669  25.444  1.00  0.00    -0.085 C 
ATOM     11  C   UNL A   1      30.877  25.815  26.118  1.00  0.00     0.006 C 
ENDBRANCH   9  10
ENDBRANCH   8   9
BRANCH   8  12
ATOM     12  C   UNL A   1      34.109  23.448  23.499  1.00  0.00     0.231 C 
ATOM     13  O   UNL A   1      34.748  23.367  22.437  1.00  0.00    -0.274 OA
BRANCH  12  14
ATOM     14  C   UNL A   1      34.557  22.478  24.675  1.00  0.00     0.111 C 
BRANCH  14  15
ATOM     15  C   UNL A   1      33.872  21.079  24.629  1.00  0.00    -0.000 C 
ATOM     16  C   UNL A   1      33.357  20.631  26.014  1.00  0.00     0.008 C 
ATOM     17  C   UNL A   1      32.656  21.097  23.689  1.00  0.00     0.008 C 
ENDBRANCH  14  15
BRANCH  14  18
ATOM     18  C   UNL A   1      36.044  22.462  25.046  1.00  0.00    -0.035 A 
ATOM     19  C   UNL A   1      36.713  23.574  25.590  1.00  0.00     0.006 A 
ATOM     20  C   UNL A   1      36.779  21.271  24.879  1.00  0.00     0.006 A 
ATOM     21  C   UNL A   1      38.003  23.450  26.119  1.00  0.00     0.021 A 
ATOM     22  C   UNL A   1      38.084  21.155  25.375  1.00  0.00     0.021 A 
ATOM     23  C   UNL A   1      38.668  22.229  26.040  1.00  0.00     0.041 A 
ATOM     24  Cl  UNL A   1      40.187  22.034  26.825  1.00  0.00    -0.084 Cl
ENDBRANCH  14  18
ENDBRANCH  12  14
ENDBRANCH   8  12
ENDBRANCH   7   8
ENDBRANCH   4   7
ENDBRANCH   2   3
ENDBRANCH   1   2
BRANCH   1  25
ATOM     25  C   UNL A   1      31.871  29.374  24.661  1.00  0.00     0.002 C 
BRANCH  25  26
ATOM     26  C   UNL A   1      30.880  30.526  24.827  1.00  0.00     0.002 C 
BRANCH  26  27
ATOM     27  C   UNL A   1      30.967  31.232  26.177  1.00  0.00     0.021 C 
BRANCH  27  28
ATOM     28  C   UNL A   1      32.356  31.754  26.505  1.00  0.00     0.116 C 
BRANCH  28  29
ATOM     29  N   UNL A   1      32.309  33.135  26.949  1.00  0.00    -0.352 N 
ATOM     30  C   UNL A   1      33.077  33.742  27.912  1.00  0.00     0.251 C 
ATOM     31  H   UNL A   1      31.643  33.708  26.505  1.00  0.00     0.163 HD
ATOM     32  O   UNL A   1      32.758  34.827  28.378  1.00  0.00    -0.269 OA
BRANCH  30  33
ATOM     33  C   UNL A   1      34.290  33.049  28.394  1.00  0.00     0.039 A 
ATOM     34  C   UNL A   1      35.459  33.785  28.584  1.00  0.00     0.014 A 
ATOM     35  C   UNL A   1      34.255  31.681  28.689  1.00  0.00     0.014 A 
ATOM     36  C   UNL A   1      36.582  33.159  29.125  1.00  0.00     0.010 A 
ATOM     37  C   UNL A   1      35.345  31.082  29.308  1.00  0.00     0.010 A 
ATOM     38  C   UNL A   1      36.522  31.813  29.527  1.00  0.00    -0.014 A 
BRANCH  38  39
ATOM     39  C   UNL A   1      37.679  31.160  30.186  1.00  0.00     0.031 A 
ATOM     40  C   UNL A   1      38.011  31.471  31.618  1.00  0.00     0.074 A 
ATOM     41  C   UNL A   1      38.462  30.327  29.474  1.00  0.00     0.049 A 
ATOM     42  N   UNL A   1      39.000  31.027  32.351  1.00  0.00    -0.248 NA
ATOM     43  C   UNL A   1      37.134  32.429  32.308  1.00  0.00     0.031 C 
ATOM     44  C   UNL A   1      38.271  29.984  28.063  1.00  0.00     0.029 A 
ATOM     45  N   UNL A   1      39.580  29.621  29.839  1.00  0.00    -0.354 N 
ATOM     46  C   UNL A   1      38.866  31.655  33.583  1.00  0.00     0.074 A 
ATOM     47  C   UNL A   1      37.740  32.556  33.479  1.00  0.00     0.031 C 
ATOM     48  C   UNL A   1      39.217  29.109  27.692  1.00  0.00     0.029 A 
ATOM     49  C   UNL A   1      40.107  28.862  28.822  1.00  0.00     0.049 A 
ATOM     50  H   UNL A   1      39.968  29.653  30.743  1.00  0.00     0.167 HD
ATOM     51  C   UNL A   1      39.599  31.476  34.708  1.00  0.00     0.037 A 
ATOM     52  C   UNL A   1      41.190  28.063  28.800  1.00  0.00     0.037 A 
ATOM     53  C   UNL A   1      40.715  30.571  34.808  1.00  0.00     0.049 A 
ATOM     54  C   UNL A   1      42.008  27.905  30.052  1.00  0.00     0.074 A 
ATOM     55  C   UNL A   1      41.485  30.270  35.917  1.00  0.00     0.029 A 
ATOM     56  N   UNL A   1      41.227  29.828  33.753  1.00  0.00    -0.354 N 
ATOM     57  N   UNL A   1      41.823  28.441  31.234  1.00  0.00    -0.248 NA
ATOM     58  C   UNL A   1      43.184  27.029  29.966  1.00  0.00     0.031 C 
ATOM     59  C   UNL A   1      42.500  29.393  35.520  1.00  0.00     0.029 A 
ATOM     60  C   UNL A   1      42.327  29.099  34.177  1.00  0.00     0.049 A 
ATOM     61  H   UNL A   1      40.862  29.820  32.839  1.00  0.00     0.167 HD
ATOM     62  C   UNL A   1      42.845  27.954  32.038  1.00  0.00     0.074 A 
ATOM     63  C   UNL A   1      43.634  27.062  31.213  1.00  0.00     0.031 C 
ATOM     64  C   UNL A   1      43.108  28.223  33.341  1.00  0.00     0.037 A 
BRANCH  51  65
ATOM     65  C   UNL A   1      39.221  32.285  35.915  1.00  0.00     0.057 A 
ATOM     66  C   UNL A   1      39.752  33.561  36.150  1.00  0.00     0.134 A 
ATOM     67  C   UNL A   1      38.299  31.791  36.848  1.00  0.00     0.134 A 
ATOM     68  F   UNL A   1      40.649  34.090  35.304  1.00  0.00    -0.206 F 
ATOM     69  C   UNL A   1      39.409  34.300  37.284  1.00  0.00     0.040 A 
ATOM     70  C   UNL A   1      37.922  32.535  37.968  1.00  0.00     0.040 A 
ATOM     71  F   UNL A   1      37.744  30.581  36.683  1.00  0.00    -0.206 F 
ATOM     72  C   UNL A   1      38.485  33.789  38.194  1.00  0.00     0.006 A 
ENDBRANCH  51  65
BRANCH  52  73
ATOM     73  C   UNL A   1      41.550  27.338  27.556  1.00  0.00     0.057 A 
ATOM     74  C   UNL A   1      41.119  26.025  27.336  1.00  0.00     0.134 A 
ATOM     75  C   UNL A   1      42.324  27.938  26.556  1.00  0.00     0.134 A 
ATOM     76  F   UNL A   1      40.390  25.389  28.265  1.00  0.00    -0.206 F 
ATOM     77  C   UNL A   1      41.457  25.328  26.175  1.00  0.00     0.040 A 
ATOM     78  C   UNL A   1      42.648  27.264  25.377  1.00  0.00     0.040 A 
ATOM     79  F   UNL A   1      42.762  29.197  26.702  1.00  0.00    -0.206 F 
ATOM     80  C   UNL A   1      42.218  25.952  25.188  1.00  0.00     0.006 A 
ENDBRANCH  52  73
BRANCH  64  81
ATOM     81  C   UNL A   1      44.291  27.531  33.958  1.00  0.00     0.057 A 
ATOM     82  C   UNL A   1      44.175  26.279  34.575  1.00  0.00     0.134 A 
ATOM     83  C   UNL A   1      45.566  28.109  33.904  1.00  0.00     0.134 A 
ATOM     84  F   UNL A   1      42.980  25.678  34.674  1.00  0.00    -0.206 F 
ATOM     85  C   UNL A   1      45.280  25.638  35.137  1.00  0.00     0.040 A 
ATOM     86  C   UNL A   1      46.683  27.464  34.435  1.00  0.00     0.040 A 
ATOM     87  F   UNL A   1      45.749  29.303  33.319  1.00  0.00    -0.206 F 
ATOM     88  C   UNL A   1      46.540  26.228  35.061  1.00  0.00     0.006 A 
ENDBRANCH  64  81
ENDBRANCH  38  39
ENDBRANCH  30  33
ENDBRANCH  28  29
ENDBRANCH  27  28
ENDBRANCH  26  27
ENDBRANCH  25  26
ENDBRANCH   1  25
TORSDOF 20
ENDMDL
MODEL 2
REMARK VINA RESULT:     -10.5      2.071      6.751
REMARK SMILES C#CCN(CC(=O)NCCCCCCNC(=O)c1ccc(-c2c3nc(c(-c4c(F)cccc4F)c4ccc([nH]4)c(-c4c(F)cccc4F)c4nc(c(-c5c(F)cccc5F)c5ccc2[nH]5)C=C4)C=C3)cc1)C(=O)[C@H](c1ccc(Cl)cc1)C(C)C
REMARK SMILES IDX 10 1 9 2 8 3 6 4 7 5 5 7 4 8 3 9 2 10 1 11 72 12 73 13 74 14
REMARK SMILES IDX 82 15 83 16 84 17 75 18 76 19 81 20 77 21 80 22 78 23 79 24
REMARK SMILES IDX 11 25 12 26 13 27 14 28 15 29 16 30 17 32 18 33 19 34 71 35
REMARK SMILES IDX 20 36 70 37 21 38 22 39 23 40 64 41 24 42 69 43 63 44 65 45
REMARK SMILES IDX 25 46 68 47 62 48 61 49 26 51 52 52 35 53 51 54 36 55 39 56
REMARK SMILES IDX 50 57 66 58 37 59 38 60 49 62 67 63 40 64 27 65 28 66 33 67
REMARK SMILES IDX 29 68 30 69 32 70 34 71 31 72 53 73 54 74 59 75 55 76 56 77
REMARK SMILES IDX 58 78 60 79 57 80 41 81 42 82 47 83 43 84 44 85 46 86 48 87
REMARK SMILES IDX 45 88
REMARK H PARENT 8 6 15 31 65 50 39 61
REMARK Flexibility Score: inf
ROOT
ATOM      1  C   UNL A   1      31.014  27.985  24.784  1.00  0.00     0.021 C 
ENDROOT
BRANCH   1   2
ATOM      2  C   UNL A   1      31.154  27.164  26.079  1.00  0.00     0.116 C 
BRANCH   2   3
ATOM      3  N   UNL A   1      30.337  25.975  26.080  1.00  0.00    -0.355 N 
ATOM      4  C   UNL A   1      30.915  24.779  25.783  1.00  0.00     0.239 C 
ATOM      5  O   UNL A   1      30.773  24.414  24.622  1.00  0.00    -0.273 OA
ATOM      6  H   UNL A   1      29.377  26.027  26.291  1.00  0.00     0.163 HD
BRANCH   4   7
ATOM      7  C   UNL A   1      31.816  24.087  26.816  1.00  0.00     0.220 C 
BRANCH   7   8
ATOM      8  N   UNL A   1      32.531  22.954  26.254  1.00  0.00    -0.322 N 
BRANCH   8   9
ATOM      9  C   UNL A   1      31.701  21.740  26.043  1.00  0.00     0.209 C 
BRANCH   9  10
ATOM     10  C   UNL A   1      32.317  20.824  24.998  1.00  0.00    -0.085 C 
ATOM     11  C   UNL A   1      32.845  20.038  24.101  1.00  0.00     0.006 C 
ENDBRANCH   9  10
ENDBRANCH   8   9
BRANCH   8  12
ATOM     12  C   UNL A   1      33.930  22.848  26.285  1.00  0.00     0.231 C 
ATOM     13  O   UNL A   1      34.443  22.093  27.127  1.00  0.00    -0.274 OA
BRANCH  12  14
ATOM     14  C   UNL A   1      34.915  23.521  25.236  1.00  0.00     0.111 C 
BRANCH  14  15
ATOM     15  C   UNL A   1      36.234  22.722  25.013  1.00  0.00    -0.000 C 
ATOM     16  C   UNL A   1      36.641  22.663  23.525  1.00  0.00     0.008 C 
ATOM     17  C   UNL A   1      37.403  23.376  25.767  1.00  0.00     0.008 C 
ENDBRANCH  14  15
BRANCH  14  18
ATOM     18  C   UNL A   1      34.293  24.115  23.968  1.00  0.00    -0.035 A 
ATOM     19  C   UNL A   1      33.802  23.328  22.909  1.00  0.00     0.006 A 
ATOM     20  C   UNL A   1      34.160  25.514  23.860  1.00  0.00     0.006 A 
ATOM     21  C   UNL A   1      33.045  23.897  21.879  1.00  0.00     0.021 A 
ATOM     22  C   UNL A   1      33.433  26.090  22.810  1.00  0.00     0.021 A 
ATOM     23  C   UNL A   1      32.834  25.273  21.856  1.00  0.00     0.041 A 
ATOM     24  Cl  UNL A   1      31.778  25.953  20.680  1.00  0.00    -0.084 Cl
ENDBRANCH  14  18
ENDBRANCH  12  14
ENDBRANCH   8  12
ENDBRANCH   7   8
ENDBRANCH   4   7
ENDBRANCH   2   3
ENDBRANCH   1   2
BRANCH   1  25
ATOM     25  C   UNL A   1      31.439  29.460  24.878  1.00  0.00     0.002 C 
BRANCH  25  26
ATOM     26  C   UNL A   1      31.780  29.946  26.286  1.00  0.00     0.002 C 
BRANCH  26  27
ATOM     27  C   UNL A   1      31.562  31.441  26.500  1.00  0.00     0.021 C 
BRANCH  27  28
ATOM     28  C   UNL A   1      32.694  32.121  27.252  1.00  0.00     0.116 C 
BRANCH  28  29
ATOM     29  N   UNL A   1      32.448  33.544  27.402  1.00  0.00    -0.352 N 
ATOM     30  C   UNL A   1      33.016  34.411  28.302  1.00  0.00     0.251 C 
ATOM     31  H   UNL A   1      31.792  33.934  26.781  1.00  0.00     0.163 HD
ATOM     32  O   UNL A   1      32.529  35.515  28.502  1.00  0.00    -0.269 OA
BRANCH  30  33
ATOM     33  C   UNL A   1      34.218  33.979  29.044  1.00  0.00     0.039 A 
ATOM     34  C   UNL A   1      34.061  33.234  30.213  1.00  0.00     0.014 A 
ATOM     35  C   UNL A   1      35.496  34.282  28.561  1.00  0.00     0.014 A 
ATOM     36  C   UNL A   1      35.189  32.744  30.869  1.00  0.00     0.010 A 
ATOM     37  C   UNL A   1      36.613  33.720  29.167  1.00  0.00     0.010 A 
ATOM     38  C   UNL A   1      36.472  32.951  30.331  1.00  0.00    -0.014 A 
BRANCH  38  39
ATOM     39  C   UNL A   1      37.672  32.359  30.970  1.00  0.00     0.031 A 
ATOM     40  C   UNL A   1      38.337  31.155  30.365  1.00  0.00     0.074 A 
ATOM     41  C   UNL A   1      38.130  32.877  32.126  1.00  0.00     0.049 A 
ATOM     42  N   UNL A   1      39.372  30.480  30.796  1.00  0.00    -0.248 NA
ATOM     43  C   UNL A   1      37.746  30.622  29.128  1.00  0.00     0.031 C 
ATOM     44  C   UNL A   1      37.540  34.013  32.836  1.00  0.00     0.029 A 
ATOM     45  N   UNL A   1      39.194  32.510  32.911  1.00  0.00    -0.354 N 
ATOM     46  C   UNL A   1      39.550  29.443  29.889  1.00  0.00     0.074 A 
ATOM     47  C   UNL A   1      38.481  29.541  28.920  1.00  0.00     0.031 C 
ATOM     48  C   UNL A   1      38.268  34.272  33.932  1.00  0.00     0.029 A 
ATOM     49  C   UNL A   1      39.349  33.295  34.027  1.00  0.00     0.049 A 
ATOM     50  H   UNL A   1      39.790  31.758  32.695  1.00  0.00     0.167 HD
ATOM     51  C   UNL A   1      40.531  28.510  29.852  1.00  0.00     0.037 A 
ATOM     52  C   UNL A   1      40.255  33.230  35.021  1.00  0.00     0.037 A 
ATOM     53  C   UNL A   1      41.598  28.423  30.816  1.00  0.00     0.049 A 
ATOM     54  C   UNL A   1      41.316  32.167  34.975  1.00  0.00     0.074 A 
ATOM     55  C   UNL A   1      42.674  27.554  30.834  1.00  0.00     0.029 A 
ATOM     56  N   UNL A   1      41.715  29.228  31.940  1.00  0.00    -0.354 N 
ATOM     57  N   UNL A   1      41.521  31.242  34.069  1.00  0.00    -0.248 NA
ATOM     58  C   UNL A   1      42.271  32.138  36.091  1.00  0.00     0.031 C 
ATOM     59  C   UNL A   1      43.409  27.793  32.000  1.00  0.00     0.029 A 
ATOM     60  C   UNL A   1      42.825  28.850  32.679  1.00  0.00     0.049 A 
ATOM     61  H   UNL A   1      41.100  29.959  32.177  1.00  0.00     0.167 HD
ATOM     62  C   UNL A   1      42.639  30.534  34.491  1.00  0.00     0.074 A 
ATOM     63  C   UNL A   1      43.079  31.152  35.726  1.00  0.00     0.031 C 
ATOM     64  C   UNL A   1      43.245  29.469  33.912  1.00  0.00     0.037 A 
BRANCH  51  65
ATOM     65  C   UNL A   1      40.486  27.504  28.737  1.00  0.00     0.057 A 
ATOM     66  C   UNL A   1      39.664  26.370  28.793  1.00  0.00     0.134 A 
ATOM     67  C   UNL A   1      41.262  27.679  27.584  1.00  0.00     0.134 A 
ATOM     68  F   UNL A   1      38.903  26.134  29.873  1.00  0.00    -0.206 F 
ATOM     69  C   UNL A   1      39.640  25.431  27.761  1.00  0.00     0.040 A 
ATOM     70  C   UNL A   1      41.222  26.764  26.530  1.00  0.00     0.040 A 
ATOM     71  F   UNL A   1      42.066  28.745  27.458  1.00  0.00    -0.206 F 
ATOM     72  C   UNL A   1      40.417  25.630  26.621  1.00  0.00     0.006 A 
ENDBRANCH  51  65
BRANCH  52  73
ATOM     73  C   UNL A   1      40.208  34.216  36.130  1.00  0.00     0.057 A 
ATOM     74  C   UNL A   1      40.926  35.416  36.060  1.00  0.00     0.134 A 
ATOM     75  C   UNL A   1      39.444  33.989  37.280  1.00  0.00     0.134 A 
ATOM     76  F   UNL A   1      41.691  35.683  34.991  1.00  0.00    -0.206 F 
ATOM     77  C   UNL A   1      40.898  36.347  37.099  1.00  0.00     0.040 A 
ATOM     78  C   UNL A   1      39.385  34.922  38.316  1.00  0.00     0.040 A 
ATOM     79  F   UNL A   1      38.727  32.862  37.406  1.00  0.00    -0.206 F 
ATOM     80  C   UNL A   1      40.119  36.104  38.229  1.00  0.00     0.006 A 
ENDBRANCH  52  73
BRANCH  64  81
ATOM     81  C   UNL A   1      44.458  28.912  34.601  1.00  0.00     0.057 A 
ATOM     82  C   UNL A   1      44.367  27.866  35.528  1.00  0.00     0.134 A 
ATOM     83  C   UNL A   1      45.736  29.406  34.307  1.00  0.00     0.134 A 
ATOM     84  F   UNL A   1      43.172  27.358  35.864  1.00  0.00    -0.206 F 
ATOM     85  C   UNL A   1      45.500  27.348  36.156  1.00  0.00     0.040 A 
ATOM     86  C   UNL A   1      46.878  28.875  34.907  1.00  0.00     0.040 A 
ATOM     87  F   UNL A   1      45.896  30.401  33.422  1.00  0.00    -0.206 F 
ATOM     88  C   UNL A   1      46.762  27.848  35.840  1.00  0.00     0.006 A 
ENDBRANCH  64  81
ENDBRANCH  38  39
ENDBRANCH  30  33
ENDBRANCH  28  29
ENDBRANCH  27  28
ENDBRANCH  26  27
ENDBRANCH  25  26
ENDBRANCH   1  25
TORSDOF 20
ENDMDL
MODEL 3
REMARK VINA RESULT:      -9.9      2.408      3.440
REMARK SMILES C#CCN(CC(=O)NCCCCCCNC(=O)c1ccc(-c2c3nc(c(-c4c(F)cccc4F)c4ccc([nH]4)c(-c4c(F)cccc4F)c4nc(c(-c5c(F)cccc5F)c5ccc2[nH]5)C=C4)C=C3)cc1)C(=O)[C@H](c1ccc(Cl)cc1)C(C)C
REMARK SMILES IDX 10 1 9 2 8 3 6 4 7 5 5 7 4 8 3 9 2 10 1 11 72 12 73 13 74 14
REMARK SMILES IDX 82 15 83 16 84 17 75 18 76 19 81 20 77 21 80 22 78 23 79 24
REMARK SMILES IDX 11 25 12 26 13 27 14 28 15 29 16 30 17 32 18 33 19 34 71 35
REMARK SMILES IDX 20 36 70 37 21 38 22 39 23 40 64 41 24 42 69 43 63 44 65 45
REMARK SMILES IDX 25 46 68 47 62 48 61 49 26 51 52 52 35 53 51 54 36 55 39 56
REMARK SMILES IDX 50 57 66 58 37 59 38 60 49 62 67 63 40 64 27 65 28 66 33 67
REMARK SMILES IDX 29 68 30 69 32 70 34 71 31 72 53 73 54 74 59 75 55 76 56 77
REMARK SMILES IDX 58 78 60 79 57 80 41 81 42 82 47 83 43 84 44 85 46 86 48 87
REMARK SMILES IDX 45 88
REMARK H PARENT 8 6 15 31 65 50 39 61
REMARK Flexibility Score: inf
ROOT
ATOM      1  C   UNL A   1      31.751  28.879  23.043  1.00  0.00     0.021 C 
ENDROOT
BRANCH   1   2
ATOM      2  C   UNL A   1      31.011  27.544  22.834  1.00  0.00     0.116 C 
BRANCH   2   3
ATOM      3  N   UNL A   1      31.492  26.809  21.690  1.00  0.00    -0.355 N 
ATOM      4  C   UNL A   1      32.490  25.899  21.865  1.00  0.00     0.239 C 
ATOM      5  O   UNL A   1      33.612  26.309  21.594  1.00  0.00    -0.273 OA
ATOM      6  H   UNL A   1      31.107  26.963  20.797  1.00  0.00     0.163 HD
BRANCH   4   7
ATOM      7  C   UNL A   1      32.186  24.549  22.528  1.00  0.00     0.220 C 
BRANCH   7   8
ATOM      8  N   UNL A   1      33.096  24.253  23.622  1.00  0.00    -0.322 N 
BRANCH   8   9
ATOM      9  C   UNL A   1      32.983  25.168  24.787  1.00  0.00     0.209 C 
BRANCH   9  10
ATOM     10  C   UNL A   1      31.840  24.760  25.701  1.00  0.00    -0.085 C 
ATOM     11  C   UNL A   1      30.858  24.410  26.485  1.00  0.00     0.006 C 
ENDBRANCH   9  10
ENDBRANCH   8   9
BRANCH   8  12
ATOM     12  C   UNL A   1      34.245  23.464  23.460  1.00  0.00     0.231 C 
ATOM     13  O   UNL A   1      34.915  23.608  22.423  1.00  0.00    -0.274 OA
BRANCH  12  14
ATOM     14  C   UNL A   1      34.839  22.488  24.563  1.00  0.00     0.111 C 
BRANCH  14  15
ATOM     15  C   UNL A   1      34.971  23.140  25.972  1.00  0.00    -0.000 C 
ATOM     16  C   UNL A   1      34.349  22.267  27.084  1.00  0.00     0.008 C 
ATOM     17  C   UNL A   1      36.448  23.345  26.344  1.00  0.00     0.008 C 
ENDBRANCH  14  15
BRANCH  14  18
ATOM     18  C   UNL A   1      34.341  21.039  24.561  1.00  0.00    -0.035 A 
ATOM     19  C   UNL A   1      33.007  20.684  24.286  1.00  0.00     0.006 A 
ATOM     20  C   UNL A   1      35.260  19.998  24.802  1.00  0.00     0.006 A 
ATOM     21  C   UNL A   1      32.646  19.348  24.075  1.00  0.00     0.021 A 
ATOM     22  C   UNL A   1      34.892  18.658  24.626  1.00  0.00     0.021 A 
ATOM     23  C   UNL A   1      33.601  18.344  24.211  1.00  0.00     0.041 A 
ATOM     24  Cl  UNL A   1      33.197  16.722  23.803  1.00  0.00    -0.084 Cl
ENDBRANCH  14  18
ENDBRANCH  12  14
ENDBRANCH   8  12
ENDBRANCH   7   8
ENDBRANCH   4   7
ENDBRANCH   2   3
ENDBRANCH   1   2
BRANCH   1  25
ATOM     25  C   UNL A   1      32.951  28.835  24.003  1.00  0.00     0.002 C 
BRANCH  25  26
ATOM     26  C   UNL A   1      32.698  29.442  25.382  1.00  0.00     0.002 C 
BRANCH  26  27
ATOM     27  C   UNL A   1      33.285  28.634  26.536  1.00  0.00     0.021 C 
BRANCH  27  28
ATOM     28  C   UNL A   1      34.502  29.280  27.176  1.00  0.00     0.116 C 
BRANCH  28  29
ATOM     29  N   UNL A   1      34.218  30.639  27.596  1.00  0.00    -0.352 N 
ATOM     30  C   UNL A   1      34.835  31.367  28.584  1.00  0.00     0.251 C 
ATOM     31  H   UNL A   1      33.492  31.096  27.114  1.00  0.00     0.163 HD
ATOM     32  O   UNL A   1      34.327  32.392  29.018  1.00  0.00    -0.269 OA
BRANCH  30  33
ATOM     33  C   UNL A   1      36.117  30.878  29.132  1.00  0.00     0.039 A 
ATOM     34  C   UNL A   1      36.101  29.864  30.091  1.00  0.00     0.014 A 
ATOM     35  C   UNL A   1      37.330  31.398  28.669  1.00  0.00     0.014 A 
ATOM     36  C   UNL A   1      37.307  29.333  30.546  1.00  0.00     0.010 A 
ATOM     37  C   UNL A   1      38.527  30.808  29.058  1.00  0.00     0.010 A 
ATOM     38  C   UNL A   1      38.528  29.774  30.005  1.00  0.00    -0.014 A 
BRANCH  38  39
ATOM     39  C   UNL A   1      39.812  29.155  30.413  1.00  0.00     0.031 A 
ATOM     40  C   UNL A   1      40.559  29.678  31.607  1.00  0.00     0.074 A 
ATOM     41  C   UNL A   1      40.330  28.156  29.674  1.00  0.00     0.049 A 
ATOM     42  N   UNL A   1      41.710  29.290  32.096  1.00  0.00    -0.248 NA
ATOM     43  C   UNL A   1      39.948  30.803  32.332  1.00  0.00     0.031 C 
ATOM     44  C   UNL A   1      39.723  27.596  28.465  1.00  0.00     0.029 A 
ATOM     45  N   UNL A   1      41.489  27.438  29.827  1.00  0.00    -0.354 N 
ATOM     46  C   UNL A   1      41.961  30.125  33.177  1.00  0.00     0.074 A 
ATOM     47  C   UNL A   1      40.876  31.079  33.235  1.00  0.00     0.031 C 
ATOM     48  C   UNL A   1      40.496  26.600  28.006  1.00  0.00     0.029 A 
ATOM     49  C   UNL A   1      41.674  26.481  28.860  1.00  0.00     0.049 A 
ATOM     50  H   UNL A   1      42.127  27.593  30.560  1.00  0.00     0.167 HD
ATOM     51  C   UNL A   1      42.989  30.083  34.058  1.00  0.00     0.037 A 
ATOM     52  C   UNL A   1      42.683  25.609  28.676  1.00  0.00     0.037 A 
ATOM     53  C   UNL A   1      44.063  29.126  33.999  1.00  0.00     0.049 A 
ATOM     54  C   UNL A   1      43.830  25.602  29.649  1.00  0.00     0.074 A 
ATOM     55  C   UNL A   1      45.119  28.959  34.877  1.00  0.00     0.029 A 
ATOM     56  N   UNL A   1      44.223  28.178  32.998  1.00  0.00    -0.354 N 
ATOM     57  N   UNL A   1      44.016  26.344  30.713  1.00  0.00    -0.248 NA
ATOM     58  C   UNL A   1      44.908  24.637  29.392  1.00  0.00     0.031 C 
ATOM     59  C   UNL A   1      45.950  27.952  34.374  1.00  0.00     0.029 A 
ATOM     60  C   UNL A   1      45.381  27.450  33.216  1.00  0.00     0.049 A 
ATOM     61  H   UNL A   1      43.604  28.044  32.244  1.00  0.00     0.167 HD
ATOM     62  C   UNL A   1      45.218  25.923  31.267  1.00  0.00     0.074 A 
ATOM     63  C   UNL A   1      45.706  24.846  30.430  1.00  0.00     0.031 C 
ATOM     64  C   UNL A   1      45.860  26.387  32.367  1.00  0.00     0.037 A 
BRANCH  51  65
ATOM     65  C   UNL A   1      43.003  31.112  35.152  1.00  0.00     0.057 A 
ATOM     66  C   UNL A   1      43.585  32.375  34.977  1.00  0.00     0.134 A 
ATOM     67  C   UNL A   1      42.412  30.844  36.394  1.00  0.00     0.134 A 
ATOM     68  F   UNL A   1      44.180  32.695  33.817  1.00  0.00    -0.206 F 
ATOM     69  C   UNL A   1      43.610  33.319  36.004  1.00  0.00     0.040 A 
ATOM     70  C   UNL A   1      42.401  31.793  37.419  1.00  0.00     0.040 A 
ATOM     71  F   UNL A   1      41.830  29.659  36.630  1.00  0.00    -0.206 F 
ATOM     72  C   UNL A   1      43.010  33.031  37.229  1.00  0.00     0.006 A 
ENDBRANCH  51  65
BRANCH  52  73
ATOM     73  C   UNL A   1      42.643  24.658  27.537  1.00  0.00     0.057 A 
ATOM     74  C   UNL A   1      42.099  23.377  27.685  1.00  0.00     0.134 A 
ATOM     75  C   UNL A   1      43.136  25.006  26.274  1.00  0.00     0.134 A 
ATOM     76  F   UNL A   1      41.626  22.979  28.876  1.00  0.00    -0.206 F 
ATOM     77  C   UNL A   1      42.062  22.470  26.625  1.00  0.00     0.040 A 
ATOM     78  C   UNL A   1      43.082  24.120  25.197  1.00  0.00     0.040 A 
ATOM     79  F   UNL A   1      43.663  26.221  26.064  1.00  0.00    -0.206 F 
ATOM     80  C   UNL A   1      42.548  22.844  25.374  1.00  0.00     0.006 A 
ENDBRANCH  52  73
BRANCH  64  81
ATOM     81  C   UNL A   1      47.155  25.721  32.736  1.00  0.00     0.057 A 
ATOM     82  C   UNL A   1      47.210  24.681  33.673  1.00  0.00     0.134 A 
ATOM     83  C   UNL A   1      48.355  26.102  32.122  1.00  0.00     0.134 A 
ATOM     84  F   UNL A   1      46.100  24.279  34.309  1.00  0.00    -0.206 F 
ATOM     85  C   UNL A   1      48.416  24.061  34.004  1.00  0.00     0.040 A 
ATOM     86  C   UNL A   1      49.562  25.469  32.422  1.00  0.00     0.040 A 
ATOM     87  F   UNL A   1      48.373  27.085  31.209  1.00  0.00    -0.206 F 
ATOM     88  C   UNL A   1      49.596  24.449  33.371  1.00  0.00     0.006 A 
ENDBRANCH  64  81
ENDBRANCH  38  39
ENDBRANCH  30  33
ENDBRANCH  28  29
ENDBRANCH  27  28
ENDBRANCH  26  27
ENDBRANCH  25  26
ENDBRANCH   1  25
TORSDOF 20
ENDMDL
