MODEL 1
REMARK VINA RESULT:     -11.7      0.000      0.000
REMARK SMILES Cc1ccc(C(C)C)c(OCC(=O)Nc2nc(CC(=O)NCCCCCCNC(=O)c3ccc(-c4c5nc(c(-c6c(F)cccc6F)c6ccc([nH]6)c(-c6c(F)cccc6F)c6nc(c(-c7c(F)cccc7F)c7ccc4[nH]7)C=C6)C=C5)cc3)cs2)c1
REMARK SMILES IDX 22 1 21 2 19 3 20 4 18 6 17 7 15 8 16 9 86 10 85 11 14 12
REMARK SMILES IDX 12 13 13 14 11 16 10 17 9 18 1 19 2 20 3 21 87 22 4 23 5 24
REMARK SMILES IDX 6 25 7 26 8 27 23 28 24 29 25 30 26 31 27 32 28 33 29 34
REMARK SMILES IDX 30 36 31 37 32 38 84 39 33 40 83 41 34 42 35 43 36 44 77 45
REMARK SMILES IDX 37 46 82 47 76 48 78 49 38 50 81 51 75 52 74 53 39 55 65 56
REMARK SMILES IDX 48 57 64 58 49 59 52 60 63 61 79 62 50 63 51 64 62 66 80 67
REMARK SMILES IDX 53 68 40 69 41 70 46 71 42 72 43 73 45 74 47 75 44 76 66 77
REMARK SMILES IDX 67 78 72 79 68 80 69 81 71 82 73 83 70 84 54 85 55 86 60 87
REMARK SMILES IDX 56 88 57 89 59 90 61 91 58 92
REMARK H PARENT 21 5 14 15 28 35 78 54 52 65
REMARK Flexibility Score: inf
ROOT
ATOM      1  C   UNL A   1      34.043  28.954  26.738  1.00  0.00     0.116 C 
ENDROOT
BRANCH   1   2
ATOM      2  N   UNL A   1      34.197  28.947  25.296  1.00  0.00    -0.356 N 
ATOM      3  C   UNL A   1      33.246  29.127  24.330  1.00  0.00     0.226 C 
ATOM      4  O   UNL A   1      33.620  29.203  23.157  1.00  0.00    -0.275 OA
ATOM      5  H   UNL A   1      35.111  28.792  24.968  1.00  0.00     0.163 HD
BRANCH   3   6
ATOM      6  C   UNL A   1      31.776  29.256  24.694  1.00  0.00     0.157 C 
BRANCH   6   7
ATOM      7  C   UNL A   1      31.066  27.943  24.699  1.00  0.00     0.063 A 
ATOM      8  C   UNL A   1      30.508  26.052  25.679  1.00  0.00     0.189 A 
ATOM      9  N   UNL A   1      30.981  27.247  25.899  1.00  0.00    -0.224 NA
ATOM     10  S   UNL A   1      30.032  25.704  24.079  1.00  0.00    -0.105 S 
ATOM     11  C   UNL A   1      30.508  27.286  23.616  1.00  0.00     0.093 A 
BRANCH   8  12
ATOM     12  N   UNL A   1      30.374  25.007  26.540  1.00  0.00    -0.299 N 
ATOM     13  C   UNL A   1      31.263  23.998  26.744  1.00  0.00     0.264 C 
ATOM     14  O   UNL A   1      30.911  23.072  27.487  1.00  0.00    -0.271 OA
ATOM     15  H   UNL A   1      29.547  24.979  27.072  1.00  0.00     0.172 HD
BRANCH  13  16
ATOM     16  C   UNL A   1      32.691  24.040  26.174  1.00  0.00     0.329 C 
BRANCH  16  17
ATOM     17  O   UNL A   1      32.987  23.355  24.976  1.00  0.00    -0.483 OA
BRANCH  17  18
ATOM     18  C   UNL A   1      33.516  22.096  25.011  1.00  0.00     0.123 A 
ATOM     19  C   UNL A   1      32.570  18.415  25.333  1.00  0.00     0.044 C 
ATOM     20  C   UNL A   1      33.380  19.666  25.159  1.00  0.00    -0.047 A 
ATOM     21  C   UNL A   1      34.753  19.579  24.925  1.00  0.00     0.004 A 
ATOM     22  C   UNL A   1      32.773  20.929  25.215  1.00  0.00     0.050 A 
ATOM     23  C   UNL A   1      35.511  20.736  24.763  1.00  0.00     0.008 A 
ATOM     24  C   UNL A   1      34.909  22.008  24.798  1.00  0.00    -0.003 A 
BRANCH  24  25
ATOM     25  C   UNL A   1      35.765  23.255  24.604  1.00  0.00     0.017 C 
ATOM     26  C   UNL A   1      36.624  23.548  25.836  1.00  0.00     0.012 C 
ATOM     27  C   UNL A   1      36.649  23.140  23.360  1.00  0.00     0.012 C 
ENDBRANCH  24  25
ENDBRANCH  17  18
ENDBRANCH  16  17
ENDBRANCH  13  16
ENDBRANCH   8  12
ENDBRANCH   6   7
ENDBRANCH   3   6
ENDBRANCH   1   2
BRANCH   1  28
ATOM     28  C   UNL A   1      35.316  29.363  27.478  1.00  0.00     0.021 C 
BRANCH  28  29
ATOM     29  C   UNL A   1      35.367  30.831  27.927  1.00  0.00     0.002 C 
BRANCH  29  30
ATOM     30  C   UNL A   1      34.073  31.652  27.783  1.00  0.00     0.002 C 
BRANCH  30  31
ATOM     31  C   UNL A   1      34.033  33.005  28.498  1.00  0.00     0.021 C 
BRANCH  31  32
ATOM     32  C   UNL A   1      34.699  33.018  29.866  1.00  0.00     0.116 C 
BRANCH  32  33
ATOM     33  N   UNL A   1      33.953  33.724  30.901  1.00  0.00    -0.352 N 
ATOM     34  C   UNL A   1      34.326  34.031  32.204  1.00  0.00     0.251 C 
ATOM     35  H   UNL A   1      33.054  34.027  30.638  1.00  0.00     0.163 HD
ATOM     36  O   UNL A   1      33.551  34.595  32.947  1.00  0.00    -0.269 OA
BRANCH  34  37
ATOM     37  C   UNL A   1      35.733  33.795  32.629  1.00  0.00     0.039 A 
ATOM     38  C   UNL A   1      36.732  34.543  31.995  1.00  0.00     0.014 A 
ATOM     39  C   UNL A   1      36.074  32.717  33.437  1.00  0.00     0.014 A 
ATOM     40  C   UNL A   1      38.026  34.036  31.936  1.00  0.00     0.010 A 
ATOM     41  C   UNL A   1      37.326  32.155  33.293  1.00  0.00     0.010 A 
ATOM     42  C   UNL A   1      38.274  32.777  32.476  1.00  0.00    -0.014 A 
BRANCH  42  43
ATOM     43  C   UNL A   1      39.451  31.985  32.146  1.00  0.00     0.031 A 
ATOM     44  C   UNL A   1      39.330  30.809  31.267  1.00  0.00     0.074 A 
ATOM     45  C   UNL A   1      40.662  32.384  32.594  1.00  0.00     0.049 A 
ATOM     46  N   UNL A   1      40.175  29.836  31.224  1.00  0.00    -0.248 NA
ATOM     47  C   UNL A   1      38.183  30.611  30.393  1.00  0.00     0.031 C 
ATOM     48  C   UNL A   1      41.970  31.896  32.167  1.00  0.00     0.029 A 
ATOM     49  N   UNL A   1      40.934  33.187  33.710  1.00  0.00    -0.354 N 
ATOM     50  C   UNL A   1      39.847  29.035  30.152  1.00  0.00     0.074 A 
ATOM     51  C   UNL A   1      38.549  29.508  29.735  1.00  0.00     0.031 C 
ATOM     52  C   UNL A   1      42.864  32.155  33.135  1.00  0.00     0.029 A 
ATOM     53  C   UNL A   1      42.129  32.685  34.269  1.00  0.00     0.049 A 
ATOM     54  H   UNL A   1      40.400  33.946  34.037  1.00  0.00     0.167 HD
ATOM     55  C   UNL A   1      40.782  28.163  29.673  1.00  0.00     0.037 A 
ATOM     56  C   UNL A   1      42.151  32.154  35.527  1.00  0.00     0.037 A 
ATOM     57  C   UNL A   1      41.953  28.125  30.558  1.00  0.00     0.049 A 
ATOM     58  C   UNL A   1      42.568  30.703  35.571  1.00  0.00     0.074 A 
ATOM     59  C   UNL A   1      43.198  28.730  30.494  1.00  0.00     0.029 A 
ATOM     60  N   UNL A   1      41.822  27.632  31.854  1.00  0.00    -0.354 N 
ATOM     61  N   UNL A   1      42.562  29.912  34.534  1.00  0.00    -0.248 NA
ATOM     62  C   UNL A   1      43.004  30.022  36.788  1.00  0.00     0.031 C 
ATOM     63  C   UNL A   1      43.786  28.663  31.783  1.00  0.00     0.029 A 
ATOM     64  C   UNL A   1      42.913  27.992  32.622  1.00  0.00     0.049 A 
ATOM     65  H   UNL A   1      41.060  27.099  32.177  1.00  0.00     0.167 HD
ATOM     66  C   UNL A   1      42.953  28.655  34.912  1.00  0.00     0.074 A 
ATOM     67  C   UNL A   1      43.241  28.780  36.329  1.00  0.00     0.031 C 
ATOM     68  C   UNL A   1      42.997  27.615  34.027  1.00  0.00     0.037 A 
BRANCH  55  69
ATOM     69  C   UNL A   1      40.787  27.574  28.268  1.00  0.00     0.057 A 
ATOM     70  C   UNL A   1      40.232  26.299  28.025  1.00  0.00     0.134 A 
ATOM     71  C   UNL A   1      41.385  28.147  27.132  1.00  0.00     0.134 A 
ATOM     72  F   UNL A   1      39.523  25.647  28.957  1.00  0.00    -0.206 F 
ATOM     73  C   UNL A   1      40.369  25.615  26.806  1.00  0.00     0.040 A 
ATOM     74  C   UNL A   1      41.565  27.462  25.919  1.00  0.00     0.040 A 
ATOM     75  F   UNL A   1      41.774  29.423  27.097  1.00  0.00    -0.206 F 
ATOM     76  C   UNL A   1      41.071  26.182  25.757  1.00  0.00     0.006 A 
ENDBRANCH  55  69
BRANCH  56  77
ATOM     77  C   UNL A   1      41.189  32.805  36.453  1.00  0.00     0.057 A 
ATOM     78  C   UNL A   1      41.548  34.039  37.023  1.00  0.00     0.134 A 
ATOM     79  C   UNL A   1      39.832  32.471  36.459  1.00  0.00     0.134 A 
ATOM     80  F   UNL A   1      42.836  34.418  37.050  1.00  0.00    -0.206 F 
ATOM     81  C   UNL A   1      40.590  34.954  37.467  1.00  0.00     0.040 A 
ATOM     82  C   UNL A   1      38.865  33.377  36.911  1.00  0.00     0.040 A 
ATOM     83  F   UNL A   1      39.410  31.320  35.915  1.00  0.00    -0.206 F 
ATOM     84  C   UNL A   1      39.240  34.638  37.376  1.00  0.00     0.006 A 
ENDBRANCH  56  77
BRANCH  68  85
ATOM     85  C   UNL A   1      43.208  26.164  34.381  1.00  0.00     0.057 A 
ATOM     86  C   UNL A   1      44.404  25.464  34.165  1.00  0.00     0.134 A 
ATOM     87  C   UNL A   1      42.224  25.456  35.107  1.00  0.00     0.134 A 
ATOM     88  F   UNL A   1      45.462  26.048  33.586  1.00  0.00    -0.206 F 
ATOM     89  C   UNL A   1      44.588  24.141  34.588  1.00  0.00     0.040 A 
ATOM     90  C   UNL A   1      42.415  24.154  35.580  1.00  0.00     0.040 A 
ATOM     91  F   UNL A   1      41.038  26.007  35.409  1.00  0.00    -0.206 F 
ATOM     92  C   UNL A   1      43.598  23.485  35.308  1.00  0.00     0.006 A 
ENDBRANCH  68  85
ENDBRANCH  42  43
ENDBRANCH  34  37
ENDBRANCH  32  33
ENDBRANCH  31  32
ENDBRANCH  30  31
ENDBRANCH  29  30
ENDBRANCH  28  29
ENDBRANCH   1  28
TORSDOF 19
ENDMDL
MODEL 2
REMARK VINA RESULT:     -11.6      4.679     10.084
REMARK SMILES Cc1ccc(C(C)C)c(OCC(=O)Nc2nc(CC(=O)NCCCCCCNC(=O)c3ccc(-c4c5nc(c(-c6c(F)cccc6F)c6ccc([nH]6)c(-c6c(F)cccc6F)c6nc(c(-c7c(F)cccc7F)c7ccc4[nH]7)C=C6)C=C5)cc3)cs2)c1
REMARK SMILES IDX 22 1 21 2 19 3 20 4 18 6 17 7 15 8 16 9 86 10 85 11 14 12
REMARK SMILES IDX 12 13 13 14 11 16 10 17 9 18 1 19 2 20 3 21 87 22 4 23 5 24
REMARK SMILES IDX 6 25 7 26 8 27 23 28 24 29 25 30 26 31 27 32 28 33 29 34
REMARK SMILES IDX 30 36 31 37 32 38 84 39 33 40 83 41 34 42 35 43 36 44 77 45
REMARK SMILES IDX 37 46 82 47 76 48 78 49 38 50 81 51 75 52 74 53 39 55 65 56
REMARK SMILES IDX 48 57 64 58 49 59 52 60 63 61 79 62 50 63 51 64 62 66 80 67
REMARK SMILES IDX 53 68 40 69 41 70 46 71 42 72 43 73 45 74 47 75 44 76 66 77
REMARK SMILES IDX 67 78 72 79 68 80 69 81 71 82 73 83 70 84 54 85 55 86 60 87
REMARK SMILES IDX 56 88 57 89 59 90 61 91 58 92
REMARK H PARENT 21 5 14 15 28 35 78 54 52 65
REMARK Flexibility Score: inf
ROOT
ATOM      1  C   UNL A   1      37.255  23.834  26.076  1.00  0.00     0.116 C 
ENDROOT
BRANCH   1   2
ATOM      2  N   UNL A   1      37.153  23.632  24.644  1.00  0.00    -0.356 N 
ATOM      3  C   UNL A   1      36.796  22.502  23.959  1.00  0.00     0.226 C 
ATOM      4  O   UNL A   1      36.658  22.587  22.737  1.00  0.00    -0.275 OA
ATOM      5  H   UNL A   1      37.369  24.414  24.089  1.00  0.00     0.163 HD
BRANCH   3   6
ATOM      6  C   UNL A   1      36.554  21.191  24.687  1.00  0.00     0.157 C 
BRANCH   6   7
ATOM      7  C   UNL A   1      35.102  20.905  24.891  1.00  0.00     0.063 A 
ATOM      8  C   UNL A   1      33.134  21.414  25.736  1.00  0.00     0.189 A 
ATOM      9  N   UNL A   1      34.312  21.898  25.456  1.00  0.00    -0.224 NA
ATOM     10  S   UNL A   1      32.841  19.803  25.258  1.00  0.00    -0.105 S 
ATOM     11  C   UNL A   1      34.434  19.723  24.627  1.00  0.00     0.093 A 
BRANCH   8  12
ATOM     12  N   UNL A   1      32.099  21.995  26.400  1.00  0.00    -0.299 N 
ATOM     13  C   UNL A   1      31.904  23.326  26.602  1.00  0.00     0.264 C 
ATOM     14  O   UNL A   1      30.962  23.658  27.333  1.00  0.00    -0.271 OA
ATOM     15  H   UNL A   1      31.420  21.389  26.773  1.00  0.00     0.172 HD
BRANCH  13  16
ATOM     16  C   UNL A   1      32.739  24.394  25.874  1.00  0.00     0.329 C 
BRANCH  16  17
ATOM     17  O   UNL A   1      32.097  25.339  25.045  1.00  0.00    -0.483 OA
BRANCH  17  18
ATOM     18  C   UNL A   1      32.329  26.675  25.210  1.00  0.00     0.123 A 
ATOM     19  C   UNL A   1      34.502  29.164  27.115  1.00  0.00     0.044 C 
ATOM     20  C   UNL A   1      33.484  28.595  26.172  1.00  0.00    -0.047 A 
ATOM     21  C   UNL A   1      32.770  29.443  25.324  1.00  0.00     0.004 A 
ATOM     22  C   UNL A   1      33.246  27.214  26.118  1.00  0.00     0.050 A 
ATOM     23  C   UNL A   1      31.822  28.922  24.446  1.00  0.00     0.008 A 
ATOM     24  C   UNL A   1      31.590  27.536  24.370  1.00  0.00    -0.003 A 
BRANCH  24  25
ATOM     25  C   UNL A   1      30.555  26.996  23.389  1.00  0.00     0.017 C 
ATOM     26  C   UNL A   1      29.342  27.921  23.281  1.00  0.00     0.012 C 
ATOM     27  C   UNL A   1      31.165  26.762  22.005  1.00  0.00     0.012 C 
ENDBRANCH  24  25
ENDBRANCH  17  18
ENDBRANCH  16  17
ENDBRANCH  13  16
ENDBRANCH   8  12
ENDBRANCH   6   7
ENDBRANCH   3   6
ENDBRANCH   1   2
BRANCH   1  28
ATOM     28  C   UNL A   1      38.614  24.381  26.512  1.00  0.00     0.021 C 
BRANCH  28  29
ATOM     29  C   UNL A   1      39.465  23.420  27.356  1.00  0.00     0.002 C 
BRANCH  29  30
ATOM     30  C   UNL A   1      40.085  22.213  26.629  1.00  0.00     0.002 C 
BRANCH  30  31
ATOM     31  C   UNL A   1      41.508  22.390  26.093  1.00  0.00     0.021 C 
BRANCH  31  32
ATOM     32  C   UNL A   1      42.484  21.300  26.513  1.00  0.00     0.116 C 
BRANCH  32  33
ATOM     33  N   UNL A   1      43.279  20.740  25.427  1.00  0.00    -0.352 N 
ATOM     34  C   UNL A   1      44.353  21.295  24.741  1.00  0.00     0.251 C 
ATOM     35  H   UNL A   1      43.015  19.837  25.137  1.00  0.00     0.163 HD
ATOM     36  O   UNL A   1      44.873  20.694  23.826  1.00  0.00    -0.269 OA
BRANCH  34  37
ATOM     37  C   UNL A   1      44.950  22.565  25.238  1.00  0.00     0.039 A 
ATOM     38  C   UNL A   1      45.591  22.532  26.482  1.00  0.00     0.014 A 
ATOM     39  C   UNL A   1      44.679  23.782  24.623  1.00  0.00     0.014 A 
ATOM     40  C   UNL A   1      45.688  23.703  27.227  1.00  0.00     0.010 A 
ATOM     41  C   UNL A   1      44.675  24.924  25.396  1.00  0.00     0.010 A 
ATOM     42  C   UNL A   1      45.105  24.864  26.724  1.00  0.00    -0.014 A 
BRANCH  42  43
ATOM     43  C   UNL A   1      44.802  26.026  27.548  1.00  0.00     0.031 A 
ATOM     44  C   UNL A   1      43.428  26.557  27.601  1.00  0.00     0.074 A 
ATOM     45  C   UNL A   1      45.774  26.562  28.318  1.00  0.00     0.049 A 
ATOM     46  N   UNL A   1      43.122  27.760  27.951  1.00  0.00    -0.248 NA
ATOM     47  C   UNL A   1      42.276  25.768  27.190  1.00  0.00     0.031 C 
ATOM     48  C   UNL A   1      45.617  27.538  29.392  1.00  0.00     0.029 A 
ATOM     49  N   UNL A   1      47.159  26.475  28.123  1.00  0.00    -0.354 N 
ATOM     50  C   UNL A   1      41.751  27.828  28.080  1.00  0.00     0.074 A 
ATOM     51  C   UNL A   1      41.275  26.595  27.500  1.00  0.00     0.031 C 
ATOM     52  C   UNL A   1      46.788  28.168  29.577  1.00  0.00     0.029 A 
ATOM     53  C   UNL A   1      47.690  27.717  28.532  1.00  0.00     0.049 A 
ATOM     54  H   UNL A   1      47.660  25.704  27.771  1.00  0.00     0.167 HD
ATOM     55  C   UNL A   1      41.208  28.864  28.785  1.00  0.00     0.037 A 
ATOM     56  C   UNL A   1      48.326  28.539  27.647  1.00  0.00     0.037 A 
ATOM     57  C   UNL A   1      42.240  29.848  29.132  1.00  0.00     0.049 A 
ATOM     58  C   UNL A   1      47.664  29.885  27.476  1.00  0.00     0.074 A 
ATOM     59  C   UNL A   1      42.962  30.083  30.291  1.00  0.00     0.029 A 
ATOM     60  N   UNL A   1      42.875  30.567  28.122  1.00  0.00    -0.354 N 
ATOM     61  N   UNL A   1      46.434  30.141  27.828  1.00  0.00    -0.248 NA
ATOM     62  C   UNL A   1      48.323  31.043  26.878  1.00  0.00     0.031 C 
ATOM     63  C   UNL A   1      44.081  30.888  29.957  1.00  0.00     0.029 A 
ATOM     64  C   UNL A   1      44.023  31.167  28.603  1.00  0.00     0.049 A 
ATOM     65  H   UNL A   1      42.551  30.638  27.195  1.00  0.00     0.167 HD
ATOM     66  C   UNL A   1      46.123  31.434  27.504  1.00  0.00     0.074 A 
ATOM     67  C   UNL A   1      47.346  31.966  26.931  1.00  0.00     0.031 C 
ATOM     68  C   UNL A   1      44.880  31.956  27.726  1.00  0.00     0.037 A 
BRANCH  55  69
ATOM     69  C   UNL A   1      39.825  28.854  29.423  1.00  0.00     0.057 A 
ATOM     70  C   UNL A   1      38.680  29.157  28.654  1.00  0.00     0.134 A 
ATOM     71  C   UNL A   1      39.543  28.646  30.785  1.00  0.00     0.134 A 
ATOM     72  F   UNL A   1      38.735  29.276  27.321  1.00  0.00    -0.206 F 
ATOM     73  C   UNL A   1      37.405  29.354  29.210  1.00  0.00     0.040 A 
ATOM     74  C   UNL A   1      38.284  28.877  31.363  1.00  0.00     0.040 A 
ATOM     75  F   UNL A   1      40.444  28.145  31.632  1.00  0.00    -0.206 F 
ATOM     76  C   UNL A   1      37.210  29.250  30.576  1.00  0.00     0.006 A 
ENDBRANCH  55  69
BRANCH  56  77
ATOM     77  C   UNL A   1      49.065  27.800  26.591  1.00  0.00     0.057 A 
ATOM     78  C   UNL A   1      48.436  27.613  25.347  1.00  0.00     0.134 A 
ATOM     79  C   UNL A   1      50.454  27.651  26.631  1.00  0.00     0.134 A 
ATOM     80  F   UNL A   1      47.102  27.741  25.243  1.00  0.00    -0.206 F 
ATOM     81  C   UNL A   1      49.165  27.411  24.173  1.00  0.00     0.040 A 
ATOM     82  C   UNL A   1      51.193  27.437  25.461  1.00  0.00     0.040 A 
ATOM     83  F   UNL A   1      51.127  27.833  27.776  1.00  0.00    -0.206 F 
ATOM     84  C   UNL A   1      50.553  27.361  24.224  1.00  0.00     0.006 A 
ENDBRANCH  56  77
BRANCH  68  85
ATOM     85  C   UNL A   1      44.378  33.286  27.221  1.00  0.00     0.057 A 
ATOM     86  C   UNL A   1      43.858  33.497  25.935  1.00  0.00     0.134 A 
ATOM     87  C   UNL A   1      44.267  34.388  28.099  1.00  0.00     0.134 A 
ATOM     88  F   UNL A   1      43.798  32.508  25.033  1.00  0.00    -0.206 F 
ATOM     89  C   UNL A   1      43.321  34.728  25.534  1.00  0.00     0.040 A 
ATOM     90  C   UNL A   1      43.685  35.603  27.727  1.00  0.00     0.040 A 
ATOM     91  F   UNL A   1      44.700  34.323  29.368  1.00  0.00    -0.206 F 
ATOM     92  C   UNL A   1      43.222  35.782  26.433  1.00  0.00     0.006 A 
ENDBRANCH  68  85
ENDBRANCH  42  43
ENDBRANCH  34  37
ENDBRANCH  32  33
ENDBRANCH  31  32
ENDBRANCH  30  31
ENDBRANCH  29  30
ENDBRANCH  28  29
ENDBRANCH   1  28
TORSDOF 19
ENDMDL
MODEL 3
REMARK VINA RESULT:     -11.5      4.440      9.885
REMARK SMILES Cc1ccc(C(C)C)c(OCC(=O)Nc2nc(CC(=O)NCCCCCCNC(=O)c3ccc(-c4c5nc(c(-c6c(F)cccc6F)c6ccc([nH]6)c(-c6c(F)cccc6F)c6nc(c(-c7c(F)cccc7F)c7ccc4[nH]7)C=C6)C=C5)cc3)cs2)c1
REMARK SMILES IDX 22 1 21 2 19 3 20 4 18 6 17 7 15 8 16 9 86 10 85 11 14 12
REMARK SMILES IDX 12 13 13 14 11 16 10 17 9 18 1 19 2 20 3 21 87 22 4 23 5 24
REMARK SMILES IDX 6 25 7 26 8 27 23 28 24 29 25 30 26 31 27 32 28 33 29 34
REMARK SMILES IDX 30 36 31 37 32 38 84 39 33 40 83 41 34 42 35 43 36 44 77 45
REMARK SMILES IDX 37 46 82 47 76 48 78 49 38 50 81 51 75 52 74 53 39 55 65 56
REMARK SMILES IDX 48 57 64 58 49 59 52 60 63 61 79 62 50 63 51 64 62 66 80 67
REMARK SMILES IDX 53 68 40 69 41 70 46 71 42 72 43 73 45 74 47 75 44 76 66 77
REMARK SMILES IDX 67 78 72 79 68 80 69 81 71 82 73 83 70 84 54 85 55 86 60 87
REMARK SMILES IDX 56 88 57 89 59 90 61 91 58 92
REMARK H PARENT 21 5 14 15 28 35 78 54 52 65
REMARK Flexibility Score: inf
ROOT
ATOM      1  C   UNL A   1      38.725  22.513  26.485  1.00  0.00     0.116 C 
ENDROOT
BRANCH   1   2
ATOM      2  N   UNL A   1      38.106  22.653  25.181  1.00  0.00    -0.356 N 
ATOM      3  C   UNL A   1      36.899  22.178  24.747  1.00  0.00     0.226 C 
ATOM      4  O   UNL A   1      36.512  22.519  23.628  1.00  0.00    -0.275 OA
ATOM      5  H   UNL A   1      38.625  23.161  24.518  1.00  0.00     0.163 HD
BRANCH   3   6
ATOM      6  C   UNL A   1      36.051  21.277  25.630  1.00  0.00     0.157 C 
BRANCH   6   7
ATOM      7  C   UNL A   1      34.588  21.425  25.367  1.00  0.00     0.063 A 
ATOM      8  C   UNL A   1      32.540  21.874  26.040  1.00  0.00     0.189 A 
ATOM      9  N   UNL A   1      33.800  22.002  26.355  1.00  0.00    -0.224 NA
ATOM     10  S   UNL A   1      32.203  21.170  24.524  1.00  0.00    -0.105 S 
ATOM     11  C   UNL A   1      33.889  21.001  24.251  1.00  0.00     0.093 A 
BRANCH   8  12
ATOM     12  N   UNL A   1      31.434  22.184  26.769  1.00  0.00    -0.299 N 
ATOM     13  C   UNL A   1      30.700  23.326  26.691  1.00  0.00     0.264 C 
ATOM     14  O   UNL A   1      29.793  23.476  27.521  1.00  0.00    -0.271 OA
ATOM     15  H   UNL A   1      31.134  21.511  27.420  1.00  0.00     0.172 HD
BRANCH  13  16
ATOM     16  C   UNL A   1      30.899  24.350  25.560  1.00  0.00     0.329 C 
BRANCH  16  17
ATOM     17  O   UNL A   1      31.766  25.447  25.755  1.00  0.00    -0.483 OA
BRANCH  17  18
ATOM     18  C   UNL A   1      32.343  26.071  24.685  1.00  0.00     0.123 A 
ATOM     19  C   UNL A   1      32.745  25.851  20.899  1.00  0.00     0.044 C 
ATOM     20  C   UNL A   1      32.843  26.339  22.314  1.00  0.00    -0.047 A 
ATOM     21  C   UNL A   1      33.479  27.551  22.589  1.00  0.00     0.004 A 
ATOM     22  C   UNL A   1      32.292  25.599  23.369  1.00  0.00     0.050 A 
ATOM     23  C   UNL A   1      33.574  28.010  23.901  1.00  0.00     0.008 A 
ATOM     24  C   UNL A   1      33.007  27.285  24.966  1.00  0.00    -0.003 A 
BRANCH  24  25
ATOM     25  C   UNL A   1      33.118  27.821  26.389  1.00  0.00     0.017 C 
ATOM     26  C   UNL A   1      34.403  28.625  26.591  1.00  0.00     0.012 C 
ATOM     27  C   UNL A   1      31.901  28.669  26.764  1.00  0.00     0.012 C 
ENDBRANCH  24  25
ENDBRANCH  17  18
ENDBRANCH  16  17
ENDBRANCH  13  16
ENDBRANCH   8  12
ENDBRANCH   6   7
ENDBRANCH   3   6
ENDBRANCH   1   2
BRANCH   1  28
ATOM     28  C   UNL A   1      40.187  22.074  26.413  1.00  0.00     0.021 C 
BRANCH  28  29
ATOM     29  C   UNL A   1      40.407  20.579  26.136  1.00  0.00     0.002 C 
BRANCH  29  30
ATOM     30  C   UNL A   1      41.188  19.778  27.193  1.00  0.00     0.002 C 
BRANCH  30  31
ATOM     31  C   UNL A   1      42.422  19.016  26.706  1.00  0.00     0.021 C 
BRANCH  31  32
ATOM     32  C   UNL A   1      42.981  19.499  25.375  1.00  0.00     0.116 C 
BRANCH  32  33
ATOM     33  N   UNL A   1      44.358  19.975  25.429  1.00  0.00    -0.352 N 
ATOM     34  C   UNL A   1      44.845  21.237  25.747  1.00  0.00     0.251 C 
ATOM     35  H   UNL A   1      45.043  19.303  25.205  1.00  0.00     0.163 HD
ATOM     36  O   UNL A   1      46.035  21.466  25.699  1.00  0.00    -0.269 OA
BRANCH  34  37
ATOM     37  C   UNL A   1      43.908  22.258  26.291  1.00  0.00     0.039 A 
ATOM     38  C   UNL A   1      43.645  23.379  25.495  1.00  0.00     0.014 A 
ATOM     39  C   UNL A   1      43.501  22.233  27.620  1.00  0.00     0.014 A 
ATOM     40  C   UNL A   1      43.246  24.566  26.104  1.00  0.00     0.010 A 
ATOM     41  C   UNL A   1      43.210  23.428  28.243  1.00  0.00     0.010 A 
ATOM     42  C   UNL A   1      43.162  24.606  27.494  1.00  0.00    -0.014 A 
BRANCH  42  43
ATOM     43  C   UNL A   1      43.139  25.848  28.255  1.00  0.00     0.031 A 
ATOM     44  C   UNL A   1      41.888  26.617  28.379  1.00  0.00     0.074 A 
ATOM     45  C   UNL A   1      44.255  26.245  28.905  1.00  0.00     0.049 A 
ATOM     46  N   UNL A   1      41.826  27.872  28.667  1.00  0.00    -0.248 NA
ATOM     47  C   UNL A   1      40.585  26.023  28.119  1.00  0.00     0.031 C 
ATOM     48  C   UNL A   1      44.367  27.292  29.916  1.00  0.00     0.029 A 
ATOM     49  N   UNL A   1      45.581  25.903  28.606  1.00  0.00    -0.354 N 
ATOM     50  C   UNL A   1      40.506  28.190  28.899  1.00  0.00     0.074 A 
ATOM     51  C   UNL A   1      39.773  27.030  28.449  1.00  0.00     0.031 C 
ATOM     52  C   UNL A   1      45.641  27.714  29.962  1.00  0.00     0.029 A 
ATOM     53  C   UNL A   1      46.352  27.052  28.882  1.00  0.00     0.049 A 
ATOM     54  H   UNL A   1      45.908  25.038  28.271  1.00  0.00     0.167 HD
ATOM     55  C   UNL A   1      40.215  29.343  29.570  1.00  0.00     0.037 A 
ATOM     56  C   UNL A   1      47.038  27.697  27.893  1.00  0.00     0.037 A 
ATOM     57  C   UNL A   1      41.428  30.147  29.763  1.00  0.00     0.049 A 
ATOM     58  C   UNL A   1      46.603  29.128  27.680  1.00  0.00     0.074 A 
ATOM     59  C   UNL A   1      42.282  30.314  30.841  1.00  0.00     0.029 A 
ATOM     60  N   UNL A   1      42.083  30.684  28.657  1.00  0.00    -0.354 N 
ATOM     61  N   UNL A   1      45.473  29.617  28.110  1.00  0.00    -0.248 NA
ATOM     62  C   UNL A   1      47.395  30.115  26.950  1.00  0.00     0.031 C 
ATOM     63  C   UNL A   1      43.488  30.888  30.362  1.00  0.00     0.029 A 
ATOM     64  C   UNL A   1      43.356  31.097  29.001  1.00  0.00     0.049 A 
ATOM     65  H   UNL A   1      41.692  30.759  27.756  1.00  0.00     0.167 HD
ATOM     66  C   UNL A   1      45.361  30.925  27.721  1.00  0.00     0.074 A 
ATOM     67  C   UNL A   1      46.600  31.198  27.016  1.00  0.00     0.031 C 
ATOM     68  C   UNL A   1      44.252  31.671  28.004  1.00  0.00     0.037 A 
BRANCH  55  69
ATOM     69  C   UNL A   1      38.915  29.615  30.316  1.00  0.00     0.057 A 
ATOM     70  C   UNL A   1      38.124  30.738  29.990  1.00  0.00     0.134 A 
ATOM     71  C   UNL A   1      38.419  28.882  31.410  1.00  0.00     0.134 A 
ATOM     72  F   UNL A   1      38.375  31.490  28.910  1.00  0.00    -0.206 F 
ATOM     73  C   UNL A   1      37.022  31.156  30.754  1.00  0.00     0.040 A 
ATOM     74  C   UNL A   1      37.344  29.307  32.207  1.00  0.00     0.040 A 
ATOM     75  F   UNL A   1      38.896  27.681  31.739  1.00  0.00    -0.206 F 
ATOM     76  C   UNL A   1      36.649  30.460  31.890  1.00  0.00     0.006 A 
ENDBRANCH  55  69
BRANCH  56  77
ATOM     77  C   UNL A   1      47.539  26.781  26.837  1.00  0.00     0.057 A 
ATOM     78  C   UNL A   1      46.794  26.667  25.649  1.00  0.00     0.134 A 
ATOM     79  C   UNL A   1      48.872  26.364  26.795  1.00  0.00     0.134 A 
ATOM     80  F   UNL A   1      45.506  27.048  25.624  1.00  0.00    -0.206 F 
ATOM     81  C   UNL A   1      47.380  26.273  24.444  1.00  0.00     0.040 A 
ATOM     82  C   UNL A   1      49.466  25.958  25.594  1.00  0.00     0.040 A 
ATOM     83  F   UNL A   1      49.652  26.462  27.882  1.00  0.00    -0.206 F 
ATOM     84  C   UNL A   1      48.733  25.953  24.408  1.00  0.00     0.006 A 
ENDBRANCH  56  77
BRANCH  68  85
ATOM     85  C   UNL A   1      43.941  33.038  27.447  1.00  0.00     0.057 A 
ATOM     86  C   UNL A   1      43.778  33.317  26.083  1.00  0.00     0.134 A 
ATOM     87  C   UNL A   1      43.645  34.113  28.317  1.00  0.00     0.134 A 
ATOM     88  F   UNL A   1      43.918  32.364  25.152  1.00  0.00    -0.206 F 
ATOM     89  C   UNL A   1      43.404  34.583  25.613  1.00  0.00     0.040 A 
ATOM     90  C   UNL A   1      43.221  35.365  27.863  1.00  0.00     0.040 A 
ATOM     91  F   UNL A   1      43.736  33.986  29.650  1.00  0.00    -0.206 F 
ATOM     92  C   UNL A   1      43.112  35.609  26.503  1.00  0.00     0.006 A 
ENDBRANCH  68  85
ENDBRANCH  42  43
ENDBRANCH  34  37
ENDBRANCH  32  33
ENDBRANCH  31  32
ENDBRANCH  30  31
ENDBRANCH  29  30
ENDBRANCH  28  29
ENDBRANCH   1  28
TORSDOF 19
ENDMDL
