MODEL 1
REMARK VINA RESULT:     -10.9      0.000      0.000
REMARK SMILES CCCC[C@@H](Sc1nc(OCCC2CCCCC2)cc(OCCC2CCCCC2)n1)C(=O)NCCCCCCNC(=O)c1ccc(-c2c3nc(c(-c4c(F)cccc4F)c4ccc([nH]4)c(-c4c(F)cccc4F)c4nc(c(-c5c(F)cccc5F)c5ccc2[nH]5)C=C4)C=C3)cc1
REMARK SMILES IDX 34 1 33 2 31 3 32 4 5 6 4 7 3 8 2 9 1 10 6 11 7 12 8 13
REMARK SMILES IDX 30 14 9 15 20 16 19 17 10 18 11 19 12 20 13 21 14 22 18 23
REMARK SMILES IDX 15 24 17 25 16 26 21 27 22 28 23 29 24 30 25 31 29 32 26 33
REMARK SMILES IDX 28 34 27 35 35 36 36 37 37 38 38 39 39 40 40 41 41 42 42 44
REMARK SMILES IDX 43 45 44 46 96 47 45 48 95 49 46 50 47 51 48 52 89 53 49 54
REMARK SMILES IDX 94 55 88 56 90 57 50 58 93 59 87 60 86 61 51 63 77 64 60 65
REMARK SMILES IDX 76 66 61 67 64 68 75 69 91 70 62 71 63 72 74 74 92 75 65 76
REMARK SMILES IDX 52 77 53 78 58 79 54 80 55 81 57 82 59 83 56 84 78 85 79 86
REMARK SMILES IDX 84 87 80 88 81 89 83 90 85 91 82 92 66 93 67 94 72 95 68 96
REMARK SMILES IDX 69 97 71 98 73 99 70 100
REMARK H PARENT 33 5 40 43 90 62 64 73
REMARK Flexibility Score: inf
ROOT
ATOM      1  C   UNL A   1      35.968  23.692  25.610  1.00  0.00     0.116 C 
ENDROOT
BRANCH   1   2
ATOM      2  N   UNL A   1      35.234  22.931  26.610  1.00  0.00    -0.355 N 
ATOM      3  C   UNL A   1      33.949  22.449  26.569  1.00  0.00     0.233 C 
ATOM      4  O   UNL A   1      33.529  21.826  27.548  1.00  0.00    -0.274 OA
ATOM      5  H   UNL A   1      35.731  22.733  27.437  1.00  0.00     0.163 HD
BRANCH   3   6
ATOM      6  C   UNL A   1      33.057  22.711  25.331  1.00  0.00     0.144 C 
BRANCH   6   7
ATOM      7  C   UNL A   1      33.478  21.664  24.267  1.00  0.00     0.025 C 
BRANCH   7   8
ATOM      8  C   UNL A   1      32.511  20.584  23.771  1.00  0.00     0.001 C 
BRANCH   8   9
ATOM      9  C   UNL A   1      32.820  19.139  24.152  1.00  0.00    -0.003 C 
ATOM     10  C   UNL A   1      32.473  18.159  23.046  1.00  0.00     0.004 C 
ENDBRANCH   8   9
ENDBRANCH   7   8
ENDBRANCH   6   7
BRANCH   6  11
ATOM     11  S   UNL A   1      31.357  22.835  26.093  1.00  0.00    -0.073 SA
BRANCH  11  12
ATOM     12  C   UNL A   1      30.840  24.494  25.929  1.00  0.00     0.195 A 
ATOM     13  N   UNL A   1      30.168  24.876  24.847  1.00  0.00    -0.187 NA
ATOM     14  N   UNL A   1      31.269  25.311  26.903  1.00  0.00    -0.187 NA
ATOM     15  C   UNL A   1      29.973  26.183  24.687  1.00  0.00     0.221 A 
ATOM     16  C   UNL A   1      31.112  26.616  26.697  1.00  0.00     0.221 A 
ATOM     17  C   UNL A   1      30.484  27.083  25.578  1.00  0.00     0.136 A 
BRANCH  15  18
ATOM     18  O   UNL A   1      29.249  26.519  23.573  1.00  0.00    -0.477 OA
BRANCH  18  19
ATOM     19  C   UNL A   1      28.821  27.873  23.406  1.00  0.00     0.231 C 
BRANCH  19  20
ATOM     20  C   UNL A   1      29.913  28.839  22.868  1.00  0.00     0.045 C 
BRANCH  20  21
ATOM     21  C   UNL A   1      29.373  30.187  22.380  1.00  0.00    -0.008 C 
ATOM     22  C   UNL A   1      28.254  30.166  21.339  1.00  0.00     0.004 C 
ATOM     23  C   UNL A   1      29.010  31.142  23.520  1.00  0.00     0.004 C 
ATOM     24  C   UNL A   1      28.119  31.586  20.753  1.00  0.00     0.000 C 
ATOM     25  C   UNL A   1      28.914  32.565  22.980  1.00  0.00     0.000 C 
ATOM     26  C   UNL A   1      27.918  32.662  21.826  1.00  0.00     0.000 C 
ENDBRANCH  20  21
ENDBRANCH  19  20
ENDBRANCH  18  19
ENDBRANCH  15  18
BRANCH  16  27
ATOM     27  O   UNL A   1      31.797  27.411  27.579  1.00  0.00    -0.477 OA
BRANCH  27  28
ATOM     28  C   UNL A   1      32.434  28.597  27.094  1.00  0.00     0.231 C 
BRANCH  28  29
ATOM     29  C   UNL A   1      33.680  28.379  26.192  1.00  0.00     0.045 C 
BRANCH  29  30
ATOM     30  C   UNL A   1      33.429  27.878  24.756  1.00  0.00    -0.008 C 
ATOM     31  C   UNL A   1      34.082  28.723  23.649  1.00  0.00     0.004 C 
ATOM     32  C   UNL A   1      33.891  26.431  24.521  1.00  0.00     0.004 C 
ATOM     33  C   UNL A   1      33.609  28.236  22.265  1.00  0.00     0.000 C 
ATOM     34  C   UNL A   1      33.262  25.906  23.236  1.00  0.00     0.000 C 
ATOM     35  C   UNL A   1      33.742  26.723  22.047  1.00  0.00     0.000 C 
ENDBRANCH  29  30
ENDBRANCH  28  29
ENDBRANCH  27  28
ENDBRANCH  16  27
ENDBRANCH  11  12
ENDBRANCH   6  11
ENDBRANCH   3   6
ENDBRANCH   1   2
BRANCH   1  36
ATOM     36  C   UNL A   1      37.447  23.774  25.956  1.00  0.00     0.021 C 
BRANCH  36  37
ATOM     37  C   UNL A   1      38.141  22.415  25.912  1.00  0.00     0.002 C 
BRANCH  37  38
ATOM     38  C   UNL A   1      37.724  21.534  24.728  1.00  0.00     0.002 C 
BRANCH  38  39
ATOM     39  C   UNL A   1      38.308  20.119  24.746  1.00  0.00     0.021 C 
BRANCH  39  40
ATOM     40  C   UNL A   1      38.886  19.703  26.094  1.00  0.00     0.116 C 
BRANCH  40  41
ATOM     41  N   UNL A   1      40.138  18.982  25.939  1.00  0.00    -0.352 N 
ATOM     42  C   UNL A   1      41.425  19.452  26.009  1.00  0.00     0.251 C 
ATOM     43  H   UNL A   1      40.050  18.019  25.759  1.00  0.00     0.163 HD
ATOM     44  O   UNL A   1      42.359  18.762  25.622  1.00  0.00    -0.269 OA
BRANCH  42  45
ATOM     45  C   UNL A   1      41.673  20.805  26.545  1.00  0.00     0.039 A 
ATOM     46  C   UNL A   1      41.681  20.989  27.929  1.00  0.00     0.014 A 
ATOM     47  C   UNL A   1      41.894  21.884  25.686  1.00  0.00     0.014 A 
ATOM     48  C   UNL A   1      41.966  22.251  28.452  1.00  0.00     0.010 A 
ATOM     49  C   UNL A   1      42.255  23.121  26.208  1.00  0.00     0.010 A 
ATOM     50  C   UNL A   1      42.290  23.318  27.597  1.00  0.00    -0.014 A 
BRANCH  50  51
ATOM     51  C   UNL A   1      42.681  24.641  28.141  1.00  0.00     0.031 A 
ATOM     52  C   UNL A   1      41.649  25.715  28.343  1.00  0.00     0.074 A 
ATOM     53  C   UNL A   1      43.979  24.894  28.396  1.00  0.00     0.049 A 
ATOM     54  N   UNL A   1      41.808  26.945  28.759  1.00  0.00    -0.248 NA
ATOM     55  C   UNL A   1      40.259  25.369  28.009  1.00  0.00     0.031 C 
ATOM     56  C   UNL A   1      45.080  23.949  28.193  1.00  0.00     0.029 A 
ATOM     57  N   UNL A   1      44.595  26.023  28.874  1.00  0.00    -0.354 N 
ATOM     58  C   UNL A   1      40.545  27.521  28.727  1.00  0.00     0.074 A 
ATOM     59  C   UNL A   1      39.639  26.525  28.197  1.00  0.00     0.031 C 
ATOM     60  C   UNL A   1      46.232  24.529  28.567  1.00  0.00     0.029 A 
ATOM     61  C   UNL A   1      45.958  25.898  28.995  1.00  0.00     0.049 A 
ATOM     62  H   UNL A   1      44.107  26.845  29.107  1.00  0.00     0.167 HD
ATOM     63  C   UNL A   1      40.170  28.761  29.125  1.00  0.00     0.037 A 
ATOM     64  C   UNL A   1      46.885  26.790  29.393  1.00  0.00     0.037 A 
ATOM     65  C   UNL A   1      41.074  29.742  29.664  1.00  0.00     0.049 A 
ATOM     66  C   UNL A   1      46.445  28.164  29.813  1.00  0.00     0.074 A 
ATOM     67  C   UNL A   1      40.783  31.005  30.153  1.00  0.00     0.029 A 
ATOM     68  N   UNL A   1      42.446  29.577  29.777  1.00  0.00    -0.354 N 
ATOM     69  N   UNL A   1      45.235  28.671  29.850  1.00  0.00    -0.248 NA
ATOM     70  C   UNL A   1      47.498  29.091  30.250  1.00  0.00     0.031 C 
ATOM     71  C   UNL A   1      41.985  31.624  30.506  1.00  0.00     0.029 A 
ATOM     72  C   UNL A   1      43.019  30.726  30.298  1.00  0.00     0.049 A 
ATOM     73  H   UNL A   1      42.940  28.764  29.525  1.00  0.00     0.167 HD
ATOM     74  C   UNL A   1      45.379  29.963  30.339  1.00  0.00     0.074 A 
ATOM     75  C   UNL A   1      46.790  30.155  30.601  1.00  0.00     0.031 C 
ATOM     76  C   UNL A   1      44.427  30.904  30.553  1.00  0.00     0.037 A 
BRANCH  63  77
ATOM     77  C   UNL A   1      38.719  29.126  28.986  1.00  0.00     0.057 A 
ATOM     78  C   UNL A   1      38.175  29.556  27.767  1.00  0.00     0.134 A 
ATOM     79  C   UNL A   1      37.846  29.012  30.076  1.00  0.00     0.134 A 
ATOM     80  F   UNL A   1      38.956  29.698  26.686  1.00  0.00    -0.206 F 
ATOM     81  C   UNL A   1      36.824  29.886  27.646  1.00  0.00     0.040 A 
ATOM     82  C   UNL A   1      36.487  29.309  29.958  1.00  0.00     0.040 A 
ATOM     83  F   UNL A   1      38.297  28.600  31.270  1.00  0.00    -0.206 F 
ATOM     84  C   UNL A   1      35.974  29.755  28.742  1.00  0.00     0.006 A 
ENDBRANCH  63  77
BRANCH  64  85
ATOM     85  C   UNL A   1      48.318  26.404  29.429  1.00  0.00     0.057 A 
ATOM     86  C   UNL A   1      48.888  25.841  30.576  1.00  0.00     0.134 A 
ATOM     87  C   UNL A   1      49.154  26.595  28.322  1.00  0.00     0.134 A 
ATOM     88  F   UNL A   1      48.145  25.651  31.676  1.00  0.00    -0.206 F 
ATOM     89  C   UNL A   1      50.241  25.502  30.630  1.00  0.00     0.040 A 
ATOM     90  C   UNL A   1      50.502  26.232  28.352  1.00  0.00     0.040 A 
ATOM     91  F   UNL A   1      48.668  27.122  27.188  1.00  0.00    -0.206 F 
ATOM     92  C   UNL A   1      51.051  25.692  29.512  1.00  0.00     0.006 A 
ENDBRANCH  64  85
BRANCH  76  93
ATOM     93  C   UNL A   1      44.876  32.217  31.126  1.00  0.00     0.057 A 
ATOM     94  C   UNL A   1      45.009  32.420  32.506  1.00  0.00     0.134 A 
ATOM     95  C   UNL A   1      45.214  33.284  30.282  1.00  0.00     0.134 A 
ATOM     96  F   UNL A   1      44.690  31.444  33.370  1.00  0.00    -0.206 F 
ATOM     97  C   UNL A   1      45.439  33.642  33.027  1.00  0.00     0.040 A 
ATOM     98  C   UNL A   1      45.674  34.500  30.789  1.00  0.00     0.040 A 
ATOM     99  F   UNL A   1      45.118  33.156  28.950  1.00  0.00    -0.206 F 
ATOM    100  C   UNL A   1      45.779  34.684  32.166  1.00  0.00     0.006 A 
ENDBRANCH  76  93
ENDBRANCH  50  51
ENDBRANCH  42  45
ENDBRANCH  40  41
ENDBRANCH  39  40
ENDBRANCH  38  39
ENDBRANCH  37  38
ENDBRANCH  36  37
ENDBRANCH   1  36
TORSDOF 26
ENDMDL
MODEL 2
REMARK VINA RESULT:     -10.5      1.404      5.738
REMARK SMILES CCCC[C@@H](Sc1nc(OCCC2CCCCC2)cc(OCCC2CCCCC2)n1)C(=O)NCCCCCCNC(=O)c1ccc(-c2c3nc(c(-c4c(F)cccc4F)c4ccc([nH]4)c(-c4c(F)cccc4F)c4nc(c(-c5c(F)cccc5F)c5ccc2[nH]5)C=C4)C=C3)cc1
REMARK SMILES IDX 34 1 33 2 31 3 32 4 5 6 4 7 3 8 2 9 1 10 6 11 7 12 8 13
REMARK SMILES IDX 30 14 9 15 20 16 19 17 10 18 11 19 12 20 13 21 14 22 18 23
REMARK SMILES IDX 15 24 17 25 16 26 21 27 22 28 23 29 24 30 25 31 29 32 26 33
REMARK SMILES IDX 28 34 27 35 35 36 36 37 37 38 38 39 39 40 40 41 41 42 42 44
REMARK SMILES IDX 43 45 44 46 96 47 45 48 95 49 46 50 47 51 48 52 89 53 49 54
REMARK SMILES IDX 94 55 88 56 90 57 50 58 93 59 87 60 86 61 51 63 77 64 60 65
REMARK SMILES IDX 76 66 61 67 64 68 75 69 91 70 62 71 63 72 74 74 92 75 65 76
REMARK SMILES IDX 52 77 53 78 58 79 54 80 55 81 57 82 59 83 56 84 78 85 79 86
REMARK SMILES IDX 84 87 80 88 81 89 83 90 85 91 82 92 66 93 67 94 72 95 68 96
REMARK SMILES IDX 69 97 71 98 73 99 70 100
REMARK H PARENT 33 5 40 43 90 62 64 73
REMARK Flexibility Score: inf
ROOT
ATOM      1  C   UNL A   1      36.191  23.584  25.834  1.00  0.00     0.116 C 
ENDROOT
BRANCH   1   2
ATOM      2  N   UNL A   1      35.462  22.718  26.750  1.00  0.00    -0.355 N 
ATOM      3  C   UNL A   1      34.158  22.290  26.692  1.00  0.00     0.233 C 
ATOM      4  O   UNL A   1      33.746  21.555  27.593  1.00  0.00    -0.274 OA
ATOM      5  H   UNL A   1      35.977  22.393  27.523  1.00  0.00     0.163 HD
BRANCH   3   6
ATOM      6  C   UNL A   1      33.237  22.749  25.535  1.00  0.00     0.144 C 
BRANCH   6   7
ATOM      7  C   UNL A   1      33.556  21.818  24.336  1.00  0.00     0.025 C 
BRANCH   7   8
ATOM      8  C   UNL A   1      32.623  20.670  23.936  1.00  0.00     0.001 C 
BRANCH   8   9
ATOM      9  C   UNL A   1      32.953  19.280  24.474  1.00  0.00    -0.003 C 
ATOM     10  C   UNL A   1      32.589  18.177  23.496  1.00  0.00     0.004 C 
ENDBRANCH   8   9
ENDBRANCH   7   8
ENDBRANCH   6   7
BRANCH   6  11
ATOM     11  S   UNL A   1      31.577  22.871  26.381  1.00  0.00    -0.073 SA
BRANCH  11  12
ATOM     12  C   UNL A   1      30.959  24.474  26.072  1.00  0.00     0.195 A 
ATOM     13  N   UNL A   1      30.279  24.719  24.956  1.00  0.00    -0.187 NA
ATOM     14  N   UNL A   1      31.323  25.395  26.976  1.00  0.00    -0.187 NA
ATOM     15  C   UNL A   1      30.004  25.992  24.683  1.00  0.00     0.221 A 
ATOM     16  C   UNL A   1      31.087  26.666  26.658  1.00  0.00     0.221 A 
ATOM     17  C   UNL A   1      30.446  26.995  25.498  1.00  0.00     0.136 A 
BRANCH  15  18
ATOM     18  O   UNL A   1      29.274  26.186  23.539  1.00  0.00    -0.477 OA
BRANCH  18  19
ATOM     19  C   UNL A   1      28.800  27.499  23.232  1.00  0.00     0.231 C 
BRANCH  19  20
ATOM     20  C   UNL A   1      29.770  28.359  22.377  1.00  0.00     0.045 C 
BRANCH  20  21
ATOM     21  C   UNL A   1      29.366  29.833  22.260  1.00  0.00    -0.008 C 
ATOM     22  C   UNL A   1      28.177  30.171  21.362  1.00  0.00     0.004 C 
ATOM     23  C   UNL A   1      29.214  30.527  23.616  1.00  0.00     0.004 C 
ATOM     24  C   UNL A   1      28.174  31.695  21.125  1.00  0.00     0.000 C 
ATOM     25  C   UNL A   1      29.254  32.039  23.420  1.00  0.00     0.000 C 
ATOM     26  C   UNL A   1      28.193  32.505  22.426  1.00  0.00     0.000 C 
ENDBRANCH  20  21
ENDBRANCH  19  20
ENDBRANCH  18  19
ENDBRANCH  15  18
BRANCH  16  27
ATOM     27  O   UNL A   1      31.709  27.575  27.474  1.00  0.00    -0.477 OA
BRANCH  27  28
ATOM     28  C   UNL A   1      32.995  28.077  27.099  1.00  0.00     0.231 C 
BRANCH  28  29
ATOM     29  C   UNL A   1      33.904  27.096  26.309  1.00  0.00     0.045 C 
BRANCH  29  30
ATOM     30  C   UNL A   1      34.010  27.309  24.786  1.00  0.00    -0.008 C 
ATOM     31  C   UNL A   1      33.502  26.138  23.929  1.00  0.00     0.004 C 
ATOM     32  C   UNL A   1      33.268  28.559  24.288  1.00  0.00     0.004 C 
ATOM     33  C   UNL A   1      33.830  26.390  22.444  1.00  0.00     0.000 C 
ATOM     34  C   UNL A   1      33.745  28.898  22.881  1.00  0.00     0.000 C 
ATOM     35  C   UNL A   1      33.399  27.768  21.924  1.00  0.00     0.000 C 
ENDBRANCH  29  30
ENDBRANCH  28  29
ENDBRANCH  27  28
ENDBRANCH  16  27
ENDBRANCH  11  12
ENDBRANCH   6  11
ENDBRANCH   3   6
ENDBRANCH   1   2
BRANCH   1  36
ATOM     36  C   UNL A   1      37.625  23.790  26.297  1.00  0.00     0.021 C 
BRANCH  36  37
ATOM     37  C   UNL A   1      38.569  22.696  25.805  1.00  0.00     0.002 C 
BRANCH  37  38
ATOM     38  C   UNL A   1      37.903  21.648  24.906  1.00  0.00     0.002 C 
BRANCH  38  39
ATOM     39  C   UNL A   1      38.393  20.214  25.121  1.00  0.00     0.021 C 
BRANCH  39  40
ATOM     40  C   UNL A   1      39.178  20.014  26.412  1.00  0.00     0.116 C 
BRANCH  40  41
ATOM     41  N   UNL A   1      40.317  19.133  26.214  1.00  0.00    -0.352 N 
ATOM     42  C   UNL A   1      41.643  19.448  26.055  1.00  0.00     0.251 C 
ATOM     43  H   UNL A   1      40.106  18.172  26.190  1.00  0.00     0.163 HD
ATOM     44  O   UNL A   1      42.438  18.605  25.663  1.00  0.00    -0.269 OA
BRANCH  42  45
ATOM     45  C   UNL A   1      42.100  20.820  26.350  1.00  0.00     0.039 A 
ATOM     46  C   UNL A   1      42.264  21.717  25.293  1.00  0.00     0.014 A 
ATOM     47  C   UNL A   1      42.367  21.217  27.663  1.00  0.00     0.014 A 
ATOM     48  C   UNL A   1      42.644  23.033  25.561  1.00  0.00     0.010 A 
ATOM     49  C   UNL A   1      42.669  22.547  27.935  1.00  0.00     0.010 A 
ATOM     50  C   UNL A   1      42.815  23.467  26.886  1.00  0.00    -0.014 A 
BRANCH  50  51
ATOM     51  C   UNL A   1      43.133  24.883  27.191  1.00  0.00     0.031 A 
ATOM     52  C   UNL A   1      44.519  25.416  26.962  1.00  0.00     0.074 A 
ATOM     53  C   UNL A   1      42.185  25.672  27.731  1.00  0.00     0.049 A 
ATOM     54  N   UNL A   1      44.997  26.608  27.215  1.00  0.00    -0.248 NA
ATOM     55  C   UNL A   1      45.505  24.481  26.400  1.00  0.00     0.031 C 
ATOM     56  C   UNL A   1      40.816  25.255  28.047  1.00  0.00     0.029 A 
ATOM     57  N   UNL A   1      42.228  26.988  28.119  1.00  0.00    -0.354 N 
ATOM     58  C   UNL A   1      46.337  26.563  26.853  1.00  0.00     0.074 A 
ATOM     59  C   UNL A   1      46.612  25.210  26.417  1.00  0.00     0.031 C 
ATOM     60  C   UNL A   1      40.144  26.299  28.556  1.00  0.00     0.029 A 
ATOM     61  C   UNL A   1      41.043  27.446  28.643  1.00  0.00     0.049 A 
ATOM     62  H   UNL A   1      43.031  27.548  28.031  1.00  0.00     0.167 HD
ATOM     63  C   UNL A   1      47.251  27.563  26.862  1.00  0.00     0.037 A 
ATOM     64  C   UNL A   1      40.721  28.652  29.148  1.00  0.00     0.037 A 
ATOM     65  C   UNL A   1      46.967  28.910  27.284  1.00  0.00     0.049 A 
ATOM     66  C   UNL A   1      41.758  29.740  29.163  1.00  0.00     0.074 A 
ATOM     67  C   UNL A   1      47.807  30.011  27.272  1.00  0.00     0.029 A 
ATOM     68  N   UNL A   1      45.754  29.338  27.802  1.00  0.00    -0.354 N 
ATOM     69  N   UNL A   1      43.001  29.704  28.746  1.00  0.00    -0.248 NA
ATOM     70  C   UNL A   1      41.346  31.038  29.715  1.00  0.00     0.031 C 
ATOM     71  C   UNL A   1      47.121  31.090  27.838  1.00  0.00     0.029 A 
ATOM     72  C   UNL A   1      45.833  30.679  28.144  1.00  0.00     0.049 A 
ATOM     73  H   UNL A   1      44.955  28.774  27.911  1.00  0.00     0.167 HD
ATOM     74  C   UNL A   1      43.510  30.979  28.960  1.00  0.00     0.074 A 
ATOM     75  C   UNL A   1      42.436  31.767  29.526  1.00  0.00     0.031 C 
ATOM     76  C   UNL A   1      44.756  31.452  28.707  1.00  0.00     0.037 A 
BRANCH  63  77
ATOM     77  C   UNL A   1      48.644  27.236  26.406  1.00  0.00     0.057 A 
ATOM     78  C   UNL A   1      49.650  26.855  27.306  1.00  0.00     0.134 A 
ATOM     79  C   UNL A   1      48.976  27.267  25.046  1.00  0.00     0.134 A 
ATOM     80  F   UNL A   1      49.404  26.814  28.624  1.00  0.00    -0.206 F 
ATOM     81  C   UNL A   1      50.940  26.545  26.872  1.00  0.00     0.040 A 
ATOM     82  C   UNL A   1      50.254  26.929  24.597  1.00  0.00     0.040 A 
ATOM     83  F   UNL A   1      48.062  27.616  24.128  1.00  0.00    -0.206 F 
ATOM     84  C   UNL A   1      51.242  26.574  25.512  1.00  0.00     0.006 A 
ENDBRANCH  63  77
BRANCH  64  85
ATOM     85  C   UNL A   1      39.351  28.896  29.668  1.00  0.00     0.057 A 
ATOM     86  C   UNL A   1      39.036  28.673  31.013  1.00  0.00     0.134 A 
ATOM     87  C   UNL A   1      38.324  29.352  28.833  1.00  0.00     0.134 A 
ATOM     88  F   UNL A   1      39.973  28.218  31.859  1.00  0.00    -0.206 F 
ATOM     89  C   UNL A   1      37.746  28.872  31.505  1.00  0.00     0.040 A 
ATOM     90  C   UNL A   1      37.036  29.584  29.318  1.00  0.00     0.040 A 
ATOM     91  F   UNL A   1      38.561  29.594  27.535  1.00  0.00    -0.206 F 
ATOM     92  C   UNL A   1      36.742  29.335  30.657  1.00  0.00     0.006 A 
ENDBRANCH  64  85
BRANCH  76  93
ATOM     93  C   UNL A   1      45.015  32.900  29.014  1.00  0.00     0.057 A 
ATOM     94  C   UNL A   1      45.605  33.311  30.217  1.00  0.00     0.134 A 
ATOM     95  C   UNL A   1      44.700  33.893  28.077  1.00  0.00     0.134 A 
ATOM     96  F   UNL A   1      45.919  32.412  31.162  1.00  0.00    -0.206 F 
ATOM     97  C   UNL A   1      45.850  34.658  30.486  1.00  0.00     0.040 A 
ATOM     98  C   UNL A   1      44.969  35.240  28.322  1.00  0.00     0.040 A 
ATOM     99  F   UNL A   1      44.141  33.569  26.901  1.00  0.00    -0.206 F 
ATOM    100  C   UNL A   1      45.539  35.627  29.533  1.00  0.00     0.006 A 
ENDBRANCH  76  93
ENDBRANCH  50  51
ENDBRANCH  42  45
ENDBRANCH  40  41
ENDBRANCH  39  40
ENDBRANCH  38  39
ENDBRANCH  37  38
ENDBRANCH  36  37
ENDBRANCH   1  36
TORSDOF 26
ENDMDL
MODEL 3
REMARK VINA RESULT:      -9.9      1.827      7.082
REMARK SMILES CCCC[C@@H](Sc1nc(OCCC2CCCCC2)cc(OCCC2CCCCC2)n1)C(=O)NCCCCCCNC(=O)c1ccc(-c2c3nc(c(-c4c(F)cccc4F)c4ccc([nH]4)c(-c4c(F)cccc4F)c4nc(c(-c5c(F)cccc5F)c5ccc2[nH]5)C=C4)C=C3)cc1
REMARK SMILES IDX 34 1 33 2 31 3 32 4 5 6 4 7 3 8 2 9 1 10 6 11 7 12 8 13
REMARK SMILES IDX 30 14 9 15 20 16 19 17 10 18 11 19 12 20 13 21 14 22 18 23
REMARK SMILES IDX 15 24 17 25 16 26 21 27 22 28 23 29 24 30 25 31 29 32 26 33
REMARK SMILES IDX 28 34 27 35 35 36 36 37 37 38 38 39 39 40 40 41 41 42 42 44
REMARK SMILES IDX 43 45 44 46 96 47 45 48 95 49 46 50 47 51 48 52 89 53 49 54
REMARK SMILES IDX 94 55 88 56 90 57 50 58 93 59 87 60 86 61 51 63 77 64 60 65
REMARK SMILES IDX 76 66 61 67 64 68 75 69 91 70 62 71 63 72 74 74 92 75 65 76
REMARK SMILES IDX 52 77 53 78 58 79 54 80 55 81 57 82 59 83 56 84 78 85 79 86
REMARK SMILES IDX 84 87 80 88 81 89 83 90 85 91 82 92 66 93 67 94 72 95 68 96
REMARK SMILES IDX 69 97 71 98 73 99 70 100
REMARK H PARENT 33 5 40 43 90 62 64 73
REMARK Flexibility Score: inf
ROOT
ATOM      1  C   UNL A   1      35.076  23.605  23.602  1.00  0.00     0.116 C 
ENDROOT
BRANCH   1   2
ATOM      2  N   UNL A   1      34.500  23.514  22.268  1.00  0.00    -0.355 N 
ATOM      3  C   UNL A   1      33.636  24.369  21.632  1.00  0.00     0.233 C 
ATOM      4  O   UNL A   1      33.271  24.084  20.488  1.00  0.00    -0.274 OA
ATOM      5  H   UNL A   1      34.770  22.723  21.747  1.00  0.00     0.163 HD
BRANCH   3   6
ATOM      6  C   UNL A   1      33.121  25.639  22.354  1.00  0.00     0.144 C 
BRANCH   6   7
ATOM      7  C   UNL A   1      33.722  26.845  21.585  1.00  0.00     0.025 C 
BRANCH   7   8
ATOM      8  C   UNL A   1      33.349  28.290  21.933  1.00  0.00     0.001 C 
BRANCH   8   9
ATOM      9  C   UNL A   1      32.839  28.559  23.347  1.00  0.00    -0.003 C 
ATOM     10  C   UNL A   1      31.393  29.021  23.364  1.00  0.00     0.004 C 
ENDBRANCH   8   9
ENDBRANCH   7   8
ENDBRANCH   6   7
BRANCH   6  11
ATOM     11  S   UNL A   1      31.296  25.281  22.522  1.00  0.00    -0.073 SA
BRANCH  11  12
ATOM     12  C   UNL A   1      31.002  24.890  24.197  1.00  0.00     0.195 A 
ATOM     13  N   UNL A   1      31.083  25.839  25.124  1.00  0.00    -0.187 NA
ATOM     14  N   UNL A   1      30.809  23.585  24.439  1.00  0.00    -0.187 NA
ATOM     15  C   UNL A   1      31.042  25.447  26.396  1.00  0.00     0.221 A 
ATOM     16  C   UNL A   1      30.825  23.208  25.716  1.00  0.00     0.221 A 
ATOM     17  C   UNL A   1      30.965  24.123  26.719  1.00  0.00     0.136 A 
BRANCH  15  18
ATOM     18  O   UNL A   1      31.097  26.468  27.309  1.00  0.00    -0.477 OA
BRANCH  18  19
ATOM     19  C   UNL A   1      31.354  27.797  26.849  1.00  0.00     0.231 C 
BRANCH  19  20
ATOM     20  C   UNL A   1      32.729  28.380  27.276  1.00  0.00     0.045 C 
BRANCH  20  21
ATOM     21  C   UNL A   1      32.745  29.904  27.427  1.00  0.00    -0.008 C 
ATOM     22  C   UNL A   1      34.101  30.606  27.374  1.00  0.00     0.004 C 
ATOM     23  C   UNL A   1      31.751  30.615  26.505  1.00  0.00     0.004 C 
ATOM     24  C   UNL A   1      33.915  32.049  27.887  1.00  0.00     0.000 C 
ATOM     25  C   UNL A   1      31.509  32.032  27.013  1.00  0.00     0.000 C 
ATOM     26  C   UNL A   1      32.815  32.813  27.141  1.00  0.00     0.000 C 
ENDBRANCH  20  21
ENDBRANCH  19  20
ENDBRANCH  18  19
ENDBRANCH  15  18
BRANCH  16  27
ATOM     27  O   UNL A   1      30.895  21.851  25.901  1.00  0.00    -0.477 OA
BRANCH  27  28
ATOM     28  C   UNL A   1      31.810  21.088  25.109  1.00  0.00     0.231 C 
BRANCH  28  29
ATOM     29  C   UNL A   1      32.788  20.172  25.895  1.00  0.00     0.045 C 
BRANCH  29  30
ATOM     30  C   UNL A   1      33.245  18.873  25.201  1.00  0.00    -0.008 C 
ATOM     31  C   UNL A   1      32.825  17.575  25.910  1.00  0.00     0.004 C 
ATOM     32  C   UNL A   1      32.754  18.748  23.750  1.00  0.00     0.004 C 
ATOM     33  C   UNL A   1      33.493  16.363  25.230  1.00  0.00     0.000 C 
ATOM     34  C   UNL A   1      33.557  17.664  23.041  1.00  0.00     0.000 C 
ATOM     35  C   UNL A   1      33.321  16.317  23.706  1.00  0.00     0.000 C 
ENDBRANCH  29  30
ENDBRANCH  28  29
ENDBRANCH  27  28
ENDBRANCH  16  27
ENDBRANCH  11  12
ENDBRANCH   6  11
ENDBRANCH   3   6
ENDBRANCH   1   2
BRANCH   1  36
ATOM     36  C   UNL A   1      35.147  22.238  24.266  1.00  0.00     0.021 C 
BRANCH  36  37
ATOM     37  C   UNL A   1      36.578  21.728  24.416  1.00  0.00     0.002 C 
BRANCH  37  38
ATOM     38  C   UNL A   1      36.683  20.312  24.995  1.00  0.00     0.002 C 
BRANCH  38  39
ATOM     39  C   UNL A   1      38.040  19.634  24.788  1.00  0.00     0.021 C 
BRANCH  39  40
ATOM     40  C   UNL A   1      39.120  20.100  25.756  1.00  0.00     0.116 C 
BRANCH  40  41
ATOM     41  N   UNL A   1      40.167  19.103  25.910  1.00  0.00    -0.352 N 
ATOM     42  C   UNL A   1      41.510  19.280  26.126  1.00  0.00     0.251 C 
ATOM     43  H   UNL A   1      39.869  18.167  25.850  1.00  0.00     0.163 HD
ATOM     44  O   UNL A   1      42.288  18.344  25.996  1.00  0.00    -0.269 OA
BRANCH  42  45
ATOM     45  C   UNL A   1      42.011  20.615  26.507  1.00  0.00     0.039 A 
ATOM     46  C   UNL A   1      42.361  21.515  25.499  1.00  0.00     0.014 A 
ATOM     47  C   UNL A   1      42.137  20.974  27.851  1.00  0.00     0.014 A 
ATOM     48  C   UNL A   1      42.786  22.799  25.841  1.00  0.00     0.010 A 
ATOM     49  C   UNL A   1      42.485  22.277  28.189  1.00  0.00     0.010 A 
ATOM     50  C   UNL A   1      42.818  23.202  27.187  1.00  0.00    -0.014 A 
BRANCH  50  51
ATOM     51  C   UNL A   1      43.183  24.589  27.561  1.00  0.00     0.031 A 
ATOM     52  C   UNL A   1      44.622  25.023  27.561  1.00  0.00     0.074 A 
ATOM     53  C   UNL A   1      42.219  25.442  27.959  1.00  0.00     0.049 A 
ATOM     54  N   UNL A   1      45.136  26.176  27.904  1.00  0.00    -0.248 NA
ATOM     55  C   UNL A   1      45.615  24.022  27.143  1.00  0.00     0.031 C 
ATOM     56  C   UNL A   1      40.792  25.123  28.050  1.00  0.00     0.029 A 
ATOM     57  N   UNL A   1      42.293  26.749  28.371  1.00  0.00    -0.354 N 
ATOM     58  C   UNL A   1      46.510  26.036  27.755  1.00  0.00     0.074 A 
ATOM     59  C   UNL A   1      46.754  24.670  27.345  1.00  0.00     0.031 C 
ATOM     60  C   UNL A   1      40.124  26.210  28.466  1.00  0.00     0.029 A 
ATOM     61  C   UNL A   1      41.076  27.289  28.711  1.00  0.00     0.049 A 
ATOM     62  H   UNL A   1      43.138  27.251  28.418  1.00  0.00     0.167 HD
ATOM     63  C   UNL A   1      47.479  26.968  27.923  1.00  0.00     0.037 A 
ATOM     64  C   UNL A   1      40.765  28.512  29.179  1.00  0.00     0.037 A 
ATOM     65  C   UNL A   1      47.228  28.329  28.318  1.00  0.00     0.049 A 
ATOM     66  C   UNL A   1      41.860  29.523  29.374  1.00  0.00     0.074 A 
ATOM     67  C   UNL A   1      48.135  29.367  28.455  1.00  0.00     0.029 A 
ATOM     68  N   UNL A   1      45.982  28.841  28.647  1.00  0.00    -0.354 N 
ATOM     69  N   UNL A   1      43.148  29.400  29.156  1.00  0.00    -0.248 NA
ATOM     70  C   UNL A   1      41.459  30.844  29.876  1.00  0.00     0.031 C 
ATOM     71  C   UNL A   1      47.446  30.489  28.925  1.00  0.00     0.029 A 
ATOM     72  C   UNL A   1      46.101  30.171  29.019  1.00  0.00     0.049 A 
ATOM     73  H   UNL A   1      45.138  28.335  28.621  1.00  0.00     0.167 HD
ATOM     74  C   UNL A   1      43.705  30.633  29.467  1.00  0.00     0.074 A 
ATOM     75  C   UNL A   1      42.614  31.494  29.872  1.00  0.00     0.031 C 
ATOM     76  C   UNL A   1      45.005  31.017  29.420  1.00  0.00     0.037 A 
BRANCH  63  77
ATOM     77  C   UNL A   1      48.901  26.543  27.685  1.00  0.00     0.057 A 
ATOM     78  C   UNL A   1      49.712  26.054  28.718  1.00  0.00     0.134 A 
ATOM     79  C   UNL A   1      49.454  26.591  26.399  1.00  0.00     0.134 A 
ATOM     80  F   UNL A   1      49.249  25.992  29.975  1.00  0.00    -0.206 F 
ATOM     81  C   UNL A   1      51.029  25.655  28.486  1.00  0.00     0.040 A 
ATOM     82  C   UNL A   1      50.760  26.165  26.149  1.00  0.00     0.040 A 
ATOM     83  F   UNL A   1      48.732  27.041  25.361  1.00  0.00    -0.206 F 
ATOM     84  C   UNL A   1      51.554  25.702  27.196  1.00  0.00     0.006 A 
ENDBRANCH  63  77
BRANCH  64  85
ATOM     85  C   UNL A   1      39.351  28.852  29.482  1.00  0.00     0.057 A 
ATOM     86  C   UNL A   1      38.805  28.616  30.749  1.00  0.00     0.134 A 
ATOM     87  C   UNL A   1      38.511  29.414  28.514  1.00  0.00     0.134 A 
ATOM     88  F   UNL A   1      39.554  28.062  31.714  1.00  0.00    -0.206 F 
ATOM     89  C   UNL A   1      37.470  28.904  31.036  1.00  0.00     0.040 A 
ATOM     90  C   UNL A   1      37.182  29.736  28.796  1.00  0.00     0.040 A 
ATOM     91  F   UNL A   1      38.974  29.674  27.282  1.00  0.00    -0.206 F 
ATOM     92  C   UNL A   1      36.656  29.473  30.058  1.00  0.00     0.006 A 
ENDBRANCH  64  85
BRANCH  76  93
ATOM     93  C   UNL A   1      45.314  32.440  29.787  1.00  0.00     0.057 A 
ATOM     94  C   UNL A   1      45.276  33.476  28.845  1.00  0.00     0.134 A 
ATOM     95  C   UNL A   1      45.621  32.782  31.111  1.00  0.00     0.134 A 
ATOM     96  F   UNL A   1      45.001  33.215  27.558  1.00  0.00    -0.206 F 
ATOM     97  C   UNL A   1      45.554  34.797  29.201  1.00  0.00     0.040 A 
ATOM     98  C   UNL A   1      45.871  34.104  31.485  1.00  0.00     0.040 A 
ATOM     99  F   UNL A   1      45.667  31.842  32.066  1.00  0.00    -0.206 F 
ATOM    100  C   UNL A   1      45.846  35.115  30.527  1.00  0.00     0.006 A 
ENDBRANCH  76  93
ENDBRANCH  50  51
ENDBRANCH  42  45
ENDBRANCH  40  41
ENDBRANCH  39  40
ENDBRANCH  38  39
ENDBRANCH  37  38
ENDBRANCH  36  37
ENDBRANCH   1  36
TORSDOF 26
ENDMDL
