MODEL 1
REMARK VINA RESULT:      -9.7      0.000      0.000
REMARK SMILES C[C@@H](CNC(=O)N(C)CC(C)(C)O)C(=O)NCCCCCCNC(=O)c1ccc(-c2c3nc(c(-c4c(F)cccc4F)c4ccc([nH]4)c(-c4c(F)cccc4F)c4nc(c(-c5c(F)cccc5F)c5ccc2[nH]5)C=C4)C=C3)cc1
REMARK SMILES IDX 17 1 16 2 14 3 15 4 2 6 1 7 3 8 4 9 5 10 6 12 7 13 8 14 9 15
REMARK SMILES IDX 10 16 11 17 12 18 13 19 18 21 19 22 20 23 21 24 22 25 23 26
REMARK SMILES IDX 24 27 25 29 26 30 27 31 79 32 28 33 78 34 29 35 30 36 31 37
REMARK SMILES IDX 72 38 32 39 77 40 71 41 73 42 33 43 76 44 70 45 69 46 34 48
REMARK SMILES IDX 60 49 43 50 59 51 44 52 47 53 58 54 74 55 45 56 46 57 57 59
REMARK SMILES IDX 75 60 48 61 35 62 36 63 41 64 37 65 38 66 40 67 42 68 39 69
REMARK SMILES IDX 61 70 62 71 67 72 63 73 64 74 66 75 68 76 65 77 49 78 50 79
REMARK SMILES IDX 55 80 51 81 52 82 54 83 56 84 53 85
REMARK H PARENT 16 5 4 11 13 20 23 28 73 47 47 58
REMARK Flexibility Score: inf
ROOT
ATOM      1  C   UNL A   1      33.922  27.924  26.153  1.00  0.00     0.116 C 
ENDROOT
BRANCH   1   2
ATOM      2  N   UNL A   1      32.711  27.186  26.444  1.00  0.00    -0.356 N 
ATOM      3  C   UNL A   1      32.387  25.892  26.171  1.00  0.00     0.224 C 
ATOM      4  O   UNL A   1      31.433  25.407  26.788  1.00  0.00    -0.275 OA
ATOM      5  H   UNL A   1      32.014  27.699  26.913  1.00  0.00     0.163 HD
BRANCH   3   6
ATOM      6  C   UNL A   1      33.118  25.047  25.129  1.00  0.00     0.094 C 
ATOM      7  C   UNL A   1      34.035  23.984  25.740  1.00  0.00     0.020 C 
BRANCH   6   8
ATOM      8  C   UNL A   1      32.271  24.545  23.944  1.00  0.00     0.130 C 
BRANCH   8   9
ATOM      9  N   UNL A   1      32.059  25.501  22.876  1.00  0.00    -0.337 N 
ATOM     10  C   UNL A   1      31.190  26.476  22.567  1.00  0.00     0.317 C 
ATOM     11  H   UNL A   1      32.748  25.410  22.180  1.00  0.00     0.165 HD
ATOM     12  O   UNL A   1      31.255  26.820  21.380  1.00  0.00    -0.249 OA
BRANCH  10  13
ATOM     13  N   UNL A   1      30.299  27.036  23.427  1.00  0.00    -0.325 N 
ATOM     14  C   UNL A   1      29.221  26.379  24.152  1.00  0.00     0.148 C 
BRANCH  13  15
ATOM     15  C   UNL A   1      30.451  28.479  23.728  1.00  0.00     0.155 C 
BRANCH  15  16
ATOM     16  C   UNL A   1      29.702  29.501  22.814  1.00  0.00     0.077 C 
ATOM     17  C   UNL A   1      28.320  29.025  22.350  1.00  0.00     0.043 C 
ATOM     18  C   UNL A   1      29.507  30.809  23.599  1.00  0.00     0.043 C 
BRANCH  16  19
ATOM     19  O   UNL A   1      30.510  29.823  21.675  1.00  0.00    -0.389 OA
ATOM     20  H   UNL A   1      29.938  30.094  20.939  1.00  0.00     0.211 HD
ENDBRANCH  16  19
ENDBRANCH  15  16
ENDBRANCH  13  15
ENDBRANCH  10  13
ENDBRANCH   8   9
ENDBRANCH   6   8
ENDBRANCH   3   6
ENDBRANCH   1   2
BRANCH   1  21
ATOM     21  C   UNL A   1      33.979  29.302  26.798  1.00  0.00     0.021 C 
BRANCH  21  22
ATOM     22  C   UNL A   1      32.646  29.772  27.390  1.00  0.00     0.002 C 
BRANCH  22  23
ATOM     23  C   UNL A   1      31.752  30.599  26.457  1.00  0.00     0.002 C 
BRANCH  23  24
ATOM     24  C   UNL A   1      31.492  32.045  26.889  1.00  0.00     0.021 C 
BRANCH  24  25
ATOM     25  C   UNL A   1      32.738  32.916  27.002  1.00  0.00     0.116 C 
BRANCH  25  26
ATOM     26  N   UNL A   1      32.473  34.178  27.675  1.00  0.00    -0.352 N 
ATOM     27  C   UNL A   1      33.105  34.744  28.754  1.00  0.00     0.251 C 
ATOM     28  H   UNL A   1      31.729  34.704  27.302  1.00  0.00     0.163 HD
ATOM     29  O   UNL A   1      32.631  35.734  29.297  1.00  0.00    -0.269 OA
BRANCH  27  30
ATOM     30  C   UNL A   1      34.353  34.145  29.273  1.00  0.00     0.039 A 
ATOM     31  C   UNL A   1      34.279  33.278  30.366  1.00  0.00     0.014 A 
ATOM     32  C   UNL A   1      35.590  34.445  28.697  1.00  0.00     0.014 A 
ATOM     33  C   UNL A   1      35.441  32.669  30.846  1.00  0.00     0.010 A 
ATOM     34  C   UNL A   1      36.733  33.780  29.126  1.00  0.00     0.010 A 
ATOM     35  C   UNL A   1      36.672  32.890  30.209  1.00  0.00    -0.014 A 
BRANCH  35  36
ATOM     36  C   UNL A   1      37.908  32.207  30.666  1.00  0.00     0.031 A 
ATOM     37  C   UNL A   1      38.747  32.814  31.756  1.00  0.00     0.074 A 
ATOM     38  C   UNL A   1      38.307  31.072  30.058  1.00  0.00     0.049 A 
ATOM     39  N   UNL A   1      39.893  32.408  32.241  1.00  0.00    -0.248 NA
ATOM     40  C   UNL A   1      38.245  34.056  32.366  1.00  0.00     0.031 C 
ATOM     41  C   UNL A   1      37.601  30.407  28.961  1.00  0.00     0.029 A 
ATOM     42  N   UNL A   1      39.409  30.282  30.270  1.00  0.00    -0.354 N 
ATOM     43  C   UNL A   1      40.252  33.349  33.199  1.00  0.00     0.074 A 
ATOM     44  C   UNL A   1      39.234  34.375  33.187  1.00  0.00     0.031 C 
ATOM     45  C   UNL A   1      38.276  29.301  28.611  1.00  0.00     0.029 A 
ATOM     46  C   UNL A   1      39.481  29.200  29.427  1.00  0.00     0.049 A 
ATOM     47  H   UNL A   1      40.084  30.475  30.961  1.00  0.00     0.167 HD
ATOM     48  C   UNL A   1      41.323  33.344  34.029  1.00  0.00     0.037 A 
ATOM     49  C   UNL A   1      40.422  28.242  29.316  1.00  0.00     0.037 A 
ATOM     50  C   UNL A   1      42.325  32.311  34.049  1.00  0.00     0.049 A 
ATOM     51  C   UNL A   1      41.613  28.274  30.235  1.00  0.00     0.074 A 
ATOM     52  C   UNL A   1      43.419  32.189  34.888  1.00  0.00     0.029 A 
ATOM     53  N   UNL A   1      42.358  31.225  33.188  1.00  0.00    -0.354 N 
ATOM     54  N   UNL A   1      41.906  29.133  31.181  1.00  0.00    -0.248 NA
ATOM     55  C   UNL A   1      42.600  27.198  30.075  1.00  0.00     0.031 C 
ATOM     56  C   UNL A   1      44.143  31.058  34.498  1.00  0.00     0.029 A 
ATOM     57  C   UNL A   1      43.468  30.441  33.459  1.00  0.00     0.049 A 
ATOM     58  H   UNL A   1      41.691  31.038  32.488  1.00  0.00     0.167 HD
ATOM     59  C   UNL A   1      43.090  28.683  31.751  1.00  0.00     0.074 A 
ATOM     60  C   UNL A   1      43.455  27.469  31.052  1.00  0.00     0.031 C 
ATOM     61  C   UNL A   1      43.811  29.227  32.762  1.00  0.00     0.037 A 
BRANCH  48  62
ATOM     62  C   UNL A   1      41.466  34.495  34.985  1.00  0.00     0.057 A 
ATOM     63  C   UNL A   1      40.948  34.445  36.286  1.00  0.00     0.134 A 
ATOM     64  C   UNL A   1      42.162  35.651  34.612  1.00  0.00     0.134 A 
ATOM     65  F   UNL A   1      40.260  33.371  36.705  1.00  0.00    -0.206 F 
ATOM     66  C   UNL A   1      41.095  35.513  37.172  1.00  0.00     0.040 A 
ATOM     67  C   UNL A   1      42.343  36.714  35.500  1.00  0.00     0.040 A 
ATOM     68  F   UNL A   1      42.690  35.765  33.385  1.00  0.00    -0.206 F 
ATOM     69  C   UNL A   1      41.802  36.650  36.782  1.00  0.00     0.006 A 
ENDBRANCH  48  62
BRANCH  49  70
ATOM     70  C   UNL A   1      40.272  27.162  28.307  1.00  0.00     0.057 A 
ATOM     71  C   UNL A   1      40.893  27.251  27.056  1.00  0.00     0.134 A 
ATOM     72  C   UNL A   1      39.491  26.028  28.559  1.00  0.00     0.134 A 
ATOM     73  F   UNL A   1      41.640  28.320  26.748  1.00  0.00    -0.206 F 
ATOM     74  C   UNL A   1      40.723  26.264  26.083  1.00  0.00     0.040 A 
ATOM     75  C   UNL A   1      39.335  25.020  27.606  1.00  0.00     0.040 A 
ATOM     76  F   UNL A   1      38.874  25.877  29.741  1.00  0.00    -0.206 F 
ATOM     77  C   UNL A   1      39.945  25.142  26.359  1.00  0.00     0.006 A 
ENDBRANCH  49  70
BRANCH  61  78
ATOM     78  C   UNL A   1      45.040  28.488  33.209  1.00  0.00     0.057 A 
ATOM     79  C   UNL A   1      44.988  27.478  34.179  1.00  0.00     0.134 A 
ATOM     80  C   UNL A   1      46.284  28.762  32.628  1.00  0.00     0.134 A 
ATOM     81  F   UNL A   1      43.830  27.175  34.784  1.00  0.00    -0.206 F 
ATOM     82  C   UNL A   1      46.135  26.786  34.572  1.00  0.00     0.040 A 
ATOM     83  C   UNL A   1      47.431  28.056  32.989  1.00  0.00     0.040 A 
ATOM     84  F   UNL A   1      46.402  29.709  31.685  1.00  0.00    -0.206 F 
ATOM     85  C   UNL A   1      47.360  27.070  33.971  1.00  0.00     0.006 A 
ENDBRANCH  61  78
ENDBRANCH  35  36
ENDBRANCH  27  30
ENDBRANCH  25  26
ENDBRANCH  24  25
ENDBRANCH  23  24
ENDBRANCH  22  23
ENDBRANCH  21  22
ENDBRANCH   1  21
TORSDOF 19
ENDMDL
MODEL 2
REMARK VINA RESULT:      -9.4      1.329      6.800
REMARK SMILES C[C@@H](CNC(=O)N(C)CC(C)(C)O)C(=O)NCCCCCCNC(=O)c1ccc(-c2c3nc(c(-c4c(F)cccc4F)c4ccc([nH]4)c(-c4c(F)cccc4F)c4nc(c(-c5c(F)cccc5F)c5ccc2[nH]5)C=C4)C=C3)cc1
REMARK SMILES IDX 17 1 16 2 14 3 15 4 2 6 1 7 3 8 4 9 5 10 6 12 7 13 8 14 9 15
REMARK SMILES IDX 10 16 11 17 12 18 13 19 18 21 19 22 20 23 21 24 22 25 23 26
REMARK SMILES IDX 24 27 25 29 26 30 27 31 79 32 28 33 78 34 29 35 30 36 31 37
REMARK SMILES IDX 72 38 32 39 77 40 71 41 73 42 33 43 76 44 70 45 69 46 34 48
REMARK SMILES IDX 60 49 43 50 59 51 44 52 47 53 58 54 74 55 45 56 46 57 57 59
REMARK SMILES IDX 75 60 48 61 35 62 36 63 41 64 37 65 38 66 40 67 42 68 39 69
REMARK SMILES IDX 61 70 62 71 67 72 63 73 64 74 66 75 68 76 65 77 49 78 50 79
REMARK SMILES IDX 55 80 51 81 52 82 54 83 56 84 53 85
REMARK H PARENT 16 5 4 11 13 20 23 28 73 47 47 58
REMARK Flexibility Score: inf
ROOT
ATOM      1  C   UNL A   1      31.715  27.488  26.675  1.00  0.00     0.116 C 
ENDROOT
BRANCH   1   2
ATOM      2  N   UNL A   1      32.660  27.068  25.662  1.00  0.00    -0.356 N 
ATOM      3  C   UNL A   1      32.452  26.711  24.365  1.00  0.00     0.224 C 
ATOM      4  O   UNL A   1      33.437  26.696  23.619  1.00  0.00    -0.275 OA
ATOM      5  H   UNL A   1      33.599  27.036  25.957  1.00  0.00     0.163 HD
BRANCH   3   6
ATOM      6  C   UNL A   1      31.086  26.305  23.816  1.00  0.00     0.094 C 
ATOM      7  C   UNL A   1      30.487  27.330  22.848  1.00  0.00     0.020 C 
BRANCH   6   8
ATOM      8  C   UNL A   1      30.946  24.843  23.353  1.00  0.00     0.130 C 
BRANCH   8   9
ATOM      9  N   UNL A   1      31.946  24.386  22.409  1.00  0.00    -0.337 N 
ATOM     10  C   UNL A   1      32.935  23.480  22.363  1.00  0.00     0.317 C 
ATOM     11  H   UNL A   1      31.882  24.882  21.561  1.00  0.00     0.165 HD
ATOM     12  O   UNL A   1      33.719  23.669  21.424  1.00  0.00    -0.249 OA
BRANCH  10  13
ATOM     13  N   UNL A   1      33.108  22.460  23.245  1.00  0.00    -0.325 N 
ATOM     14  C   UNL A   1      32.230  21.323  23.480  1.00  0.00     0.148 C 
BRANCH  13  15
ATOM     15  C   UNL A   1      34.359  22.446  24.039  1.00  0.00     0.155 C 
BRANCH  15  16
ATOM     16  C   UNL A   1      34.333  23.099  25.458  1.00  0.00     0.077 C 
ATOM     17  C   UNL A   1      34.855  22.185  26.574  1.00  0.00     0.043 C 
ATOM     18  C   UNL A   1      35.216  24.359  25.435  1.00  0.00     0.043 C 
BRANCH  16  19
ATOM     19  O   UNL A   1      33.004  23.535  25.773  1.00  0.00    -0.389 OA
ATOM     20  H   UNL A   1      32.581  22.885  26.356  1.00  0.00     0.211 HD
ENDBRANCH  16  19
ENDBRANCH  15  16
ENDBRANCH  13  15
ENDBRANCH  10  13
ENDBRANCH   8   9
ENDBRANCH   6   8
ENDBRANCH   3   6
ENDBRANCH   1   2
BRANCH   1  21
ATOM     21  C   UNL A   1      32.003  28.864  27.261  1.00  0.00     0.021 C 
BRANCH  21  22
ATOM     22  C   UNL A   1      32.314  29.937  26.213  1.00  0.00     0.002 C 
BRANCH  22  23
ATOM     23  C   UNL A   1      31.127  30.803  25.767  1.00  0.00     0.002 C 
BRANCH  23  24
ATOM     24  C   UNL A   1      31.170  32.271  26.201  1.00  0.00     0.021 C 
BRANCH  24  25
ATOM     25  C   UNL A   1      32.293  32.622  27.170  1.00  0.00     0.116 C 
BRANCH  25  26
ATOM     26  N   UNL A   1      32.254  34.017  27.582  1.00  0.00    -0.352 N 
ATOM     27  C   UNL A   1      33.057  34.690  28.467  1.00  0.00     0.251 C 
ATOM     28  H   UNL A   1      31.545  34.557  27.164  1.00  0.00     0.163 HD
ATOM     29  O   UNL A   1      32.765  35.825  28.825  1.00  0.00    -0.269 OA
BRANCH  27  30
ATOM     30  C   UNL A   1      34.270  34.037  29.004  1.00  0.00     0.039 A 
ATOM     31  C   UNL A   1      35.509  34.349  28.438  1.00  0.00     0.014 A 
ATOM     32  C   UNL A   1      34.187  33.111  30.047  1.00  0.00     0.014 A 
ATOM     33  C   UNL A   1      36.671  33.773  28.957  1.00  0.00     0.010 A 
ATOM     34  C   UNL A   1      35.350  32.598  30.612  1.00  0.00     0.010 A 
ATOM     35  C   UNL A   1      36.604  32.919  30.069  1.00  0.00    -0.014 A 
BRANCH  35  36
ATOM     36  C   UNL A   1      37.832  32.344  30.674  1.00  0.00     0.031 A 
ATOM     37  C   UNL A   1      38.474  31.128  30.065  1.00  0.00     0.074 A 
ATOM     38  C   UNL A   1      38.333  32.881  31.803  1.00  0.00     0.049 A 
ATOM     39  N   UNL A   1      39.504  30.439  30.486  1.00  0.00    -0.248 NA
ATOM     40  C   UNL A   1      37.862  30.600  28.835  1.00  0.00     0.031 C 
ATOM     41  C   UNL A   1      37.777  34.036  32.511  1.00  0.00     0.029 A 
ATOM     42  N   UNL A   1      39.420  32.519  32.560  1.00  0.00    -0.354 N 
ATOM     43  C   UNL A   1      39.654  29.394  29.583  1.00  0.00     0.074 A 
ATOM     44  C   UNL A   1      38.576  29.505  28.625  1.00  0.00     0.031 C 
ATOM     45  C   UNL A   1      38.537  34.299  33.586  1.00  0.00     0.029 A 
ATOM     46  C   UNL A   1      39.607  33.311  33.668  1.00  0.00     0.049 A 
ATOM     47  H   UNL A   1      40.008  31.764  32.331  1.00  0.00     0.167 HD
ATOM     48  C   UNL A   1      40.616  28.441  29.543  1.00  0.00     0.037 A 
ATOM     49  C   UNL A   1      40.529  33.237  34.646  1.00  0.00     0.037 A 
ATOM     50  C   UNL A   1      41.696  28.345  30.489  1.00  0.00     0.049 A 
ATOM     51  C   UNL A   1      41.573  32.155  34.590  1.00  0.00     0.074 A 
ATOM     52  C   UNL A   1      42.751  27.449  30.504  1.00  0.00     0.029 A 
ATOM     53  N   UNL A   1      41.859  29.172  31.590  1.00  0.00    -0.354 N 
ATOM     54  N   UNL A   1      41.742  31.214  33.694  1.00  0.00    -0.248 NA
ATOM     55  C   UNL A   1      42.559  32.130  35.679  1.00  0.00     0.031 C 
ATOM     56  C   UNL A   1      43.520  27.699  31.644  1.00  0.00     0.029 A 
ATOM     57  C   UNL A   1      42.982  28.790  32.305  1.00  0.00     0.049 A 
ATOM     58  H   UNL A   1      41.264  29.920  31.828  1.00  0.00     0.167 HD
ATOM     59  C   UNL A   1      42.871  30.508  34.091  1.00  0.00     0.074 A 
ATOM     60  C   UNL A   1      43.352  31.137  35.302  1.00  0.00     0.031 C 
ATOM     61  C   UNL A   1      43.456  29.435  33.504  1.00  0.00     0.037 A 
BRANCH  48  62
ATOM     62  C   UNL A   1      40.542  27.425  28.439  1.00  0.00     0.057 A 
ATOM     63  C   UNL A   1      39.745  26.277  28.541  1.00  0.00     0.134 A 
ATOM     64  C   UNL A   1      41.247  27.616  27.243  1.00  0.00     0.134 A 
ATOM     65  F   UNL A   1      39.053  26.026  29.662  1.00  0.00    -0.206 F 
ATOM     66  C   UNL A   1      39.673  25.343  27.506  1.00  0.00     0.040 A 
ATOM     67  C   UNL A   1      41.159  26.704  26.189  1.00  0.00     0.040 A 
ATOM     68  F   UNL A   1      42.023  28.696  27.074  1.00  0.00    -0.206 F 
ATOM     69  C   UNL A   1      40.376  25.560  26.321  1.00  0.00     0.006 A 
ENDBRANCH  48  62
BRANCH  49  70
ATOM     70  C   UNL A   1      40.519  34.223  35.757  1.00  0.00     0.057 A 
ATOM     71  C   UNL A   1      39.834  33.963  36.950  1.00  0.00     0.134 A 
ATOM     72  C   UNL A   1      41.175  35.456  35.648  1.00  0.00     0.134 A 
ATOM     73  F   UNL A   1      39.172  32.808  37.109  1.00  0.00    -0.206 F 
ATOM     74  C   UNL A   1      39.779  34.901  37.983  1.00  0.00     0.040 A 
ATOM     75  C   UNL A   1      41.153  36.391  36.684  1.00  0.00     0.040 A 
ATOM     76  F   UNL A   1      41.857  35.765  34.534  1.00  0.00    -0.206 F 
ATOM     77  C   UNL A   1      40.444  36.118  37.852  1.00  0.00     0.006 A 
ENDBRANCH  49  70
BRANCH  61  78
ATOM     78  C   UNL A   1      44.712  28.903  34.134  1.00  0.00     0.057 A 
ATOM     79  C   UNL A   1      44.689  27.881  35.091  1.00  0.00     0.134 A 
ATOM     80  C   UNL A   1      45.965  29.394  33.743  1.00  0.00     0.134 A 
ATOM     81  F   UNL A   1      43.522  27.376  35.519  1.00  0.00    -0.206 F 
ATOM     82  C   UNL A   1      45.865  27.383  35.655  1.00  0.00     0.040 A 
ATOM     83  C   UNL A   1      47.148  28.883  34.276  1.00  0.00     0.040 A 
ATOM     84  F   UNL A   1      46.059  30.366  32.823  1.00  0.00    -0.206 F 
ATOM     85  C   UNL A   1      47.100  27.880  35.241  1.00  0.00     0.006 A 
ENDBRANCH  61  78
ENDBRANCH  35  36
ENDBRANCH  27  30
ENDBRANCH  25  26
ENDBRANCH  24  25
ENDBRANCH  23  24
ENDBRANCH  22  23
ENDBRANCH  21  22
ENDBRANCH   1  21
TORSDOF 19
ENDMDL
MODEL 3
REMARK VINA RESULT:      -9.3      5.600      9.990
REMARK SMILES C[C@@H](CNC(=O)N(C)CC(C)(C)O)C(=O)NCCCCCCNC(=O)c1ccc(-c2c3nc(c(-c4c(F)cccc4F)c4ccc([nH]4)c(-c4c(F)cccc4F)c4nc(c(-c5c(F)cccc5F)c5ccc2[nH]5)C=C4)C=C3)cc1
REMARK SMILES IDX 17 1 16 2 14 3 15 4 2 6 1 7 3 8 4 9 5 10 6 12 7 13 8 14 9 15
REMARK SMILES IDX 10 16 11 17 12 18 13 19 18 21 19 22 20 23 21 24 22 25 23 26
REMARK SMILES IDX 24 27 25 29 26 30 27 31 79 32 28 33 78 34 29 35 30 36 31 37
REMARK SMILES IDX 72 38 32 39 77 40 71 41 73 42 33 43 76 44 70 45 69 46 34 48
REMARK SMILES IDX 60 49 43 50 59 51 44 52 47 53 58 54 74 55 45 56 46 57 57 59
REMARK SMILES IDX 75 60 48 61 35 62 36 63 41 64 37 65 38 66 40 67 42 68 39 69
REMARK SMILES IDX 61 70 62 71 67 72 63 73 64 74 66 75 68 76 65 77 49 78 50 79
REMARK SMILES IDX 55 80 51 81 52 82 54 83 56 84 53 85
REMARK H PARENT 16 5 4 11 13 20 23 28 73 47 47 58
REMARK Flexibility Score: inf
ROOT
ATOM      1  C   UNL A   1      38.689  34.589  29.946  1.00  0.00     0.116 C 
ENDROOT
BRANCH   1   2
ATOM      2  N   UNL A   1      38.439  34.966  31.322  1.00  0.00    -0.356 N 
ATOM      3  C   UNL A   1      38.401  34.200  32.446  1.00  0.00     0.224 C 
ATOM      4  O   UNL A   1      38.481  34.786  33.531  1.00  0.00    -0.275 OA
ATOM      5  H   UNL A   1      38.271  35.925  31.466  1.00  0.00     0.163 HD
BRANCH   3   6
ATOM      6  C   UNL A   1      38.234  32.682  32.421  1.00  0.00     0.094 C 
ATOM      7  C   UNL A   1      39.558  31.920  32.517  1.00  0.00     0.020 C 
BRANCH   6   8
ATOM      8  C   UNL A   1      37.109  32.107  33.302  1.00  0.00     0.130 C 
BRANCH   8   9
ATOM      9  N   UNL A   1      35.774  32.186  32.745  1.00  0.00    -0.337 N 
ATOM     10  C   UNL A   1      34.777  33.081  32.663  1.00  0.00     0.317 C 
ATOM     11  H   UNL A   1      35.528  31.343  32.300  1.00  0.00     0.165 HD
ATOM     12  O   UNL A   1      33.698  32.572  32.337  1.00  0.00    -0.249 OA
BRANCH  10  13
ATOM     13  N   UNL A   1      34.892  34.410  32.925  1.00  0.00    -0.325 N 
ATOM     14  C   UNL A   1      35.053  35.054  34.220  1.00  0.00     0.148 C 
BRANCH  13  15
ATOM     15  C   UNL A   1      34.916  35.337  31.770  1.00  0.00     0.155 C 
BRANCH  15  16
ATOM     16  C   UNL A   1      33.618  36.150  31.457  1.00  0.00     0.077 C 
ATOM     17  C   UNL A   1      33.026  35.869  30.071  1.00  0.00     0.043 C 
ATOM     18  C   UNL A   1      32.550  35.790  32.503  1.00  0.00     0.043 C 
BRANCH  16  19
ATOM     19  O   UNL A   1      33.874  37.554  31.597  1.00  0.00    -0.389 OA
ATOM     20  H   UNL A   1      34.592  37.689  32.235  1.00  0.00     0.211 HD
ENDBRANCH  16  19
ENDBRANCH  15  16
ENDBRANCH  13  15
ENDBRANCH  10  13
ENDBRANCH   8   9
ENDBRANCH   6   8
ENDBRANCH   3   6
ENDBRANCH   1   2
BRANCH   1  21
ATOM     21  C   UNL A   1      40.147  34.266  29.647  1.00  0.00     0.021 C 
BRANCH  21  22
ATOM     22  C   UNL A   1      40.878  35.353  28.851  1.00  0.00     0.002 C 
BRANCH  22  23
ATOM     23  C   UNL A   1      42.410  35.344  28.954  1.00  0.00     0.002 C 
BRANCH  23  24
ATOM     24  C   UNL A   1      43.073  36.706  29.178  1.00  0.00     0.021 C 
BRANCH  24  25
ATOM     25  C   UNL A   1      43.851  36.836  30.482  1.00  0.00     0.116 C 
BRANCH  25  26
ATOM     26  N   UNL A   1      45.260  37.119  30.261  1.00  0.00    -0.352 N 
ATOM     27  C   UNL A   1      46.288  36.261  29.962  1.00  0.00     0.251 C 
ATOM     28  H   UNL A   1      45.514  38.067  30.337  1.00  0.00     0.163 HD
ATOM     29  O   UNL A   1      47.447  36.655  29.985  1.00  0.00    -0.269 OA
BRANCH  27  30
ATOM     30  C   UNL A   1      45.996  34.850  29.631  1.00  0.00     0.039 A 
ATOM     31  C   UNL A   1      45.926  33.916  30.668  1.00  0.00     0.014 A 
ATOM     32  C   UNL A   1      45.806  34.445  28.307  1.00  0.00     0.014 A 
ATOM     33  C   UNL A   1      45.611  32.586  30.381  1.00  0.00     0.010 A 
ATOM     34  C   UNL A   1      45.417  33.139  28.032  1.00  0.00     0.010 A 
ATOM     35  C   UNL A   1      45.322  32.194  29.064  1.00  0.00    -0.014 A 
BRANCH  35  36
ATOM     36  C   UNL A   1      44.926  30.799  28.746  1.00  0.00     0.031 A 
ATOM     37  C   UNL A   1      43.496  30.364  28.914  1.00  0.00     0.074 A 
ATOM     38  C   UNL A   1      45.863  29.910  28.364  1.00  0.00     0.049 A 
ATOM     39  N   UNL A   1      42.970  29.175  28.758  1.00  0.00    -0.248 NA
ATOM     40  C   UNL A   1      42.535  31.394  29.339  1.00  0.00     0.031 C 
ATOM     41  C   UNL A   1      47.290  30.201  28.204  1.00  0.00     0.029 A 
ATOM     42  N   UNL A   1      45.759  28.578  28.051  1.00  0.00    -0.354 N 
ATOM     43  C   UNL A   1      41.624  29.314  29.078  1.00  0.00     0.074 A 
ATOM     44  C   UNL A   1      41.427  30.685  29.491  1.00  0.00     0.031 C 
ATOM     45  C   UNL A   1      47.922  29.086  27.802  1.00  0.00     0.029 A 
ATOM     46  C   UNL A   1      46.958  27.995  27.718  1.00  0.00     0.049 A 
ATOM     47  H   UNL A   1      44.905  28.087  28.064  1.00  0.00     0.167 HD
ATOM     48  C   UNL A   1      40.639  28.387  29.010  1.00  0.00     0.037 A 
ATOM     49  C   UNL A   1      47.247  26.720  27.395  1.00  0.00     0.037 A 
ATOM     50  C   UNL A   1      40.838  27.027  28.581  1.00  0.00     0.049 A 
ATOM     51  C   UNL A   1      46.138  25.704  27.350  1.00  0.00     0.074 A 
ATOM     52  C   UNL A   1      39.895  26.025  28.428  1.00  0.00     0.029 A 
ATOM     53  N   UNL A   1      42.065  26.477  28.241  1.00  0.00    -0.354 N 
ATOM     54  N   UNL A   1      44.859  25.864  27.590  1.00  0.00    -0.248 NA
ATOM     55  C   UNL A   1      46.512  24.332  26.981  1.00  0.00     0.031 C 
ATOM     56  C   UNL A   1      40.559  24.855  28.047  1.00  0.00     0.029 A 
ATOM     57  C   UNL A   1      41.906  25.143  27.903  1.00  0.00     0.049 A 
ATOM     58  H   UNL A   1      42.922  26.962  28.240  1.00  0.00     0.167 HD
ATOM     59  C   UNL A   1      44.272  24.625  27.368  1.00  0.00     0.074 A 
ATOM     60  C   UNL A   1      45.333  23.727  26.963  1.00  0.00     0.031 C 
ATOM     61  C   UNL A   1      42.971  24.264  27.489  1.00  0.00     0.037 A 
BRANCH  48  62
ATOM     62  C   UNL A   1      39.255  28.812  29.410  1.00  0.00     0.057 A 
ATOM     63  C   UNL A   1      38.779  28.647  30.718  1.00  0.00     0.134 A 
ATOM     64  C   UNL A   1      38.402  29.430  28.487  1.00  0.00     0.134 A 
ATOM     65  F   UNL A   1      39.540  28.053  31.650  1.00  0.00    -0.206 F 
ATOM     66  C   UNL A   1      37.495  29.056  31.085  1.00  0.00     0.040 A 
ATOM     67  C   UNL A   1      37.128  29.872  28.851  1.00  0.00     0.040 A 
ATOM     68  F   UNL A   1      38.795  29.627  27.220  1.00  0.00    -0.206 F 
ATOM     69  C   UNL A   1      36.669  29.678  30.151  1.00  0.00     0.006 A 
ENDBRANCH  48  62
BRANCH  49  70
ATOM     70  C   UNL A   1      48.645  26.330  27.074  1.00  0.00     0.057 A 
ATOM     71  C   UNL A   1      49.142  26.427  25.769  1.00  0.00     0.134 A 
ATOM     72  C   UNL A   1      49.509  25.832  28.057  1.00  0.00     0.134 A 
ATOM     73  F   UNL A   1      48.357  26.880  24.781  1.00  0.00    -0.206 F 
ATOM     74  C   UNL A   1      50.438  26.021  25.447  1.00  0.00     0.040 A 
ATOM     75  C   UNL A   1      50.817  25.449  27.754  1.00  0.00     0.040 A 
ATOM     76  F   UNL A   1      49.098  25.720  29.329  1.00  0.00    -0.206 F 
ATOM     77  C   UNL A   1      51.281  25.534  26.443  1.00  0.00     0.006 A 
ENDBRANCH  49  70
BRANCH  61  78
ATOM     78  C   UNL A   1      42.612  22.850  27.131  1.00  0.00     0.057 A 
ATOM     79  C   UNL A   1      42.586  22.402  25.804  1.00  0.00     0.134 A 
ATOM     80  C   UNL A   1      42.330  21.913  28.135  1.00  0.00     0.134 A 
ATOM     81  F   UNL A   1      42.833  23.251  24.795  1.00  0.00    -0.206 F 
ATOM     82  C   UNL A   1      42.267  21.080  25.487  1.00  0.00     0.040 A 
ATOM     83  C   UNL A   1      42.042  20.583  27.832  1.00  0.00     0.040 A 
ATOM     84  F   UNL A   1      42.348  22.273  29.427  1.00  0.00    -0.206 F 
ATOM     85  C   UNL A   1      42.002  20.165  26.504  1.00  0.00     0.006 A 
ENDBRANCH  61  78
ENDBRANCH  35  36
ENDBRANCH  27  30
ENDBRANCH  25  26
ENDBRANCH  24  25
ENDBRANCH  23  24
ENDBRANCH  22  23
ENDBRANCH  21  22
ENDBRANCH   1  21
TORSDOF 19
ENDMDL
