MODEL 1
REMARK VINA RESULT:     -11.5      0.000      0.000
REMARK SMILES CC1(C)CN(CC(=O)NCCCCCCNC(=O)c2ccc(-c3c4nc(c(-c5c(F)cccc5F)c5ccc([nH]5)c(-c5c(F)cccc5F)c5nc(c(-c6c(F)cccc6F)c6ccc3[nH]6)C=C5)C=C4)cc2)c2ccc(S(=O)(=O)N3CCCCC3)cc21
REMARK SMILES IDX 12 1 11 2 10 3 9 4 7 5 8 6 6 8 5 9 1 10 2 11 3 12 4 13 87 14
REMARK SMILES IDX 73 15 86 16 74 17 76 18 75 19 77 20 78 21 79 22 80 23 81 24
REMARK SMILES IDX 85 25 82 26 84 27 83 28 13 29 14 30 15 31 16 32 17 33 18 35
REMARK SMILES IDX 19 36 20 37 72 38 21 39 71 40 22 41 23 42 24 43 65 44 25 45
REMARK SMILES IDX 70 46 64 47 66 48 26 49 69 50 63 51 62 52 27 54 53 55 36 56
REMARK SMILES IDX 52 57 37 58 40 59 51 60 67 61 38 62 39 63 50 65 68 66 41 67
REMARK SMILES IDX 28 68 29 69 34 70 30 71 31 72 33 73 35 74 32 75 54 76 55 77
REMARK SMILES IDX 60 78 56 79 57 80 59 81 61 82 58 83 42 84 43 85 48 86 44 87
REMARK SMILES IDX 45 88 47 89 49 90 46 91
REMARK H PARENT 9 7 16 34 66 53 40 64
REMARK Flexibility Score: inf
ROOT
ATOM      1  C   UNL A   1      34.791  32.519  29.105  1.00  0.00     0.002 C 
ENDROOT
BRANCH   1   2
ATOM      2  C   UNL A   1      35.579  31.648  28.115  1.00  0.00     0.021 C 
BRANCH   2   3
ATOM      3  C   UNL A   1      34.817  30.423  27.610  1.00  0.00     0.116 C 
BRANCH   3   4
ATOM      4  N   UNL A   1      33.386  30.637  27.624  1.00  0.00    -0.355 N 
ATOM      5  C   UNL A   1      32.486  30.404  26.621  1.00  0.00     0.239 C 
ATOM      6  O   UNL A   1      31.308  30.718  26.814  1.00  0.00    -0.273 OA
ATOM      7  H   UNL A   1      33.013  30.997  28.461  1.00  0.00     0.163 HD
BRANCH   5   8
ATOM      8  C   UNL A   1      32.927  29.704  25.329  1.00  0.00     0.216 C 
BRANCH   8   9
ATOM      9  N   UNL A   1      32.105  28.556  24.961  1.00  0.00    -0.361 N 
ATOM     10  C   UNL A   1      29.234  26.876  23.770  1.00  0.00     0.018 C 
ATOM     11  C   UNL A   1      30.704  27.197  23.492  1.00  0.00     0.009 C 
ATOM     12  C   UNL A   1      31.030  26.994  22.007  1.00  0.00     0.018 C 
ATOM     13  C   UNL A   1      31.064  28.649  23.936  1.00  0.00     0.128 C 
ATOM     14  C   UNL A   1      31.637  26.382  24.353  1.00  0.00    -0.016 A 
ATOM     15  C   UNL A   1      32.447  27.230  25.113  1.00  0.00     0.041 A 
ATOM     16  C   UNL A   1      31.775  24.999  24.396  1.00  0.00     0.028 A 
ATOM     17  C   UNL A   1      33.447  26.686  25.900  1.00  0.00     0.027 A 
ATOM     18  C   UNL A   1      32.772  24.450  25.212  1.00  0.00     0.083 A 
ATOM     19  C   UNL A   1      33.613  25.295  25.946  1.00  0.00     0.024 A 
BRANCH  18  20
ATOM     20  S   UNL A   1      32.913  22.670  25.210  1.00  0.00     0.243 S 
ATOM     21  O   UNL A   1      32.654  22.245  26.570  1.00  0.00    -0.207 OA
ATOM     22  O   UNL A   1      32.087  22.208  24.113  1.00  0.00    -0.207 OA
BRANCH  20  23
ATOM     23  N   UNL A   1      34.527  22.266  24.829  1.00  0.00    -0.198 NA
ATOM     24  C   UNL A   1      35.232  23.189  23.909  1.00  0.00     0.102 C 
ATOM     25  C   UNL A   1      35.320  21.613  25.899  1.00  0.00     0.102 C 
ATOM     26  C   UNL A   1      36.550  22.600  23.423  1.00  0.00     0.017 C 
ATOM     27  C   UNL A   1      36.649  21.079  25.377  1.00  0.00     0.017 C 
ATOM     28  C   UNL A   1      37.407  22.138  24.591  1.00  0.00     0.003 C 
ENDBRANCH  20  23
ENDBRANCH  18  20
ENDBRANCH   8   9
ENDBRANCH   5   8
ENDBRANCH   3   4
ENDBRANCH   2   3
ENDBRANCH   1   2
BRANCH   1  29
ATOM     29  C   UNL A   1      35.020  34.031  28.990  1.00  0.00     0.002 C 
BRANCH  29  30
ATOM     30  C   UNL A   1      33.757  34.876  28.809  1.00  0.00     0.021 C 
BRANCH  30  31
ATOM     31  C   UNL A   1      33.655  36.092  29.724  1.00  0.00     0.116 C 
BRANCH  31  32
ATOM     32  N   UNL A   1      32.548  36.006  30.664  1.00  0.00    -0.352 N 
ATOM     33  C   UNL A   1      32.511  35.426  31.912  1.00  0.00     0.251 C 
ATOM     34  H   UNL A   1      31.707  36.421  30.365  1.00  0.00     0.163 HD
ATOM     35  O   UNL A   1      31.451  35.328  32.521  1.00  0.00    -0.269 OA
BRANCH  33  36
ATOM     36  C   UNL A   1      33.752  34.873  32.498  1.00  0.00     0.039 A 
ATOM     37  C   UNL A   1      34.944  35.600  32.463  1.00  0.00     0.014 A 
ATOM     38  C   UNL A   1      33.729  33.589  33.052  1.00  0.00     0.014 A 
ATOM     39  C   UNL A   1      36.139  34.977  32.810  1.00  0.00     0.010 A 
ATOM     40  C   UNL A   1      34.922  32.993  33.472  1.00  0.00     0.010 A 
ATOM     41  C   UNL A   1      36.145  33.658  33.294  1.00  0.00    -0.014 A 
BRANCH  41  42
ATOM     42  C   UNL A   1      37.444  32.982  33.547  1.00  0.00     0.031 A 
ATOM     43  C   UNL A   1      38.188  33.216  34.838  1.00  0.00     0.074 A 
ATOM     44  C   UNL A   1      37.920  32.094  32.655  1.00  0.00     0.049 A 
ATOM     45  N   UNL A   1      39.294  32.660  35.267  1.00  0.00    -0.248 NA
ATOM     46  C   UNL A   1      37.618  34.204  35.765  1.00  0.00     0.031 C 
ATOM     47  C   UNL A   1      37.291  31.767  31.375  1.00  0.00     0.029 A 
ATOM     48  N   UNL A   1      39.023  31.281  32.704  1.00  0.00    -0.354 N 
ATOM     49  C   UNL A   1      39.560  33.243  36.501  1.00  0.00     0.074 A 
ATOM     50  C   UNL A   1      38.518  34.218  36.737  1.00  0.00     0.031 C 
ATOM     51  C   UNL A   1      37.983  30.778  30.788  1.00  0.00     0.029 A 
ATOM     52  C   UNL A   1      39.128  30.437  31.626  1.00  0.00     0.049 A 
ATOM     53  H   UNL A   1      39.676  31.300  33.440  1.00  0.00     0.167 HD
ATOM     54  C   UNL A   1      40.571  32.983  37.366  1.00  0.00     0.037 A 
ATOM     55  C   UNL A   1      40.042  29.490  31.345  1.00  0.00     0.037 A 
ATOM     56  C   UNL A   1      41.599  32.000  37.148  1.00  0.00     0.049 A 
ATOM     57  C   UNL A   1      41.172  29.247  32.303  1.00  0.00     0.074 A 
ATOM     58  C   UNL A   1      42.648  31.644  37.979  1.00  0.00     0.029 A 
ATOM     59  N   UNL A   1      41.707  31.212  36.012  1.00  0.00    -0.354 N 
ATOM     60  N   UNL A   1      41.400  29.794  33.472  1.00  0.00    -0.248 NA
ATOM     61  C   UNL A   1      42.179  28.258  31.894  1.00  0.00     0.031 C 
ATOM     62  C   UNL A   1      43.411  30.666  37.330  1.00  0.00     0.029 A 
ATOM     63  C   UNL A   1      42.816  30.387  36.110  1.00  0.00     0.049 A 
ATOM     64  H   UNL A   1      41.088  31.236  35.246  1.00  0.00     0.167 HD
ATOM     65  C   UNL A   1      42.565  29.207  33.945  1.00  0.00     0.074 A 
ATOM     66  C   UNL A   1      42.987  28.248  32.945  1.00  0.00     0.031 C 
ATOM     67  C   UNL A   1      43.226  29.441  35.105  1.00  0.00     0.037 A 
BRANCH  54  68
ATOM     68  C   UNL A   1      40.618  33.798  38.625  1.00  0.00     0.057 A 
ATOM     69  C   UNL A   1      39.869  33.421  39.747  1.00  0.00     0.134 A 
ATOM     70  C   UNL A   1      41.400  34.955  38.731  1.00  0.00     0.134 A 
ATOM     71  F   UNL A   1      39.095  32.326  39.713  1.00  0.00    -0.206 F 
ATOM     72  C   UNL A   1      39.903  34.161  40.930  1.00  0.00     0.040 A 
ATOM     73  C   UNL A   1      41.460  35.691  39.916  1.00  0.00     0.040 A 
ATOM     74  F   UNL A   1      42.153  35.363  37.697  1.00  0.00    -0.206 F 
ATOM     75  C   UNL A   1      40.708  35.295  41.020  1.00  0.00     0.006 A 
ENDBRANCH  54  68
BRANCH  55  76
ATOM     76  C   UNL A   1      39.914  28.684  30.108  1.00  0.00     0.057 A 
ATOM     77  C   UNL A   1      40.534  29.072  28.916  1.00  0.00     0.134 A 
ATOM     78  C   UNL A   1      39.164  27.503  30.095  1.00  0.00     0.134 A 
ATOM     79  F   UNL A   1      41.265  30.195  28.867  1.00  0.00    -0.206 F 
ATOM     80  C   UNL A   1      40.402  28.320  27.748  1.00  0.00     0.040 A 
ATOM     81  C   UNL A   1      39.040  26.730  28.940  1.00  0.00     0.040 A 
ATOM     82  F   UNL A   1      38.564  27.072  31.214  1.00  0.00    -0.206 F 
ATOM     83  C   UNL A   1      39.658  27.142  27.760  1.00  0.00     0.006 A 
ENDBRANCH  55  76
BRANCH  67  84
ATOM     84  C   UNL A   1      44.462  28.629  35.354  1.00  0.00     0.057 A 
ATOM     85  C   UNL A   1      45.709  29.063  34.888  1.00  0.00     0.134 A 
ATOM     86  C   UNL A   1      44.417  27.417  36.054  1.00  0.00     0.134 A 
ATOM     87  F   UNL A   1      45.819  30.214  34.208  1.00  0.00    -0.206 F 
ATOM     88  C   UNL A   1      46.869  28.322  35.113  1.00  0.00     0.040 A 
ATOM     89  C   UNL A   1      45.573  26.676  36.303  1.00  0.00     0.040 A 
ATOM     90  F   UNL A   1      43.254  26.956  36.539  1.00  0.00    -0.206 F 
ATOM     91  C   UNL A   1      46.804  27.128  35.829  1.00  0.00     0.006 A 
ENDBRANCH  67  84
ENDBRANCH  41  42
ENDBRANCH  33  36
ENDBRANCH  31  32
ENDBRANCH  30  31
ENDBRANCH  29  30
ENDBRANCH   1  29
TORSDOF 16
ENDMDL
MODEL 2
REMARK VINA RESULT:     -11.1      7.321     11.385
REMARK SMILES CC1(C)CN(CC(=O)NCCCCCCNC(=O)c2ccc(-c3c4nc(c(-c5c(F)cccc5F)c5ccc([nH]5)c(-c5c(F)cccc5F)c5nc(c(-c6c(F)cccc6F)c6ccc3[nH]6)C=C5)C=C4)cc2)c2ccc(S(=O)(=O)N3CCCCC3)cc21
REMARK SMILES IDX 12 1 11 2 10 3 9 4 7 5 8 6 6 8 5 9 1 10 2 11 3 12 4 13 87 14
REMARK SMILES IDX 73 15 86 16 74 17 76 18 75 19 77 20 78 21 79 22 80 23 81 24
REMARK SMILES IDX 85 25 82 26 84 27 83 28 13 29 14 30 15 31 16 32 17 33 18 35
REMARK SMILES IDX 19 36 20 37 72 38 21 39 71 40 22 41 23 42 24 43 65 44 25 45
REMARK SMILES IDX 70 46 64 47 66 48 26 49 69 50 63 51 62 52 27 54 53 55 36 56
REMARK SMILES IDX 52 57 37 58 40 59 51 60 67 61 38 62 39 63 50 65 68 66 41 67
REMARK SMILES IDX 28 68 29 69 34 70 30 71 31 72 33 73 35 74 32 75 54 76 55 77
REMARK SMILES IDX 60 78 56 79 57 80 59 81 61 82 58 83 42 84 43 85 48 86 44 87
REMARK SMILES IDX 45 88 47 89 49 90 46 91
REMARK H PARENT 9 7 16 34 66 53 40 64
REMARK Flexibility Score: inf
ROOT
ATOM      1  C   UNL A   1      40.264  27.325  27.420  1.00  0.00     0.002 C 
ENDROOT
BRANCH   1   2
ATOM      2  C   UNL A   1      39.949  28.815  27.613  1.00  0.00     0.021 C 
BRANCH   2   3
ATOM      3  C   UNL A   1      40.711  29.476  28.762  1.00  0.00     0.116 C 
BRANCH   3   4
ATOM      4  N   UNL A   1      39.925  29.513  29.977  1.00  0.00    -0.355 N 
ATOM      5  C   UNL A   1      39.050  30.479  30.389  1.00  0.00     0.239 C 
ATOM      6  O   UNL A   1      38.525  30.350  31.499  1.00  0.00    -0.273 OA
ATOM      7  H   UNL A   1      40.036  28.745  30.584  1.00  0.00     0.163 HD
BRANCH   5   8
ATOM      8  C   UNL A   1      38.683  31.643  29.459  1.00  0.00     0.216 C 
BRANCH   8   9
ATOM      9  N   UNL A   1      37.254  31.927  29.394  1.00  0.00    -0.361 N 
ATOM     10  C   UNL A   1      34.244  33.603  30.181  1.00  0.00     0.018 C 
ATOM     11  C   UNL A   1      35.270  33.318  29.081  1.00  0.00     0.009 C 
ATOM     12  C   UNL A   1      35.172  34.367  27.966  1.00  0.00     0.018 C 
ATOM     13  C   UNL A   1      36.720  33.265  29.654  1.00  0.00     0.128 C 
ATOM     14  C   UNL A   1      35.122  31.929  28.513  1.00  0.00    -0.016 A 
ATOM     15  C   UNL A   1      36.316  31.220  28.672  1.00  0.00     0.041 A 
ATOM     16  C   UNL A   1      34.024  31.381  27.860  1.00  0.00     0.028 A 
ATOM     17  C   UNL A   1      36.430  29.953  28.127  1.00  0.00     0.027 A 
ATOM     18  C   UNL A   1      34.133  30.090  27.331  1.00  0.00     0.083 A 
ATOM     19  C   UNL A   1      35.339  29.389  27.452  1.00  0.00     0.024 A 
BRANCH  18  20
ATOM     20  S   UNL A   1      32.695  29.449  26.487  1.00  0.00     0.243 S 
ATOM     21  O   UNL A   1      32.042  28.560  27.426  1.00  0.00    -0.207 OA
ATOM     22  O   UNL A   1      32.006  30.604  25.946  1.00  0.00    -0.207 OA
BRANCH  20  23
ATOM     23  N   UNL A   1      33.230  28.516  25.162  1.00  0.00    -0.198 NA
ATOM     24  C   UNL A   1      33.020  27.053  25.265  1.00  0.00     0.102 C 
ATOM     25  C   UNL A   1      33.119  29.139  23.821  1.00  0.00     0.102 C 
ATOM     26  C   UNL A   1      33.769  26.298  24.175  1.00  0.00     0.017 C 
ATOM     27  C   UNL A   1      33.845  28.327  22.754  1.00  0.00     0.017 C 
ATOM     28  C   UNL A   1      33.445  26.861  22.800  1.00  0.00     0.003 C 
ENDBRANCH  20  23
ENDBRANCH  18  20
ENDBRANCH   8   9
ENDBRANCH   5   8
ENDBRANCH   3   4
ENDBRANCH   2   3
ENDBRANCH   1   2
BRANCH   1  29
ATOM     29  C   UNL A   1      39.749  26.387  28.518  1.00  0.00     0.002 C 
BRANCH  29  30
ATOM     30  C   UNL A   1      39.301  25.003  28.047  1.00  0.00     0.021 C 
BRANCH  30  31
ATOM     31  C   UNL A   1      39.666  24.658  26.607  1.00  0.00     0.116 C 
BRANCH  31  32
ATOM     32  N   UNL A   1      40.539  23.499  26.503  1.00  0.00    -0.352 N 
ATOM     33  C   UNL A   1      41.906  23.451  26.346  1.00  0.00     0.251 C 
ATOM     34  H   UNL A   1      40.089  22.625  26.553  1.00  0.00     0.163 HD
ATOM     35  O   UNL A   1      42.472  22.383  26.145  1.00  0.00    -0.269 OA
BRANCH  33  36
ATOM     36  C   UNL A   1      42.689  24.708  26.373  1.00  0.00     0.039 A 
ATOM     37  C   UNL A   1      42.846  25.476  25.218  1.00  0.00     0.014 A 
ATOM     38  C   UNL A   1      43.309  25.096  27.565  1.00  0.00     0.014 A 
ATOM     39  C   UNL A   1      43.765  26.522  25.208  1.00  0.00     0.010 A 
ATOM     40  C   UNL A   1      44.174  26.195  27.571  1.00  0.00     0.010 A 
ATOM     41  C   UNL A   1      44.459  26.876  26.378  1.00  0.00    -0.014 A 
BRANCH  41  42
ATOM     42  C   UNL A   1      45.515  27.919  26.309  1.00  0.00     0.031 A 
ATOM     43  C   UNL A   1      45.171  29.370  26.531  1.00  0.00     0.074 A 
ATOM     44  C   UNL A   1      46.799  27.558  26.126  1.00  0.00     0.049 A 
ATOM     45  N   UNL A   1      45.967  30.410  26.584  1.00  0.00    -0.248 NA
ATOM     46  C   UNL A   1      43.750  29.697  26.717  1.00  0.00     0.031 C 
ATOM     47  C   UNL A   1      47.266  26.188  25.912  1.00  0.00     0.029 A 
ATOM     48  N   UNL A   1      47.947  28.308  26.125  1.00  0.00    -0.354 N 
ATOM     49  C   UNL A   1      45.143  31.511  26.788  1.00  0.00     0.074 A 
ATOM     50  C   UNL A   1      43.784  31.017  26.819  1.00  0.00     0.031 C 
ATOM     51  C   UNL A   1      48.607  26.187  25.862  1.00  0.00     0.029 A 
ATOM     52  C   UNL A   1      49.089  27.559  25.993  1.00  0.00     0.049 A 
ATOM     53  H   UNL A   1      47.951  29.289  26.211  1.00  0.00     0.167 HD
ATOM     54  C   UNL A   1      45.485  32.813  26.949  1.00  0.00     0.037 A 
ATOM     55  C   UNL A   1      50.382  27.932  25.982  1.00  0.00     0.037 A 
ATOM     56  C   UNL A   1      46.836  33.309  26.941  1.00  0.00     0.049 A 
ATOM     57  C   UNL A   1      50.731  29.385  26.126  1.00  0.00     0.074 A 
ATOM     58  C   UNL A   1      47.284  34.606  27.125  1.00  0.00     0.029 A 
ATOM     59  N   UNL A   1      47.961  32.525  26.737  1.00  0.00    -0.354 N 
ATOM     60  N   UNL A   1      49.943  30.410  26.336  1.00  0.00    -0.248 NA
ATOM     61  C   UNL A   1      52.156  29.731  26.022  1.00  0.00     0.031 C 
ATOM     62  C   UNL A   1      48.678  34.612  26.997  1.00  0.00     0.029 A 
ATOM     63  C   UNL A   1      49.101  33.313  26.769  1.00  0.00     0.049 A 
ATOM     64  H   UNL A   1      47.953  31.551  26.589  1.00  0.00     0.167 HD
ATOM     65  C   UNL A   1      50.773  31.521  26.404  1.00  0.00     0.074 A 
ATOM     66  C   UNL A   1      52.130  31.040  26.232  1.00  0.00     0.031 C 
ATOM     67  C   UNL A   1      50.443  32.821  26.592  1.00  0.00     0.037 A 
BRANCH  54  68
ATOM     68  C   UNL A   1      44.365  33.795  27.129  1.00  0.00     0.057 A 
ATOM     69  C   UNL A   1      43.857  34.072  28.405  1.00  0.00     0.134 A 
ATOM     70  C   UNL A   1      43.786  34.466  26.044  1.00  0.00     0.134 A 
ATOM     71  F   UNL A   1      44.363  33.462  29.487  1.00  0.00    -0.206 F 
ATOM     72  C   UNL A   1      42.820  34.987  28.595  1.00  0.00     0.040 A 
ATOM     73  C   UNL A   1      42.763  35.400  26.224  1.00  0.00     0.040 A 
ATOM     74  F   UNL A   1      44.236  34.257  24.797  1.00  0.00    -0.206 F 
ATOM     75  C   UNL A   1      42.277  35.661  27.503  1.00  0.00     0.006 A 
ENDBRANCH  54  68
BRANCH  55  76
ATOM     76  C   UNL A   1      51.446  26.909  25.850  1.00  0.00     0.057 A 
ATOM     77  C   UNL A   1      52.031  26.313  26.971  1.00  0.00     0.134 A 
ATOM     78  C   UNL A   1      51.901  26.507  24.589  1.00  0.00     0.134 A 
ATOM     79  F   UNL A   1      51.636  26.660  28.205  1.00  0.00    -0.206 F 
ATOM     80  C   UNL A   1      53.042  25.360  26.846  1.00  0.00     0.040 A 
ATOM     81  C   UNL A   1      52.897  25.540  24.448  1.00  0.00     0.040 A 
ATOM     82  F   UNL A   1      51.363  27.031  23.478  1.00  0.00    -0.206 F 
ATOM     83  C   UNL A   1      53.474  24.967  25.581  1.00  0.00     0.006 A 
ENDBRANCH  55  76
BRANCH  67  84
ATOM     84  C   UNL A   1      51.573  33.806  26.639  1.00  0.00     0.057 A 
ATOM     85  C   UNL A   1      52.202  34.114  27.852  1.00  0.00     0.134 A 
ATOM     86  C   UNL A   1      52.036  34.451  25.485  1.00  0.00     0.134 A 
ATOM     87  F   UNL A   1      51.803  33.534  28.993  1.00  0.00    -0.206 F 
ATOM     88  C   UNL A   1      53.255  35.026  27.914  1.00  0.00     0.040 A 
ATOM     89  C   UNL A   1      53.103  35.349  25.532  1.00  0.00     0.040 A 
ATOM     90  F   UNL A   1      51.485  34.185  24.291  1.00  0.00    -0.206 F 
ATOM     91  C   UNL A   1      53.714  35.641  26.750  1.00  0.00     0.006 A 
ENDBRANCH  67  84
ENDBRANCH  41  42
ENDBRANCH  33  36
ENDBRANCH  31  32
ENDBRANCH  30  31
ENDBRANCH  29  30
ENDBRANCH   1  29
TORSDOF 16
ENDMDL
MODEL 3
REMARK VINA RESULT:     -11.0      7.640     12.516
REMARK SMILES CC1(C)CN(CC(=O)NCCCCCCNC(=O)c2ccc(-c3c4nc(c(-c5c(F)cccc5F)c5ccc([nH]5)c(-c5c(F)cccc5F)c5nc(c(-c6c(F)cccc6F)c6ccc3[nH]6)C=C5)C=C4)cc2)c2ccc(S(=O)(=O)N3CCCCC3)cc21
REMARK SMILES IDX 12 1 11 2 10 3 9 4 7 5 8 6 6 8 5 9 1 10 2 11 3 12 4 13 87 14
REMARK SMILES IDX 73 15 86 16 74 17 76 18 75 19 77 20 78 21 79 22 80 23 81 24
REMARK SMILES IDX 85 25 82 26 84 27 83 28 13 29 14 30 15 31 16 32 17 33 18 35
REMARK SMILES IDX 19 36 20 37 72 38 21 39 71 40 22 41 23 42 24 43 65 44 25 45
REMARK SMILES IDX 70 46 64 47 66 48 26 49 69 50 63 51 62 52 27 54 53 55 36 56
REMARK SMILES IDX 52 57 37 58 40 59 51 60 67 61 38 62 39 63 50 65 68 66 41 67
REMARK SMILES IDX 28 68 29 69 34 70 30 71 31 72 33 73 35 74 32 75 54 76 55 77
REMARK SMILES IDX 60 78 56 79 57 80 59 81 61 82 58 83 42 84 43 85 48 86 44 87
REMARK SMILES IDX 45 88 47 89 49 90 46 91
REMARK H PARENT 9 7 16 34 66 53 40 64
REMARK Flexibility Score: inf
ROOT
ATOM      1  C   UNL A   1      37.416  21.991  25.648  1.00  0.00     0.002 C 
ENDROOT
BRANCH   1   2
ATOM      2  C   UNL A   1      36.894  20.696  25.009  1.00  0.00     0.021 C 
BRANCH   2   3
ATOM      3  C   UNL A   1      35.400  20.711  24.686  1.00  0.00     0.116 C 
BRANCH   3   4
ATOM      4  N   UNL A   1      34.771  19.445  24.996  1.00  0.00    -0.355 N 
ATOM      5  C   UNL A   1      33.507  19.029  24.680  1.00  0.00     0.239 C 
ATOM      6  O   UNL A   1      33.138  17.927  25.097  1.00  0.00    -0.273 OA
ATOM      7  H   UNL A   1      35.322  18.803  25.498  1.00  0.00     0.163 HD
BRANCH   5   8
ATOM      8  C   UNL A   1      32.613  19.882  23.771  1.00  0.00     0.216 C 
BRANCH   8   9
ATOM      9  N   UNL A   1      32.180  21.140  24.369  1.00  0.00    -0.361 N 
ATOM     10  C   UNL A   1      30.436  23.221  26.630  1.00  0.00     0.018 C 
ATOM     11  C   UNL A   1      31.817  22.737  26.182  1.00  0.00     0.009 C 
ATOM     12  C   UNL A   1      32.858  22.977  27.283  1.00  0.00     0.018 C 
ATOM     13  C   UNL A   1      31.789  21.230  25.777  1.00  0.00     0.128 C 
ATOM     14  C   UNL A   1      32.256  23.384  24.892  1.00  0.00    -0.016 A 
ATOM     15  C   UNL A   1      32.505  22.404  23.927  1.00  0.00     0.041 A 
ATOM     16  C   UNL A   1      32.465  24.736  24.638  1.00  0.00     0.028 A 
ATOM     17  C   UNL A   1      33.017  22.778  22.698  1.00  0.00     0.027 A 
ATOM     18  C   UNL A   1      32.960  25.113  23.385  1.00  0.00     0.083 A 
ATOM     19  C   UNL A   1      33.249  24.133  22.428  1.00  0.00     0.024 A 
BRANCH  18  20
ATOM     20  S   UNL A   1      33.225  26.861  23.126  1.00  0.00     0.243 S 
ATOM     21  O   UNL A   1      34.135  27.288  24.169  1.00  0.00    -0.207 OA
ATOM     22  O   UNL A   1      33.571  27.006  21.726  1.00  0.00    -0.207 OA
BRANCH  20  23
ATOM     23  N   UNL A   1      31.738  27.663  23.362  1.00  0.00    -0.198 NA
ATOM     24  C   UNL A   1      31.812  29.129  23.570  1.00  0.00     0.102 C 
ATOM     25  C   UNL A   1      30.567  27.126  22.628  1.00  0.00     0.102 C 
ATOM     26  C   UNL A   1      30.479  29.698  24.040  1.00  0.00     0.017 C 
ATOM     27  C   UNL A   1      29.261  27.756  23.100  1.00  0.00     0.017 C 
ATOM     28  C   UNL A   1      29.347  29.274  23.118  1.00  0.00     0.003 C 
ENDBRANCH  20  23
ENDBRANCH  18  20
ENDBRANCH   8   9
ENDBRANCH   5   8
ENDBRANCH   3   4
ENDBRANCH   2   3
ENDBRANCH   1   2
BRANCH   1  29
ATOM     29  C   UNL A   1      38.877  21.964  26.112  1.00  0.00     0.002 C 
BRANCH  29  30
ATOM     30  C   UNL A   1      39.310  23.135  26.997  1.00  0.00     0.021 C 
BRANCH  30  31
ATOM     31  C   UNL A   1      40.673  23.731  26.663  1.00  0.00     0.116 C 
BRANCH  31  32
ATOM     32  N   UNL A   1      41.580  22.770  26.054  1.00  0.00    -0.352 N 
ATOM     33  C   UNL A   1      42.882  22.944  25.643  1.00  0.00     0.251 C 
ATOM     34  H   UNL A   1      41.210  21.868  25.916  1.00  0.00     0.163 HD
ATOM     35  O   UNL A   1      43.464  22.059  25.026  1.00  0.00    -0.269 OA
BRANCH  33  36
ATOM     36  C   UNL A   1      43.566  24.230  25.907  1.00  0.00     0.039 A 
ATOM     37  C   UNL A   1      43.615  25.227  24.931  1.00  0.00     0.014 A 
ATOM     38  C   UNL A   1      44.205  24.420  27.137  1.00  0.00     0.014 A 
ATOM     39  C   UNL A   1      44.449  26.327  25.113  1.00  0.00     0.010 A 
ATOM     40  C   UNL A   1      44.982  25.564  27.347  1.00  0.00     0.010 A 
ATOM     41  C   UNL A   1      45.163  26.494  26.312  1.00  0.00    -0.014 A 
BRANCH  41  42
ATOM     42  C   UNL A   1      46.132  27.614  26.432  1.00  0.00     0.031 A 
ATOM     43  C   UNL A   1      47.609  27.369  26.259  1.00  0.00     0.074 A 
ATOM     44  C   UNL A   1      45.681  28.869  26.617  1.00  0.00     0.049 A 
ATOM     45  N   UNL A   1      48.596  28.231  26.254  1.00  0.00    -0.248 NA
ATOM     46  C   UNL A   1      48.035  25.975  26.067  1.00  0.00     0.031 C 
ATOM     47  C   UNL A   1      44.277  29.243  26.786  1.00  0.00     0.029 A 
ATOM     48  N   UNL A   1      46.354  30.063  26.660  1.00  0.00    -0.354 N 
ATOM     49  C   UNL A   1      49.755  27.484  26.081  1.00  0.00     0.074 A 
ATOM     50  C   UNL A   1      49.353  26.096  26.015  1.00  0.00     0.031 C 
ATOM     51  C   UNL A   1      44.186  30.581  26.853  1.00  0.00     0.029 A 
ATOM     52  C   UNL A   1      45.527  31.152  26.779  1.00  0.00     0.049 A 
ATOM     53  H   UNL A   1      47.334  30.133  26.610  1.00  0.00     0.167 HD
ATOM     54  C   UNL A   1      51.037  27.912  25.972  1.00  0.00     0.037 A 
ATOM     55  C   UNL A   1      45.814  32.466  26.819  1.00  0.00     0.037 A 
ATOM     56  C   UNL A   1      51.442  29.292  26.015  1.00  0.00     0.049 A 
ATOM     57  C   UNL A   1      47.246  32.911  26.733  1.00  0.00     0.074 A 
ATOM     58  C   UNL A   1      52.714  29.826  25.885  1.00  0.00     0.029 A 
ATOM     59  N   UNL A   1      50.580  30.361  26.204  1.00  0.00    -0.354 N 
ATOM     60  N   UNL A   1      48.327  32.195  26.552  1.00  0.00    -0.248 NA
ATOM     61  C   UNL A   1      47.494  34.354  26.868  1.00  0.00     0.031 C 
ATOM     62  C   UNL A   1      52.624  31.215  26.030  1.00  0.00     0.029 A 
ATOM     63  C   UNL A   1      51.292  31.549  26.215  1.00  0.00     0.049 A 
ATOM     64  H   UNL A   1      49.604  30.287  26.316  1.00  0.00     0.167 HD
ATOM     65  C   UNL A   1      49.382  33.096  26.535  1.00  0.00     0.074 A 
ATOM     66  C   UNL A   1      48.808  34.416  26.706  1.00  0.00     0.031 C 
ATOM     67  C   UNL A   1      50.708  32.854  26.391  1.00  0.00     0.037 A 
BRANCH  54  68
ATOM     68  C   UNL A   1      52.096  26.860  25.814  1.00  0.00     0.057 A 
ATOM     69  C   UNL A   1      52.454  26.394  24.543  1.00  0.00     0.134 A 
ATOM     70  C   UNL A   1      52.761  26.307  26.916  1.00  0.00     0.134 A 
ATOM     71  F   UNL A   1      51.854  26.878  23.445  1.00  0.00    -0.206 F 
ATOM     72  C   UNL A   1      53.441  25.421  24.374  1.00  0.00     0.040 A 
ATOM     73  C   UNL A   1      53.766  25.350  26.758  1.00  0.00     0.040 A 
ATOM     74  F   UNL A   1      52.476  26.722  28.161  1.00  0.00    -0.206 F 
ATOM     75  C   UNL A   1      54.107  24.904  25.484  1.00  0.00     0.006 A 
ENDBRANCH  54  68
BRANCH  55  76
ATOM     76  C   UNL A   1      44.720  33.459  26.927  1.00  0.00     0.057 A 
ATOM     77  C   UNL A   1      44.130  34.024  25.792  1.00  0.00     0.134 A 
ATOM     78  C   UNL A   1      44.241  33.866  28.178  1.00  0.00     0.134 A 
ATOM     79  F   UNL A   1      44.549  33.675  24.567  1.00  0.00    -0.206 F 
ATOM     80  C   UNL A   1      43.109  34.970  25.894  1.00  0.00     0.040 A 
ATOM     81  C   UNL A   1      43.206  34.794  28.296  1.00  0.00     0.040 A 
ATOM     82  F   UNL A   1      44.755  33.343  29.300  1.00  0.00    -0.206 F 
ATOM     83  C   UNL A   1      42.641  35.353  27.150  1.00  0.00     0.006 A 
ENDBRANCH  55  76
BRANCH  67  84
ATOM     84  C   UNL A   1      51.618  34.046  26.394  1.00  0.00     0.057 A 
ATOM     85  C   UNL A   1      51.933  34.707  25.201  1.00  0.00     0.134 A 
ATOM     86  C   UNL A   1      52.183  34.537  27.578  1.00  0.00     0.134 A 
ATOM     87  F   UNL A   1      51.427  34.284  24.033  1.00  0.00    -0.206 F 
ATOM     88  C   UNL A   1      52.775  35.819  25.186  1.00  0.00     0.040 A 
ATOM     89  C   UNL A   1      53.010  35.661  27.577  1.00  0.00     0.040 A 
ATOM     90  F   UNL A   1      51.906  33.957  28.755  1.00  0.00    -0.206 F 
ATOM     91  C   UNL A   1      53.311  36.303  26.378  1.00  0.00     0.006 A 
ENDBRANCH  67  84
ENDBRANCH  41  42
ENDBRANCH  33  36
ENDBRANCH  31  32
ENDBRANCH  30  31
ENDBRANCH  29  30
ENDBRANCH   1  29
TORSDOF 16
ENDMDL
