MODEL 1
REMARK VINA RESULT:     -12.6      0.000      0.000
REMARK SMILES COc1cccc(C(=O)Nc2ccc(NC(=O)[C@@H]3[C@@H](C(=O)NCCCCCCNC(=O)c4ccc(-c5c6nc(c(-c7c(F)cccc7F)c7ccc([nH]7)c(-c7c(F)cccc7F)c7nc(c(-c8c(F)cccc8F)c8ccc5[nH]8)C=C7)C=C6)cc4)[C@@H]4C=C[C@H]3C4)cc2)c1
REMARK SMILES IDX 24 1 23 2 22 3 20 4 21 5 19 7 18 8 89 9 86 10 88 11 90 12
REMARK SMILES IDX 87 13 16 14 15 15 17 17 14 18 11 19 12 20 92 21 13 22 91 23
REMARK SMILES IDX 10 24 8 25 9 26 7 28 3 29 4 30 93 31 5 32 6 33 2 34 1 35
REMARK SMILES IDX 25 36 26 37 27 38 28 39 29 40 30 41 31 43 32 44 33 45 85 46
REMARK SMILES IDX 34 47 84 48 35 49 36 50 37 51 78 52 38 53 83 54 77 55 79 56
REMARK SMILES IDX 39 57 82 58 76 59 75 60 40 62 66 63 49 64 65 65 50 66 53 67
REMARK SMILES IDX 64 68 80 69 51 70 52 71 63 73 81 74 54 75 41 76 42 77 47 78
REMARK SMILES IDX 43 79 44 80 46 81 48 82 45 83 67 84 68 85 73 86 69 87 70 88
REMARK SMILES IDX 72 89 74 90 71 91 55 92 56 93 61 94 57 95 58 96 60 97 62 98
REMARK SMILES IDX 59 99
REMARK H PARENT 22 6 15 16 10 27 29 42 79 61 53 72
REMARK Flexibility Score: inf
ROOT
ATOM      1  C   UNL A   1      36.635  23.412  25.768  1.00  0.00     0.021 C 
ENDROOT
BRANCH   1   2
ATOM      2  C   UNL A   1      35.297  24.131  25.770  1.00  0.00     0.116 C 
BRANCH   2   3
ATOM      3  N   UNL A   1      34.934  24.722  24.484  1.00  0.00    -0.356 N 
ATOM      4  C   UNL A   1      33.930  25.637  24.228  1.00  0.00     0.224 C 
ATOM      5  O   UNL A   1      33.806  26.108  23.101  1.00  0.00    -0.275 OA
ATOM      6  H   UNL A   1      35.468  24.434  23.708  1.00  0.00     0.163 HD
BRANCH   4   7
ATOM      7  C   UNL A   1      33.056  26.040  25.402  1.00  0.00     0.098 C 
ATOM      8  C   UNL A   1      31.465  26.052  25.224  1.00  0.00     0.099 C 
ATOM      9  C   UNL A   1      31.163  27.505  25.624  1.00  0.00     0.025 C 
ATOM     10  C   UNL A   1      33.373  27.544  25.673  1.00  0.00     0.025 C 
ATOM     11  C   UNL A   1      31.607  27.771  27.052  1.00  0.00    -0.027 C 
ATOM     12  C   UNL A   1      32.274  28.250  24.899  1.00  0.00     0.017 C 
ATOM     13  C   UNL A   1      32.940  27.813  27.077  1.00  0.00    -0.027 C 
BRANCH   8  14
ATOM     14  C   UNL A   1      30.778  24.873  25.944  1.00  0.00     0.228 C 
ATOM     15  N   UNL A   1      31.108  23.542  25.946  1.00  0.00    -0.326 N 
ATOM     16  H   UNL A   1      30.696  23.041  26.687  1.00  0.00     0.169 HD
ATOM     17  O   UNL A   1      29.786  25.139  26.647  1.00  0.00    -0.274 OA
BRANCH  15  18
ATOM     18  C   UNL A   1      31.909  22.740  25.114  1.00  0.00     0.041 A 
ATOM     19  C   UNL A   1      32.411  20.624  23.402  1.00  0.00     0.041 A 
ATOM     20  C   UNL A   1      32.419  21.934  22.912  1.00  0.00     0.028 A 
ATOM     21  C   UNL A   1      32.606  20.452  24.763  1.00  0.00     0.028 A 
ATOM     22  C   UNL A   1      32.203  23.007  23.791  1.00  0.00     0.028 A 
ATOM     23  C   UNL A   1      32.336  21.515  25.631  1.00  0.00     0.028 A 
BRANCH  19  24
ATOM     24  N   UNL A   1      32.032  19.604  22.506  1.00  0.00    -0.322 N 
ATOM     25  C   UNL A   1      32.315  18.252  22.413  1.00  0.00     0.255 C 
ATOM     26  O   UNL A   1      31.787  17.606  21.504  1.00  0.00    -0.269 OA
ATOM     27  H   UNL A   1      31.436  19.923  21.789  1.00  0.00     0.170 HD
BRANCH  25  28
ATOM     28  C   UNL A   1      33.212  17.518  23.338  1.00  0.00     0.043 A 
ATOM     29  C   UNL A   1      33.693  15.730  24.895  1.00  0.00     0.119 A 
ATOM     30  C   UNL A   1      34.880  16.380  25.250  1.00  0.00     0.046 A 
ATOM     31  C   UNL A   1      32.896  16.264  23.880  1.00  0.00     0.060 A 
ATOM     32  C   UNL A   1      35.273  17.551  24.604  1.00  0.00     0.005 A 
ATOM     33  C   UNL A   1      34.435  18.125  23.653  1.00  0.00     0.014 A 
BRANCH  29  34
ATOM     34  O   UNL A   1      33.415  14.626  25.652  1.00  0.00    -0.497 OA
ATOM     35  C   UNL A   1      32.178  14.576  26.348  1.00  0.00     0.278 C 
ENDBRANCH  29  34
ENDBRANCH  25  28
ENDBRANCH  19  24
ENDBRANCH  15  18
ENDBRANCH   8  14
ENDBRANCH   4   7
ENDBRANCH   2   3
ENDBRANCH   1   2
BRANCH   1  36
ATOM     36  C   UNL A   1      36.812  22.410  24.626  1.00  0.00     0.002 C 
BRANCH  36  37
ATOM     37  C   UNL A   1      36.554  20.939  24.978  1.00  0.00     0.002 C 
BRANCH  37  38
ATOM     38  C   UNL A   1      37.771  20.012  24.918  1.00  0.00     0.021 C 
BRANCH  38  39
ATOM     39  C   UNL A   1      38.977  20.469  25.734  1.00  0.00     0.116 C 
BRANCH  39  40
ATOM     40  N   UNL A   1      40.025  19.465  25.790  1.00  0.00    -0.352 N 
ATOM     41  C   UNL A   1      41.354  19.599  26.114  1.00  0.00     0.251 C 
ATOM     42  H   UNL A   1      39.742  18.550  25.561  1.00  0.00     0.163 HD
ATOM     43  O   UNL A   1      42.127  18.668  25.953  1.00  0.00    -0.269 OA
BRANCH  41  44
ATOM     44  C   UNL A   1      41.851  20.891  26.634  1.00  0.00     0.039 A 
ATOM     45  C   UNL A   1      42.312  21.846  25.724  1.00  0.00     0.014 A 
ATOM     46  C   UNL A   1      41.854  21.162  28.005  1.00  0.00     0.014 A 
ATOM     47  C   UNL A   1      42.708  23.102  26.184  1.00  0.00     0.010 A 
ATOM     48  C   UNL A   1      42.181  22.438  28.455  1.00  0.00     0.010 A 
ATOM     49  C   UNL A   1      42.603  23.422  27.548  1.00  0.00    -0.014 A 
BRANCH  49  50
ATOM     50  C   UNL A   1      42.890  24.794  28.031  1.00  0.00     0.031 A 
ATOM     51  C   UNL A   1      44.279  25.188  28.442  1.00  0.00     0.074 A 
ATOM     52  C   UNL A   1      41.873  25.666  28.173  1.00  0.00     0.049 A 
ATOM     53  N   UNL A   1      44.704  26.323  28.937  1.00  0.00    -0.248 NA
ATOM     54  C   UNL A   1      45.323  24.163  28.301  1.00  0.00     0.031 C 
ATOM     55  C   UNL A   1      40.470  25.381  27.867  1.00  0.00     0.029 A 
ATOM     56  N   UNL A   1      41.858  26.960  28.625  1.00  0.00    -0.354 N 
ATOM     57  C   UNL A   1      46.060  26.147  29.174  1.00  0.00     0.074 A 
ATOM     58  C   UNL A   1      46.374  24.777  28.824  1.00  0.00     0.031 C 
ATOM     59  C   UNL A   1      39.734  26.472  28.123  1.00  0.00     0.029 A 
ATOM     60  C   UNL A   1      40.605  27.519  28.651  1.00  0.00     0.049 A 
ATOM     61  H   UNL A   1      42.670  27.443  28.905  1.00  0.00     0.167 HD
ATOM     62  C   UNL A   1      46.966  27.050  29.621  1.00  0.00     0.037 A 
ATOM     63  C   UNL A   1      40.196  28.732  29.066  1.00  0.00     0.037 A 
ATOM     64  C   UNL A   1      46.645  28.411  29.968  1.00  0.00     0.049 A 
ATOM     65  C   UNL A   1      41.210  29.713  29.578  1.00  0.00     0.074 A 
ATOM     66  C   UNL A   1      47.500  29.425  30.365  1.00  0.00     0.029 A 
ATOM     67  N   UNL A   1      45.363  28.944  29.976  1.00  0.00    -0.354 N 
ATOM     68  N   UNL A   1      42.506  29.564  29.713  1.00  0.00    -0.248 NA
ATOM     69  C   UNL A   1      40.709  31.030  29.992  1.00  0.00     0.031 C 
ATOM     70  C   UNL A   1      46.728  30.552  30.671  1.00  0.00     0.029 A 
ATOM     71  C   UNL A   1      45.399  30.260  30.410  1.00  0.00     0.049 A 
ATOM     72  H   UNL A   1      44.548  28.459  29.712  1.00  0.00     0.167 HD
ATOM     73  C   UNL A   1      42.977  30.769  30.218  1.00  0.00     0.074 A 
ATOM     74  C   UNL A   1      41.830  31.646  30.340  1.00  0.00     0.031 C 
ATOM     75  C   UNL A   1      44.246  31.116  30.550  1.00  0.00     0.037 A 
BRANCH  62  76
ATOM     76  C   UNL A   1      48.386  26.582  29.771  1.00  0.00     0.057 A 
ATOM     77  C   UNL A   1      48.845  25.970  30.946  1.00  0.00     0.134 A 
ATOM     78  C   UNL A   1      49.308  26.742  28.728  1.00  0.00     0.134 A 
ATOM     79  F   UNL A   1      48.019  25.794  31.989  1.00  0.00    -0.206 F 
ATOM     80  C   UNL A   1      50.177  25.577  31.095  1.00  0.00     0.040 A 
ATOM     81  C   UNL A   1      50.633  26.323  28.853  1.00  0.00     0.040 A 
ATOM     82  F   UNL A   1      48.936  27.311  27.571  1.00  0.00    -0.206 F 
ATOM     83  C   UNL A   1      51.074  25.749  30.044  1.00  0.00     0.006 A 
ENDBRANCH  62  76
BRANCH  63  84
ATOM     84  C   UNL A   1      38.753  29.076  29.002  1.00  0.00     0.057 A 
ATOM     85  C   UNL A   1      37.932  28.969  30.129  1.00  0.00     0.134 A 
ATOM     86  C   UNL A   1      38.173  29.559  27.822  1.00  0.00     0.134 A 
ATOM     87  F   UNL A   1      38.427  28.498  31.283  1.00  0.00    -0.206 F 
ATOM     88  C   UNL A   1      36.584  29.326  30.087  1.00  0.00     0.040 A 
ATOM     89  C   UNL A   1      36.832  29.942  27.772  1.00  0.00     0.040 A 
ATOM     90  F   UNL A   1      38.910  29.695  26.711  1.00  0.00    -0.206 F 
ATOM     91  C   UNL A   1      36.032  29.823  28.907  1.00  0.00     0.006 A 
ENDBRANCH  63  84
BRANCH  75  92
ATOM     92  C   UNL A   1      44.458  32.504  31.081  1.00  0.00     0.057 A 
ATOM     93  C   UNL A   1      44.445  32.777  32.456  1.00  0.00     0.134 A 
ATOM     94  C   UNL A   1      44.715  33.573  30.214  1.00  0.00     0.134 A 
ATOM     95  F   UNL A   1      44.190  31.800  33.340  1.00  0.00    -0.206 F 
ATOM     96  C   UNL A   1      44.658  34.067  32.946  1.00  0.00     0.040 A 
ATOM     97  C   UNL A   1      44.957  34.861  30.693  1.00  0.00     0.040 A 
ATOM     98  F   UNL A   1      44.749  33.380  28.886  1.00  0.00    -0.206 F 
ATOM     99  C   UNL A   1      44.922  35.112  32.063  1.00  0.00     0.006 A 
ENDBRANCH  75  92
ENDBRANCH  49  50
ENDBRANCH  41  44
ENDBRANCH  39  40
ENDBRANCH  38  39
ENDBRANCH  37  38
ENDBRANCH  36  37
ENDBRANCH   1  36
TORSDOF 18
ENDMDL
MODEL 2
REMARK VINA RESULT:     -12.6      1.075      5.873
REMARK SMILES COc1cccc(C(=O)Nc2ccc(NC(=O)[C@@H]3[C@@H](C(=O)NCCCCCCNC(=O)c4ccc(-c5c6nc(c(-c7c(F)cccc7F)c7ccc([nH]7)c(-c7c(F)cccc7F)c7nc(c(-c8c(F)cccc8F)c8ccc5[nH]8)C=C7)C=C6)cc4)[C@@H]4C=C[C@H]3C4)cc2)c1
REMARK SMILES IDX 24 1 23 2 22 3 20 4 21 5 19 7 18 8 89 9 86 10 88 11 90 12
REMARK SMILES IDX 87 13 16 14 15 15 17 17 14 18 11 19 12 20 92 21 13 22 91 23
REMARK SMILES IDX 10 24 8 25 9 26 7 28 3 29 4 30 93 31 5 32 6 33 2 34 1 35
REMARK SMILES IDX 25 36 26 37 27 38 28 39 29 40 30 41 31 43 32 44 33 45 85 46
REMARK SMILES IDX 34 47 84 48 35 49 36 50 37 51 78 52 38 53 83 54 77 55 79 56
REMARK SMILES IDX 39 57 82 58 76 59 75 60 40 62 66 63 49 64 65 65 50 66 53 67
REMARK SMILES IDX 64 68 80 69 51 70 52 71 63 73 81 74 54 75 41 76 42 77 47 78
REMARK SMILES IDX 43 79 44 80 46 81 48 82 45 83 67 84 68 85 73 86 69 87 70 88
REMARK SMILES IDX 72 89 74 90 71 91 55 92 56 93 61 94 57 95 58 96 60 97 62 98
REMARK SMILES IDX 59 99
REMARK H PARENT 22 6 15 16 10 27 29 42 79 61 53 72
REMARK Flexibility Score: inf
ROOT
ATOM      1  C   UNL A   1      36.639  23.510  25.963  1.00  0.00     0.021 C 
ENDROOT
BRANCH   1   2
ATOM      2  C   UNL A   1      35.223  24.048  25.858  1.00  0.00     0.116 C 
BRANCH   2   3
ATOM      3  N   UNL A   1      34.914  24.673  24.575  1.00  0.00    -0.356 N 
ATOM      4  C   UNL A   1      33.942  25.618  24.307  1.00  0.00     0.224 C 
ATOM      5  O   UNL A   1      33.864  26.115  23.186  1.00  0.00    -0.275 OA
ATOM      6  H   UNL A   1      35.465  24.388  23.809  1.00  0.00     0.163 HD
BRANCH   4   7
ATOM      7  C   UNL A   1      33.041  26.020  25.462  1.00  0.00     0.098 C 
ATOM      8  C   UNL A   1      31.456  26.049  25.244  1.00  0.00     0.099 C 
ATOM      9  C   UNL A   1      31.157  27.501  25.648  1.00  0.00     0.025 C 
ATOM     10  C   UNL A   1      33.365  27.519  25.754  1.00  0.00     0.025 C 
ATOM     11  C   UNL A   1      31.566  27.750  27.090  1.00  0.00    -0.027 C 
ATOM     12  C   UNL A   1      32.293  28.242  24.958  1.00  0.00     0.017 C 
ATOM     13  C   UNL A   1      32.899  27.779  27.149  1.00  0.00    -0.027 C 
BRANCH   8  14
ATOM     14  C   UNL A   1      30.739  24.870  25.936  1.00  0.00     0.228 C 
ATOM     15  N   UNL A   1      31.053  23.535  25.928  1.00  0.00    -0.326 N 
ATOM     16  H   UNL A   1      30.619  23.031  26.655  1.00  0.00     0.169 HD
ATOM     17  O   UNL A   1      29.737  25.140  26.621  1.00  0.00    -0.274 OA
BRANCH  15  18
ATOM     18  C   UNL A   1      31.860  22.732  25.103  1.00  0.00     0.041 A 
ATOM     19  C   UNL A   1      32.378  20.611  23.404  1.00  0.00     0.041 A 
ATOM     20  C   UNL A   1      32.382  21.918  22.907  1.00  0.00     0.028 A 
ATOM     21  C   UNL A   1      32.569  20.446  24.766  1.00  0.00     0.028 A 
ATOM     22  C   UNL A   1      32.158  22.994  23.779  1.00  0.00     0.028 A 
ATOM     23  C   UNL A   1      32.291  21.513  25.628  1.00  0.00     0.028 A 
BRANCH  19  24
ATOM     24  N   UNL A   1      32.006  19.584  22.511  1.00  0.00    -0.322 N 
ATOM     25  C   UNL A   1      32.307  18.236  22.418  1.00  0.00     0.255 C 
ATOM     26  O   UNL A   1      31.782  17.582  21.514  1.00  0.00    -0.269 OA
ATOM     27  H   UNL A   1      31.402  19.894  21.798  1.00  0.00     0.170 HD
BRANCH  25  28
ATOM     28  C   UNL A   1      33.221  17.516  23.338  1.00  0.00     0.043 A 
ATOM     29  C   UNL A   1      33.737  15.735  24.893  1.00  0.00     0.119 A 
ATOM     30  C   UNL A   1      34.916  16.403  25.241  1.00  0.00     0.046 A 
ATOM     31  C   UNL A   1      32.926  16.257  23.882  1.00  0.00     0.060 A 
ATOM     32  C   UNL A   1      35.288  17.580  24.593  1.00  0.00     0.005 A 
ATOM     33  C   UNL A   1      34.435  18.141  23.647  1.00  0.00     0.014 A 
BRANCH  29  34
ATOM     34  O   UNL A   1      33.480  14.627  25.651  1.00  0.00    -0.497 OA
ATOM     35  C   UNL A   1      32.244  14.555  26.348  1.00  0.00     0.278 C 
ENDBRANCH  29  34
ENDBRANCH  25  28
ENDBRANCH  19  24
ENDBRANCH  15  18
ENDBRANCH   8  14
ENDBRANCH   4   7
ENDBRANCH   2   3
ENDBRANCH   1   2
BRANCH   1  36
ATOM     36  C   UNL A   1      37.044  22.572  24.825  1.00  0.00     0.002 C 
BRANCH  36  37
ATOM     37  C   UNL A   1      36.650  21.099  24.997  1.00  0.00     0.002 C 
BRANCH  37  38
ATOM     38  C   UNL A   1      37.798  20.087  24.938  1.00  0.00     0.021 C 
BRANCH  38  39
ATOM     39  C   UNL A   1      39.035  20.457  25.750  1.00  0.00     0.116 C 
BRANCH  39  40
ATOM     40  N   UNL A   1      39.994  19.369  25.833  1.00  0.00    -0.352 N 
ATOM     41  C   UNL A   1      41.340  19.403  26.105  1.00  0.00     0.251 C 
ATOM     42  H   UNL A   1      39.624  18.472  25.670  1.00  0.00     0.163 HD
ATOM     43  O   UNL A   1      42.023  18.400  25.976  1.00  0.00    -0.269 OA
BRANCH  41  44
ATOM     44  C   UNL A   1      41.967  20.674  26.529  1.00  0.00     0.039 A 
ATOM     45  C   UNL A   1      42.436  21.549  25.545  1.00  0.00     0.014 A 
ATOM     46  C   UNL A   1      42.081  21.005  27.881  1.00  0.00     0.014 A 
ATOM     47  C   UNL A   1      42.956  22.789  25.917  1.00  0.00     0.010 A 
ATOM     48  C   UNL A   1      42.532  22.270  28.247  1.00  0.00     0.010 A 
ATOM     49  C   UNL A   1      42.966  23.177  27.267  1.00  0.00    -0.014 A 
BRANCH  49  50
ATOM     50  C   UNL A   1      43.387  24.542  27.664  1.00  0.00     0.031 A 
ATOM     51  C   UNL A   1      42.366  25.589  28.009  1.00  0.00     0.074 A 
ATOM     52  C   UNL A   1      44.695  24.860  27.636  1.00  0.00     0.049 A 
ATOM     53  N   UNL A   1      42.547  26.845  28.325  1.00  0.00    -0.248 NA
ATOM     54  C   UNL A   1      40.957  25.173  27.968  1.00  0.00     0.031 C 
ATOM     55  C   UNL A   1      45.776  23.949  27.257  1.00  0.00     0.029 A 
ATOM     56  N   UNL A   1      45.337  26.039  27.915  1.00  0.00    -0.354 N 
ATOM     57  C   UNL A   1      41.277  27.373  28.514  1.00  0.00     0.074 A 
ATOM     58  C   UNL A   1      40.334  26.315  28.218  1.00  0.00     0.031 C 
ATOM     59  C   UNL A   1      46.947  24.596  27.344  1.00  0.00     0.029 A 
ATOM     60  C   UNL A   1      46.697  25.978  27.743  1.00  0.00     0.049 A 
ATOM     61  H   UNL A   1      44.866  26.853  28.211  1.00  0.00     0.167 HD
ATOM     62  C   UNL A   1      40.929  28.618  28.918  1.00  0.00     0.037 A 
ATOM     63  C   UNL A   1      47.639  26.930  27.877  1.00  0.00     0.037 A 
ATOM     64  C   UNL A   1      41.874  29.666  29.209  1.00  0.00     0.049 A 
ATOM     65  C   UNL A   1      47.233  28.310  28.305  1.00  0.00     0.074 A 
ATOM     66  C   UNL A   1      41.628  30.941  29.691  1.00  0.00     0.029 A 
ATOM     67  N   UNL A   1      43.247  29.566  29.029  1.00  0.00    -0.354 N 
ATOM     68  N   UNL A   1      46.035  28.772  28.567  1.00  0.00    -0.248 NA
ATOM     69  C   UNL A   1      48.308  29.299  28.459  1.00  0.00     0.031 C 
ATOM     70  C   UNL A   1      42.846  31.629  29.744  1.00  0.00     0.029 A 
ATOM     71  C   UNL A   1      43.857  30.768  29.351  1.00  0.00     0.049 A 
ATOM     72  H   UNL A   1      43.718  28.759  28.718  1.00  0.00     0.167 HD
ATOM     73  C   UNL A   1      46.210  30.102  28.927  1.00  0.00     0.074 A 
ATOM     74  C   UNL A   1      47.635  30.363  28.873  1.00  0.00     0.031 C 
ATOM     75  C   UNL A   1      45.275  31.023  29.271  1.00  0.00     0.037 A 
BRANCH  62  76
ATOM     76  C   UNL A   1      39.461  28.912  29.053  1.00  0.00     0.057 A 
ATOM     77  C   UNL A   1      38.783  28.761  30.271  1.00  0.00     0.134 A 
ATOM     78  C   UNL A   1      38.714  29.350  27.952  1.00  0.00     0.134 A 
ATOM     79  F   UNL A   1      39.434  28.335  31.364  1.00  0.00    -0.206 F 
ATOM     80  C   UNL A   1      37.410  28.994  30.378  1.00  0.00     0.040 A 
ATOM     81  C   UNL A   1      37.348  29.617  28.054  1.00  0.00     0.040 A 
ATOM     82  F   UNL A   1      39.299  29.524  26.757  1.00  0.00    -0.206 F 
ATOM     83  C   UNL A   1      36.689  29.428  29.268  1.00  0.00     0.006 A 
ENDBRANCH  62  76
BRANCH  63  84
ATOM     84  C   UNL A   1      49.059  26.592  27.605  1.00  0.00     0.057 A 
ATOM     85  C   UNL A   1      49.633  26.830  26.351  1.00  0.00     0.134 A 
ATOM     86  C   UNL A   1      49.885  26.062  28.604  1.00  0.00     0.134 A 
ATOM     87  F   UNL A   1      48.888  27.322  25.350  1.00  0.00    -0.206 F 
ATOM     88  C   UNL A   1      50.976  26.551  26.099  1.00  0.00     0.040 A 
ATOM     89  C   UNL A   1      51.236  25.801  28.372  1.00  0.00     0.040 A 
ATOM     90  F   UNL A   1      49.396  25.822  29.829  1.00  0.00    -0.206 F 
ATOM     91  C   UNL A   1      51.785  26.042  27.114  1.00  0.00     0.006 A 
ENDBRANCH  63  84
BRANCH  75  92
ATOM     92  C   UNL A   1      45.764  32.400  29.611  1.00  0.00     0.057 A 
ATOM     93  C   UNL A   1      45.841  33.415  28.647  1.00  0.00     0.134 A 
ATOM     94  C   UNL A   1      46.128  32.729  30.923  1.00  0.00     0.134 A 
ATOM     95  F   UNL A   1      45.521  33.162  27.368  1.00  0.00    -0.206 F 
ATOM     96  C   UNL A   1      46.283  34.699  28.972  1.00  0.00     0.040 A 
ATOM     97  C   UNL A   1      46.544  34.016  31.266  1.00  0.00     0.040 A 
ATOM     98  F   UNL A   1      46.072  31.807  31.897  1.00  0.00    -0.206 F 
ATOM     99  C   UNL A   1      46.628  35.004  30.287  1.00  0.00     0.006 A 
ENDBRANCH  75  92
ENDBRANCH  49  50
ENDBRANCH  41  44
ENDBRANCH  39  40
ENDBRANCH  38  39
ENDBRANCH  37  38
ENDBRANCH  36  37
ENDBRANCH   1  36
TORSDOF 18
ENDMDL
MODEL 3
REMARK VINA RESULT:     -12.6      1.230      2.389
REMARK SMILES COc1cccc(C(=O)Nc2ccc(NC(=O)[C@@H]3[C@@H](C(=O)NCCCCCCNC(=O)c4ccc(-c5c6nc(c(-c7c(F)cccc7F)c7ccc([nH]7)c(-c7c(F)cccc7F)c7nc(c(-c8c(F)cccc8F)c8ccc5[nH]8)C=C7)C=C6)cc4)[C@@H]4C=C[C@H]3C4)cc2)c1
REMARK SMILES IDX 24 1 23 2 22 3 20 4 21 5 19 7 18 8 89 9 86 10 88 11 90 12
REMARK SMILES IDX 87 13 16 14 15 15 17 17 14 18 11 19 12 20 92 21 13 22 91 23
REMARK SMILES IDX 10 24 8 25 9 26 7 28 3 29 4 30 93 31 5 32 6 33 2 34 1 35
REMARK SMILES IDX 25 36 26 37 27 38 28 39 29 40 30 41 31 43 32 44 33 45 85 46
REMARK SMILES IDX 34 47 84 48 35 49 36 50 37 51 78 52 38 53 83 54 77 55 79 56
REMARK SMILES IDX 39 57 82 58 76 59 75 60 40 62 66 63 49 64 65 65 50 66 53 67
REMARK SMILES IDX 64 68 80 69 51 70 52 71 63 73 81 74 54 75 41 76 42 77 47 78
REMARK SMILES IDX 43 79 44 80 46 81 48 82 45 83 67 84 68 85 73 86 69 87 70 88
REMARK SMILES IDX 72 89 74 90 71 91 55 92 56 93 61 94 57 95 58 96 60 97 62 98
REMARK SMILES IDX 59 99
REMARK H PARENT 22 6 15 16 10 27 29 42 79 61 53 72
REMARK Flexibility Score: inf
ROOT
ATOM      1  C   UNL A   1      36.111  23.676  24.552  1.00  0.00     0.021 C 
ENDROOT
BRANCH   1   2
ATOM      2  C   UNL A   1      34.692  24.123  24.247  1.00  0.00     0.116 C 
BRANCH   2   3
ATOM      3  N   UNL A   1      34.508  24.654  22.899  1.00  0.00    -0.356 N 
ATOM      4  C   UNL A   1      33.690  25.695  22.505  1.00  0.00     0.224 C 
ATOM      5  O   UNL A   1      33.712  26.083  21.340  1.00  0.00    -0.275 OA
ATOM      6  H   UNL A   1      35.030  24.218  22.186  1.00  0.00     0.163 HD
BRANCH   4   7
ATOM      7  C   UNL A   1      32.830  26.335  23.581  1.00  0.00     0.098 C 
ATOM      8  C   UNL A   1      32.073  27.709  23.263  1.00  0.00     0.099 C 
ATOM      9  C   UNL A   1      32.616  28.583  24.405  1.00  0.00     0.025 C 
ATOM     10  C   UNL A   1      33.811  26.750  24.721  1.00  0.00     0.025 C 
ATOM     11  C   UNL A   1      32.243  27.993  25.755  1.00  0.00    -0.027 C 
ATOM     12  C   UNL A   1      34.090  28.206  24.392  1.00  0.00     0.017 C 
ATOM     13  C   UNL A   1      32.979  26.898  25.952  1.00  0.00    -0.027 C 
BRANCH   8  14
ATOM     14  C   UNL A   1      30.554  27.518  23.065  1.00  0.00     0.228 C 
ATOM     15  N   UNL A   1      29.699  26.639  23.679  1.00  0.00    -0.326 N 
ATOM     16  H   UNL A   1      28.752  26.894  23.590  1.00  0.00     0.169 HD
ATOM     17  O   UNL A   1      29.992  28.267  22.246  1.00  0.00    -0.274 OA
BRANCH  15  18
ATOM     18  C   UNL A   1      29.887  25.452  24.409  1.00  0.00     0.041 A 
ATOM     19  C   UNL A   1      31.378  23.541  25.743  1.00  0.00     0.041 A 
ATOM     20  C   UNL A   1      30.521  24.382  26.460  1.00  0.00     0.028 A 
ATOM     21  C   UNL A   1      31.123  23.375  24.391  1.00  0.00     0.028 A 
ATOM     22  C   UNL A   1      29.737  25.324  25.777  1.00  0.00     0.028 A 
ATOM     23  C   UNL A   1      30.384  24.350  23.712  1.00  0.00     0.028 A 
BRANCH  19  24
ATOM     24  N   UNL A   1      32.528  23.072  26.411  1.00  0.00    -0.322 N 
ATOM     25  C   UNL A   1      33.256  21.896  26.360  1.00  0.00     0.255 C 
ATOM     26  O   UNL A   1      34.262  21.801  27.067  1.00  0.00    -0.269 OA
ATOM     27  H   UNL A   1      32.892  23.722  27.054  1.00  0.00     0.170 HD
BRANCH  25  28
ATOM     28  C   UNL A   1      32.911  20.733  25.506  1.00  0.00     0.043 A 
ATOM     29  C   UNL A   1      32.545  18.369  25.143  1.00  0.00     0.119 A 
ATOM     30  C   UNL A   1      32.523  18.601  23.763  1.00  0.00     0.046 A 
ATOM     31  C   UNL A   1      32.663  19.451  26.018  1.00  0.00     0.060 A 
ATOM     32  C   UNL A   1      32.619  19.895  23.255  1.00  0.00     0.005 A 
ATOM     33  C   UNL A   1      32.821  20.961  24.127  1.00  0.00     0.014 A 
BRANCH  29  34
ATOM     34  O   UNL A   1      32.497  17.047  25.486  1.00  0.00    -0.497 OA
ATOM     35  C   UNL A   1      33.707  16.304  25.491  1.00  0.00     0.278 C 
ENDBRANCH  29  34
ENDBRANCH  25  28
ENDBRANCH  19  24
ENDBRANCH  15  18
ENDBRANCH   8  14
ENDBRANCH   4   7
ENDBRANCH   2   3
ENDBRANCH   1   2
BRANCH   1  36
ATOM     36  C   UNL A   1      36.531  22.385  23.847  1.00  0.00     0.002 C 
BRANCH  36  37
ATOM     37  C   UNL A   1      36.505  21.113  24.705  1.00  0.00     0.002 C 
BRANCH  37  38
ATOM     38  C   UNL A   1      37.761  20.238  24.645  1.00  0.00     0.021 C 
BRANCH  38  39
ATOM     39  C   UNL A   1      38.779  20.485  25.754  1.00  0.00     0.116 C 
BRANCH  39  40
ATOM     40  N   UNL A   1      39.828  19.480  25.781  1.00  0.00    -0.352 N 
ATOM     41  C   UNL A   1      41.160  19.609  26.092  1.00  0.00     0.251 C 
ATOM     42  H   UNL A   1      39.542  18.570  25.541  1.00  0.00     0.163 HD
ATOM     43  O   UNL A   1      41.931  18.681  25.906  1.00  0.00    -0.269 OA
BRANCH  41  44
ATOM     44  C   UNL A   1      41.664  20.893  26.625  1.00  0.00     0.039 A 
ATOM     45  C   UNL A   1      42.164  21.840  25.729  1.00  0.00     0.014 A 
ATOM     46  C   UNL A   1      41.635  21.164  27.996  1.00  0.00     0.014 A 
ATOM     47  C   UNL A   1      42.568  23.090  26.200  1.00  0.00     0.010 A 
ATOM     48  C   UNL A   1      41.969  22.434  28.456  1.00  0.00     0.010 A 
ATOM     49  C   UNL A   1      42.432  23.412  27.561  1.00  0.00    -0.014 A 
BRANCH  49  50
ATOM     50  C   UNL A   1      42.727  24.779  28.053  1.00  0.00     0.031 A 
ATOM     51  C   UNL A   1      44.115  25.155  28.486  1.00  0.00     0.074 A 
ATOM     52  C   UNL A   1      41.718  25.662  28.182  1.00  0.00     0.049 A 
ATOM     53  N   UNL A   1      44.545  26.283  28.991  1.00  0.00    -0.248 NA
ATOM     54  C   UNL A   1      45.148  24.117  28.359  1.00  0.00     0.031 C 
ATOM     55  C   UNL A   1      40.317  25.395  27.853  1.00  0.00     0.029 A 
ATOM     56  N   UNL A   1      41.712  26.955  28.637  1.00  0.00    -0.354 N 
ATOM     57  C   UNL A   1      45.895  26.090  29.248  1.00  0.00     0.074 A 
ATOM     58  C   UNL A   1      46.198  24.717  28.899  1.00  0.00     0.031 C 
ATOM     59  C   UNL A   1      39.591  26.494  28.101  1.00  0.00     0.029 A 
ATOM     60  C   UNL A   1      40.465  27.529  28.645  1.00  0.00     0.049 A 
ATOM     61  H   UNL A   1      42.525  27.428  28.931  1.00  0.00     0.167 HD
ATOM     62  C   UNL A   1      46.804  26.981  29.712  1.00  0.00     0.037 A 
ATOM     63  C   UNL A   1      40.065  28.746  29.058  1.00  0.00     0.037 A 
ATOM     64  C   UNL A   1      46.495  28.345  30.059  1.00  0.00     0.049 A 
ATOM     65  C   UNL A   1      41.083  29.713  29.588  1.00  0.00     0.074 A 
ATOM     66  C   UNL A   1      47.355  29.347  30.472  1.00  0.00     0.029 A 
ATOM     67  N   UNL A   1      45.219  28.893  30.048  1.00  0.00    -0.354 N 
ATOM     68  N   UNL A   1      42.374  29.548  29.743  1.00  0.00    -0.248 NA
ATOM     69  C   UNL A   1      40.590  31.034  29.998  1.00  0.00     0.031 C 
ATOM     70  C   UNL A   1      46.592  30.483  30.768  1.00  0.00     0.029 A 
ATOM     71  C   UNL A   1      45.264  30.208  30.486  1.00  0.00     0.049 A 
ATOM     72  H   UNL A   1      44.403  28.418  29.770  1.00  0.00     0.167 HD
ATOM     73  C   UNL A   1      42.852  30.746  30.258  1.00  0.00     0.074 A 
ATOM     74  C   UNL A   1      41.713  31.636  30.366  1.00  0.00     0.031 C 
ATOM     75  C   UNL A   1      44.119  31.077  30.611  1.00  0.00     0.037 A 
BRANCH  62  76
ATOM     76  C   UNL A   1      48.216  26.495  29.883  1.00  0.00     0.057 A 
ATOM     77  C   UNL A   1      49.173  26.622  28.865  1.00  0.00     0.134 A 
ATOM     78  C   UNL A   1      48.628  25.894  31.079  1.00  0.00     0.134 A 
ATOM     79  F   UNL A   1      48.845  27.179  27.689  1.00  0.00    -0.206 F 
ATOM     80  C   UNL A   1      50.471  26.130  29.014  1.00  0.00     0.040 A 
ATOM     81  C   UNL A   1      49.932  25.427  31.252  1.00  0.00     0.040 A 
ATOM     82  F   UNL A   1      47.769  25.747  32.099  1.00  0.00    -0.206 F 
ATOM     83  C   UNL A   1      50.855  25.533  30.213  1.00  0.00     0.006 A 
ENDBRANCH  62  76
BRANCH  63  84
ATOM     84  C   UNL A   1      38.628  29.107  28.972  1.00  0.00     0.057 A 
ATOM     85  C   UNL A   1      37.789  29.013  30.088  1.00  0.00     0.134 A 
ATOM     86  C   UNL A   1      38.070  29.594  27.783  1.00  0.00     0.134 A 
ATOM     87  F   UNL A   1      38.262  28.540  31.250  1.00  0.00    -0.206 F 
ATOM     88  C   UNL A   1      36.446  29.387  30.025  1.00  0.00     0.040 A 
ATOM     89  C   UNL A   1      36.735  29.993  27.713  1.00  0.00     0.040 A 
ATOM     90  F   UNL A   1      38.824  29.717  26.682  1.00  0.00    -0.206 F 
ATOM     91  C   UNL A   1      35.917  29.887  28.837  1.00  0.00     0.006 A 
ENDBRANCH  63  84
BRANCH  75  92
ATOM     92  C   UNL A   1      44.340  32.460  31.150  1.00  0.00     0.057 A 
ATOM     93  C   UNL A   1      44.590  33.550  30.305  1.00  0.00     0.134 A 
ATOM     94  C   UNL A   1      44.264  32.715  32.525  1.00  0.00     0.134 A 
ATOM     95  F   UNL A   1      44.689  33.372  28.979  1.00  0.00    -0.206 F 
ATOM     96  C   UNL A   1      44.779  34.837  30.811  1.00  0.00     0.040 A 
ATOM     97  C   UNL A   1      44.423  34.002  33.040  1.00  0.00     0.040 A 
ATOM     98  F   UNL A   1      44.020  31.718  33.391  1.00  0.00    -0.206 F 
ATOM     99  C   UNL A   1      44.688  35.067  32.182  1.00  0.00     0.006 A 
ENDBRANCH  75  92
ENDBRANCH  49  50
ENDBRANCH  41  44
ENDBRANCH  39  40
ENDBRANCH  38  39
ENDBRANCH  37  38
ENDBRANCH  36  37
ENDBRANCH   1  36
TORSDOF 18
ENDMDL
