MODEL 1
REMARK VINA RESULT:     -11.9      0.000      0.000
REMARK SMILES O=C(COc1ccccc1/C=N\N1CC[NH+](Cc2ccc(Cl)cc2)CC1)NCCCCCCNC(=O)c1ccc(-c2c3nc(c(-c4c(F)cccc4F)c4ccc([nH]4)c(-c4c(F)cccc4F)c4nc(c(-c5c(F)cccc5F)c5ccc2[nH]5)C=C4)C=C3)cc1
REMARK SMILES IDX 28 1 27 2 1 3 2 4 3 6 4 7 5 8 6 9 10 10 7 11 9 12 8 13 11 14
REMARK SMILES IDX 12 15 13 16 14 17 26 18 15 19 25 20 16 21 17 23 18 24 19 25
REMARK SMILES IDX 24 26 20 27 23 28 21 29 22 30 29 31 30 32 31 33 32 34 33 35
REMARK SMILES IDX 34 36 35 37 36 39 37 40 38 41 90 42 39 43 89 44 40 45 41 46
REMARK SMILES IDX 42 47 83 48 43 49 88 50 82 51 84 52 44 53 87 54 81 55 80 56
REMARK SMILES IDX 45 58 71 59 54 60 70 61 55 62 58 63 69 64 85 65 56 66 57 67
REMARK SMILES IDX 68 69 86 70 59 71 46 72 47 73 52 74 48 75 49 76 51 77 53 78
REMARK SMILES IDX 50 79 72 80 73 81 78 82 74 83 75 84 77 85 79 86 76 87 60 88
REMARK SMILES IDX 61 89 66 90 62 91 63 92 65 93 67 94 64 95
REMARK H PARENT 27 5 16 22 34 38 84 57 58 68
REMARK Flexibility Score: inf
ROOT
ATOM      1  C   UNL A   1      33.832  30.947  27.307  1.00  0.00     0.116 C 
ENDROOT
BRANCH   1   2
ATOM      2  N   UNL A   1      34.310  29.784  26.584  1.00  0.00    -0.353 N 
ATOM      3  O   UNL A   1      32.918  28.275  27.610  1.00  0.00    -0.271 OA
ATOM      4  C   UNL A   1      33.676  28.563  26.687  1.00  0.00     0.257 C 
ATOM      5  H   UNL A   1      35.103  29.867  26.007  1.00  0.00     0.163 HD
BRANCH   4   6
ATOM      6  C   UNL A   1      33.890  27.609  25.496  1.00  0.00     0.329 C 
BRANCH   6   7
ATOM      7  O   UNL A   1      33.681  28.115  24.190  1.00  0.00    -0.483 OA
BRANCH   7   8
ATOM      8  C   UNL A   1      32.510  27.905  23.498  1.00  0.00     0.128 A 
ATOM      9  C   UNL A   1      31.483  28.771  23.917  1.00  0.00     0.047 A 
ATOM     10  C   UNL A   1      32.168  26.756  22.769  1.00  0.00     0.037 A 
ATOM     11  C   UNL A   1      30.139  28.453  23.720  1.00  0.00     0.004 A 
ATOM     12  C   UNL A   1      30.819  26.370  22.760  1.00  0.00     0.013 A 
ATOM     13  C   UNL A   1      29.806  27.213  23.210  1.00  0.00     0.001 A 
BRANCH  10  14
ATOM     14  C   UNL A   1      33.172  26.047  21.934  1.00  0.00     0.145 C 
ATOM     15  N   UNL A   1      33.718  24.864  21.988  1.00  0.00    -0.185 NA
BRANCH  15  16
ATOM     16  N   UNL A   1      33.254  23.985  22.894  1.00  0.00    -0.286 NA
ATOM     17  C   UNL A   1      34.079  23.858  24.108  1.00  0.00     0.200 C 
ATOM     18  C   UNL A   1      33.013  22.639  22.325  1.00  0.00     0.200 C 
ATOM     19  C   UNL A   1      33.522  22.836  25.124  1.00  0.00     0.286 C 
ATOM     20  C   UNL A   1      32.373  21.676  23.339  1.00  0.00     0.286 C 
ATOM     21  N   UNL A   1      33.099  21.527  24.604  1.00  0.00    -0.328 N 
ATOM     22  H   UNL A   1      32.440  21.158  25.290  1.00  0.00     0.348 HD
BRANCH  21  23
ATOM     23  C   UNL A   1      34.119  20.469  24.607  1.00  0.00     0.299 C 
BRANCH  23  24
ATOM     24  C   UNL A   1      33.623  19.041  24.677  1.00  0.00     0.006 A 
ATOM     25  C   UNL A   1      34.081  18.080  23.760  1.00  0.00     0.011 A 
ATOM     26  C   UNL A   1      32.778  18.634  25.719  1.00  0.00     0.011 A 
ATOM     27  C   UNL A   1      33.796  16.726  23.954  1.00  0.00     0.021 A 
ATOM     28  C   UNL A   1      32.498  17.280  25.915  1.00  0.00     0.021 A 
ATOM     29  C   UNL A   1      33.028  16.331  25.046  1.00  0.00     0.041 A 
ATOM     30  Cl  UNL A   1      32.758  14.657  25.341  1.00  0.00    -0.084 Cl
ENDBRANCH  23  24
ENDBRANCH  21  23
ENDBRANCH  15  16
ENDBRANCH  10  14
ENDBRANCH   7   8
ENDBRANCH   6   7
ENDBRANCH   4   6
ENDBRANCH   1   2
BRANCH   1  31
ATOM     31  C   UNL A   1      34.934  31.708  28.032  1.00  0.00     0.021 C 
BRANCH  31  32
ATOM     32  C   UNL A   1      34.441  32.525  29.228  1.00  0.00     0.002 C 
BRANCH  32  33
ATOM     33  C   UNL A   1      34.660  34.038  29.126  1.00  0.00     0.002 C 
BRANCH  33  34
ATOM     34  C   UNL A   1      33.388  34.884  29.034  1.00  0.00     0.021 C 
BRANCH  34  35
ATOM     35  C   UNL A   1      33.475  36.258  29.691  1.00  0.00     0.116 C 
BRANCH  35  36
ATOM     36  N   UNL A   1      32.486  36.442  30.744  1.00  0.00    -0.352 N 
ATOM     37  C   UNL A   1      32.469  35.927  32.017  1.00  0.00     0.251 C 
ATOM     38  H   UNL A   1      31.721  37.016  30.510  1.00  0.00     0.163 HD
ATOM     39  O   UNL A   1      31.481  36.070  32.733  1.00  0.00    -0.269 OA
BRANCH  37  40
ATOM     40  C   UNL A   1      33.636  35.173  32.517  1.00  0.00     0.039 A 
ATOM     41  C   UNL A   1      33.458  33.855  32.948  1.00  0.00     0.014 A 
ATOM     42  C   UNL A   1      34.904  35.758  32.548  1.00  0.00     0.014 A 
ATOM     43  C   UNL A   1      34.565  33.100  33.342  1.00  0.00     0.010 A 
ATOM     44  C   UNL A   1      36.013  34.985  32.876  1.00  0.00     0.010 A 
ATOM     45  C   UNL A   1      35.857  33.647  33.274  1.00  0.00    -0.014 A 
BRANCH  45  46
ATOM     46  C   UNL A   1      37.062  32.847  33.611  1.00  0.00     0.031 A 
ATOM     47  C   UNL A   1      37.821  33.133  34.879  1.00  0.00     0.074 A 
ATOM     48  C   UNL A   1      37.524  31.929  32.739  1.00  0.00     0.049 A 
ATOM     49  N   UNL A   1      38.962  32.640  35.289  1.00  0.00    -0.248 NA
ATOM     50  C   UNL A   1      37.233  34.125  35.794  1.00  0.00     0.031 C 
ATOM     51  C   UNL A   1      36.901  31.583  31.459  1.00  0.00     0.029 A 
ATOM     52  N   UNL A   1      38.641  31.130  32.788  1.00  0.00    -0.354 N 
ATOM     53  C   UNL A   1      39.241  33.282  36.489  1.00  0.00     0.074 A 
ATOM     54  C   UNL A   1      38.170  34.224  36.726  1.00  0.00     0.031 C 
ATOM     55  C   UNL A   1      37.637  30.639  30.852  1.00  0.00     0.029 A 
ATOM     56  C   UNL A   1      38.806  30.343  31.672  1.00  0.00     0.049 A 
ATOM     57  H   UNL A   1      39.264  31.123  33.549  1.00  0.00     0.167 HD
ATOM     58  C   UNL A   1      40.288  33.090  37.324  1.00  0.00     0.037 A 
ATOM     59  C   UNL A   1      39.799  29.494  31.342  1.00  0.00     0.037 A 
ATOM     60  C   UNL A   1      41.329  32.120  37.109  1.00  0.00     0.049 A 
ATOM     61  C   UNL A   1      40.952  29.307  32.292  1.00  0.00     0.074 A 
ATOM     62  C   UNL A   1      42.387  31.796  37.940  1.00  0.00     0.029 A 
ATOM     63  N   UNL A   1      41.443  31.319  35.984  1.00  0.00    -0.354 N 
ATOM     64  N   UNL A   1      41.162  29.864  33.460  1.00  0.00    -0.248 NA
ATOM     65  C   UNL A   1      42.008  28.369  31.878  1.00  0.00     0.031 C 
ATOM     66  C   UNL A   1      43.169  30.833  37.296  1.00  0.00     0.029 A 
ATOM     67  C   UNL A   1      42.568  30.519  36.088  1.00  0.00     0.049 A 
ATOM     68  H   UNL A   1      40.816  31.319  35.224  1.00  0.00     0.167 HD
ATOM     69  C   UNL A   1      42.346  29.315  33.936  1.00  0.00     0.074 A 
ATOM     70  C   UNL A   1      42.806  28.376  32.936  1.00  0.00     0.031 C 
ATOM     71  C   UNL A   1      42.995  29.565  35.099  1.00  0.00     0.037 A 
BRANCH  58  72
ATOM     72  C   UNL A   1      40.371  33.940  38.557  1.00  0.00     0.057 A 
ATOM     73  C   UNL A   1      39.759  33.561  39.759  1.00  0.00     0.134 A 
ATOM     74  C   UNL A   1      41.137  35.112  38.563  1.00  0.00     0.134 A 
ATOM     75  F   UNL A   1      39.004  32.454  39.818  1.00  0.00    -0.206 F 
ATOM     76  C   UNL A   1      39.898  34.324  40.919  1.00  0.00     0.040 A 
ATOM     77  C   UNL A   1      41.304  35.870  39.723  1.00  0.00     0.040 A 
ATOM     78  F   UNL A   1      41.755  35.528  37.446  1.00  0.00    -0.206 F 
ATOM     79  C   UNL A   1      40.681  35.477  40.906  1.00  0.00     0.006 A 
ENDBRANCH  58  72
BRANCH  59  80
ATOM     80  C   UNL A   1      39.760  28.747  30.058  1.00  0.00     0.057 A 
ATOM     81  C   UNL A   1      39.164  27.482  29.977  1.00  0.00     0.134 A 
ATOM     82  C   UNL A   1      40.361  29.250  28.899  1.00  0.00     0.134 A 
ATOM     83  F   UNL A   1      38.589  26.937  31.059  1.00  0.00    -0.206 F 
ATOM     84  C   UNL A   1      39.199  26.730  28.802  1.00  0.00     0.040 A 
ATOM     85  C   UNL A   1      40.378  28.521  27.708  1.00  0.00     0.040 A 
ATOM     86  F   UNL A   1      40.943  30.458  28.906  1.00  0.00    -0.206 F 
ATOM     87  C   UNL A   1      39.807  27.251  27.661  1.00  0.00     0.006 A 
ENDBRANCH  59  80
BRANCH  71  88
ATOM     88  C   UNL A   1      44.235  28.772  35.387  1.00  0.00     0.057 A 
ATOM     89  C   UNL A   1      44.190  27.528  36.028  1.00  0.00     0.134 A 
ATOM     90  C   UNL A   1      45.487  29.239  34.963  1.00  0.00     0.134 A 
ATOM     91  F   UNL A   1      43.024  27.032  36.469  1.00  0.00    -0.206 F 
ATOM     92  C   UNL A   1      45.348  26.783  36.252  1.00  0.00     0.040 A 
ATOM     93  C   UNL A   1      46.648  28.491  35.158  1.00  0.00     0.040 A 
ATOM     94  F   UNL A   1      45.597  30.420  34.335  1.00  0.00    -0.206 F 
ATOM     95  C   UNL A   1      46.581  27.261  35.808  1.00  0.00     0.006 A 
ENDBRANCH  71  88
ENDBRANCH  45  46
ENDBRANCH  37  40
ENDBRANCH  35  36
ENDBRANCH  34  35
ENDBRANCH  33  34
ENDBRANCH  32  33
ENDBRANCH  31  32
ENDBRANCH   1  31
TORSDOF 19
ENDMDL
MODEL 2
REMARK VINA RESULT:     -11.4      6.813     12.370
REMARK SMILES O=C(COc1ccccc1/C=N\N1CC[NH+](Cc2ccc(Cl)cc2)CC1)NCCCCCCNC(=O)c1ccc(-c2c3nc(c(-c4c(F)cccc4F)c4ccc([nH]4)c(-c4c(F)cccc4F)c4nc(c(-c5c(F)cccc5F)c5ccc2[nH]5)C=C4)C=C3)cc1
REMARK SMILES IDX 28 1 27 2 1 3 2 4 3 6 4 7 5 8 6 9 10 10 7 11 9 12 8 13 11 14
REMARK SMILES IDX 12 15 13 16 14 17 26 18 15 19 25 20 16 21 17 23 18 24 19 25
REMARK SMILES IDX 24 26 20 27 23 28 21 29 22 30 29 31 30 32 31 33 32 34 33 35
REMARK SMILES IDX 34 36 35 37 36 39 37 40 38 41 90 42 39 43 89 44 40 45 41 46
REMARK SMILES IDX 42 47 83 48 43 49 88 50 82 51 84 52 44 53 87 54 81 55 80 56
REMARK SMILES IDX 45 58 71 59 54 60 70 61 55 62 58 63 69 64 85 65 56 66 57 67
REMARK SMILES IDX 68 69 86 70 59 71 46 72 47 73 52 74 48 75 49 76 51 77 53 78
REMARK SMILES IDX 50 79 72 80 73 81 78 82 74 83 75 84 77 85 79 86 76 87 60 88
REMARK SMILES IDX 61 89 66 90 62 91 63 92 65 93 67 94 64 95
REMARK H PARENT 27 5 16 22 34 38 84 57 58 68
REMARK Flexibility Score: inf
ROOT
ATOM      1  C   UNL A   1      39.787  22.784  26.444  1.00  0.00     0.116 C 
ENDROOT
BRANCH   1   2
ATOM      2  N   UNL A   1      38.606  22.042  26.046  1.00  0.00    -0.353 N 
ATOM      3  O   UNL A   1      37.294  23.879  25.633  1.00  0.00    -0.271 OA
ATOM      4  C   UNL A   1      37.506  22.675  25.507  1.00  0.00     0.257 C 
ATOM      5  H   UNL A   1      38.589  21.064  26.162  1.00  0.00     0.163 HD
BRANCH   4   6
ATOM      6  C   UNL A   1      36.605  21.789  24.624  1.00  0.00     0.329 C 
BRANCH   6   7
ATOM      7  O   UNL A   1      36.364  20.458  25.040  1.00  0.00    -0.483 OA
BRANCH   7   8
ATOM      8  C   UNL A   1      35.095  19.972  25.256  1.00  0.00     0.128 A 
ATOM      9  C   UNL A   1      34.848  18.790  24.534  1.00  0.00     0.047 A 
ATOM     10  C   UNL A   1      34.002  20.692  25.764  1.00  0.00     0.037 A 
ATOM     11  C   UNL A   1      33.550  18.387  24.221  1.00  0.00     0.004 A 
ATOM     12  C   UNL A   1      32.728  20.372  25.272  1.00  0.00     0.013 A 
ATOM     13  C   UNL A   1      32.492  19.222  24.525  1.00  0.00     0.001 A 
BRANCH  10  14
ATOM     14  C   UNL A   1      34.171  21.667  26.873  1.00  0.00     0.145 C 
ATOM     15  N   UNL A   1      33.906  22.936  27.008  1.00  0.00    -0.185 NA
BRANCH  15  16
ATOM     16  N   UNL A   1      33.232  23.558  26.024  1.00  0.00    -0.286 NA
ATOM     17  C   UNL A   1      33.962  24.661  25.378  1.00  0.00     0.200 C 
ATOM     18  C   UNL A   1      31.898  24.039  26.451  1.00  0.00     0.200 C 
ATOM     19  C   UNL A   1      33.156  25.357  24.258  1.00  0.00     0.286 C 
ATOM     20  C   UNL A   1      31.088  24.642  25.290  1.00  0.00     0.286 C 
ATOM     21  N   UNL A   1      31.760  25.715  24.551  1.00  0.00    -0.328 N 
ATOM     22  H   UNL A   1      31.299  25.793  23.645  1.00  0.00     0.348 HD
BRANCH  21  23
ATOM     23  C   UNL A   1      31.537  27.065  25.089  1.00  0.00     0.299 C 
BRANCH  23  24
ATOM     24  C   UNL A   1      30.530  27.931  24.365  1.00  0.00     0.006 A 
ATOM     25  C   UNL A   1      30.755  29.309  24.206  1.00  0.00     0.011 A 
ATOM     26  C   UNL A   1      29.407  27.354  23.755  1.00  0.00     0.011 A 
ATOM     27  C   UNL A   1      29.942  30.066  23.358  1.00  0.00     0.021 A 
ATOM     28  C   UNL A   1      28.598  28.109  22.904  1.00  0.00     0.021 A 
ATOM     29  C   UNL A   1      28.884  29.455  22.690  1.00  0.00     0.041 A 
ATOM     30  Cl  UNL A   1      27.942  30.361  21.571  1.00  0.00    -0.084 Cl
ENDBRANCH  23  24
ENDBRANCH  21  23
ENDBRANCH  15  16
ENDBRANCH  10  14
ENDBRANCH   7   8
ENDBRANCH   6   7
ENDBRANCH   4   6
ENDBRANCH   1   2
BRANCH   1  31
ATOM     31  C   UNL A   1      40.443  22.250  27.710  1.00  0.00     0.021 C 
BRANCH  31  32
ATOM     32  C   UNL A   1      41.807  21.598  27.475  1.00  0.00     0.002 C 
BRANCH  32  33
ATOM     33  C   UNL A   1      42.047  21.066  26.058  1.00  0.00     0.002 C 
BRANCH  33  34
ATOM     34  C   UNL A   1      42.073  19.542  25.921  1.00  0.00     0.021 C 
BRANCH  34  35
ATOM     35  C   UNL A   1      43.434  18.894  26.157  1.00  0.00     0.116 C 
BRANCH  35  36
ATOM     36  N   UNL A   1      44.115  18.549  24.917  1.00  0.00    -0.352 N 
ATOM     37  C   UNL A   1      44.818  19.359  24.059  1.00  0.00     0.251 C 
ATOM     38  H   UNL A   1      44.065  17.601  24.656  1.00  0.00     0.163 HD
ATOM     39  O   UNL A   1      45.212  18.928  22.979  1.00  0.00    -0.269 OA
BRANCH  37  40
ATOM     40  C   UNL A   1      45.077  20.766  24.428  1.00  0.00     0.039 A 
ATOM     41  C   UNL A   1      44.680  21.781  23.553  1.00  0.00     0.014 A 
ATOM     42  C   UNL A   1      45.697  21.083  25.639  1.00  0.00     0.014 A 
ATOM     43  C   UNL A   1      44.839  23.117  23.926  1.00  0.00     0.010 A 
ATOM     44  C   UNL A   1      45.792  22.413  26.038  1.00  0.00     0.010 A 
ATOM     45  C   UNL A   1      45.362  23.444  25.187  1.00  0.00    -0.014 A 
BRANCH  45  46
ATOM     46  C   UNL A   1      45.472  24.853  25.645  1.00  0.00     0.031 A 
ATOM     47  C   UNL A   1      46.811  25.541  25.639  1.00  0.00     0.074 A 
ATOM     48  C   UNL A   1      44.391  25.482  26.148  1.00  0.00     0.049 A 
ATOM     49  N   UNL A   1      47.140  26.714  26.116  1.00  0.00    -0.248 NA
ATOM     50  C   UNL A   1      47.934  24.800  25.043  1.00  0.00     0.031 C 
ATOM     51  C   UNL A   1      43.045  24.913  26.243  1.00  0.00     0.029 A 
ATOM     52  N   UNL A   1      44.259  26.735  26.695  1.00  0.00    -0.354 N 
ATOM     53  C   UNL A   1      48.508  26.837  25.906  1.00  0.00     0.074 A 
ATOM     54  C   UNL A   1      48.954  25.608  25.289  1.00  0.00     0.031 C 
ATOM     55  C   UNL A   1      42.224  25.816  26.803  1.00  0.00     0.029 A 
ATOM     56  C   UNL A   1      42.989  27.009  27.149  1.00  0.00     0.049 A 
ATOM     57  H   UNL A   1      45.002  27.377  26.757  1.00  0.00     0.167 HD
ATOM     58  C   UNL A   1      49.313  27.888  26.187  1.00  0.00     0.037 A 
ATOM     59  C   UNL A   1      42.505  28.091  27.788  1.00  0.00     0.037 A 
ATOM     60  C   UNL A   1      48.858  29.127  26.759  1.00  0.00     0.049 A 
ATOM     61  C   UNL A   1      43.429  29.241  28.090  1.00  0.00     0.074 A 
ATOM     62  C   UNL A   1      49.585  30.279  27.004  1.00  0.00     0.029 A 
ATOM     63  N   UNL A   1      47.559  29.377  27.173  1.00  0.00    -0.354 N 
ATOM     64  N   UNL A   1      44.703  29.374  27.814  1.00  0.00    -0.248 NA
ATOM     65  C   UNL A   1      42.845  30.394  28.792  1.00  0.00     0.031 C 
ATOM     66  C   UNL A   1      48.737  31.209  27.611  1.00  0.00     0.029 A 
ATOM     67  C   UNL A   1      47.470  30.656  27.696  1.00  0.00     0.049 A 
ATOM     68  H   UNL A   1      46.811  28.739  27.105  1.00  0.00     0.167 HD
ATOM     69  C   UNL A   1      45.062  30.636  28.269  1.00  0.00     0.074 A 
ATOM     70  C   UNL A   1      43.870  31.234  28.832  1.00  0.00     0.031 C 
ATOM     71  C   UNL A   1      46.270  31.248  28.223  1.00  0.00     0.037 A 
BRANCH  58  72
ATOM     72  C   UNL A   1      50.775  27.756  25.881  1.00  0.00     0.057 A 
ATOM     73  C   UNL A   1      51.289  28.012  24.603  1.00  0.00     0.134 A 
ATOM     74  C   UNL A   1      51.690  27.446  26.896  1.00  0.00     0.134 A 
ATOM     75  F   UNL A   1      50.467  28.306  23.586  1.00  0.00    -0.206 F 
ATOM     76  C   UNL A   1      52.660  27.953  24.344  1.00  0.00     0.040 A 
ATOM     77  C   UNL A   1      53.063  27.408  26.655  1.00  0.00     0.040 A 
ATOM     78  F   UNL A   1      51.263  27.196  28.144  1.00  0.00    -0.206 F 
ATOM     79  C   UNL A   1      53.552  27.661  25.374  1.00  0.00     0.006 A 
ENDBRANCH  58  72
BRANCH  59  80
ATOM     80  C   UNL A   1      41.076  28.156  28.191  1.00  0.00     0.057 A 
ATOM     81  C   UNL A   1      40.111  28.715  27.344  1.00  0.00     0.134 A 
ATOM     82  C   UNL A   1      40.648  27.712  29.448  1.00  0.00     0.134 A 
ATOM     83  F   UNL A   1      40.463  29.176  26.135  1.00  0.00    -0.206 F 
ATOM     84  C   UNL A   1      38.783  28.864  27.743  1.00  0.00     0.040 A 
ATOM     85  C   UNL A   1      39.316  27.828  29.850  1.00  0.00     0.040 A 
ATOM     86  F   UNL A   1      41.519  27.159  30.305  1.00  0.00    -0.206 F 
ATOM     87  C   UNL A   1      38.382  28.418  29.001  1.00  0.00     0.006 A 
ENDBRANCH  59  80
BRANCH  71  88
ATOM     88  C   UNL A   1      46.356  32.655  28.737  1.00  0.00     0.057 A 
ATOM     89  C   UNL A   1      46.688  32.942  30.067  1.00  0.00     0.134 A 
ATOM     90  C   UNL A   1      46.158  33.738  27.870  1.00  0.00     0.134 A 
ATOM     91  F   UNL A   1      46.877  31.950  30.950  1.00  0.00    -0.206 F 
ATOM     92  C   UNL A   1      46.804  34.256  30.520  1.00  0.00     0.040 A 
ATOM     93  C   UNL A   1      46.298  35.055  28.305  1.00  0.00     0.040 A 
ATOM     94  F   UNL A   1      45.846  33.531  26.581  1.00  0.00    -0.206 F 
ATOM     95  C   UNL A   1      46.618  35.318  29.635  1.00  0.00     0.006 A 
ENDBRANCH  71  88
ENDBRANCH  45  46
ENDBRANCH  37  40
ENDBRANCH  35  36
ENDBRANCH  34  35
ENDBRANCH  33  34
ENDBRANCH  32  33
ENDBRANCH  31  32
ENDBRANCH   1  31
TORSDOF 19
ENDMDL
MODEL 3
REMARK VINA RESULT:     -11.3      2.322      3.176
REMARK SMILES O=C(COc1ccccc1/C=N\N1CC[NH+](Cc2ccc(Cl)cc2)CC1)NCCCCCCNC(=O)c1ccc(-c2c3nc(c(-c4c(F)cccc4F)c4ccc([nH]4)c(-c4c(F)cccc4F)c4nc(c(-c5c(F)cccc5F)c5ccc2[nH]5)C=C4)C=C3)cc1
REMARK SMILES IDX 28 1 27 2 1 3 2 4 3 6 4 7 5 8 6 9 10 10 7 11 9 12 8 13 11 14
REMARK SMILES IDX 12 15 13 16 14 17 26 18 15 19 25 20 16 21 17 23 18 24 19 25
REMARK SMILES IDX 24 26 20 27 23 28 21 29 22 30 29 31 30 32 31 33 32 34 33 35
REMARK SMILES IDX 34 36 35 37 36 39 37 40 38 41 90 42 39 43 89 44 40 45 41 46
REMARK SMILES IDX 42 47 83 48 43 49 88 50 82 51 84 52 44 53 87 54 81 55 80 56
REMARK SMILES IDX 45 58 71 59 54 60 70 61 55 62 58 63 69 64 85 65 56 66 57 67
REMARK SMILES IDX 68 69 86 70 59 71 46 72 47 73 52 74 48 75 49 76 51 77 53 78
REMARK SMILES IDX 50 79 72 80 73 81 78 82 74 83 75 84 77 85 79 86 76 87 60 88
REMARK SMILES IDX 61 89 66 90 62 91 63 92 65 93 67 94 64 95
REMARK H PARENT 27 5 16 22 34 38 84 57 58 68
REMARK Flexibility Score: inf
ROOT
ATOM      1  C   UNL A   1      33.213  31.158  27.270  1.00  0.00     0.116 C 
ENDROOT
BRANCH   1   2
ATOM      2  N   UNL A   1      33.026  29.728  27.119  1.00  0.00    -0.353 N 
ATOM      3  O   UNL A   1      33.236  29.698  24.834  1.00  0.00    -0.271 OA
ATOM      4  C   UNL A   1      33.227  29.101  25.907  1.00  0.00     0.257 C 
ATOM      5  H   UNL A   1      32.749  29.193  27.898  1.00  0.00     0.163 HD
BRANCH   4   6
ATOM      6  C   UNL A   1      33.560  27.598  25.994  1.00  0.00     0.329 C 
BRANCH   6   7
ATOM      7  O   UNL A   1      33.247  26.780  24.883  1.00  0.00    -0.483 OA
BRANCH   7   8
ATOM      8  C   UNL A   1      32.207  25.879  24.901  1.00  0.00     0.128 A 
ATOM      9  C   UNL A   1      31.135  26.321  25.699  1.00  0.00     0.047 A 
ATOM     10  C   UNL A   1      32.275  24.521  24.555  1.00  0.00     0.037 A 
ATOM     11  C   UNL A   1      30.214  25.424  26.240  1.00  0.00     0.004 A 
ATOM     12  C   UNL A   1      31.458  23.628  25.265  1.00  0.00     0.013 A 
ATOM     13  C   UNL A   1      30.422  24.067  26.085  1.00  0.00     0.001 A 
BRANCH  10  14
ATOM     14  C   UNL A   1      33.084  24.060  23.397  1.00  0.00     0.145 C 
ATOM     15  N   UNL A   1      34.265  23.521  23.278  1.00  0.00    -0.185 NA
BRANCH  15  16
ATOM     16  N   UNL A   1      34.922  23.164  24.396  1.00  0.00    -0.286 NA
ATOM     17  C   UNL A   1      36.033  24.055  24.770  1.00  0.00     0.200 C 
ATOM     18  C   UNL A   1      35.409  21.765  24.359  1.00  0.00     0.200 C 
ATOM     19  C   UNL A   1      36.770  23.611  26.054  1.00  0.00     0.286 C 
ATOM     20  C   UNL A   1      36.053  21.330  25.686  1.00  0.00     0.286 C 
ATOM     21  N   UNL A   1      37.138  22.191  26.167  1.00  0.00    -0.328 N 
ATOM     22  H   UNL A   1      37.246  22.014  27.165  1.00  0.00     0.348 HD
BRANCH  21  23
ATOM     23  C   UNL A   1      38.475  21.829  25.677  1.00  0.00     0.299 C 
BRANCH  23  24
ATOM     24  C   UNL A   1      39.630  22.024  26.635  1.00  0.00     0.006 A 
ATOM     25  C   UNL A   1      40.538  20.981  26.882  1.00  0.00     0.011 A 
ATOM     26  C   UNL A   1      39.868  23.279  27.213  1.00  0.00     0.011 A 
ATOM     27  C   UNL A   1      41.718  21.222  27.590  1.00  0.00     0.021 A 
ATOM     28  C   UNL A   1      41.049  23.521  27.916  1.00  0.00     0.021 A 
ATOM     29  C   UNL A   1      41.980  22.498  28.081  1.00  0.00     0.041 A 
ATOM     30  Cl  UNL A   1      43.475  22.822  28.867  1.00  0.00    -0.084 Cl
ENDBRANCH  23  24
ENDBRANCH  21  23
ENDBRANCH  15  16
ENDBRANCH  10  14
ENDBRANCH   7   8
ENDBRANCH   6   7
ENDBRANCH   4   6
ENDBRANCH   1   2
BRANCH   1  31
ATOM     31  C   UNL A   1      34.545  31.534  27.906  1.00  0.00     0.021 C 
BRANCH  31  32
ATOM     32  C   UNL A   1      34.411  32.338  29.201  1.00  0.00     0.002 C 
BRANCH  32  33
ATOM     33  C   UNL A   1      34.624  33.849  29.062  1.00  0.00     0.002 C 
BRANCH  33  34
ATOM     34  C   UNL A   1      33.349  34.693  29.005  1.00  0.00     0.021 C 
BRANCH  34  35
ATOM     35  C   UNL A   1      33.477  36.100  29.581  1.00  0.00     0.116 C 
BRANCH  35  36
ATOM     36  N   UNL A   1      32.523  36.360  30.649  1.00  0.00    -0.352 N 
ATOM     37  C   UNL A   1      32.529  35.910  31.946  1.00  0.00     0.251 C 
ATOM     38  H   UNL A   1      31.765  36.940  30.408  1.00  0.00     0.163 HD
ATOM     39  O   UNL A   1      31.566  36.112  32.681  1.00  0.00    -0.269 OA
BRANCH  37  40
ATOM     40  C   UNL A   1      33.692  35.153  32.452  1.00  0.00     0.039 A 
ATOM     41  C   UNL A   1      33.509  33.835  32.882  1.00  0.00     0.014 A 
ATOM     42  C   UNL A   1      34.962  35.735  32.489  1.00  0.00     0.014 A 
ATOM     43  C   UNL A   1      34.613  33.078  33.282  1.00  0.00     0.010 A 
ATOM     44  C   UNL A   1      36.068  34.959  32.822  1.00  0.00     0.010 A 
ATOM     45  C   UNL A   1      35.907  33.622  33.219  1.00  0.00    -0.014 A 
BRANCH  45  46
ATOM     46  C   UNL A   1      37.108  32.819  33.562  1.00  0.00     0.031 A 
ATOM     47  C   UNL A   1      37.873  33.117  34.824  1.00  0.00     0.074 A 
ATOM     48  C   UNL A   1      37.562  31.887  32.701  1.00  0.00     0.049 A 
ATOM     49  N   UNL A   1      39.013  32.622  35.235  1.00  0.00    -0.248 NA
ATOM     50  C   UNL A   1      37.295  34.124  35.728  1.00  0.00     0.031 C 
ATOM     51  C   UNL A   1      36.932  31.529  31.428  1.00  0.00     0.029 A 
ATOM     52  N   UNL A   1      38.674  31.083  32.755  1.00  0.00    -0.354 N 
ATOM     53  C   UNL A   1      39.300  33.278  36.426  1.00  0.00     0.074 A 
ATOM     54  C   UNL A   1      38.236  34.229  36.655  1.00  0.00     0.031 C 
ATOM     55  C   UNL A   1      37.660  30.573  30.829  1.00  0.00     0.029 A 
ATOM     56  C   UNL A   1      38.831  30.280  31.649  1.00  0.00     0.049 A 
ATOM     57  H   UNL A   1      39.300  31.082  33.514  1.00  0.00     0.167 HD
ATOM     58  C   UNL A   1      40.350  33.090  37.260  1.00  0.00     0.037 A 
ATOM     59  C   UNL A   1      39.817  29.422  31.326  1.00  0.00     0.037 A 
ATOM     60  C   UNL A   1      41.384  32.112  37.053  1.00  0.00     0.049 A 
ATOM     61  C   UNL A   1      40.973  29.240  32.274  1.00  0.00     0.074 A 
ATOM     62  C   UNL A   1      42.443  31.792  37.885  1.00  0.00     0.029 A 
ATOM     63  N   UNL A   1      41.489  31.296  35.938  1.00  0.00    -0.354 N 
ATOM     64  N   UNL A   1      41.190  29.811  33.434  1.00  0.00    -0.248 NA
ATOM     65  C   UNL A   1      42.021  28.291  31.868  1.00  0.00     0.031 C 
ATOM     66  C   UNL A   1      43.217  30.816  37.251  1.00  0.00     0.029 A 
ATOM     67  C   UNL A   1      42.610  30.491  36.049  1.00  0.00     0.049 A 
ATOM     68  H   UNL A   1      40.859  31.289  35.181  1.00  0.00     0.167 HD
ATOM     69  C   UNL A   1      42.373  29.261  33.913  1.00  0.00     0.074 A 
ATOM     70  C   UNL A   1      42.824  28.307  32.923  1.00  0.00     0.031 C 
ATOM     71  C   UNL A   1      43.027  29.522  35.070  1.00  0.00     0.037 A 
BRANCH  58  72
ATOM     72  C   UNL A   1      40.442  33.956  38.482  1.00  0.00     0.057 A 
ATOM     73  C   UNL A   1      39.806  33.610  39.682  1.00  0.00     0.134 A 
ATOM     74  C   UNL A   1      41.241  35.106  38.481  1.00  0.00     0.134 A 
ATOM     75  F   UNL A   1      39.020  32.526  39.747  1.00  0.00    -0.206 F 
ATOM     76  C   UNL A   1      39.952  34.386  40.833  1.00  0.00     0.040 A 
ATOM     77  C   UNL A   1      41.415  35.876  39.632  1.00  0.00     0.040 A 
ATOM     78  F   UNL A   1      41.882  35.489  37.366  1.00  0.00    -0.206 F 
ATOM     79  C   UNL A   1      40.768  35.516  40.812  1.00  0.00     0.006 A 
ENDBRANCH  58  72
BRANCH  59  80
ATOM     80  C   UNL A   1      39.770  28.658  30.052  1.00  0.00     0.057 A 
ATOM     81  C   UNL A   1      39.190  27.385  29.995  1.00  0.00     0.134 A 
ATOM     82  C   UNL A   1      40.345  29.156  28.877  1.00  0.00     0.134 A 
ATOM     83  F   UNL A   1      38.640  26.845  31.092  1.00  0.00    -0.206 F 
ATOM     84  C   UNL A   1      39.218  26.619  28.828  1.00  0.00     0.040 A 
ATOM     85  C   UNL A   1      40.354  28.413  27.695  1.00  0.00     0.040 A 
ATOM     86  F   UNL A   1      40.910  30.373  28.861  1.00  0.00    -0.206 F 
ATOM     87  C   UNL A   1      39.801  27.135  27.672  1.00  0.00     0.006 A 
ENDBRANCH  59  80
BRANCH  71  88
ATOM     88  C   UNL A   1      44.264  28.725  35.363  1.00  0.00     0.057 A 
ATOM     89  C   UNL A   1      44.217  27.502  36.043  1.00  0.00     0.134 A 
ATOM     90  C   UNL A   1      45.514  29.166  34.907  1.00  0.00     0.134 A 
ATOM     91  F   UNL A   1      43.053  27.032  36.517  1.00  0.00    -0.206 F 
ATOM     92  C   UNL A   1      45.371  26.753  36.273  1.00  0.00     0.040 A 
ATOM     93  C   UNL A   1      46.670  28.412  35.106  1.00  0.00     0.040 A 
ATOM     94  F   UNL A   1      45.626  30.326  34.241  1.00  0.00    -0.206 F 
ATOM     95  C   UNL A   1      46.601  27.203  35.795  1.00  0.00     0.006 A 
ENDBRANCH  71  88
ENDBRANCH  45  46
ENDBRANCH  37  40
ENDBRANCH  35  36
ENDBRANCH  34  35
ENDBRANCH  33  34
ENDBRANCH  32  33
ENDBRANCH  31  32
ENDBRANCH   1  31
TORSDOF 19
ENDMDL
