MODEL 1
REMARK VINA RESULT:     -12.0      0.000      0.000
REMARK SMILES Cc1ccc([C@@H](Cc2cccs2)C(=O)NCCCCCCNC(=O)c2ccc(-c3c4nc(c(-c5c(F)cccc5F)c5ccc([nH]5)c(-c5c(F)cccc5F)c5nc(c(-c6c(F)cccc6F)c6ccc3[nH]6)C=C5)C=C4)cc2)cc1
REMARK SMILES IDX 18 1 17 2 16 3 15 4 13 5 14 6 6 8 5 9 1 10 2 11 3 12 80 13
REMARK SMILES IDX 4 14 79 15 7 16 8 17 9 18 12 19 10 20 11 21 19 22 20 23
REMARK SMILES IDX 21 24 22 25 23 26 24 28 25 29 26 30 78 31 27 32 77 33 28 34
REMARK SMILES IDX 29 35 30 36 71 37 31 38 76 39 70 40 72 41 32 42 75 43 69 44
REMARK SMILES IDX 68 45 33 47 59 48 42 49 58 50 43 51 46 52 57 53 73 54 44 55
REMARK SMILES IDX 45 56 56 58 74 59 47 60 34 61 35 62 40 63 36 64 37 65 39 66
REMARK SMILES IDX 41 67 38 68 60 69 61 70 66 71 62 72 63 73 65 74 67 75 64 76
REMARK SMILES IDX 48 77 49 78 54 79 50 80 51 81 53 82 55 83 52 84
REMARK H PARENT 15 7 22 27 72 46 46 57
REMARK Flexibility Score: inf
ROOT
ATOM      1  C   UNL A   1      31.708  28.896  25.336  1.00  0.00     0.002 C 
ENDROOT
BRANCH   1   2
ATOM      2  C   UNL A   1      31.045  27.588  24.878  1.00  0.00     0.021 C 
BRANCH   2   3
ATOM      3  C   UNL A   1      31.993  26.419  24.615  1.00  0.00     0.116 C 
BRANCH   3   4
ATOM      4  N   UNL A   1      32.713  26.503  23.368  1.00  0.00    -0.356 N 
ATOM      5  C   UNL A   1      33.262  25.543  22.582  1.00  0.00     0.227 C 
ATOM      6  O   UNL A   1      33.652  25.924  21.468  1.00  0.00    -0.274 OA
ATOM      7  H   UNL A   1      32.825  27.420  23.027  1.00  0.00     0.163 HD
BRANCH   5   8
ATOM      8  C   UNL A   1      33.438  24.064  22.975  1.00  0.00     0.113 C 
BRANCH   8   9
ATOM      9  C   UNL A   1      34.687  23.773  23.807  1.00  0.00    -0.035 A 
ATOM     10  C   UNL A   1      38.307  22.899  26.036  1.00  0.00     0.044 C 
ATOM     11  C   UNL A   1      37.063  23.193  25.253  1.00  0.00    -0.051 A 
ATOM     12  C   UNL A   1      36.064  23.993  25.810  1.00  0.00     0.004 A 
ATOM     13  C   UNL A   1      36.878  22.691  23.965  1.00  0.00     0.004 A 
ATOM     14  C   UNL A   1      34.896  24.277  25.094  1.00  0.00     0.005 A 
ATOM     15  C   UNL A   1      35.710  22.981  23.252  1.00  0.00     0.005 A 
ENDBRANCH   8   9
BRANCH   8  16
ATOM     16  C   UNL A   1      32.159  23.219  23.178  1.00  0.00     0.065 C 
BRANCH  16  17
ATOM     17  C   UNL A   1      32.279  21.803  23.666  1.00  0.00     0.006 A 
ATOM     18  C   UNL A   1      32.291  20.631  22.931  1.00  0.00     0.015 A 
ATOM     19  S   UNL A   1      32.282  21.462  25.354  1.00  0.00    -0.149 S 
ATOM     20  C   UNL A   1      32.501  19.480  23.742  1.00  0.00     0.012 A 
ATOM     21  C   UNL A   1      32.536  19.794  25.081  1.00  0.00     0.065 A 
ENDBRANCH  16  17
ENDBRANCH   8  16
ENDBRANCH   5   8
ENDBRANCH   3   4
ENDBRANCH   2   3
ENDBRANCH   1   2
BRANCH   1  22
ATOM     22  C   UNL A   1      32.043  29.041  26.833  1.00  0.00     0.002 C 
BRANCH  22  23
ATOM     23  C   UNL A   1      32.754  30.328  27.255  1.00  0.00     0.021 C 
BRANCH  23  24
ATOM     24  C   UNL A   1      34.255  30.178  27.459  1.00  0.00     0.116 C 
BRANCH  24  25
ATOM     25  N   UNL A   1      34.807  31.092  28.457  1.00  0.00    -0.352 N 
ATOM     26  C   UNL A   1      35.968  30.964  29.200  1.00  0.00     0.251 C 
ATOM     27  H   UNL A   1      34.282  31.909  28.623  1.00  0.00     0.163 HD
ATOM     28  O   UNL A   1      36.317  31.837  29.978  1.00  0.00    -0.269 OA
BRANCH  26  29
ATOM     29  C   UNL A   1      36.847  29.803  28.933  1.00  0.00     0.039 A 
ATOM     30  C   UNL A   1      37.116  28.939  29.999  1.00  0.00     0.014 A 
ATOM     31  C   UNL A   1      37.582  29.731  27.751  1.00  0.00     0.014 A 
ATOM     32  C   UNL A   1      38.290  28.195  29.983  1.00  0.00     0.010 A 
ATOM     33  C   UNL A   1      38.784  29.052  27.763  1.00  0.00     0.010 A 
ATOM     34  C   UNL A   1      39.173  28.360  28.916  1.00  0.00    -0.014 A 
BRANCH  34  35
ATOM     35  C   UNL A   1      40.579  27.984  29.010  1.00  0.00     0.031 A 
ATOM     36  C   UNL A   1      41.048  26.683  28.502  1.00  0.00     0.074 A 
ATOM     37  C   UNL A   1      41.451  28.852  29.573  1.00  0.00     0.049 A 
ATOM     38  N   UNL A   1      42.133  26.104  28.892  1.00  0.00    -0.248 NA
ATOM     39  C   UNL A   1      40.266  25.871  27.575  1.00  0.00     0.031 C 
ATOM     40  C   UNL A   1      42.908  28.777  29.574  1.00  0.00     0.029 A 
ATOM     41  N   UNL A   1      41.152  29.876  30.485  1.00  0.00    -0.354 N 
ATOM     42  C   UNL A   1      42.339  25.011  28.084  1.00  0.00     0.074 A 
ATOM     43  C   UNL A   1      41.088  24.832  27.393  1.00  0.00     0.031 C 
ATOM     44  C   UNL A   1      43.375  29.481  30.618  1.00  0.00     0.029 A 
ATOM     45  C   UNL A   1      42.227  29.910  31.398  1.00  0.00     0.049 A 
ATOM     46  H   UNL A   1      40.355  30.454  30.487  1.00  0.00     0.167 HD
ATOM     47  C   UNL A   1      43.597  24.487  28.002  1.00  0.00     0.037 A 
ATOM     48  C   UNL A   1      42.044  29.653  32.726  1.00  0.00     0.037 A 
ATOM     49  C   UNL A   1      44.439  24.999  29.089  1.00  0.00     0.049 A 
ATOM     50  C   UNL A   1      42.840  28.479  33.244  1.00  0.00     0.074 A 
ATOM     51  C   UNL A   1      45.453  25.940  29.144  1.00  0.00     0.029 A 
ATOM     52  N   UNL A   1      44.095  24.716  30.408  1.00  0.00    -0.354 N 
ATOM     53  N   UNL A   1      43.406  27.587  32.479  1.00  0.00    -0.248 NA
ATOM     54  C   UNL A   1      43.018  28.187  34.666  1.00  0.00     0.031 C 
ATOM     55  C   UNL A   1      45.642  26.297  30.506  1.00  0.00     0.029 A 
ATOM     56  C   UNL A   1      44.776  25.543  31.279  1.00  0.00     0.049 A 
ATOM     57  H   UNL A   1      43.454  24.020  30.683  1.00  0.00     0.167 HD
ATOM     58  C   UNL A   1      43.950  26.599  33.257  1.00  0.00     0.074 A 
ATOM     59  C   UNL A   1      43.714  27.038  34.619  1.00  0.00     0.031 C 
ATOM     60  C   UNL A   1      44.522  25.484  32.714  1.00  0.00     0.037 A 
BRANCH  47  61
ATOM     61  C   UNL A   1      44.153  23.703  26.819  1.00  0.00     0.057 A 
ATOM     62  C   UNL A   1      44.946  24.355  25.849  1.00  0.00     0.134 A 
ATOM     63  C   UNL A   1      43.852  22.365  26.489  1.00  0.00     0.134 A 
ATOM     64  F   UNL A   1      45.350  25.623  26.009  1.00  0.00    -0.206 F 
ATOM     65  C   UNL A   1      45.349  23.750  24.646  1.00  0.00     0.040 A 
ATOM     66  C   UNL A   1      44.273  21.741  25.305  1.00  0.00     0.040 A 
ATOM     67  F   UNL A   1      43.102  21.576  27.260  1.00  0.00    -0.206 F 
ATOM     68  C   UNL A   1      45.009  22.438  24.366  1.00  0.00     0.006 A 
ENDBRANCH  47  61
BRANCH  48  69
ATOM     69  C   UNL A   1      40.710  30.062  33.234  1.00  0.00     0.057 A 
ATOM     70  C   UNL A   1      40.455  31.427  33.450  1.00  0.00     0.134 A 
ATOM     71  C   UNL A   1      39.603  29.209  33.178  1.00  0.00     0.134 A 
ATOM     72  F   UNL A   1      41.475  32.300  33.515  1.00  0.00    -0.206 F 
ATOM     73  C   UNL A   1      39.158  31.940  33.502  1.00  0.00     0.040 A 
ATOM     74  C   UNL A   1      38.297  29.710  33.241  1.00  0.00     0.040 A 
ATOM     75  F   UNL A   1      39.761  27.898  32.953  1.00  0.00    -0.206 F 
ATOM     76  C   UNL A   1      38.072  31.080  33.365  1.00  0.00     0.006 A 
ENDBRANCH  48  69
BRANCH  60  77
ATOM     77  C   UNL A   1      44.945  24.266  33.492  1.00  0.00     0.057 A 
ATOM     78  C   UNL A   1      44.155  23.116  33.646  1.00  0.00     0.134 A 
ATOM     79  C   UNL A   1      46.257  24.167  34.001  1.00  0.00     0.134 A 
ATOM     80  F   UNL A   1      42.928  23.035  33.113  1.00  0.00    -0.206 F 
ATOM     81  C   UNL A   1      44.615  21.973  34.314  1.00  0.00     0.040 A 
ATOM     82  C   UNL A   1      46.743  23.014  34.625  1.00  0.00     0.040 A 
ATOM     83  F   UNL A   1      47.127  25.182  33.896  1.00  0.00    -0.206 F 
ATOM     84  C   UNL A   1      45.915  21.915  34.798  1.00  0.00     0.006 A 
ENDBRANCH  60  77
ENDBRANCH  34  35
ENDBRANCH  26  29
ENDBRANCH  24  25
ENDBRANCH  23  24
ENDBRANCH  22  23
ENDBRANCH   1  22
TORSDOF 16
ENDMDL
MODEL 2
REMARK VINA RESULT:     -11.9      1.666      3.092
REMARK SMILES Cc1ccc([C@@H](Cc2cccs2)C(=O)NCCCCCCNC(=O)c2ccc(-c3c4nc(c(-c5c(F)cccc5F)c5ccc([nH]5)c(-c5c(F)cccc5F)c5nc(c(-c6c(F)cccc6F)c6ccc3[nH]6)C=C5)C=C4)cc2)cc1
REMARK SMILES IDX 18 1 17 2 16 3 15 4 13 5 14 6 6 8 5 9 1 10 2 11 3 12 80 13
REMARK SMILES IDX 4 14 79 15 7 16 8 17 9 18 12 19 10 20 11 21 19 22 20 23
REMARK SMILES IDX 21 24 22 25 23 26 24 28 25 29 26 30 78 31 27 32 77 33 28 34
REMARK SMILES IDX 29 35 30 36 71 37 31 38 76 39 70 40 72 41 32 42 75 43 69 44
REMARK SMILES IDX 68 45 33 47 59 48 42 49 58 50 43 51 46 52 57 53 73 54 44 55
REMARK SMILES IDX 45 56 56 58 74 59 47 60 34 61 35 62 40 63 36 64 37 65 39 66
REMARK SMILES IDX 41 67 38 68 60 69 61 70 66 71 62 72 63 73 65 74 67 75 64 76
REMARK SMILES IDX 48 77 49 78 54 79 50 80 51 81 53 82 55 83 52 84
REMARK H PARENT 15 7 22 27 72 46 46 57
REMARK Flexibility Score: inf
ROOT
ATOM      1  C   UNL A   1      32.210  27.846  26.572  1.00  0.00     0.002 C 
ENDROOT
BRANCH   1   2
ATOM      2  C   UNL A   1      33.308  27.115  25.785  1.00  0.00     0.021 C 
BRANCH   2   3
ATOM      3  C   UNL A   1      33.309  25.591  25.904  1.00  0.00     0.116 C 
BRANCH   3   4
ATOM      4  N   UNL A   1      32.123  25.041  26.512  1.00  0.00    -0.356 N 
ATOM      5  C   UNL A   1      31.024  24.460  25.968  1.00  0.00     0.227 C 
ATOM      6  O   UNL A   1      30.255  23.915  26.775  1.00  0.00    -0.274 OA
ATOM      7  H   UNL A   1      32.109  25.097  27.495  1.00  0.00     0.163 HD
BRANCH   5   8
ATOM      8  C   UNL A   1      30.674  24.445  24.469  1.00  0.00     0.113 C 
BRANCH   8   9
ATOM      9  C   UNL A   1      30.447  25.827  23.857  1.00  0.00    -0.035 A 
ATOM     10  C   UNL A   1      29.907  29.715  22.003  1.00  0.00     0.044 C 
ATOM     11  C   UNL A   1      30.106  28.369  22.634  1.00  0.00    -0.051 A 
ATOM     12  C   UNL A   1      29.190  27.900  23.575  1.00  0.00     0.004 A 
ATOM     13  C   UNL A   1      31.190  27.560  22.294  1.00  0.00     0.004 A 
ATOM     14  C   UNL A   1      29.361  26.648  24.174  1.00  0.00     0.005 A 
ATOM     15  C   UNL A   1      31.355  26.307  22.893  1.00  0.00     0.005 A 
ENDBRANCH   8   9
BRANCH   8  16
ATOM     16  C   UNL A   1      31.262  23.305  23.606  1.00  0.00     0.065 C 
BRANCH  16  17
ATOM     17  C   UNL A   1      32.718  22.956  23.734  1.00  0.00     0.006 A 
ATOM     18  C   UNL A   1      33.801  23.503  23.072  1.00  0.00     0.015 A 
ATOM     19  S   UNL A   1      33.210  21.629  24.714  1.00  0.00    -0.149 S 
ATOM     20  C   UNL A   1      35.042  22.966  23.518  1.00  0.00     0.012 A 
ATOM     21  C   UNL A   1      34.865  21.951  24.428  1.00  0.00     0.065 A 
ENDBRANCH  16  17
ENDBRANCH   8  16
ENDBRANCH   5   8
ENDBRANCH   3   4
ENDBRANCH   2   3
ENDBRANCH   1   2
BRANCH   1  22
ATOM     22  C   UNL A   1      31.772  29.233  26.065  1.00  0.00     0.002 C 
BRANCH  22  23
ATOM     23  C   UNL A   1      32.216  30.439  26.895  1.00  0.00     0.021 C 
BRANCH  23  24
ATOM     24  C   UNL A   1      33.725  30.572  27.052  1.00  0.00     0.116 C 
BRANCH  24  25
ATOM     25  N   UNL A   1      34.125  31.451  28.149  1.00  0.00    -0.352 N 
ATOM     26  C   UNL A   1      35.194  31.318  29.019  1.00  0.00     0.251 C 
ATOM     27  H   UNL A   1      33.559  32.245  28.287  1.00  0.00     0.163 HD
ATOM     28  O   UNL A   1      35.422  32.161  29.871  1.00  0.00    -0.269 OA
BRANCH  26  29
ATOM     29  C   UNL A   1      36.135  30.194  28.808  1.00  0.00     0.039 A 
ATOM     30  C   UNL A   1      36.493  29.434  29.925  1.00  0.00     0.014 A 
ATOM     31  C   UNL A   1      36.832  30.073  27.607  1.00  0.00     0.014 A 
ATOM     32  C   UNL A   1      37.710  28.762  29.920  1.00  0.00     0.010 A 
ATOM     33  C   UNL A   1      38.074  29.470  27.623  1.00  0.00     0.010 A 
ATOM     34  C   UNL A   1      38.545  28.895  28.810  1.00  0.00    -0.014 A 
BRANCH  34  35
ATOM     35  C   UNL A   1      39.973  28.613  28.877  1.00  0.00     0.031 A 
ATOM     36  C   UNL A   1      40.500  27.291  28.493  1.00  0.00     0.074 A 
ATOM     37  C   UNL A   1      40.812  29.586  29.300  1.00  0.00     0.049 A 
ATOM     38  N   UNL A   1      41.634  26.822  28.892  1.00  0.00    -0.248 NA
ATOM     39  C   UNL A   1      39.732  26.337  27.698  1.00  0.00     0.031 C 
ATOM     40  C   UNL A   1      42.270  29.594  29.240  1.00  0.00     0.029 A 
ATOM     41  N   UNL A   1      40.489  30.688  30.108  1.00  0.00    -0.354 N 
ATOM     42  C   UNL A   1      41.874  25.659  28.199  1.00  0.00     0.074 A 
ATOM     43  C   UNL A   1      40.609  25.333  27.593  1.00  0.00     0.031 C 
ATOM     44  C   UNL A   1      42.735  30.436  30.177  1.00  0.00     0.029 A 
ATOM     45  C   UNL A   1      41.596  30.884  30.960  1.00  0.00     0.049 A 
ATOM     46  H   UNL A   1      39.658  31.216  30.085  1.00  0.00     0.167 HD
ATOM     47  C   UNL A   1      43.157  25.202  28.115  1.00  0.00     0.037 A 
ATOM     48  C   UNL A   1      41.484  30.768  32.315  1.00  0.00     0.037 A 
ATOM     49  C   UNL A   1      44.010  25.879  29.098  1.00  0.00     0.049 A 
ATOM     50  C   UNL A   1      42.371  29.706  32.920  1.00  0.00     0.074 A 
ATOM     51  C   UNL A   1      44.965  26.876  29.002  1.00  0.00     0.029 A 
ATOM     52  N   UNL A   1      43.738  25.726  30.456  1.00  0.00    -0.354 N 
ATOM     53  N   UNL A   1      42.959  28.767  32.231  1.00  0.00    -0.248 NA
ATOM     54  C   UNL A   1      42.625  29.585  34.355  1.00  0.00     0.031 C 
ATOM     55  C   UNL A   1      45.188  27.393  30.306  1.00  0.00     0.029 A 
ATOM     56  C   UNL A   1      44.402  26.683  31.197  1.00  0.00     0.049 A 
ATOM     57  H   UNL A   1      43.153  25.030  30.835  1.00  0.00     0.167 HD
ATOM     58  C   UNL A   1      43.595  27.905  33.085  1.00  0.00     0.074 A 
ATOM     59  C   UNL A   1      43.388  28.479  34.401  1.00  0.00     0.031 C 
ATOM     60  C   UNL A   1      44.211  26.771  32.641  1.00  0.00     0.037 A 
BRANCH  47  61
ATOM     61  C   UNL A   1      43.712  24.323  27.001  1.00  0.00     0.057 A 
ATOM     62  C   UNL A   1      44.623  23.287  27.304  1.00  0.00     0.134 A 
ATOM     63  C   UNL A   1      43.519  24.509  25.616  1.00  0.00     0.134 A 
ATOM     64  F   UNL A   1      44.908  22.952  28.571  1.00  0.00    -0.206 F 
ATOM     65  C   UNL A   1      45.311  22.550  26.326  1.00  0.00     0.040 A 
ATOM     66  C   UNL A   1      44.178  23.760  24.629  1.00  0.00     0.040 A 
ATOM     67  F   UNL A   1      42.713  25.446  25.113  1.00  0.00    -0.206 F 
ATOM     68  C   UNL A   1      45.095  22.788  24.979  1.00  0.00     0.006 A 
ENDBRANCH  47  61
BRANCH  48  69
ATOM     69  C   UNL A   1      40.149  31.154  32.838  1.00  0.00     0.057 A 
ATOM     70  C   UNL A   1      39.220  30.143  33.138  1.00  0.00     0.134 A 
ATOM     71  C   UNL A   1      39.898  32.425  33.363  1.00  0.00     0.134 A 
ATOM     72  F   UNL A   1      39.401  28.899  32.663  1.00  0.00    -0.206 F 
ATOM     73  C   UNL A   1      38.148  30.356  34.008  1.00  0.00     0.040 A 
ATOM     74  C   UNL A   1      38.821  32.654  34.227  1.00  0.00     0.040 A 
ATOM     75  F   UNL A   1      40.749  33.436  33.139  1.00  0.00    -0.206 F 
ATOM     76  C   UNL A   1      37.966  31.611  34.581  1.00  0.00     0.006 A 
ENDBRANCH  48  69
BRANCH  60  77
ATOM     77  C   UNL A   1      44.741  25.673  33.526  1.00  0.00     0.057 A 
ATOM     78  C   UNL A   1      43.933  24.848  34.325  1.00  0.00     0.134 A 
ATOM     79  C   UNL A   1      46.106  25.321  33.485  1.00  0.00     0.134 A 
ATOM     80  F   UNL A   1      42.603  25.002  34.369  1.00  0.00    -0.206 F 
ATOM     81  C   UNL A   1      44.457  23.787  35.078  1.00  0.00     0.040 A 
ATOM     82  C   UNL A   1      46.631  24.235  34.192  1.00  0.00     0.040 A 
ATOM     83  F   UNL A   1      46.983  26.009  32.739  1.00  0.00    -0.206 F 
ATOM     84  C   UNL A   1      45.808  23.472  35.006  1.00  0.00     0.006 A 
ENDBRANCH  60  77
ENDBRANCH  34  35
ENDBRANCH  26  29
ENDBRANCH  24  25
ENDBRANCH  23  24
ENDBRANCH  22  23
ENDBRANCH   1  22
TORSDOF 16
ENDMDL
MODEL 3
REMARK VINA RESULT:     -11.8      1.403      3.133
REMARK SMILES Cc1ccc([C@@H](Cc2cccs2)C(=O)NCCCCCCNC(=O)c2ccc(-c3c4nc(c(-c5c(F)cccc5F)c5ccc([nH]5)c(-c5c(F)cccc5F)c5nc(c(-c6c(F)cccc6F)c6ccc3[nH]6)C=C5)C=C4)cc2)cc1
REMARK SMILES IDX 18 1 17 2 16 3 15 4 13 5 14 6 6 8 5 9 1 10 2 11 3 12 80 13
REMARK SMILES IDX 4 14 79 15 7 16 8 17 9 18 12 19 10 20 11 21 19 22 20 23
REMARK SMILES IDX 21 24 22 25 23 26 24 28 25 29 26 30 78 31 27 32 77 33 28 34
REMARK SMILES IDX 29 35 30 36 71 37 31 38 76 39 70 40 72 41 32 42 75 43 69 44
REMARK SMILES IDX 68 45 33 47 59 48 42 49 58 50 43 51 46 52 57 53 73 54 44 55
REMARK SMILES IDX 45 56 56 58 74 59 47 60 34 61 35 62 40 63 36 64 37 65 39 66
REMARK SMILES IDX 41 67 38 68 60 69 61 70 66 71 62 72 63 73 65 74 67 75 64 76
REMARK SMILES IDX 48 77 49 78 54 79 50 80 51 81 53 82 55 83 52 84
REMARK H PARENT 15 7 22 27 72 46 46 57
REMARK Flexibility Score: inf
ROOT
ATOM      1  C   UNL A   1      31.842  29.641  25.767  1.00  0.00     0.002 C 
ENDROOT
BRANCH   1   2
ATOM      2  C   UNL A   1      33.009  29.354  24.810  1.00  0.00     0.021 C 
BRANCH   2   3
ATOM      3  C   UNL A   1      33.565  27.931  24.848  1.00  0.00     0.116 C 
BRANCH   3   4
ATOM      4  N   UNL A   1      33.991  27.424  23.567  1.00  0.00    -0.356 N 
ATOM      5  C   UNL A   1      33.389  26.580  22.691  1.00  0.00     0.227 C 
ATOM      6  O   UNL A   1      33.935  26.485  21.581  1.00  0.00    -0.274 OA
ATOM      7  H   UNL A   1      34.875  27.747  23.278  1.00  0.00     0.163 HD
BRANCH   5   8
ATOM      8  C   UNL A   1      32.124  25.751  22.979  1.00  0.00     0.113 C 
BRANCH   8   9
ATOM      9  C   UNL A   1      30.839  26.572  23.083  1.00  0.00    -0.035 A 
ATOM     10  C   UNL A   1      27.238  28.991  23.254  1.00  0.00     0.044 C 
ATOM     11  C   UNL A   1      28.488  28.166  23.185  1.00  0.00    -0.051 A 
ATOM     12  C   UNL A   1      28.549  26.939  23.846  1.00  0.00     0.004 A 
ATOM     13  C   UNL A   1      29.602  28.593  22.461  1.00  0.00     0.004 A 
ATOM     14  C   UNL A   1      29.708  26.157  23.792  1.00  0.00     0.005 A 
ATOM     15  C   UNL A   1      30.757  27.805  22.408  1.00  0.00     0.005 A 
ENDBRANCH   8   9
BRANCH   8  16
ATOM     16  C   UNL A   1      32.074  24.304  22.436  1.00  0.00     0.065 C 
BRANCH  16  17
ATOM     17  C   UNL A   1      32.494  23.167  23.324  1.00  0.00     0.006 A 
ATOM     18  C   UNL A   1      32.340  21.808  23.122  1.00  0.00     0.015 A 
ATOM     19  S   UNL A   1      33.151  23.479  24.884  1.00  0.00    -0.149 S 
ATOM     20  C   UNL A   1      32.938  21.031  24.154  1.00  0.00     0.012 A 
ATOM     21  C   UNL A   1      33.436  21.817  25.167  1.00  0.00     0.065 A 
ENDBRANCH  16  17
ENDBRANCH   8  16
ENDBRANCH   5   8
ENDBRANCH   3   4
ENDBRANCH   2   3
ENDBRANCH   1   2
BRANCH   1  22
ATOM     22  C   UNL A   1      32.107  30.589  26.952  1.00  0.00     0.002 C 
BRANCH  22  23
ATOM     23  C   UNL A   1      33.528  31.140  27.086  1.00  0.00     0.021 C 
BRANCH  23  24
ATOM     24  C   UNL A   1      34.396  30.400  28.096  1.00  0.00     0.116 C 
BRANCH  24  25
ATOM     25  N   UNL A   1      35.226  31.282  28.913  1.00  0.00    -0.352 N 
ATOM     26  C   UNL A   1      36.492  31.051  29.424  1.00  0.00     0.251 C 
ATOM     27  H   UNL A   1      34.832  32.159  29.130  1.00  0.00     0.163 HD
ATOM     28  O   UNL A   1      37.078  31.907  30.067  1.00  0.00    -0.269 OA
BRANCH  26  29
ATOM     29  C   UNL A   1      37.176  29.790  29.060  1.00  0.00     0.039 A 
ATOM     30  C   UNL A   1      37.388  28.855  30.077  1.00  0.00     0.014 A 
ATOM     31  C   UNL A   1      37.812  29.662  27.826  1.00  0.00     0.014 A 
ATOM     32  C   UNL A   1      38.440  27.954  29.954  1.00  0.00     0.010 A 
ATOM     33  C   UNL A   1      38.903  28.820  27.731  1.00  0.00     0.010 A 
ATOM     34  C   UNL A   1      39.264  28.034  28.832  1.00  0.00    -0.014 A 
BRANCH  34  35
ATOM     35  C   UNL A   1      40.605  27.461  28.813  1.00  0.00     0.031 A 
ATOM     36  C   UNL A   1      40.811  26.036  28.501  1.00  0.00     0.074 A 
ATOM     37  C   UNL A   1      41.661  28.260  29.089  1.00  0.00     0.049 A 
ATOM     38  N   UNL A   1      41.856  25.364  28.849  1.00  0.00    -0.248 NA
ATOM     39  C   UNL A   1      39.794  25.217  27.849  1.00  0.00     0.031 C 
ATOM     40  C   UNL A   1      43.078  27.955  28.918  1.00  0.00     0.029 A 
ATOM     41  N   UNL A   1      41.646  29.455  29.825  1.00  0.00    -0.354 N 
ATOM     42  C   UNL A   1      41.788  24.134  28.239  1.00  0.00     0.074 A 
ATOM     43  C   UNL A   1      40.432  24.045  27.760  1.00  0.00     0.031 C 
ATOM     44  C   UNL A   1      43.790  28.739  29.743  1.00  0.00     0.029 A 
ATOM     45  C   UNL A   1      42.844  29.468  30.571  1.00  0.00     0.049 A 
ATOM     46  H   UNL A   1      40.944  30.145  29.822  1.00  0.00     0.167 HD
ATOM     47  C   UNL A   1      42.935  23.411  28.096  1.00  0.00     0.037 A 
ATOM     48  C   UNL A   1      42.835  29.466  31.935  1.00  0.00     0.037 A 
ATOM     49  C   UNL A   1      43.996  23.955  28.951  1.00  0.00     0.049 A 
ATOM     50  C   UNL A   1      43.537  28.282  32.557  1.00  0.00     0.074 A 
ATOM     51  C   UNL A   1      45.123  24.719  28.700  1.00  0.00     0.029 A 
ATOM     52  N   UNL A   1      43.825  23.951  30.334  1.00  0.00    -0.354 N 
ATOM     53  N   UNL A   1      43.854  27.197  31.905  1.00  0.00    -0.248 NA
ATOM     54  C   UNL A   1      43.892  28.204  33.973  1.00  0.00     0.031 C 
ATOM     55  C   UNL A   1      45.566  25.260  29.937  1.00  0.00     0.029 A 
ATOM     56  C   UNL A   1      44.736  24.792  30.941  1.00  0.00     0.049 A 
ATOM     57  H   UNL A   1      43.146  23.421  30.813  1.00  0.00     0.167 HD
ATOM     58  C   UNL A   1      44.375  26.277  32.777  1.00  0.00     0.074 A 
ATOM     59  C   UNL A   1      44.412  26.967  34.053  1.00  0.00     0.031 C 
ATOM     60  C   UNL A   1      44.701  25.012  32.382  1.00  0.00     0.037 A 
BRANCH  47  61
ATOM     61  C   UNL A   1      43.194  22.364  27.019  1.00  0.00     0.057 A 
ATOM     62  C   UNL A   1      42.515  21.125  27.060  1.00  0.00     0.134 A 
ATOM     63  C   UNL A   1      44.173  22.432  26.006  1.00  0.00     0.134 A 
ATOM     64  F   UNL A   1      41.533  20.892  27.941  1.00  0.00    -0.206 F 
ATOM     65  C   UNL A   1      42.823  20.047  26.213  1.00  0.00     0.040 A 
ATOM     66  C   UNL A   1      44.469  21.372  25.135  1.00  0.00     0.040 A 
ATOM     67  F   UNL A   1      44.940  23.504  25.807  1.00  0.00    -0.206 F 
ATOM     68  C   UNL A   1      43.807  20.164  25.247  1.00  0.00     0.006 A 
ENDBRANCH  47  61
BRANCH  48  69
ATOM     69  C   UNL A   1      41.662  30.160  32.525  1.00  0.00     0.057 A 
ATOM     70  C   UNL A   1      41.650  31.565  32.556  1.00  0.00     0.134 A 
ATOM     71  C   UNL A   1      40.442  29.508  32.730  1.00  0.00     0.134 A 
ATOM     72  F   UNL A   1      42.789  32.252  32.366  1.00  0.00    -0.206 F 
ATOM     73  C   UNL A   1      40.465  32.293  32.677  1.00  0.00     0.040 A 
ATOM     74  C   UNL A   1      39.248  30.228  32.865  1.00  0.00     0.040 A 
ATOM     75  F   UNL A   1      40.367  28.170  32.694  1.00  0.00    -0.206 F 
ATOM     76  C   UNL A   1      39.253  31.620  32.801  1.00  0.00     0.006 A 
ENDBRANCH  48  69
BRANCH  60  77
ATOM     77  C   UNL A   1      45.073  23.887  33.313  1.00  0.00     0.057 A 
ATOM     78  C   UNL A   1      46.334  23.746  33.912  1.00  0.00     0.134 A 
ATOM     79  C   UNL A   1      44.094  22.969  33.747  1.00  0.00     0.134 A 
ATOM     80  F   UNL A   1      47.324  24.617  33.672  1.00  0.00    -0.206 F 
ATOM     81  C   UNL A   1      46.618  22.727  34.832  1.00  0.00     0.040 A 
ATOM     82  C   UNL A   1      44.352  21.980  34.701  1.00  0.00     0.040 A 
ATOM     83  F   UNL A   1      42.839  23.009  33.275  1.00  0.00    -0.206 F 
ATOM     84  C   UNL A   1      45.624  21.846  35.236  1.00  0.00     0.006 A 
ENDBRANCH  60  77
ENDBRANCH  34  35
ENDBRANCH  26  29
ENDBRANCH  24  25
ENDBRANCH  23  24
ENDBRANCH  22  23
ENDBRANCH   1  22
TORSDOF 16
ENDMDL
