MODEL 1
REMARK VINA RESULT:     -16.5      0.000      0.000
REMARK SMILES O=C(NCCCCCCNC(=O)[C@]1(NC(=O)C2CCN(C(=O)C3CC3)CC2)CCCc2ccccc21)c1ccc(-c2c3nc(c(-c4c(F)cccc4F)c4ccc([nH]4)c(-c4c(F)cccc4F)c4nc(c(-c5c(F)cccc5F)c5ccc2[nH]5)C=C4)C=C3)cc1
REMARK SMILES IDX 7 1 6 2 5 3 4 4 3 5 1 6 2 7 37 9 38 10 90 11 39 12 89 13
REMARK SMILES IDX 40 14 41 15 42 16 83 17 43 18 88 19 82 20 84 21 44 22 87 23
REMARK SMILES IDX 81 24 80 25 45 27 71 28 54 29 70 30 55 31 58 32 69 33 85 34
REMARK SMILES IDX 56 35 57 36 68 38 86 39 59 40 46 41 47 42 52 43 48 44 49 45
REMARK SMILES IDX 51 46 53 47 50 48 72 49 73 50 78 51 74 52 75 53 77 54 79 55
REMARK SMILES IDX 76 56 60 57 61 58 66 59 62 60 63 61 65 62 67 63 64 64 8 65
REMARK SMILES IDX 9 66 10 67 11 68 12 70 13 71 28 72 36 73 29 74 31 75 35 76
REMARK SMILES IDX 30 77 32 78 34 79 33 80 14 81 15 82 16 84 17 85 18 86 27 87
REMARK SMILES IDX 19 88 26 89 20 90 21 91 22 92 23 93 24 94 25 95
REMARK H PARENT 3 8 84 26 58 37 10 69 14 83
REMARK Flexibility Score: inf
ROOT
ATOM      1  C   UNL A   1      31.105  27.626  26.302  1.00  0.00     0.002 C 
ENDROOT
BRANCH   1   2
ATOM      2  C   UNL A   1      32.154  28.813  27.222  1.00  0.00     0.002 C 
BRANCH   2   3
ATOM      3  C   UNL A   1      32.682  30.638  27.117  1.00  0.00     0.021 C 
BRANCH   3   4
ATOM      4  C   UNL A   1      31.762  32.243  26.868  1.00  0.00     0.116 C 
BRANCH   4   5
ATOM      5  N   UNL A   1      32.349  33.645  27.267  1.00  0.00    -0.352 N 
ATOM      6  O   UNL A   1      32.752  35.238  28.921  1.00  0.00    -0.269 OA
ATOM      7  C   UNL A   1      32.969  34.148  28.386  1.00  0.00     0.251 C 
ATOM      8  H   UNL A   1      32.250  34.315  26.553  1.00  0.00     0.163 HD
BRANCH   7   9
ATOM      9  C   UNL A   1      34.223  33.520  28.602  1.00  0.00     0.039 A 
ATOM     10  C   UNL A   1      34.138  32.654  29.695  1.00  0.00     0.014 A 
ATOM     11  C   UNL A   1      35.387  33.973  28.001  1.00  0.00     0.014 A 
ATOM     12  C   UNL A   1      35.280  32.397  30.367  1.00  0.00     0.010 A 
ATOM     13  C   UNL A   1      36.556  33.555  28.587  1.00  0.00     0.010 A 
ATOM     14  C   UNL A   1      36.479  32.793  29.769  1.00  0.00    -0.014 A 
BRANCH  14  15
ATOM     15  C   UNL A   1      37.678  32.233  30.351  1.00  0.00     0.031 A 
ATOM     16  C   UNL A   1      38.327  31.081  29.698  1.00  0.00     0.074 A 
ATOM     17  C   UNL A   1      38.102  32.853  31.463  1.00  0.00     0.049 A 
ATOM     18  N   UNL A   1      39.331  30.380  30.128  1.00  0.00    -0.248 NA
ATOM     19  C   UNL A   1      37.761  30.633  28.413  1.00  0.00     0.031 C 
ATOM     20  C   UNL A   1      37.449  34.019  32.083  1.00  0.00     0.029 A 
ATOM     21  N   UNL A   1      39.168  32.604  32.262  1.00  0.00    -0.354 N 
ATOM     22  C   UNL A   1      39.498  29.375  29.194  1.00  0.00     0.074 A 
ATOM     23  C   UNL A   1      38.483  29.547  28.178  1.00  0.00     0.031 C 
ATOM     24  C   UNL A   1      38.148  34.396  33.156  1.00  0.00     0.029 A 
ATOM     25  C   UNL A   1      39.211  33.430  33.354  1.00  0.00     0.049 A 
ATOM     26  H   UNL A   1      39.838  31.907  32.078  1.00  0.00     0.167 HD
ATOM     27  C   UNL A   1      40.426  28.396  29.230  1.00  0.00     0.037 A 
ATOM     28  C   UNL A   1      39.988  33.350  34.441  1.00  0.00     0.037 A 
ATOM     29  C   UNL A   1      41.382  28.294  30.302  1.00  0.00     0.049 A 
ATOM     30  C   UNL A   1      40.976  32.234  34.469  1.00  0.00     0.074 A 
ATOM     31  C   UNL A   1      42.398  27.376  30.471  1.00  0.00     0.029 A 
ATOM     32  N   UNL A   1      41.419  29.147  31.405  1.00  0.00    -0.354 N 
ATOM     33  N   UNL A   1      41.160  31.283  33.581  1.00  0.00    -0.248 NA
ATOM     34  C   UNL A   1      41.859  32.169  35.630  1.00  0.00     0.031 C 
ATOM     35  C   UNL A   1      43.004  27.633  31.705  1.00  0.00     0.029 A 
ATOM     36  C   UNL A   1      42.420  28.758  32.275  1.00  0.00     0.049 A 
ATOM     37  H   UNL A   1      40.819  29.916  31.544  1.00  0.00     0.167 HD
ATOM     38  C   UNL A   1      42.200  30.510  34.062  1.00  0.00     0.074 A 
ATOM     39  C   UNL A   1      42.605  31.116  35.322  1.00  0.00     0.031 C 
ATOM     40  C   UNL A   1      42.774  29.410  33.517  1.00  0.00     0.037 A 
BRANCH  27  41
ATOM     41  C   UNL A   1      40.376  27.364  28.146  1.00  0.00     0.057 A 
ATOM     42  C   UNL A   1      39.634  26.179  28.268  1.00  0.00     0.134 A 
ATOM     43  C   UNL A   1      41.123  27.534  26.974  1.00  0.00     0.134 A 
ATOM     44  F   UNL A   1      38.915  25.936  29.374  1.00  0.00    -0.206 F 
ATOM     45  C   UNL A   1      39.670  25.189  27.284  1.00  0.00     0.040 A 
ATOM     46  C   UNL A   1      41.141  26.566  25.969  1.00  0.00     0.040 A 
ATOM     47  F   UNL A   1      41.865  28.637  26.792  1.00  0.00    -0.206 F 
ATOM     48  C   UNL A   1      40.423  25.383  26.129  1.00  0.00     0.006 A 
ENDBRANCH  27  41
BRANCH  28  49
ATOM     49  C   UNL A   1      39.795  34.328  35.533  1.00  0.00     0.057 A 
ATOM     50  C   UNL A   1      39.011  34.016  36.645  1.00  0.00     0.134 A 
ATOM     51  C   UNL A   1      40.498  35.542  35.552  1.00  0.00     0.134 A 
ATOM     52  F   UNL A   1      38.334  32.859  36.689  1.00  0.00    -0.206 F 
ATOM     53  C   UNL A   1      38.921  34.880  37.736  1.00  0.00     0.040 A 
ATOM     54  C   UNL A   1      40.439  36.403  36.649  1.00  0.00     0.040 A 
ATOM     55  F   UNL A   1      41.303  35.877  34.534  1.00  0.00    -0.206 F 
ATOM     56  C   UNL A   1      39.644  36.073  37.743  1.00  0.00     0.006 A 
ENDBRANCH  28  49
BRANCH  40  57
ATOM     57  C   UNL A   1      43.929  28.830  34.269  1.00  0.00     0.057 A 
ATOM     58  C   UNL A   1      43.762  27.804  35.204  1.00  0.00     0.134 A 
ATOM     59  C   UNL A   1      45.231  29.262  33.990  1.00  0.00     0.134 A 
ATOM     60  F   UNL A   1      42.535  27.366  35.525  1.00  0.00    -0.206 F 
ATOM     61  C   UNL A   1      44.858  27.228  35.844  1.00  0.00     0.040 A 
ATOM     62  C   UNL A   1      46.335  28.672  34.598  1.00  0.00     0.040 A 
ATOM     63  F   UNL A   1      45.449  30.241  33.097  1.00  0.00    -0.206 F 
ATOM     64  C   UNL A   1      46.149  27.654  35.531  1.00  0.00     0.006 A 
ENDBRANCH  40  57
ENDBRANCH  14  15
ENDBRANCH   7   9
ENDBRANCH   4   5
ENDBRANCH   3   4
ENDBRANCH   2   3
ENDBRANCH   1   2
BRANCH   1  65
ATOM     65  C   UNL A   1      30.304  26.112  26.509  1.00  0.00     0.021 C 
BRANCH  65  66
ATOM     66  C   UNL A   1      30.649  24.565  26.115  1.00  0.00     0.116 C 
BRANCH  66  67
ATOM     67  N   UNL A   1      31.987  24.080  26.494  1.00  0.00    -0.354 N 
ATOM     68  C   UNL A   1      33.150  23.577  25.973  1.00  0.00     0.250 C 
ATOM     69  H   UNL A   1      32.079  24.137  27.472  1.00  0.00     0.163 HD
ATOM     70  O   UNL A   1      33.999  23.465  26.881  1.00  0.00    -0.272 OA
BRANCH  68  71
ATOM     71  C   UNL A   1      33.524  22.913  24.483  1.00  0.00     0.145 C 
ATOM     72  C   UNL A   1      32.420  21.808  24.285  1.00  0.00     0.044 C 
ATOM     73  C   UNL A   1      34.913  22.189  24.603  1.00  0.00    -0.010 A 
ATOM     74  C   UNL A   1      32.526  20.647  25.268  1.00  0.00     0.008 C 
ATOM     75  C   UNL A   1      35.029  20.814  24.907  1.00  0.00    -0.042 A 
ATOM     76  C   UNL A   1      36.113  22.910  24.426  1.00  0.00     0.007 A 
ATOM     77  C   UNL A   1      33.840  19.908  25.085  1.00  0.00     0.036 C 
ATOM     78  C   UNL A   1      36.304  20.215  25.001  1.00  0.00     0.004 A 
ATOM     79  C   UNL A   1      37.369  22.304  24.522  1.00  0.00     0.000 A 
ATOM     80  C   UNL A   1      37.466  20.955  24.811  1.00  0.00     0.000 A 
BRANCH  71  81
ATOM     81  N   UNL A   1      33.530  23.619  23.129  1.00  0.00    -0.338 N 
ATOM     82  C   UNL A   1      33.591  24.938  22.734  1.00  0.00     0.224 C 
ATOM     83  H   UNL A   1      33.479  22.993  22.371  1.00  0.00     0.164 HD
ATOM     84  O   UNL A   1      34.030  25.222  21.623  1.00  0.00    -0.275 OA
BRANCH  82  85
ATOM     85  C   UNL A   1      32.944  25.974  23.623  1.00  0.00     0.082 C 
ATOM     86  C   UNL A   1      31.594  26.152  23.006  1.00  0.00     0.035 C 
ATOM     87  C   UNL A   1      33.629  27.330  23.796  1.00  0.00     0.035 C 
ATOM     88  C   UNL A   1      31.365  27.136  21.864  1.00  0.00     0.120 C 
ATOM     89  C   UNL A   1      33.138  28.402  22.753  1.00  0.00     0.120 C 
ATOM     90  N   UNL A   1      31.560  28.433  22.426  1.00  0.00    -0.342 N 
ATOM     91  C   UNL A   1      30.148  29.251  22.602  1.00  0.00     0.225 C 
ATOM     92  O   UNL A   1      29.392  29.077  21.626  1.00  0.00    -0.275 OA
BRANCH  91  93
ATOM     93  C   UNL A   1      29.312  30.445  23.763  1.00  0.00     0.079 C 
ATOM     94  C   UNL A   1      29.153  31.997  23.982  1.00  0.00     0.014 C 
ATOM     95  C   UNL A   1      27.923  31.246  23.697  1.00  0.00     0.014 C 
ENDBRANCH  91  93
ENDBRANCH  82  85
ENDBRANCH  71  81
ENDBRANCH  68  71
ENDBRANCH  66  67
ENDBRANCH  65  66
ENDBRANCH   1  65
TORSDOF 16
ENDMDL
MODEL 2
REMARK VINA RESULT:     -16.4      0.405      6.072
REMARK SMILES O=C(NCCCCCCNC(=O)[C@]1(NC(=O)C2CCN(C(=O)C3CC3)CC2)CCCc2ccccc21)c1ccc(-c2c3nc(c(-c4c(F)cccc4F)c4ccc([nH]4)c(-c4c(F)cccc4F)c4nc(c(-c5c(F)cccc5F)c5ccc2[nH]5)C=C4)C=C3)cc1
REMARK SMILES IDX 7 1 6 2 5 3 4 4 3 5 1 6 2 7 37 9 38 10 90 11 39 12 89 13
REMARK SMILES IDX 40 14 41 15 42 16 83 17 43 18 88 19 82 20 84 21 44 22 87 23
REMARK SMILES IDX 81 24 80 25 45 27 71 28 54 29 70 30 55 31 58 32 69 33 85 34
REMARK SMILES IDX 56 35 57 36 68 38 86 39 59 40 46 41 47 42 52 43 48 44 49 45
REMARK SMILES IDX 51 46 53 47 50 48 72 49 73 50 78 51 74 52 75 53 77 54 79 55
REMARK SMILES IDX 76 56 60 57 61 58 66 59 62 60 63 61 65 62 67 63 64 64 8 65
REMARK SMILES IDX 9 66 10 67 11 68 12 70 13 71 28 72 36 73 29 74 31 75 35 76
REMARK SMILES IDX 30 77 32 78 34 79 33 80 14 81 15 82 16 84 17 85 18 86 27 87
REMARK SMILES IDX 19 88 26 89 20 90 21 91 22 92 23 93 24 94 25 95
REMARK H PARENT 3 8 84 26 58 37 10 69 14 83
REMARK Flexibility Score: inf
ROOT
ATOM      1  C   UNL A   1      31.364  27.801  27.308  1.00  0.00     0.002 C 
ENDROOT
BRANCH   1   2
ATOM      2  C   UNL A   1      32.677  29.072  27.187  1.00  0.00     0.002 C 
BRANCH   2   3
ATOM      3  C   UNL A   1      32.863  30.896  26.678  1.00  0.00     0.021 C 
BRANCH   3   4
ATOM      4  C   UNL A   1      31.847  32.435  26.968  1.00  0.00     0.116 C 
BRANCH   4   5
ATOM      5  N   UNL A   1      32.476  33.833  27.312  1.00  0.00    -0.352 N 
ATOM      6  O   UNL A   1      32.879  35.501  28.890  1.00  0.00    -0.269 OA
ATOM      7  C   UNL A   1      33.071  34.375  28.427  1.00  0.00     0.251 C 
ATOM      8  H   UNL A   1      32.434  34.463  26.558  1.00  0.00     0.163 HD
BRANCH   7   9
ATOM      9  C   UNL A   1      34.288  33.710  28.730  1.00  0.00     0.039 A 
ATOM     10  C   UNL A   1      34.053  32.688  29.654  1.00  0.00     0.014 A 
ATOM     11  C   UNL A   1      35.522  34.239  28.387  1.00  0.00     0.014 A 
ATOM     12  C   UNL A   1      35.085  32.322  30.443  1.00  0.00     0.010 A 
ATOM     13  C   UNL A   1      36.596  33.727  29.072  1.00  0.00     0.010 A 
ATOM     14  C   UNL A   1      36.354  32.795  30.099  1.00  0.00    -0.014 A 
BRANCH  14  15
ATOM     15  C   UNL A   1      37.460  32.142  30.763  1.00  0.00     0.031 A 
ATOM     16  C   UNL A   1      37.932  32.664  32.059  1.00  0.00     0.074 A 
ATOM     17  C   UNL A   1      37.953  31.077  30.114  1.00  0.00     0.049 A 
ATOM     18  N   UNL A   1      38.970  32.288  32.742  1.00  0.00    -0.248 NA
ATOM     19  C   UNL A   1      37.166  33.773  32.655  1.00  0.00     0.031 C 
ATOM     20  C   UNL A   1      37.448  30.560  28.830  1.00  0.00     0.029 A 
ATOM     21  N   UNL A   1      38.972  30.241  30.432  1.00  0.00    -0.354 N 
ATOM     22  C   UNL A   1      39.015  33.138  33.831  1.00  0.00     0.074 A 
ATOM     23  C   UNL A   1      37.909  34.062  33.713  1.00  0.00     0.031 C 
ATOM     24  C   UNL A   1      38.148  29.478  28.485  1.00  0.00     0.029 A 
ATOM     25  C   UNL A   1      39.212  29.310  29.457  1.00  0.00     0.049 A 
ATOM     26  H   UNL A   1      39.482  30.296  31.271  1.00  0.00     0.167 HD
ATOM     27  C   UNL A   1      39.936  33.126  34.818  1.00  0.00     0.037 A 
ATOM     28  C   UNL A   1      40.242  28.465  29.334  1.00  0.00     0.037 A 
ATOM     29  C   UNL A   1      41.020  32.178  34.834  1.00  0.00     0.049 A 
ATOM     30  C   UNL A   1      41.264  28.502  30.419  1.00  0.00     0.074 A 
ATOM     31  C   UNL A   1      42.018  32.021  35.773  1.00  0.00     0.029 A 
ATOM     32  N   UNL A   1      41.248  31.229  33.836  1.00  0.00    -0.354 N 
ATOM     33  N   UNL A   1      41.311  29.291  31.469  1.00  0.00    -0.248 NA
ATOM     34  C   UNL A   1      42.365  27.550  30.316  1.00  0.00     0.031 C 
ATOM     35  C   UNL A   1      42.885  31.025  35.310  1.00  0.00     0.029 A 
ATOM     36  C   UNL A   1      42.390  30.504  34.121  1.00  0.00     0.049 A 
ATOM     37  H   UNL A   1      40.679  31.095  33.045  1.00  0.00     0.167 HD
ATOM     38  C   UNL A   1      42.441  28.919  32.172  1.00  0.00     0.074 A 
ATOM     39  C   UNL A   1      43.042  27.826  31.423  1.00  0.00     0.031 C 
ATOM     40  C   UNL A   1      42.935  29.422  33.330  1.00  0.00     0.037 A 
BRANCH  27  41
ATOM     41  C   UNL A   1      39.835  34.193  35.863  1.00  0.00     0.057 A 
ATOM     42  C   UNL A   1      40.449  35.446  35.722  1.00  0.00     0.134 A 
ATOM     43  C   UNL A   1      39.149  33.947  37.058  1.00  0.00     0.134 A 
ATOM     44  F   UNL A   1      41.146  35.743  34.615  1.00  0.00    -0.206 F 
ATOM     45  C   UNL A   1      40.418  36.396  36.745  1.00  0.00     0.040 A 
ATOM     46  C   UNL A   1      39.082  34.900  38.076  1.00  0.00     0.040 A 
ATOM     47  F   UNL A   1      38.545  32.767  37.268  1.00  0.00    -0.206 F 
ATOM     48  C   UNL A   1      39.730  36.125  37.926  1.00  0.00     0.006 A 
ENDBRANCH  27  41
BRANCH  28  49
ATOM     49  C   UNL A   1      40.318  27.597  28.140  1.00  0.00     0.057 A 
ATOM     50  C   UNL A   1      41.047  27.986  27.015  1.00  0.00     0.134 A 
ATOM     51  C   UNL A   1      39.776  26.302  28.148  1.00  0.00     0.134 A 
ATOM     52  F   UNL A   1      41.605  29.204  26.961  1.00  0.00    -0.206 F 
ATOM     53  C   UNL A   1      41.228  27.125  25.932  1.00  0.00     0.040 A 
ATOM     54  C   UNL A   1      39.973  25.421  27.084  1.00  0.00     0.040 A 
ATOM     55  F   UNL A   1      39.105  25.854  29.219  1.00  0.00    -0.206 F 
ATOM     56  C   UNL A   1      40.697  25.835  25.970  1.00  0.00     0.006 A 
ENDBRANCH  28  49
BRANCH  40  57
ATOM     57  C   UNL A   1      44.161  28.755  33.867  1.00  0.00     0.057 A 
ATOM     58  C   UNL A   1      45.446  29.197  33.539  1.00  0.00     0.134 A 
ATOM     59  C   UNL A   1      44.039  27.704  34.783  1.00  0.00     0.134 A 
ATOM     60  F   UNL A   1      45.622  30.187  32.651  1.00  0.00    -0.206 F 
ATOM     61  C   UNL A   1      46.576  28.607  34.104  1.00  0.00     0.040 A 
ATOM     62  C   UNL A   1      45.158  27.129  35.378  1.00  0.00     0.040 A 
ATOM     63  F   UNL A   1      42.828  27.244  35.137  1.00  0.00    -0.206 F 
ATOM     64  C   UNL A   1      46.431  27.580  35.036  1.00  0.00     0.006 A 
ENDBRANCH  40  57
ENDBRANCH  14  15
ENDBRANCH   7   9
ENDBRANCH   4   5
ENDBRANCH   3   4
ENDBRANCH   2   3
ENDBRANCH   1   2
BRANCH   1  65
ATOM     65  C   UNL A   1      30.577  26.598  26.354  1.00  0.00     0.021 C 
BRANCH  65  66
ATOM     66  C   UNL A   1      30.731  24.981  26.188  1.00  0.00     0.116 C 
BRANCH  66  67
ATOM     67  N   UNL A   1      32.045  24.413  26.531  1.00  0.00    -0.354 N 
ATOM     68  C   UNL A   1      33.161  23.839  25.979  1.00  0.00     0.250 C 
ATOM     69  H   UNL A   1      32.167  24.463  27.507  1.00  0.00     0.163 HD
ATOM     70  O   UNL A   1      34.025  23.673  26.865  1.00  0.00    -0.272 OA
BRANCH  68  71
ATOM     71  C   UNL A   1      33.452  23.154  24.480  1.00  0.00     0.145 C 
ATOM     72  C   UNL A   1      32.263  22.138  24.302  1.00  0.00     0.044 C 
ATOM     73  C   UNL A   1      34.783  22.324  24.571  1.00  0.00    -0.010 A 
ATOM     74  C   UNL A   1      32.297  20.969  25.279  1.00  0.00     0.008 C 
ATOM     75  C   UNL A   1      34.798  20.943  24.869  1.00  0.00    -0.042 A 
ATOM     76  C   UNL A   1      36.032  22.951  24.373  1.00  0.00     0.007 A 
ATOM     77  C   UNL A   1      33.547  20.131  25.068  1.00  0.00     0.036 C 
ATOM     78  C   UNL A   1      36.025  20.247  24.936  1.00  0.00     0.004 A 
ATOM     79  C   UNL A   1      37.239  22.249  24.441  1.00  0.00     0.000 A 
ATOM     80  C   UNL A   1      37.237  20.895  24.725  1.00  0.00     0.000 A 
BRANCH  71  81
ATOM     81  N   UNL A   1      33.487  23.863  23.129  1.00  0.00    -0.338 N 
ATOM     82  C   UNL A   1      33.534  25.184  22.738  1.00  0.00     0.224 C 
ATOM     83  H   UNL A   1      33.470  23.238  22.368  1.00  0.00     0.164 HD
ATOM     84  O   UNL A   1      34.002  25.479  21.642  1.00  0.00    -0.275 OA
BRANCH  82  85
ATOM     85  C   UNL A   1      32.842  26.206  23.609  1.00  0.00     0.082 C 
ATOM     86  C   UNL A   1      31.528  26.399  22.920  1.00  0.00     0.035 C 
ATOM     87  C   UNL A   1      33.519  27.556  23.844  1.00  0.00     0.035 C 
ATOM     88  C   UNL A   1      31.366  27.405  21.786  1.00  0.00     0.120 C 
ATOM     89  C   UNL A   1      33.090  28.649  22.796  1.00  0.00     0.120 C 
ATOM     90  N   UNL A   1      31.532  28.691  22.382  1.00  0.00    -0.342 N 
ATOM     91  C   UNL A   1      30.115  29.510  22.494  1.00  0.00     0.225 C 
ATOM     92  O   UNL A   1      29.414  29.357  21.474  1.00  0.00    -0.275 OA
BRANCH  91  93
ATOM     93  C   UNL A   1      29.218  30.685  23.629  1.00  0.00     0.079 C 
ATOM     94  C   UNL A   1      28.827  32.209  23.716  1.00  0.00     0.014 C 
ATOM     95  C   UNL A   1      27.716  31.250  23.655  1.00  0.00     0.014 C 
ENDBRANCH  91  93
ENDBRANCH  82  85
ENDBRANCH  71  81
ENDBRANCH  68  71
ENDBRANCH  66  67
ENDBRANCH  65  66
ENDBRANCH   1  65
TORSDOF 16
ENDMDL
MODEL 3
REMARK VINA RESULT:     -16.3      4.250      9.970
REMARK SMILES O=C(NCCCCCCNC(=O)[C@]1(NC(=O)C2CCN(C(=O)C3CC3)CC2)CCCc2ccccc21)c1ccc(-c2c3nc(c(-c4c(F)cccc4F)c4ccc([nH]4)c(-c4c(F)cccc4F)c4nc(c(-c5c(F)cccc5F)c5ccc2[nH]5)C=C4)C=C3)cc1
REMARK SMILES IDX 7 1 6 2 5 3 4 4 3 5 1 6 2 7 37 9 38 10 90 11 39 12 89 13
REMARK SMILES IDX 40 14 41 15 42 16 83 17 43 18 88 19 82 20 84 21 44 22 87 23
REMARK SMILES IDX 81 24 80 25 45 27 71 28 54 29 70 30 55 31 58 32 69 33 85 34
REMARK SMILES IDX 56 35 57 36 68 38 86 39 59 40 46 41 47 42 52 43 48 44 49 45
REMARK SMILES IDX 51 46 53 47 50 48 72 49 73 50 78 51 74 52 75 53 77 54 79 55
REMARK SMILES IDX 76 56 60 57 61 58 66 59 62 60 63 61 65 62 67 63 64 64 8 65
REMARK SMILES IDX 9 66 10 67 11 68 12 70 13 71 28 72 36 73 29 74 31 75 35 76
REMARK SMILES IDX 30 77 32 78 34 79 33 80 14 81 15 82 16 84 17 85 18 86 27 87
REMARK SMILES IDX 19 88 26 89 20 90 21 91 22 92 23 93 24 94 25 95
REMARK H PARENT 3 8 84 26 58 37 10 69 14 83
REMARK Flexibility Score: inf
ROOT
ATOM      1  C   UNL A   1      35.739  22.963  23.233  1.00  0.00     0.002 C 
ENDROOT
BRANCH   1   2
ATOM      2  C   UNL A   1      36.475  22.262  24.757  1.00  0.00     0.002 C 
BRANCH   2   3
ATOM      3  C   UNL A   1      38.080  21.402  25.308  1.00  0.00     0.021 C 
BRANCH   3   4
ATOM      4  C   UNL A   1      38.698  19.642  25.242  1.00  0.00     0.116 C 
BRANCH   4   5
ATOM      5  N   UNL A   1      40.021  19.165  25.943  1.00  0.00    -0.352 N 
ATOM      6  O   UNL A   1      42.337  18.908  25.862  1.00  0.00    -0.269 OA
ATOM      7  C   UNL A   1      41.323  19.605  25.947  1.00  0.00     0.251 C 
ATOM      8  H   UNL A   1      39.886  18.369  26.507  1.00  0.00     0.163 HD
BRANCH   7   9
ATOM      9  C   UNL A   1      41.426  20.889  26.543  1.00  0.00     0.039 A 
ATOM     10  C   UNL A   1      41.850  21.821  25.593  1.00  0.00     0.014 A 
ATOM     11  C   UNL A   1      41.411  21.067  27.917  1.00  0.00     0.014 A 
ATOM     12  C   UNL A   1      42.502  22.912  26.047  1.00  0.00     0.010 A 
ATOM     13  C   UNL A   1      41.912  22.264  28.365  1.00  0.00     0.010 A 
ATOM     14  C   UNL A   1      42.466  23.153  27.423  1.00  0.00    -0.014 A 
BRANCH  14  15
ATOM     15  C   UNL A   1      42.896  24.471  27.833  1.00  0.00     0.031 A 
ATOM     16  C   UNL A   1      41.885  25.465  28.239  1.00  0.00     0.074 A 
ATOM     17  C   UNL A   1      44.224  24.657  27.817  1.00  0.00     0.049 A 
ATOM     18  N   UNL A   1      42.066  26.718  28.525  1.00  0.00    -0.248 NA
ATOM     19  C   UNL A   1      40.484  25.010  28.302  1.00  0.00     0.031 C 
ATOM     20  C   UNL A   1      45.216  23.638  27.430  1.00  0.00     0.029 A 
ATOM     21  N   UNL A   1      44.969  25.746  28.129  1.00  0.00    -0.354 N 
ATOM     22  C   UNL A   1      40.802  27.223  28.761  1.00  0.00     0.074 A 
ATOM     23  C   UNL A   1      39.856  26.145  28.572  1.00  0.00     0.031 C 
ATOM     24  C   UNL A   1      46.442  24.150  27.553  1.00  0.00     0.029 A 
ATOM     25  C   UNL A   1      46.306  25.550  27.906  1.00  0.00     0.049 A 
ATOM     26  H   UNL A   1      44.591  26.584  28.478  1.00  0.00     0.167 HD
ATOM     27  C   UNL A   1      40.497  28.497  29.089  1.00  0.00     0.037 A 
ATOM     28  C   UNL A   1      47.301  26.444  27.911  1.00  0.00     0.037 A 
ATOM     29  C   UNL A   1      41.512  29.508  29.231  1.00  0.00     0.049 A 
ATOM     30  C   UNL A   1      46.927  27.850  28.238  1.00  0.00     0.074 A 
ATOM     31  C   UNL A   1      41.368  30.835  29.581  1.00  0.00     0.029 A 
ATOM     32  N   UNL A   1      42.872  29.292  29.008  1.00  0.00    -0.354 N 
ATOM     33  N   UNL A   1      45.733  28.342  28.482  1.00  0.00    -0.248 NA
ATOM     34  C   UNL A   1      48.014  28.823  28.292  1.00  0.00     0.031 C 
ATOM     35  C   UNL A   1      42.629  31.435  29.504  1.00  0.00     0.029 A 
ATOM     36  C   UNL A   1      43.576  30.469  29.182  1.00  0.00     0.049 A 
ATOM     37  H   UNL A   1      43.273  28.427  28.763  1.00  0.00     0.167 HD
ATOM     38  C   UNL A   1      45.922  29.686  28.743  1.00  0.00     0.074 A 
ATOM     39  C   UNL A   1      47.353  29.922  28.630  1.00  0.00     0.031 C 
ATOM     40  C   UNL A   1      45.007  30.636  29.055  1.00  0.00     0.037 A 
BRANCH  27  41
ATOM     41  C   UNL A   1      39.046  28.841  29.225  1.00  0.00     0.057 A 
ATOM     42  C   UNL A   1      38.291  29.353  28.159  1.00  0.00     0.134 A 
ATOM     43  C   UNL A   1      38.401  28.703  30.460  1.00  0.00     0.134 A 
ATOM     44  F   UNL A   1      38.850  29.537  26.954  1.00  0.00    -0.206 F 
ATOM     45  C   UNL A   1      36.963  29.751  28.328  1.00  0.00     0.040 A 
ATOM     46  C   UNL A   1      37.064  29.067  30.633  1.00  0.00     0.040 A 
ATOM     47  F   UNL A   1      39.062  28.230  31.526  1.00  0.00    -0.206 F 
ATOM     48  C   UNL A   1      36.345  29.605  29.568  1.00  0.00     0.006 A 
ENDBRANCH  27  41
BRANCH  28  49
ATOM     49  C   UNL A   1      48.667  25.999  27.563  1.00  0.00     0.057 A 
ATOM     50  C   UNL A   1      49.153  26.126  26.261  1.00  0.00     0.134 A 
ATOM     51  C   UNL A   1      49.561  25.562  28.552  1.00  0.00     0.134 A 
ATOM     52  F   UNL A   1      48.348  26.560  25.280  1.00  0.00    -0.206 F 
ATOM     53  C   UNL A   1      50.479  25.824  25.948  1.00  0.00     0.040 A 
ATOM     54  C   UNL A   1      50.897  25.284  28.258  1.00  0.00     0.040 A 
ATOM     55  F   UNL A   1      49.166  25.464  29.830  1.00  0.00    -0.206 F 
ATOM     56  C   UNL A   1      51.356  25.410  26.951  1.00  0.00     0.006 A 
ENDBRANCH  28  49
BRANCH  40  57
ATOM     57  C   UNL A   1      45.547  32.002  29.336  1.00  0.00     0.057 A 
ATOM     58  C   UNL A   1      45.678  32.966  28.333  1.00  0.00     0.134 A 
ATOM     59  C   UNL A   1      45.866  32.369  30.649  1.00  0.00     0.134 A 
ATOM     60  F   UNL A   1      45.407  32.662  27.054  1.00  0.00    -0.206 F 
ATOM     61  C   UNL A   1      46.118  34.256  28.626  1.00  0.00     0.040 A 
ATOM     62  C   UNL A   1      46.275  33.663  30.959  1.00  0.00     0.040 A 
ATOM     63  F   UNL A   1      45.754  31.484  31.652  1.00  0.00    -0.206 F 
ATOM     64  C   UNL A   1      46.404  34.609  29.945  1.00  0.00     0.006 A 
ENDBRANCH  40  57
ENDBRANCH  14  15
ENDBRANCH   7   9
ENDBRANCH   4   5
ENDBRANCH   3   4
ENDBRANCH   2   3
ENDBRANCH   1   2
BRANCH   1  65
ATOM     65  C   UNL A   1      34.214  23.145  22.447  1.00  0.00     0.021 C 
BRANCH  65  66
ATOM     66  C   UNL A   1      33.218  24.405  22.148  1.00  0.00     0.116 C 
BRANCH  66  67
ATOM     67  N   UNL A   1      33.579  25.685  22.781  1.00  0.00    -0.354 N 
ATOM     68  C   UNL A   1      33.195  26.559  23.764  1.00  0.00     0.250 C 
ATOM     69  H   UNL A   1      34.384  26.040  22.340  1.00  0.00     0.163 HD
ATOM     70  O   UNL A   1      34.049  27.463  23.873  1.00  0.00    -0.272 OA
BRANCH  68  71
ATOM     71  C   UNL A   1      31.766  26.741  24.615  1.00  0.00     0.145 C 
ATOM     72  C   UNL A   1      30.670  26.814  23.487  1.00  0.00     0.044 C 
ATOM     73  C   UNL A   1      31.802  28.134  25.341  1.00  0.00    -0.010 A 
ATOM     74  C   UNL A   1      30.766  28.060  22.613  1.00  0.00     0.008 C 
ATOM     75  C   UNL A   1      31.256  29.304  24.767  1.00  0.00    -0.042 A 
ATOM     76  C   UNL A   1      32.410  28.266  26.607  1.00  0.00     0.007 A 
ATOM     77  C   UNL A   1      30.542  29.313  23.441  1.00  0.00     0.036 C 
ATOM     78  C   UNL A   1      31.315  30.529  25.465  1.00  0.00     0.004 A 
ATOM     79  C   UNL A   1      32.461  29.485  27.288  1.00  0.00     0.000 A 
ATOM     80  C   UNL A   1      31.914  30.620  26.717  1.00  0.00     0.000 A 
BRANCH  71  81
ATOM     81  N   UNL A   1      31.149  25.761  25.611  1.00  0.00    -0.338 N 
ATOM     82  C   UNL A   1      31.632  24.685  26.324  1.00  0.00     0.224 C 
ATOM     83  H   UNL A   1      30.195  25.936  25.780  1.00  0.00     0.164 HD
ATOM     84  O   UNL A   1      31.083  24.350  27.370  1.00  0.00    -0.275 OA
BRANCH  82  85
ATOM     85  C   UNL A   1      32.717  23.845  25.691  1.00  0.00     0.082 C 
ATOM     86  C   UNL A   1      31.953  22.720  25.070  1.00  0.00     0.035 C 
ATOM     87  C   UNL A   1      33.838  23.298  26.576  1.00  0.00     0.035 C 
ATOM     88  C   UNL A   1      31.591  21.470  25.866  1.00  0.00     0.120 C 
ATOM     89  C   UNL A   1      33.525  21.866  27.147  1.00  0.00     0.120 C 
ATOM     90  N   UNL A   1      32.829  20.816  26.142  1.00  0.00    -0.342 N 
ATOM     91  C   UNL A   1      33.020  19.451  25.251  1.00  0.00     0.225 C 
ATOM     92  O   UNL A   1      31.955  18.809  25.160  1.00  0.00    -0.275 OA
BRANCH  91  93
ATOM     93  C   UNL A   1      34.347  18.478  24.377  1.00  0.00     0.079 C 
ATOM     94  C   UNL A   1      35.222  17.183  24.583  1.00  0.00     0.014 C 
ATOM     95  C   UNL A   1      34.312  17.182  23.430  1.00  0.00     0.014 C 
ENDBRANCH  91  93
ENDBRANCH  82  85
ENDBRANCH  71  81
ENDBRANCH  68  71
ENDBRANCH  66  67
ENDBRANCH  65  66
ENDBRANCH   1  65
TORSDOF 16
ENDMDL
