MODEL 1
REMARK VINA RESULT:     -12.1      0.000      0.000
REMARK SMILES COc1ccc(-c2ccc(CCC(=O)NCCCCCCNC(=O)c3ccc(-c4c5nc(c(-c6c(F)cccc6F)c6ccc([nH]6)c(-c6c(F)cccc6F)c6nc(c(-c7c(F)cccc7F)c7ccc4[nH]7)C=C6)C=C5)cc3)n2-c2ccc(C(C)=O)cc2)cc1
REMARK SMILES IDX 17 1 16 2 15 3 13 4 14 5 12 7 11 8 10 9 7 10 8 11 79 12 9 13
REMARK SMILES IDX 6 14 3 15 4 16 90 17 5 18 89 19 2 20 1 21 80 22 81 23 88 24
REMARK SMILES IDX 82 25 87 26 83 27 84 28 85 29 86 30 18 31 19 32 20 33 21 34
REMARK SMILES IDX 22 35 23 36 24 38 25 39 26 40 78 41 27 42 77 43 28 44 29 45
REMARK SMILES IDX 30 46 71 47 31 48 76 49 70 50 72 51 32 52 75 53 69 54 68 55
REMARK SMILES IDX 33 57 59 58 42 59 58 60 43 61 46 62 57 63 73 64 44 65 45 66
REMARK SMILES IDX 56 68 74 69 47 70 34 71 35 72 40 73 36 74 37 75 39 76 41 77
REMARK SMILES IDX 38 78 60 79 61 80 66 81 62 82 63 83 65 84 67 85 64 86 48 87
REMARK SMILES IDX 49 88 54 89 50 90 51 91 53 92 55 93 52 94
REMARK H PARENT 15 6 22 37 72 56 46 67
REMARK Flexibility Score: inf
ROOT
ATOM      1  C   UNL A   1      31.338  28.865  25.139  1.00  0.00     0.021 C 
ENDROOT
BRANCH   1   2
ATOM      2  C   UNL A   1      31.132  29.034  23.636  1.00  0.00     0.116 C 
BRANCH   2   3
ATOM      3  N   UNL A   1      32.406  29.247  22.980  1.00  0.00    -0.356 N 
ATOM      4  C   UNL A   1      33.216  28.338  22.371  1.00  0.00     0.220 C 
ATOM      5  O   UNL A   1      34.359  28.682  22.063  1.00  0.00    -0.275 OA
ATOM      6  H   UNL A   1      32.729  30.177  22.971  1.00  0.00     0.163 HD
BRANCH   4   7
ATOM      7  C   UNL A   1      32.706  26.947  22.051  1.00  0.00     0.106 C 
BRANCH   7   8
ATOM      8  C   UNL A   1      33.540  25.836  22.688  1.00  0.00     0.064 C 
BRANCH   8   9
ATOM      9  C   UNL A   1      32.745  24.617  23.083  1.00  0.00     0.024 A 
ATOM     10  C   UNL A   1      32.274  22.427  23.405  1.00  0.00     0.053 A 
ATOM     11  C   UNL A   1      31.090  23.148  23.488  1.00  0.00     0.029 A 
ATOM     12  N   UNL A   1      33.299  23.375  23.389  1.00  0.00    -0.314 N 
ATOM     13  C   UNL A   1      31.385  24.513  23.292  1.00  0.00     0.024 A 
BRANCH  10  14
ATOM     14  C   UNL A   1      32.424  20.994  23.663  1.00  0.00    -0.001 A 
ATOM     15  C   UNL A   1      32.552  18.247  24.257  1.00  0.00     0.118 A 
ATOM     16  C   UNL A   1      32.717  19.201  25.260  1.00  0.00     0.047 A 
ATOM     17  C   UNL A   1      32.316  18.667  22.948  1.00  0.00     0.047 A 
ATOM     18  C   UNL A   1      32.655  20.563  24.970  1.00  0.00     0.014 A 
ATOM     19  C   UNL A   1      32.252  20.039  22.653  1.00  0.00     0.014 A 
BRANCH  15  20
ATOM     20  O   UNL A   1      32.605  16.955  24.698  1.00  0.00    -0.497 OA
ATOM     21  C   UNL A   1      33.885  16.353  24.814  1.00  0.00     0.278 C 
ENDBRANCH  15  20
ENDBRANCH  10  14
BRANCH  12  22
ATOM     22  C   UNL A   1      34.575  23.192  23.978  1.00  0.00     0.046 A 
ATOM     23  C   UNL A   1      34.660  23.378  25.363  1.00  0.00     0.027 A 
ATOM     24  C   UNL A   1      35.674  22.733  23.256  1.00  0.00     0.027 A 
ATOM     25  C   UNL A   1      35.847  23.116  26.037  1.00  0.00     0.014 A 
ATOM     26  C   UNL A   1      36.874  22.495  23.937  1.00  0.00     0.014 A 
ATOM     27  C   UNL A   1      36.969  22.674  25.332  1.00  0.00     0.017 A 
BRANCH  27  28
ATOM     28  C   UNL A   1      38.269  22.373  26.005  1.00  0.00     0.159 C 
ATOM     29  C   UNL A   1      39.043  21.116  25.681  1.00  0.00     0.093 C 
ATOM     30  O   UNL A   1      38.716  23.173  26.827  1.00  0.00    -0.295 OA
ENDBRANCH  27  28
ENDBRANCH  12  22
ENDBRANCH   8   9
ENDBRANCH   7   8
ENDBRANCH   4   7
ENDBRANCH   2   3
ENDBRANCH   1   2
BRANCH   1  31
ATOM     31  C   UNL A   1      31.677  27.453  25.597  1.00  0.00     0.002 C 
BRANCH  31  32
ATOM     32  C   UNL A   1      33.026  27.332  26.307  1.00  0.00     0.002 C 
BRANCH  32  33
ATOM     33  C   UNL A   1      33.555  28.626  26.952  1.00  0.00     0.021 C 
BRANCH  33  34
ATOM     34  C   UNL A   1      35.069  28.812  26.838  1.00  0.00     0.116 C 
BRANCH  34  35
ATOM     35  N   UNL A   1      35.422  30.188  27.132  1.00  0.00    -0.352 N 
ATOM     36  C   UNL A   1      36.334  30.692  28.014  1.00  0.00     0.251 C 
ATOM     37  H   UNL A   1      34.925  30.863  26.615  1.00  0.00     0.163 HD
ATOM     38  O   UNL A   1      36.186  31.835  28.429  1.00  0.00    -0.269 OA
BRANCH  36  39
ATOM     39  C   UNL A   1      37.510  29.909  28.445  1.00  0.00     0.039 A 
ATOM     40  C   UNL A   1      38.657  29.978  27.641  1.00  0.00     0.014 A 
ATOM     41  C   UNL A   1      37.447  29.006  29.512  1.00  0.00     0.014 A 
ATOM     42  C   UNL A   1      39.738  29.149  27.906  1.00  0.00     0.010 A 
ATOM     43  C   UNL A   1      38.533  28.185  29.790  1.00  0.00     0.010 A 
ATOM     44  C   UNL A   1      39.675  28.259  28.985  1.00  0.00    -0.014 A 
BRANCH  44  45
ATOM     45  C   UNL A   1      40.908  27.545  29.379  1.00  0.00     0.031 A 
ATOM     46  C   UNL A   1      41.142  26.312  28.467  1.00  0.00     0.074 A 
ATOM     47  C   UNL A   1      41.598  28.062  30.445  1.00  0.00     0.049 A 
ATOM     48  N   UNL A   1      41.886  25.264  28.651  1.00  0.00    -0.248 NA
ATOM     49  C   UNL A   1      40.417  26.212  27.162  1.00  0.00     0.031 C 
ATOM     50  C   UNL A   1      41.246  29.313  31.163  1.00  0.00     0.029 A 
ATOM     51  N   UNL A   1      42.721  27.667  31.148  1.00  0.00    -0.354 N 
ATOM     52  C   UNL A   1      41.905  24.529  27.439  1.00  0.00     0.074 A 
ATOM     53  C   UNL A   1      40.898  25.098  26.604  1.00  0.00     0.031 C 
ATOM     54  C   UNL A   1      42.061  29.517  32.225  1.00  0.00     0.029 A 
ATOM     55  C   UNL A   1      43.036  28.446  32.303  1.00  0.00     0.049 A 
ATOM     56  H   UNL A   1      43.269  26.897  30.871  1.00  0.00     0.167 HD
ATOM     57  C   UNL A   1      42.854  23.587  27.154  1.00  0.00     0.037 A 
ATOM     58  C   UNL A   1      43.996  28.224  33.260  1.00  0.00     0.037 A 
ATOM     59  C   UNL A   1      43.706  23.418  28.276  1.00  0.00     0.049 A 
ATOM     60  C   UNL A   1      44.821  27.158  32.697  1.00  0.00     0.074 A 
ATOM     61  C   UNL A   1      43.476  22.846  29.499  1.00  0.00     0.029 A 
ATOM     62  N   UNL A   1      44.806  24.237  28.342  1.00  0.00    -0.354 N 
ATOM     63  N   UNL A   1      45.669  27.342  31.734  1.00  0.00    -0.248 NA
ATOM     64  C   UNL A   1      44.673  25.792  33.204  1.00  0.00     0.031 C 
ATOM     65  C   UNL A   1      44.115  23.740  30.373  1.00  0.00     0.029 A 
ATOM     66  C   UNL A   1      44.942  24.611  29.651  1.00  0.00     0.049 A 
ATOM     67  H   UNL A   1      45.385  24.503  27.592  1.00  0.00     0.167 HD
ATOM     68  C   UNL A   1      45.851  26.064  31.279  1.00  0.00     0.074 A 
ATOM     69  C   UNL A   1      45.525  25.181  32.383  1.00  0.00     0.031 C 
ATOM     70  C   UNL A   1      45.669  25.818  29.955  1.00  0.00     0.037 A 
BRANCH  57  71
ATOM     71  C   UNL A   1      43.293  22.915  25.885  1.00  0.00     0.057 A 
ATOM     72  C   UNL A   1      43.393  21.503  25.867  1.00  0.00     0.134 A 
ATOM     73  C   UNL A   1      43.973  23.585  24.867  1.00  0.00     0.134 A 
ATOM     74  F   UNL A   1      42.753  20.752  26.779  1.00  0.00    -0.206 F 
ATOM     75  C   UNL A   1      44.225  20.818  24.978  1.00  0.00     0.040 A 
ATOM     76  C   UNL A   1      44.769  22.904  23.935  1.00  0.00     0.040 A 
ATOM     77  F   UNL A   1      43.984  24.921  24.814  1.00  0.00    -0.206 F 
ATOM     78  C   UNL A   1      44.934  21.524  24.018  1.00  0.00     0.006 A 
ENDBRANCH  57  71
BRANCH  58  79
ATOM     79  C   UNL A   1      44.448  28.690  34.630  1.00  0.00     0.057 A 
ATOM     80  C   UNL A   1      45.713  29.167  34.966  1.00  0.00     0.134 A 
ATOM     81  C   UNL A   1      43.491  28.815  35.685  1.00  0.00     0.134 A 
ATOM     82  F   UNL A   1      46.749  29.035  34.130  1.00  0.00    -0.206 F 
ATOM     83  C   UNL A   1      45.969  29.820  36.195  1.00  0.00     0.040 A 
ATOM     84  C   UNL A   1      43.712  29.511  36.876  1.00  0.00     0.040 A 
ATOM     85  F   UNL A   1      42.265  28.277  35.604  1.00  0.00    -0.206 F 
ATOM     86  C   UNL A   1      44.957  30.038  37.130  1.00  0.00     0.006 A 
ENDBRANCH  58  79
BRANCH  70  87
ATOM     87  C   UNL A   1      45.873  27.035  29.058  1.00  0.00     0.057 A 
ATOM     88  C   UNL A   1      47.113  27.698  29.051  1.00  0.00     0.134 A 
ATOM     89  C   UNL A   1      44.861  27.668  28.320  1.00  0.00     0.134 A 
ATOM     90  F   UNL A   1      48.165  27.166  29.692  1.00  0.00    -0.206 F 
ATOM     91  C   UNL A   1      47.310  28.929  28.408  1.00  0.00     0.040 A 
ATOM     92  C   UNL A   1      45.042  28.895  27.662  1.00  0.00     0.040 A 
ATOM     93  F   UNL A   1      43.652  27.122  28.204  1.00  0.00    -0.206 F 
ATOM     94  C   UNL A   1      46.269  29.540  27.718  1.00  0.00     0.006 A 
ENDBRANCH  70  87
ENDBRANCH  44  45
ENDBRANCH  36  39
ENDBRANCH  34  35
ENDBRANCH  33  34
ENDBRANCH  32  33
ENDBRANCH  31  32
ENDBRANCH   1  31
TORSDOF 19
ENDMDL
MODEL 2
REMARK VINA RESULT:     -11.8      3.535      5.168
REMARK SMILES COc1ccc(-c2ccc(CCC(=O)NCCCCCCNC(=O)c3ccc(-c4c5nc(c(-c6c(F)cccc6F)c6ccc([nH]6)c(-c6c(F)cccc6F)c6nc(c(-c7c(F)cccc7F)c7ccc4[nH]7)C=C6)C=C5)cc3)n2-c2ccc(C(C)=O)cc2)cc1
REMARK SMILES IDX 17 1 16 2 15 3 13 4 14 5 12 7 11 8 10 9 7 10 8 11 79 12 9 13
REMARK SMILES IDX 6 14 3 15 4 16 90 17 5 18 89 19 2 20 1 21 80 22 81 23 88 24
REMARK SMILES IDX 82 25 87 26 83 27 84 28 85 29 86 30 18 31 19 32 20 33 21 34
REMARK SMILES IDX 22 35 23 36 24 38 25 39 26 40 78 41 27 42 77 43 28 44 29 45
REMARK SMILES IDX 30 46 71 47 31 48 76 49 70 50 72 51 32 52 75 53 69 54 68 55
REMARK SMILES IDX 33 57 59 58 42 59 58 60 43 61 46 62 57 63 73 64 44 65 45 66
REMARK SMILES IDX 56 68 74 69 47 70 34 71 35 72 40 73 36 74 37 75 39 76 41 77
REMARK SMILES IDX 38 78 60 79 61 80 66 81 62 82 63 83 65 84 67 85 64 86 48 87
REMARK SMILES IDX 49 88 54 89 50 90 51 91 53 92 55 93 52 94
REMARK H PARENT 15 6 22 37 72 56 46 67
REMARK Flexibility Score: inf
ROOT
ATOM      1  C   UNL A   1      30.845  27.808  25.108  1.00  0.00     0.021 C 
ENDROOT
BRANCH   1   2
ATOM      2  C   UNL A   1      30.733  28.680  23.860  1.00  0.00     0.116 C 
BRANCH   2   3
ATOM      3  N   UNL A   1      32.038  29.184  23.485  1.00  0.00    -0.356 N 
ATOM      4  C   UNL A   1      33.008  28.578  22.746  1.00  0.00     0.220 C 
ATOM      5  O   UNL A   1      34.131  29.085  22.721  1.00  0.00    -0.275 OA
ATOM      6  H   UNL A   1      32.252  30.089  23.807  1.00  0.00     0.163 HD
BRANCH   4   7
ATOM      7  C   UNL A   1      32.697  27.328  21.947  1.00  0.00     0.106 C 
BRANCH   7   8
ATOM      8  C   UNL A   1      33.542  26.124  22.356  1.00  0.00     0.064 C 
BRANCH   8   9
ATOM      9  C   UNL A   1      32.740  24.944  22.845  1.00  0.00     0.024 A 
ATOM     10  C   UNL A   1      32.255  22.788  23.334  1.00  0.00     0.053 A 
ATOM     11  C   UNL A   1      31.077  23.523  23.366  1.00  0.00     0.029 A 
ATOM     12  N   UNL A   1      33.287  23.724  23.242  1.00  0.00    -0.314 N 
ATOM     13  C   UNL A   1      31.380  24.867  23.067  1.00  0.00     0.024 A 
BRANCH  10  14
ATOM     14  C   UNL A   1      32.395  21.378  23.698  1.00  0.00    -0.001 A 
ATOM     15  C   UNL A   1      32.815  18.658  24.283  1.00  0.00     0.118 A 
ATOM     16  C   UNL A   1      32.394  19.057  23.016  1.00  0.00     0.047 A 
ATOM     17  C   UNL A   1      33.033  19.625  25.265  1.00  0.00     0.047 A 
ATOM     18  C   UNL A   1      32.185  20.403  22.721  1.00  0.00     0.014 A 
ATOM     19  C   UNL A   1      32.824  20.982  24.972  1.00  0.00     0.014 A 
BRANCH  15  20
ATOM     20  O   UNL A   1      33.010  17.312  24.411  1.00  0.00    -0.497 OA
ATOM     21  C   UNL A   1      32.525  16.688  25.590  1.00  0.00     0.278 C 
ENDBRANCH  15  20
ENDBRANCH  10  14
BRANCH  12  22
ATOM     22  C   UNL A   1      34.564  23.577  23.838  1.00  0.00     0.046 A 
ATOM     23  C   UNL A   1      34.714  24.082  25.135  1.00  0.00     0.027 A 
ATOM     24  C   UNL A   1      35.594  22.862  23.233  1.00  0.00     0.027 A 
ATOM     25  C   UNL A   1      35.899  23.885  25.834  1.00  0.00     0.014 A 
ATOM     26  C   UNL A   1      36.795  22.690  23.933  1.00  0.00     0.014 A 
ATOM     27  C   UNL A   1      36.955  23.190  25.241  1.00  0.00     0.017 A 
BRANCH  27  28
ATOM     28  C   UNL A   1      38.249  22.946  25.947  1.00  0.00     0.159 C 
ATOM     29  C   UNL A   1      38.883  24.016  26.806  1.00  0.00     0.093 C 
ATOM     30  O   UNL A   1      38.796  21.849  25.832  1.00  0.00    -0.295 OA
ENDBRANCH  27  28
ENDBRANCH  12  22
ENDBRANCH   8   9
ENDBRANCH   7   8
ENDBRANCH   4   7
ENDBRANCH   2   3
ENDBRANCH   1   2
BRANCH   1  31
ATOM     31  C   UNL A   1      32.082  28.048  25.962  1.00  0.00     0.002 C 
BRANCH  31  32
ATOM     32  C   UNL A   1      31.826  28.893  27.211  1.00  0.00     0.002 C 
BRANCH  32  33
ATOM     33  C   UNL A   1      31.619  30.397  26.964  1.00  0.00     0.021 C 
BRANCH  33  34
ATOM     34  C   UNL A   1      32.915  31.186  26.765  1.00  0.00     0.116 C 
BRANCH  34  35
ATOM     35  N   UNL A   1      32.692  32.588  27.061  1.00  0.00    -0.352 N 
ATOM     36  C   UNL A   1      33.216  33.372  28.049  1.00  0.00     0.251 C 
ATOM     37  H   UNL A   1      32.063  33.045  26.457  1.00  0.00     0.163 HD
ATOM     38  O   UNL A   1      32.601  34.371  28.400  1.00  0.00    -0.269 OA
BRANCH  36  39
ATOM     39  C   UNL A   1      34.521  33.067  28.670  1.00  0.00     0.039 A 
ATOM     40  C   UNL A   1      34.515  32.248  29.807  1.00  0.00     0.014 A 
ATOM     41  C   UNL A   1      35.702  33.693  28.255  1.00  0.00     0.014 A 
ATOM     42  C   UNL A   1      35.687  32.050  30.524  1.00  0.00     0.010 A 
ATOM     43  C   UNL A   1      36.881  33.486  28.960  1.00  0.00     0.010 A 
ATOM     44  C   UNL A   1      36.869  32.666  30.094  1.00  0.00    -0.014 A 
BRANCH  44  45
ATOM     45  C   UNL A   1      38.139  32.274  30.740  1.00  0.00     0.031 A 
ATOM     46  C   UNL A   1      38.749  31.032  30.039  1.00  0.00     0.074 A 
ATOM     47  C   UNL A   1      38.539  33.032  31.811  1.00  0.00     0.049 A 
ATOM     48  N   UNL A   1      39.643  30.189  30.458  1.00  0.00    -0.248 NA
ATOM     49  C   UNL A   1      38.272  30.647  28.675  1.00  0.00     0.031 C 
ATOM     50  C   UNL A   1      37.842  34.247  32.302  1.00  0.00     0.029 A 
ATOM     51  N   UNL A   1      39.592  32.958  32.703  1.00  0.00    -0.354 N 
ATOM     52  C   UNL A   1      39.996  29.354  29.368  1.00  0.00     0.074 A 
ATOM     53  C   UNL A   1      39.042  29.609  28.338  1.00  0.00     0.031 C 
ATOM     54  C   UNL A   1      38.424  34.726  33.427  1.00  0.00     0.029 A 
ATOM     55  C   UNL A   1      39.564  33.900  33.776  1.00  0.00     0.049 A 
ATOM     56  H   UNL A   1      40.316  32.297  32.606  1.00  0.00     0.167 HD
ATOM     57  C   UNL A   1      41.143  28.610  29.340  1.00  0.00     0.037 A 
ATOM     58  C   UNL A   1      40.386  33.986  34.873  1.00  0.00     0.037 A 
ATOM     59  C   UNL A   1      41.824  28.742  30.578  1.00  0.00     0.049 A 
ATOM     60  C   UNL A   1      41.480  33.067  34.572  1.00  0.00     0.074 A 
ATOM     61  C   UNL A   1      41.519  28.263  31.824  1.00  0.00     0.029 A 
ATOM     62  N   UNL A   1      42.719  29.777  30.680  1.00  0.00    -0.354 N 
ATOM     63  N   UNL A   1      42.417  33.326  33.715  1.00  0.00    -0.248 NA
ATOM     64  C   UNL A   1      41.523  31.760  35.232  1.00  0.00     0.031 C 
ATOM     65  C   UNL A   1      41.827  29.357  32.648  1.00  0.00     0.029 A 
ATOM     66  C   UNL A   1      42.572  30.304  31.934  1.00  0.00     0.049 A 
ATOM     67  H   UNL A   1      43.347  30.082  29.985  1.00  0.00     0.167 HD
ATOM     68  C   UNL A   1      42.913  32.076  33.461  1.00  0.00     0.074 A 
ATOM     69  C   UNL A   1      42.596  31.262  34.620  1.00  0.00     0.031 C 
ATOM     70  C   UNL A   1      42.994  31.663  32.170  1.00  0.00     0.037 A 
BRANCH  57  71
ATOM     71  C   UNL A   1      41.898  27.920  28.240  1.00  0.00     0.057 A 
ATOM     72  C   UNL A   1      42.475  28.711  27.217  1.00  0.00     0.134 A 
ATOM     73  C   UNL A   1      41.740  26.566  27.945  1.00  0.00     0.134 A 
ATOM     74  F   UNL A   1      42.705  30.022  27.402  1.00  0.00    -0.206 F 
ATOM     75  C   UNL A   1      42.748  28.212  25.942  1.00  0.00     0.040 A 
ATOM     76  C   UNL A   1      42.060  26.041  26.684  1.00  0.00     0.040 A 
ATOM     77  F   UNL A   1      41.164  25.735  28.820  1.00  0.00    -0.206 F 
ATOM     78  C   UNL A   1      42.521  26.872  25.666  1.00  0.00     0.006 A 
ENDBRANCH  57  71
BRANCH  58  79
ATOM     79  C   UNL A   1      40.517  34.675  36.217  1.00  0.00     0.057 A 
ATOM     80  C   UNL A   1      41.273  35.812  36.494  1.00  0.00     0.134 A 
ATOM     81  C   UNL A   1      39.698  34.253  37.310  1.00  0.00     0.134 A 
ATOM     82  F   UNL A   1      42.167  36.281  35.616  1.00  0.00    -0.206 F 
ATOM     83  C   UNL A   1      41.131  36.534  37.703  1.00  0.00     0.040 A 
ATOM     84  C   UNL A   1      39.501  34.988  38.483  1.00  0.00     0.040 A 
ATOM     85  F   UNL A   1      39.016  33.099  37.288  1.00  0.00    -0.206 F 
ATOM     86  C   UNL A   1      40.209  36.152  38.677  1.00  0.00     0.006 A 
ENDBRANCH  58  79
BRANCH  70  87
ATOM     87  C   UNL A   1      43.096  32.796  31.154  1.00  0.00     0.057 A 
ATOM     88  C   UNL A   1      44.175  33.695  31.216  1.00  0.00     0.134 A 
ATOM     89  C   UNL A   1      42.104  33.128  30.218  1.00  0.00     0.134 A 
ATOM     90  F   UNL A   1      45.202  33.458  32.049  1.00  0.00    -0.206 F 
ATOM     91  C   UNL A   1      44.231  34.867  30.448  1.00  0.00     0.040 A 
ATOM     92  C   UNL A   1      42.148  34.292  29.434  1.00  0.00     0.040 A 
ATOM     93  F   UNL A   1      41.051  32.338  30.023  1.00  0.00    -0.206 F 
ATOM     94  C   UNL A   1      43.208  35.177  29.559  1.00  0.00     0.006 A 
ENDBRANCH  70  87
ENDBRANCH  44  45
ENDBRANCH  36  39
ENDBRANCH  34  35
ENDBRANCH  33  34
ENDBRANCH  32  33
ENDBRANCH  31  32
ENDBRANCH   1  31
TORSDOF 19
ENDMDL
MODEL 3
REMARK VINA RESULT:     -11.7      2.715      8.013
REMARK SMILES COc1ccc(-c2ccc(CCC(=O)NCCCCCCNC(=O)c3ccc(-c4c5nc(c(-c6c(F)cccc6F)c6ccc([nH]6)c(-c6c(F)cccc6F)c6nc(c(-c7c(F)cccc7F)c7ccc4[nH]7)C=C6)C=C5)cc3)n2-c2ccc(C(C)=O)cc2)cc1
REMARK SMILES IDX 17 1 16 2 15 3 13 4 14 5 12 7 11 8 10 9 7 10 8 11 79 12 9 13
REMARK SMILES IDX 6 14 3 15 4 16 90 17 5 18 89 19 2 20 1 21 80 22 81 23 88 24
REMARK SMILES IDX 82 25 87 26 83 27 84 28 85 29 86 30 18 31 19 32 20 33 21 34
REMARK SMILES IDX 22 35 23 36 24 38 25 39 26 40 78 41 27 42 77 43 28 44 29 45
REMARK SMILES IDX 30 46 71 47 31 48 76 49 70 50 72 51 32 52 75 53 69 54 68 55
REMARK SMILES IDX 33 57 59 58 42 59 58 60 43 61 46 62 57 63 73 64 44 65 45 66
REMARK SMILES IDX 56 68 74 69 47 70 34 71 35 72 40 73 36 74 37 75 39 76 41 77
REMARK SMILES IDX 38 78 60 79 61 80 66 81 62 82 63 83 65 84 67 85 64 86 48 87
REMARK SMILES IDX 49 88 54 89 50 90 51 91 53 92 55 93 52 94
REMARK H PARENT 15 6 22 37 72 56 46 67
REMARK Flexibility Score: inf
ROOT
ATOM      1  C   UNL A   1      34.362  22.749  23.677  1.00  0.00     0.021 C 
ENDROOT
BRANCH   1   2
ATOM      2  C   UNL A   1      33.750  21.509  24.322  1.00  0.00     0.116 C 
BRANCH   2   3
ATOM      3  N   UNL A   1      34.115  21.443  25.721  1.00  0.00    -0.356 N 
ATOM      4  C   UNL A   1      33.420  21.880  26.807  1.00  0.00     0.220 C 
ATOM      5  O   UNL A   1      33.997  21.928  27.895  1.00  0.00    -0.275 OA
ATOM      6  H   UNL A   1      34.985  21.023  25.914  1.00  0.00     0.163 HD
BRANCH   4   7
ATOM      7  C   UNL A   1      31.959  22.264  26.681  1.00  0.00     0.106 C 
BRANCH   7   8
ATOM      8  C   UNL A   1      31.724  23.772  26.728  1.00  0.00     0.064 C 
BRANCH   8   9
ATOM      9  C   UNL A   1      31.222  24.359  25.432  1.00  0.00     0.024 A 
ATOM     10  C   UNL A   1      30.262  25.858  24.034  1.00  0.00     0.053 A 
ATOM     11  C   UNL A   1      30.372  24.644  23.369  1.00  0.00     0.029 A 
ATOM     12  N   UNL A   1      31.001  25.718  25.211  1.00  0.00    -0.314 N 
ATOM     13  C   UNL A   1      30.975  23.712  24.239  1.00  0.00     0.024 A 
BRANCH  10  14
ATOM     14  C   UNL A   1      29.795  27.116  23.450  1.00  0.00    -0.001 A 
ATOM     15  C   UNL A   1      28.855  29.592  22.501  1.00  0.00     0.118 A 
ATOM     16  C   UNL A   1      27.976  28.659  23.050  1.00  0.00     0.047 A 
ATOM     17  C   UNL A   1      30.215  29.289  22.431  1.00  0.00     0.047 A 
ATOM     18  C   UNL A   1      28.438  27.431  23.521  1.00  0.00     0.014 A 
ATOM     19  C   UNL A   1      30.683  28.052  22.905  1.00  0.00     0.014 A 
BRANCH  15  20
ATOM     20  O   UNL A   1      28.263  30.761  22.115  1.00  0.00    -0.497 OA
ATOM     21  C   UNL A   1      28.851  31.974  22.559  1.00  0.00     0.278 C 
ENDBRANCH  15  20
ENDBRANCH  10  14
BRANCH  12  22
ATOM     22  C   UNL A   1      31.738  26.759  25.828  1.00  0.00     0.046 A 
ATOM     23  C   UNL A   1      33.056  26.941  25.390  1.00  0.00     0.027 A 
ATOM     24  C   UNL A   1      31.165  27.645  26.736  1.00  0.00     0.027 A 
ATOM     25  C   UNL A   1      33.814  28.005  25.865  1.00  0.00     0.014 A 
ATOM     26  C   UNL A   1      31.943  28.699  27.230  1.00  0.00     0.014 A 
ATOM     27  C   UNL A   1      33.268  28.895  26.792  1.00  0.00     0.017 A 
BRANCH  27  28
ATOM     28  C   UNL A   1      34.037  30.058  27.332  1.00  0.00     0.159 C 
ATOM     29  C   UNL A   1      35.499  29.927  27.691  1.00  0.00     0.093 C 
ATOM     30  O   UNL A   1      33.465  31.139  27.473  1.00  0.00    -0.295 OA
ENDBRANCH  27  28
ENDBRANCH  12  22
ENDBRANCH   8   9
ENDBRANCH   7   8
ENDBRANCH   4   7
ENDBRANCH   2   3
ENDBRANCH   1   2
BRANCH   1  31
ATOM     31  C   UNL A   1      35.708  23.181  24.242  1.00  0.00     0.002 C 
BRANCH  31  32
ATOM     32  C   UNL A   1      36.910  22.500  23.585  1.00  0.00     0.002 C 
BRANCH  32  33
ATOM     33  C   UNL A   1      37.348  21.170  24.222  1.00  0.00     0.021 C 
BRANCH  33  34
ATOM     34  C   UNL A   1      37.962  21.312  25.617  1.00  0.00     0.116 C 
BRANCH  34  35
ATOM     35  N   UNL A   1      38.902  20.234  25.856  1.00  0.00    -0.352 N 
ATOM     36  C   UNL A   1      40.253  20.274  26.050  1.00  0.00     0.251 C 
ATOM     37  H   UNL A   1      38.504  19.333  25.882  1.00  0.00     0.163 HD
ATOM     38  O   UNL A   1      40.916  19.273  25.803  1.00  0.00    -0.269 OA
BRANCH  36  39
ATOM     39  C   UNL A   1      40.924  21.475  26.585  1.00  0.00     0.039 A 
ATOM     40  C   UNL A   1      41.423  22.400  25.657  1.00  0.00     0.014 A 
ATOM     41  C   UNL A   1      41.206  21.619  27.948  1.00  0.00     0.014 A 
ATOM     42  C   UNL A   1      42.196  23.468  26.091  1.00  0.00     0.010 A 
ATOM     43  C   UNL A   1      41.966  22.695  28.390  1.00  0.00     0.010 A 
ATOM     44  C   UNL A   1      42.460  23.616  27.458  1.00  0.00    -0.014 A 
BRANCH  44  45
ATOM     45  C   UNL A   1      43.097  24.868  27.918  1.00  0.00     0.031 A 
ATOM     46  C   UNL A   1      42.025  25.909  28.330  1.00  0.00     0.074 A 
ATOM     47  C   UNL A   1      44.468  24.901  27.891  1.00  0.00     0.049 A 
ATOM     48  N   UNL A   1      42.119  27.195  28.475  1.00  0.00    -0.248 NA
ATOM     49  C   UNL A   1      40.623  25.459  28.595  1.00  0.00     0.031 C 
ATOM     50  C   UNL A   1      45.341  23.758  27.520  1.00  0.00     0.029 A 
ATOM     51  N   UNL A   1      45.414  25.872  28.162  1.00  0.00    -0.354 N 
ATOM     52  C   UNL A   1      40.909  27.657  29.053  1.00  0.00     0.074 A 
ATOM     53  C   UNL A   1      39.992  26.565  28.996  1.00  0.00     0.031 C 
ATOM     54  C   UNL A   1      46.645  24.122  27.501  1.00  0.00     0.029 A 
ATOM     55  C   UNL A   1      46.767  25.518  27.875  1.00  0.00     0.049 A 
ATOM     56  H   UNL A   1      45.170  26.752  28.528  1.00  0.00     0.167 HD
ATOM     57  C   UNL A   1      40.794  28.870  29.671  1.00  0.00     0.037 A 
ATOM     58  C   UNL A   1      47.894  26.303  27.915  1.00  0.00     0.037 A 
ATOM     59  C   UNL A   1      42.012  29.586  29.542  1.00  0.00     0.049 A 
ATOM     60  C   UNL A   1      47.454  27.524  28.583  1.00  0.00     0.074 A 
ATOM     61  C   UNL A   1      42.596  30.173  28.452  1.00  0.00     0.029 A 
ATOM     62  N   UNL A   1      42.950  29.385  30.524  1.00  0.00    -0.354 N 
ATOM     63  N   UNL A   1      47.224  27.601  29.856  1.00  0.00    -0.248 NA
ATOM     64  C   UNL A   1      47.213  28.732  27.789  1.00  0.00     0.031 C 
ATOM     65  C   UNL A   1      43.946  29.823  28.609  1.00  0.00     0.029 A 
ATOM     66  C   UNL A   1      44.167  29.327  29.901  1.00  0.00     0.049 A 
ATOM     67  H   UNL A   1      42.780  29.299  31.490  1.00  0.00     0.167 HD
ATOM     68  C   UNL A   1      46.454  28.730  29.932  1.00  0.00     0.074 A 
ATOM     69  C   UNL A   1      46.774  29.527  28.763  1.00  0.00     0.031 C 
ATOM     70  C   UNL A   1      45.255  28.652  30.565  1.00  0.00     0.037 A 
BRANCH  57  71
ATOM     71  C   UNL A   1      39.778  29.458  30.608  1.00  0.00     0.057 A 
ATOM     72  C   UNL A   1      39.619  28.870  31.887  1.00  0.00     0.134 A 
ATOM     73  C   UNL A   1      38.729  30.271  30.179  1.00  0.00     0.134 A 
ATOM     74  F   UNL A   1      40.580  28.095  32.417  1.00  0.00    -0.206 F 
ATOM     75  C   UNL A   1      38.437  28.977  32.624  1.00  0.00     0.040 A 
ATOM     76  C   UNL A   1      37.558  30.429  30.934  1.00  0.00     0.040 A 
ATOM     77  F   UNL A   1      38.753  30.840  28.969  1.00  0.00    -0.206 F 
ATOM     78  C   UNL A   1      37.391  29.746  32.135  1.00  0.00     0.006 A 
ENDBRANCH  57  71
BRANCH  58  79
ATOM     79  C   UNL A   1      49.354  26.320  27.508  1.00  0.00     0.057 A 
ATOM     80  C   UNL A   1      50.450  26.169  28.355  1.00  0.00     0.134 A 
ATOM     81  C   UNL A   1      49.702  26.341  26.122  1.00  0.00     0.134 A 
ATOM     82  F   UNL A   1      50.313  26.228  29.685  1.00  0.00    -0.206 F 
ATOM     83  C   UNL A   1      51.756  25.936  27.861  1.00  0.00     0.040 A 
ATOM     84  C   UNL A   1      50.973  26.051  25.619  1.00  0.00     0.040 A 
ATOM     85  F   UNL A   1      48.806  26.627  25.165  1.00  0.00    -0.206 F 
ATOM     86  C   UNL A   1      52.010  25.826  26.494  1.00  0.00     0.006 A 
ENDBRANCH  58  79
BRANCH  70  87
ATOM     87  C   UNL A   1      45.166  27.540  31.605  1.00  0.00     0.057 A 
ATOM     88  C   UNL A   1      46.048  27.535  32.700  1.00  0.00     0.134 A 
ATOM     89  C   UNL A   1      44.355  26.400  31.495  1.00  0.00     0.134 A 
ATOM     90  F   UNL A   1      46.846  28.591  32.927  1.00  0.00    -0.206 F 
ATOM     91  C   UNL A   1      46.156  26.449  33.581  1.00  0.00     0.040 A 
ATOM     92  C   UNL A   1      44.443  25.307  32.373  1.00  0.00     0.040 A 
ATOM     93  F   UNL A   1      43.442  26.297  30.532  1.00  0.00    -0.206 F 
ATOM     94  C   UNL A   1      45.359  25.322  33.413  1.00  0.00     0.006 A 
ENDBRANCH  70  87
ENDBRANCH  44  45
ENDBRANCH  36  39
ENDBRANCH  34  35
ENDBRANCH  33  34
ENDBRANCH  32  33
ENDBRANCH  31  32
ENDBRANCH   1  31
TORSDOF 19
ENDMDL
