MODEL 1
REMARK VINA RESULT:     -11.5      0.000      0.000
REMARK SMILES COc1ccc2c(c1)c(Cc1nc(-c3ccc(C(=O)NCCCCCCNC(=O)c4ccc(-c5c6nc(c(-c7c(F)cccc7F)c7ccc([nH]7)c(-c7c(F)cccc7F)c7nc(c(-c8c(F)cccc8F)c8ccc5[nH]8)C=C7)C=C6)cc4)cc3)cs1)c(C)n2C(=O)c1ccc(Cl)cc1
REMARK SMILES IDX 22 1 21 2 20 3 18 4 19 5 17 7 14 8 15 9 85 10 16 11 84 12
REMARK SMILES IDX 13 13 11 14 12 15 87 16 86 17 10 18 9 19 3 20 4 21 8 22 5 23
REMARK SMILES IDX 7 24 6 25 90 26 88 27 89 28 2 29 1 30 91 31 92 32 93 33
REMARK SMILES IDX 94 34 99 35 95 36 98 37 96 38 97 39 23 40 24 41 25 42 26 43
REMARK SMILES IDX 27 44 28 45 29 47 30 48 31 49 83 50 32 51 82 52 33 53 34 54
REMARK SMILES IDX 35 55 76 56 36 57 81 58 75 59 77 60 37 61 80 62 74 63 73 64
REMARK SMILES IDX 38 66 64 67 47 68 63 69 48 70 51 71 62 72 78 73 49 74 50 75
REMARK SMILES IDX 61 77 79 78 52 79 39 80 40 81 45 82 41 83 42 84 44 85 46 86
REMARK SMILES IDX 43 87 65 88 66 89 71 90 67 91 68 92 70 93 72 94 69 95 53 96
REMARK SMILES IDX 54 97 59 98 55 99 56 100 58 101 60 102 57 103
REMARK H PARENT 20 6 27 46 77 65 51 76
REMARK Flexibility Score: inf
ROOT
ATOM      1  C   UNL A   1      33.531  23.178  26.521  1.00  0.00     0.021 C 
ENDROOT
BRANCH   1   2
ATOM      2  C   UNL A   1      32.032  23.382  26.703  1.00  0.00     0.116 C 
BRANCH   2   3
ATOM      3  N   UNL A   1      31.376  23.962  25.546  1.00  0.00    -0.352 N 
ATOM      4  C   UNL A   1      31.330  25.256  25.081  1.00  0.00     0.251 C 
ATOM      5  O   UNL A   1      30.663  25.491  24.074  1.00  0.00    -0.269 OA
ATOM      6  H   UNL A   1      30.876  23.315  24.997  1.00  0.00     0.163 HD
BRANCH   4   7
ATOM      7  C   UNL A   1      31.989  26.383  25.795  1.00  0.00     0.039 A 
ATOM      8  C   UNL A   1      33.241  28.693  26.809  1.00  0.00     0.001 A 
ATOM      9  C   UNL A   1      33.937  27.832  25.955  1.00  0.00     0.011 A 
ATOM     10  C   UNL A   1      31.967  28.312  27.254  1.00  0.00     0.011 A 
ATOM     11  C   UNL A   1      33.311  26.689  25.445  1.00  0.00     0.014 A 
ATOM     12  C   UNL A   1      31.361  27.147  26.780  1.00  0.00     0.014 A 
BRANCH   8  13
ATOM     13  C   UNL A   1      33.798  29.962  27.254  1.00  0.00     0.081 A 
ATOM     14  C   UNL A   1      35.447  31.289  27.923  1.00  0.00     0.098 A 
ATOM     15  N   UNL A   1      35.129  30.052  27.604  1.00  0.00    -0.241 NA
ATOM     16  S   UNL A   1      34.127  32.387  27.957  1.00  0.00    -0.126 S 
ATOM     17  C   UNL A   1      33.080  31.127  27.440  1.00  0.00     0.095 A 
BRANCH  14  18
ATOM     18  C   UNL A   1      36.838  31.725  28.273  1.00  0.00     0.105 C 
BRANCH  18  19
ATOM     19  C   UNL A   1      37.503  30.813  29.275  1.00  0.00    -0.012 A 
ATOM     20  C   UNL A   1      40.068  28.411  27.754  1.00  0.00     0.119 A 
ATOM     21  C   UNL A   1      40.294  27.686  28.909  1.00  0.00     0.048 A 
ATOM     22  C   UNL A   1      39.152  29.461  27.782  1.00  0.00     0.057 A 
ATOM     23  C   UNL A   1      39.628  28.010  30.099  1.00  0.00     0.031 A 
ATOM     24  C   UNL A   1      38.490  29.831  28.978  1.00  0.00     0.008 A 
ATOM     25  C   UNL A   1      38.767  29.130  30.153  1.00  0.00     0.057 A 
ATOM     26  N   UNL A   1      38.061  29.747  31.207  1.00  0.00    -0.280 N 
ATOM     27  C   UNL A   1      37.252  30.748  30.641  1.00  0.00     0.028 A 
ATOM     28  C   UNL A   1      36.286  31.620  31.384  1.00  0.00     0.065 C 
BRANCH  20  29
ATOM     29  O   UNL A   1      40.686  28.213  26.551  1.00  0.00    -0.497 OA
ATOM     30  C   UNL A   1      41.099  26.881  26.272  1.00  0.00     0.278 C 
ENDBRANCH  20  29
BRANCH  26  31
ATOM     31  C   UNL A   1      38.147  29.397  32.589  1.00  0.00     0.262 C 
ATOM     32  O   UNL A   1      37.453  28.476  33.023  1.00  0.00    -0.268 OA
BRANCH  31  33
ATOM     33  C   UNL A   1      39.046  30.018  33.576  1.00  0.00     0.040 A 
ATOM     34  C   UNL A   1      40.404  30.216  33.298  1.00  0.00     0.015 A 
ATOM     35  C   UNL A   1      38.512  30.372  34.822  1.00  0.00     0.015 A 
ATOM     36  C   UNL A   1      41.248  30.678  34.313  1.00  0.00     0.021 A 
ATOM     37  C   UNL A   1      39.357  30.843  35.826  1.00  0.00     0.021 A 
ATOM     38  C   UNL A   1      40.724  30.972  35.575  1.00  0.00     0.041 A 
ATOM     39  Cl  UNL A   1      41.776  31.470  36.841  1.00  0.00    -0.084 Cl
ENDBRANCH  31  33
ENDBRANCH  26  31
ENDBRANCH  18  19
ENDBRANCH  14  18
ENDBRANCH   8  13
ENDBRANCH   4   7
ENDBRANCH   2   3
ENDBRANCH   1   2
BRANCH   1  40
ATOM     40  C   UNL A   1      34.018  23.009  25.082  1.00  0.00     0.002 C 
BRANCH  40  41
ATOM     41  C   UNL A   1      35.535  22.971  24.886  1.00  0.00     0.002 C 
BRANCH  41  42
ATOM     42  C   UNL A   1      36.377  23.543  26.030  1.00  0.00     0.021 C 
BRANCH  42  43
ATOM     43  C   UNL A   1      37.890  23.548  25.789  1.00  0.00     0.116 C 
BRANCH  43  44
ATOM     44  N   UNL A   1      38.468  22.236  25.590  1.00  0.00    -0.352 N 
ATOM     45  C   UNL A   1      39.548  21.578  26.103  1.00  0.00     0.251 C 
ATOM     46  H   UNL A   1      37.967  21.696  24.936  1.00  0.00     0.163 HD
ATOM     47  O   UNL A   1      39.640  20.378  25.832  1.00  0.00    -0.269 OA
BRANCH  45  48
ATOM     48  C   UNL A   1      40.648  22.222  26.867  1.00  0.00     0.039 A 
ATOM     49  C   UNL A   1      40.489  23.246  27.799  1.00  0.00     0.014 A 
ATOM     50  C   UNL A   1      41.952  21.814  26.528  1.00  0.00     0.014 A 
ATOM     51  C   UNL A   1      41.590  23.956  28.249  1.00  0.00     0.010 A 
ATOM     52  C   UNL A   1      43.063  22.496  27.005  1.00  0.00     0.010 A 
ATOM     53  C   UNL A   1      42.869  23.613  27.807  1.00  0.00    -0.014 A 
BRANCH  53  54
ATOM     54  C   UNL A   1      43.976  24.427  28.286  1.00  0.00     0.031 A 
ATOM     55  C   UNL A   1      44.101  24.487  29.769  1.00  0.00     0.074 A 
ATOM     56  C   UNL A   1      44.852  25.037  27.465  1.00  0.00     0.049 A 
ATOM     57  N   UNL A   1      43.972  25.519  30.536  1.00  0.00    -0.248 NA
ATOM     58  C   UNL A   1      44.239  23.215  30.496  1.00  0.00     0.031 C 
ATOM     59  C   UNL A   1      45.011  24.888  26.018  1.00  0.00     0.029 A 
ATOM     60  N   UNL A   1      45.870  25.878  27.795  1.00  0.00    -0.354 N 
ATOM     61  C   UNL A   1      44.191  25.065  31.834  1.00  0.00     0.074 A 
ATOM     62  C   UNL A   1      44.209  23.628  31.764  1.00  0.00     0.031 C 
ATOM     63  C   UNL A   1      46.201  25.415  25.645  1.00  0.00     0.029 A 
ATOM     64  C   UNL A   1      46.818  26.048  26.797  1.00  0.00     0.049 A 
ATOM     65  H   UNL A   1      45.928  26.328  28.669  1.00  0.00     0.167 HD
ATOM     66  C   UNL A   1      44.545  25.917  32.837  1.00  0.00     0.037 A 
ATOM     67  C   UNL A   1      48.050  26.594  26.954  1.00  0.00     0.037 A 
ATOM     68  C   UNL A   1      44.210  27.278  32.510  1.00  0.00     0.049 A 
ATOM     69  C   UNL A   1      48.020  27.414  28.195  1.00  0.00     0.074 A 
ATOM     70  C   UNL A   1      43.035  27.944  32.215  1.00  0.00     0.029 A 
ATOM     71  N   UNL A   1      45.218  28.116  32.098  1.00  0.00    -0.354 N 
ATOM     72  N   UNL A   1      47.345  28.526  28.307  1.00  0.00    -0.248 NA
ATOM     73  C   UNL A   1      48.335  26.747  29.453  1.00  0.00     0.031 C 
ATOM     74  C   UNL A   1      43.387  28.869  31.190  1.00  0.00     0.029 A 
ATOM     75  C   UNL A   1      44.761  28.756  30.976  1.00  0.00     0.049 A 
ATOM     76  H   UNL A   1      46.098  28.233  32.525  1.00  0.00     0.167 HD
ATOM     77  C   UNL A   1      46.784  28.474  29.573  1.00  0.00     0.074 A 
ATOM     78  C   UNL A   1      47.485  27.389  30.259  1.00  0.00     0.031 C 
ATOM     79  C   UNL A   1      45.607  29.106  29.862  1.00  0.00     0.037 A 
BRANCH  66  80
ATOM     80  C   UNL A   1      45.531  25.574  33.929  1.00  0.00     0.057 A 
ATOM     81  C   UNL A   1      45.178  25.387  35.280  1.00  0.00     0.134 A 
ATOM     82  C   UNL A   1      46.805  25.092  33.573  1.00  0.00     0.134 A 
ATOM     83  F   UNL A   1      43.986  25.746  35.770  1.00  0.00    -0.206 F 
ATOM     84  C   UNL A   1      45.998  24.719  36.192  1.00  0.00     0.040 A 
ATOM     85  C   UNL A   1      47.614  24.380  34.466  1.00  0.00     0.040 A 
ATOM     86  F   UNL A   1      47.264  25.217  32.318  1.00  0.00    -0.206 F 
ATOM     87  C   UNL A   1      47.202  24.176  35.776  1.00  0.00     0.006 A 
ENDBRANCH  66  80
BRANCH  67  88
ATOM     88  C   UNL A   1      49.311  26.191  26.284  1.00  0.00     0.057 A 
ATOM     89  C   UNL A   1      50.183  25.246  26.857  1.00  0.00     0.134 A 
ATOM     90  C   UNL A   1      49.820  26.905  25.190  1.00  0.00     0.134 A 
ATOM     91  F   UNL A   1      49.845  24.567  27.963  1.00  0.00    -0.206 F 
ATOM     92  C   UNL A   1      51.475  25.021  26.374  1.00  0.00     0.040 A 
ATOM     93  C   UNL A   1      51.119  26.696  24.701  1.00  0.00     0.040 A 
ATOM     94  F   UNL A   1      49.091  27.865  24.604  1.00  0.00    -0.206 F 
ATOM     95  C   UNL A   1      51.954  25.756  25.298  1.00  0.00     0.006 A 
ENDBRANCH  67  88
BRANCH  79  96
ATOM     96  C   UNL A   1      45.023  30.035  28.834  1.00  0.00     0.057 A 
ATOM     97  C   UNL A   1      45.240  31.411  28.964  1.00  0.00     0.134 A 
ATOM     98  C   UNL A   1      44.125  29.629  27.834  1.00  0.00     0.134 A 
ATOM     99  F   UNL A   1      46.033  31.881  29.941  1.00  0.00    -0.206 F 
ATOM    100  C   UNL A   1      44.608  32.340  28.135  1.00  0.00     0.040 A 
ATOM    101  C   UNL A   1      43.514  30.546  26.974  1.00  0.00     0.040 A 
ATOM    102  F   UNL A   1      43.764  28.347  27.705  1.00  0.00    -0.206 F 
ATOM    103  C   UNL A   1      43.751  31.908  27.127  1.00  0.00     0.006 A 
ENDBRANCH  79  96
ENDBRANCH  53  54
ENDBRANCH  45  48
ENDBRANCH  43  44
ENDBRANCH  42  43
ENDBRANCH  41  42
ENDBRANCH  40  41
ENDBRANCH   1  40
TORSDOF 19
ENDMDL
MODEL 2
REMARK VINA RESULT:     -11.4      2.796      7.874
REMARK SMILES COc1ccc2c(c1)c(Cc1nc(-c3ccc(C(=O)NCCCCCCNC(=O)c4ccc(-c5c6nc(c(-c7c(F)cccc7F)c7ccc([nH]7)c(-c7c(F)cccc7F)c7nc(c(-c8c(F)cccc8F)c8ccc5[nH]8)C=C7)C=C6)cc4)cc3)cs1)c(C)n2C(=O)c1ccc(Cl)cc1
REMARK SMILES IDX 22 1 21 2 20 3 18 4 19 5 17 7 14 8 15 9 85 10 16 11 84 12
REMARK SMILES IDX 13 13 11 14 12 15 87 16 86 17 10 18 9 19 3 20 4 21 8 22 5 23
REMARK SMILES IDX 7 24 6 25 90 26 88 27 89 28 2 29 1 30 91 31 92 32 93 33
REMARK SMILES IDX 94 34 99 35 95 36 98 37 96 38 97 39 23 40 24 41 25 42 26 43
REMARK SMILES IDX 27 44 28 45 29 47 30 48 31 49 83 50 32 51 82 52 33 53 34 54
REMARK SMILES IDX 35 55 76 56 36 57 81 58 75 59 77 60 37 61 80 62 74 63 73 64
REMARK SMILES IDX 38 66 64 67 47 68 63 69 48 70 51 71 62 72 78 73 49 74 50 75
REMARK SMILES IDX 61 77 79 78 52 79 39 80 40 81 45 82 41 83 42 84 44 85 46 86
REMARK SMILES IDX 43 87 65 88 66 89 71 90 67 91 68 92 70 93 72 94 69 95 53 96
REMARK SMILES IDX 54 97 59 98 55 99 56 100 58 101 60 102 57 103
REMARK H PARENT 20 6 27 46 77 65 51 76
REMARK Flexibility Score: inf
ROOT
ATOM      1  C   UNL A   1      39.879  30.267  35.212  1.00  0.00     0.021 C 
ENDROOT
BRANCH   1   2
ATOM      2  C   UNL A   1      38.518  30.617  35.801  1.00  0.00     0.116 C 
BRANCH   2   3
ATOM      3  N   UNL A   1      38.501  31.869  36.533  1.00  0.00    -0.352 N 
ATOM      4  C   UNL A   1      37.808  33.038  36.317  1.00  0.00     0.251 C 
ATOM      5  O   UNL A   1      38.002  33.982  37.084  1.00  0.00    -0.269 OA
ATOM      6  H   UNL A   1      39.088  31.885  37.323  1.00  0.00     0.163 HD
BRANCH   4   7
ATOM      7  C   UNL A   1      36.903  33.225  35.151  1.00  0.00     0.039 A 
ATOM      8  C   UNL A   1      35.353  33.918  32.903  1.00  0.00     0.001 A 
ATOM      9  C   UNL A   1      35.158  34.574  34.123  1.00  0.00     0.011 A 
ATOM     10  C   UNL A   1      36.232  32.826  32.862  1.00  0.00     0.011 A 
ATOM     11  C   UNL A   1      35.934  34.235  35.237  1.00  0.00     0.014 A 
ATOM     12  C   UNL A   1      36.972  32.458  33.988  1.00  0.00     0.014 A 
BRANCH   8  13
ATOM     13  C   UNL A   1      34.671  34.327  31.684  1.00  0.00     0.081 A 
ATOM     14  C   UNL A   1      34.290  34.268  29.499  1.00  0.00     0.098 A 
ATOM     15  N   UNL A   1      35.063  33.819  30.464  1.00  0.00    -0.241 NA
ATOM     16  S   UNL A   1      33.134  35.441  29.987  1.00  0.00    -0.126 S 
ATOM     17  C   UNL A   1      33.668  35.274  31.611  1.00  0.00     0.095 A 
BRANCH  14  18
ATOM     18  C   UNL A   1      34.411  33.836  28.068  1.00  0.00     0.105 C 
BRANCH  18  19
ATOM     19  C   UNL A   1      34.976  32.443  27.922  1.00  0.00    -0.012 A 
ATOM     20  C   UNL A   1      32.531  29.906  26.425  1.00  0.00     0.119 A 
ATOM     21  C   UNL A   1      33.334  28.797  26.616  1.00  0.00     0.048 A 
ATOM     22  C   UNL A   1      32.993  31.155  26.836  1.00  0.00     0.057 A 
ATOM     23  C   UNL A   1      34.603  28.925  27.198  1.00  0.00     0.031 A 
ATOM     24  C   UNL A   1      34.283  31.318  27.396  1.00  0.00     0.008 A 
ATOM     25  C   UNL A   1      35.110  30.200  27.533  1.00  0.00     0.057 A 
ATOM     26  N   UNL A   1      36.359  30.638  28.020  1.00  0.00    -0.280 N 
ATOM     27  C   UNL A   1      36.242  32.011  28.300  1.00  0.00     0.028 A 
ATOM     28  C   UNL A   1      37.310  32.880  28.892  1.00  0.00     0.065 C 
BRANCH  20  29
ATOM     29  O   UNL A   1      31.297  29.909  25.835  1.00  0.00    -0.497 OA
ATOM     30  C   UNL A   1      31.063  28.892  24.870  1.00  0.00     0.278 C 
ENDBRANCH  20  29
BRANCH  26  31
ATOM     31  C   UNL A   1      37.516  29.823  28.207  1.00  0.00     0.262 C 
ATOM     32  O   UNL A   1      38.332  29.713  27.290  1.00  0.00    -0.268 OA
BRANCH  31  33
ATOM     33  C   UNL A   1      37.872  29.110  29.446  1.00  0.00     0.040 A 
ATOM     34  C   UNL A   1      37.373  29.519  30.688  1.00  0.00     0.015 A 
ATOM     35  C   UNL A   1      38.758  28.030  29.351  1.00  0.00     0.015 A 
ATOM     36  C   UNL A   1      37.847  28.903  31.850  1.00  0.00     0.021 A 
ATOM     37  C   UNL A   1      39.219  27.412  30.514  1.00  0.00     0.021 A 
ATOM     38  C   UNL A   1      38.780  27.866  31.758  1.00  0.00     0.041 A 
ATOM     39  Cl  UNL A   1      39.415  27.160  33.192  1.00  0.00    -0.084 Cl
ENDBRANCH  31  33
ENDBRANCH  26  31
ENDBRANCH  18  19
ENDBRANCH  14  18
ENDBRANCH   8  13
ENDBRANCH   4   7
ENDBRANCH   2   3
ENDBRANCH   1   2
BRANCH   1  40
ATOM     40  C   UNL A   1      40.216  30.909  33.867  1.00  0.00     0.002 C 
BRANCH  40  41
ATOM     41  C   UNL A   1      41.270  32.018  33.895  1.00  0.00     0.002 C 
BRANCH  41  42
ATOM     42  C   UNL A   1      40.761  33.439  33.633  1.00  0.00     0.021 C 
BRANCH  42  43
ATOM     43  C   UNL A   1      41.753  34.369  32.929  1.00  0.00     0.116 C 
BRANCH  43  44
ATOM     44  N   UNL A   1      41.322  34.828  31.627  1.00  0.00    -0.352 N 
ATOM     45  C   UNL A   1      41.034  34.214  30.441  1.00  0.00     0.251 C 
ATOM     46  H   UNL A   1      41.211  35.806  31.586  1.00  0.00     0.163 HD
ATOM     47  O   UNL A   1      40.513  34.916  29.571  1.00  0.00    -0.269 OA
BRANCH  45  48
ATOM     48  C   UNL A   1      41.390  32.811  30.107  1.00  0.00     0.039 A 
ATOM     49  C   UNL A   1      40.540  31.713  30.225  1.00  0.00     0.014 A 
ATOM     50  C   UNL A   1      42.731  32.589  29.737  1.00  0.00     0.014 A 
ATOM     51  C   UNL A   1      41.047  30.427  30.149  1.00  0.00     0.010 A 
ATOM     52  C   UNL A   1      43.238  31.303  29.621  1.00  0.00     0.010 A 
ATOM     53  C   UNL A   1      42.406  30.227  29.901  1.00  0.00    -0.014 A 
BRANCH  53  54
ATOM     54  C   UNL A   1      42.880  28.851  29.875  1.00  0.00     0.031 A 
ATOM     55  C   UNL A   1      43.477  28.380  31.156  1.00  0.00     0.074 A 
ATOM     56  C   UNL A   1      42.747  28.045  28.804  1.00  0.00     0.049 A 
ATOM     57  N   UNL A   1      44.698  28.022  31.379  1.00  0.00    -0.248 NA
ATOM     58  C   UNL A   1      42.646  28.459  32.368  1.00  0.00     0.031 C 
ATOM     59  C   UNL A   1      41.986  28.270  27.574  1.00  0.00     0.029 A 
ATOM     60  N   UNL A   1      43.217  26.779  28.641  1.00  0.00    -0.354 N 
ATOM     61  C   UNL A   1      44.755  27.657  32.722  1.00  0.00     0.074 A 
ATOM     62  C   UNL A   1      43.511  28.079  33.310  1.00  0.00     0.031 C 
ATOM     63  C   UNL A   1      41.848  27.096  26.917  1.00  0.00     0.029 A 
ATOM     64  C   UNL A   1      42.616  26.075  27.606  1.00  0.00     0.049 A 
ATOM     65  H   UNL A   1      43.923  26.394  29.209  1.00  0.00     0.167 HD
ATOM     66  C   UNL A   1      45.743  26.851  33.200  1.00  0.00     0.037 A 
ATOM     67  C   UNL A   1      42.691  24.735  27.407  1.00  0.00     0.037 A 
ATOM     68  C   UNL A   1      46.880  26.837  32.317  1.00  0.00     0.049 A 
ATOM     69  C   UNL A   1      43.887  24.241  28.140  1.00  0.00     0.074 A 
ATOM     70  C   UNL A   1      47.750  27.800  31.841  1.00  0.00     0.029 A 
ATOM     71  N   UNL A   1      47.055  25.749  31.497  1.00  0.00    -0.354 N 
ATOM     72  N   UNL A   1      45.113  24.516  27.785  1.00  0.00    -0.248 NA
ATOM     73  C   UNL A   1      43.714  23.858  29.536  1.00  0.00     0.031 C 
ATOM     74  C   UNL A   1      47.992  27.435  30.485  1.00  0.00     0.029 A 
ATOM     75  C   UNL A   1      47.312  26.241  30.244  1.00  0.00     0.049 A 
ATOM     76  H   UNL A   1      47.004  24.800  31.758  1.00  0.00     0.167 HD
ATOM     77  C   UNL A   1      45.779  24.764  28.975  1.00  0.00     0.074 A 
ATOM     78  C   UNL A   1      44.885  24.276  30.024  1.00  0.00     0.031 C 
ATOM     79  C   UNL A   1      46.854  25.606  29.033  1.00  0.00     0.037 A 
BRANCH  66  80
ATOM     80  C   UNL A   1      45.532  25.788  34.252  1.00  0.00     0.057 A 
ATOM     81  C   UNL A   1      46.079  25.842  35.549  1.00  0.00     0.134 A 
ATOM     82  C   UNL A   1      44.492  24.854  34.081  1.00  0.00     0.134 A 
ATOM     83  F   UNL A   1      47.042  26.706  35.891  1.00  0.00    -0.206 F 
ATOM     84  C   UNL A   1      45.590  25.077  36.610  1.00  0.00     0.040 A 
ATOM     85  C   UNL A   1      43.963  24.117  35.148  1.00  0.00     0.040 A 
ATOM     86  F   UNL A   1      43.894  24.698  32.891  1.00  0.00    -0.206 F 
ATOM     87  C   UNL A   1      44.501  24.241  36.421  1.00  0.00     0.006 A 
ENDBRANCH  66  80
BRANCH  67  88
ATOM     88  C   UNL A   1      41.626  23.835  26.901  1.00  0.00     0.057 A 
ATOM     89  C   UNL A   1      40.317  23.876  27.418  1.00  0.00     0.134 A 
ATOM     90  C   UNL A   1      41.922  22.740  26.076  1.00  0.00     0.134 A 
ATOM     91  F   UNL A   1      39.941  24.822  28.289  1.00  0.00    -0.206 F 
ATOM     92  C   UNL A   1      39.363  22.895  27.132  1.00  0.00     0.040 A 
ATOM     93  C   UNL A   1      40.976  21.743  25.791  1.00  0.00     0.040 A 
ATOM     94  F   UNL A   1      43.155  22.578  25.575  1.00  0.00    -0.206 F 
ATOM     95  C   UNL A   1      39.693  21.815  26.324  1.00  0.00     0.006 A 
ENDBRANCH  67  88
BRANCH  79  96
ATOM     96  C   UNL A   1      47.438  26.110  27.742  1.00  0.00     0.057 A 
ATOM     97  C   UNL A   1      48.610  25.521  27.254  1.00  0.00     0.134 A 
ATOM     98  C   UNL A   1      46.979  27.253  27.070  1.00  0.00     0.134 A 
ATOM     99  F   UNL A   1      49.149  24.465  27.884  1.00  0.00    -0.206 F 
ATOM    100  C   UNL A   1      49.287  26.033  26.145  1.00  0.00     0.040 A 
ATOM    101  C   UNL A   1      47.626  27.754  25.937  1.00  0.00     0.040 A 
ATOM    102  F   UNL A   1      45.934  27.954  27.527  1.00  0.00    -0.206 F 
ATOM    103  C   UNL A   1      48.789  27.146  25.475  1.00  0.00     0.006 A 
ENDBRANCH  79  96
ENDBRANCH  53  54
ENDBRANCH  45  48
ENDBRANCH  43  44
ENDBRANCH  42  43
ENDBRANCH  41  42
ENDBRANCH  40  41
ENDBRANCH   1  40
TORSDOF 19
ENDMDL
MODEL 3
REMARK VINA RESULT:     -11.1      4.156     10.677
REMARK SMILES COc1ccc2c(c1)c(Cc1nc(-c3ccc(C(=O)NCCCCCCNC(=O)c4ccc(-c5c6nc(c(-c7c(F)cccc7F)c7ccc([nH]7)c(-c7c(F)cccc7F)c7nc(c(-c8c(F)cccc8F)c8ccc5[nH]8)C=C7)C=C6)cc4)cc3)cs1)c(C)n2C(=O)c1ccc(Cl)cc1
REMARK SMILES IDX 22 1 21 2 20 3 18 4 19 5 17 7 14 8 15 9 85 10 16 11 84 12
REMARK SMILES IDX 13 13 11 14 12 15 87 16 86 17 10 18 9 19 3 20 4 21 8 22 5 23
REMARK SMILES IDX 7 24 6 25 90 26 88 27 89 28 2 29 1 30 91 31 92 32 93 33
REMARK SMILES IDX 94 34 99 35 95 36 98 37 96 38 97 39 23 40 24 41 25 42 26 43
REMARK SMILES IDX 27 44 28 45 29 47 30 48 31 49 83 50 32 51 82 52 33 53 34 54
REMARK SMILES IDX 35 55 76 56 36 57 81 58 75 59 77 60 37 61 80 62 74 63 73 64
REMARK SMILES IDX 38 66 64 67 47 68 63 69 48 70 51 71 62 72 78 73 49 74 50 75
REMARK SMILES IDX 61 77 79 78 52 79 39 80 40 81 45 82 41 83 42 84 44 85 46 86
REMARK SMILES IDX 43 87 65 88 66 89 71 90 67 91 68 92 70 93 72 94 69 95 53 96
REMARK SMILES IDX 54 97 59 98 55 99 56 100 58 101 60 102 57 103
REMARK H PARENT 20 6 27 46 77 65 51 76
REMARK Flexibility Score: inf
ROOT
ATOM      1  C   UNL A   1      44.265  27.713  27.018  1.00  0.00     0.021 C 
ENDROOT
BRANCH   1   2
ATOM      2  C   UNL A   1      42.881  28.338  27.144  1.00  0.00     0.116 C 
BRANCH   2   3
ATOM      3  N   UNL A   1      42.418  28.464  28.514  1.00  0.00    -0.352 N 
ATOM      4  C   UNL A   1      41.622  27.648  29.283  1.00  0.00     0.251 C 
ATOM      5  O   UNL A   1      41.348  28.009  30.427  1.00  0.00    -0.269 OA
ATOM      6  H   UNL A   1      42.730  29.277  28.973  1.00  0.00     0.163 HD
BRANCH   4   7
ATOM      7  C   UNL A   1      41.019  26.394  28.754  1.00  0.00     0.039 A 
ATOM      8  C   UNL A   1      39.814  24.218  27.434  1.00  0.00     0.001 A 
ATOM      9  C   UNL A   1      39.045  25.319  27.824  1.00  0.00     0.011 A 
ATOM     10  C   UNL A   1      41.157  24.162  27.834  1.00  0.00     0.011 A 
ATOM     11  C   UNL A   1      39.645  26.403  28.472  1.00  0.00     0.014 A 
ATOM     12  C   UNL A   1      41.744  25.226  28.522  1.00  0.00     0.014 A 
BRANCH   8  13
ATOM     13  C   UNL A   1      39.264  23.130  26.637  1.00  0.00     0.081 A 
ATOM     14  C   UNL A   1      37.877  22.263  25.137  1.00  0.00     0.098 A 
ATOM     15  N   UNL A   1      38.184  23.352  25.809  1.00  0.00    -0.241 NA
ATOM     16  S   UNL A   1      38.783  20.869  25.570  1.00  0.00    -0.126 S 
ATOM     17  C   UNL A   1      39.690  21.817  26.679  1.00  0.00     0.095 A 
BRANCH  14  18
ATOM     18  C   UNL A   1      36.798  22.205  24.098  1.00  0.00     0.105 C 
BRANCH  18  19
ATOM     19  C   UNL A   1      35.420  22.036  24.693  1.00  0.00    -0.012 A 
ATOM     20  C   UNL A   1      34.159  18.422  24.739  1.00  0.00     0.119 A 
ATOM     21  C   UNL A   1      32.880  18.717  25.171  1.00  0.00     0.048 A 
ATOM     22  C   UNL A   1      35.066  19.463  24.545  1.00  0.00     0.057 A 
ATOM     23  C   UNL A   1      32.501  20.042  25.431  1.00  0.00     0.031 A 
ATOM     24  C   UNL A   1      34.720  20.805  24.831  1.00  0.00     0.008 A 
ATOM     25  C   UNL A   1      33.444  21.089  25.323  1.00  0.00     0.057 A 
ATOM     26  N   UNL A   1      33.384  22.468  25.614  1.00  0.00    -0.280 N 
ATOM     27  C   UNL A   1      34.590  23.042  25.176  1.00  0.00     0.028 A 
ATOM     28  C   UNL A   1      34.940  24.498  25.231  1.00  0.00     0.065 C 
BRANCH  20  29
ATOM     29  O   UNL A   1      34.652  17.170  24.492  1.00  0.00    -0.497 OA
ATOM     30  C   UNL A   1      33.691  16.170  24.181  1.00  0.00     0.278 C 
ENDBRANCH  20  29
BRANCH  26  31
ATOM     31  C   UNL A   1      32.287  23.146  26.227  1.00  0.00     0.262 C 
ATOM     32  O   UNL A   1      32.099  23.019  27.438  1.00  0.00    -0.268 OA
BRANCH  31  33
ATOM     33  C   UNL A   1      31.350  24.053  25.543  1.00  0.00     0.040 A 
ATOM     34  C   UNL A   1      31.108  23.946  24.168  1.00  0.00     0.015 A 
ATOM     35  C   UNL A   1      30.732  25.055  26.301  1.00  0.00     0.015 A 
ATOM     36  C   UNL A   1      30.322  24.913  23.536  1.00  0.00     0.021 A 
ATOM     37  C   UNL A   1      29.939  26.011  25.667  1.00  0.00     0.021 A 
ATOM     38  C   UNL A   1      29.756  25.949  24.285  1.00  0.00     0.041 A 
ATOM     39  Cl  UNL A   1      28.850  27.178  23.493  1.00  0.00    -0.084 Cl
ENDBRANCH  31  33
ENDBRANCH  26  31
ENDBRANCH  18  19
ENDBRANCH  14  18
ENDBRANCH   8  13
ENDBRANCH   4   7
ENDBRANCH   2   3
ENDBRANCH   1   2
BRANCH   1  40
ATOM     40  C   UNL A   1      45.323  28.216  27.999  1.00  0.00     0.002 C 
BRANCH  40  41
ATOM     41  C   UNL A   1      45.409  27.475  29.335  1.00  0.00     0.002 C 
BRANCH  41  42
ATOM     42  C   UNL A   1      45.997  26.062  29.285  1.00  0.00     0.021 C 
BRANCH  42  43
ATOM     43  C   UNL A   1      45.718  25.194  30.515  1.00  0.00     0.116 C 
BRANCH  43  44
ATOM     44  N   UNL A   1      46.559  25.485  31.656  1.00  0.00    -0.352 N 
ATOM     45  C   UNL A   1      46.448  26.300  32.745  1.00  0.00     0.251 C 
ATOM     46  H   UNL A   1      47.404  24.978  31.643  1.00  0.00     0.163 HD
ATOM     47  O   UNL A   1      47.298  26.158  33.627  1.00  0.00    -0.269 OA
BRANCH  45  48
ATOM     48  C   UNL A   1      45.448  27.390  32.887  1.00  0.00     0.039 A 
ATOM     49  C   UNL A   1      44.074  27.210  33.028  1.00  0.00     0.014 A 
ATOM     50  C   UNL A   1      45.948  28.701  32.766  1.00  0.00     0.014 A 
ATOM     51  C   UNL A   1      43.211  28.284  32.880  1.00  0.00     0.010 A 
ATOM     52  C   UNL A   1      45.091  29.787  32.656  1.00  0.00     0.010 A 
ATOM     53  C   UNL A   1      43.721  29.560  32.640  1.00  0.00    -0.014 A 
BRANCH  53  54
ATOM     54  C   UNL A   1      42.758  30.635  32.453  1.00  0.00     0.031 A 
ATOM     55  C   UNL A   1      41.895  30.902  33.637  1.00  0.00     0.074 A 
ATOM     56  C   UNL A   1      42.681  31.368  31.326  1.00  0.00     0.049 A 
ATOM     57  N   UNL A   1      40.614  30.762  33.734  1.00  0.00    -0.248 NA
ATOM     58  C   UNL A   1      42.560  31.224  34.910  1.00  0.00     0.031 C 
ATOM     59  C   UNL A   1      43.593  31.393  30.182  1.00  0.00     0.029 A 
ATOM     60  N   UNL A   1      41.777  32.336  31.012  1.00  0.00    -0.354 N 
ATOM     61  C   UNL A   1      40.280  31.149  35.030  1.00  0.00     0.074 A 
ATOM     62  C   UNL A   1      41.522  31.284  35.745  1.00  0.00     0.031 C 
ATOM     63  C   UNL A   1      43.335  32.488  29.431  1.00  0.00     0.029 A 
ATOM     64  C   UNL A   1      42.164  33.161  29.965  1.00  0.00     0.049 A 
ATOM     65  H   UNL A   1      40.922  32.442  31.488  1.00  0.00     0.167 HD
ATOM     66  C   UNL A   1      39.013  31.526  35.357  1.00  0.00     0.037 A 
ATOM     67  C   UNL A   1      41.598  34.350  29.639  1.00  0.00     0.037 A 
ATOM     68  C   UNL A   1      38.058  31.043  34.394  1.00  0.00     0.049 A 
ATOM     69  C   UNL A   1      40.234  34.374  30.232  1.00  0.00     0.074 A 
ATOM     70  C   UNL A   1      37.683  29.790  33.944  1.00  0.00     0.029 A 
ATOM     71  N   UNL A   1      37.563  31.928  33.466  1.00  0.00    -0.354 N 
ATOM     72  N   UNL A   1      39.254  33.619  29.813  1.00  0.00    -0.248 NA
ATOM     73  C   UNL A   1      40.099  34.870  31.596  1.00  0.00     0.031 C 
ATOM     74  C   UNL A   1      37.463  29.956  32.546  1.00  0.00     0.029 A 
ATOM     75  C   UNL A   1      37.650  31.306  32.248  1.00  0.00     0.049 A 
ATOM     76  H   UNL A   1      37.216  32.832  33.642  1.00  0.00     0.167 HD
ATOM     77  C   UNL A   1      38.615  33.194  30.968  1.00  0.00     0.074 A 
ATOM     78  C   UNL A   1      39.136  34.052  32.031  1.00  0.00     0.031 C 
ATOM     79  C   UNL A   1      37.950  32.002  31.021  1.00  0.00     0.037 A 
BRANCH  66  80
ATOM     80  C   UNL A   1      38.685  32.643  36.320  1.00  0.00     0.057 A 
ATOM     81  C   UNL A   1      38.066  32.449  37.570  1.00  0.00     0.134 A 
ATOM     82  C   UNL A   1      39.298  33.898  36.145  1.00  0.00     0.134 A 
ATOM     83  F   UNL A   1      37.478  31.298  37.914  1.00  0.00    -0.206 F 
ATOM     84  C   UNL A   1      38.106  33.402  38.591  1.00  0.00     0.040 A 
ATOM     85  C   UNL A   1      39.386  34.840  37.177  1.00  0.00     0.040 A 
ATOM     86  F   UNL A   1      39.915  34.211  34.995  1.00  0.00    -0.206 F 
ATOM     87  C   UNL A   1      38.803  34.585  38.411  1.00  0.00     0.006 A 
ENDBRANCH  66  80
BRANCH  67  88
ATOM     88  C   UNL A   1      42.279  35.567  29.134  1.00  0.00     0.057 A 
ATOM     89  C   UNL A   1      43.205  36.277  29.921  1.00  0.00     0.134 A 
ATOM     90  C   UNL A   1      41.853  36.213  27.963  1.00  0.00     0.134 A 
ATOM     91  F   UNL A   1      43.617  35.805  31.106  1.00  0.00    -0.206 F 
ATOM     92  C   UNL A   1      43.682  37.543  29.569  1.00  0.00     0.040 A 
ATOM     93  C   UNL A   1      42.316  37.488  27.604  1.00  0.00     0.040 A 
ATOM     94  F   UNL A   1      40.933  35.648  27.170  1.00  0.00    -0.206 F 
ATOM     95  C   UNL A   1      43.229  38.160  28.411  1.00  0.00     0.006 A 
ENDBRANCH  67  88
BRANCH  79  96
ATOM     96  C   UNL A   1      37.745  31.239  29.742  1.00  0.00     0.057 A 
ATOM     97  C   UNL A   1      36.445  31.084  29.248  1.00  0.00     0.134 A 
ATOM     98  C   UNL A   1      38.759  30.520  29.090  1.00  0.00     0.134 A 
ATOM     99  F   UNL A   1      35.412  31.685  29.860  1.00  0.00    -0.206 F 
ATOM    100  C   UNL A   1      36.165  30.267  28.151  1.00  0.00     0.040 A 
ATOM    101  C   UNL A   1      38.498  29.728  27.969  1.00  0.00     0.040 A 
ATOM    102  F   UNL A   1      40.013  30.512  29.556  1.00  0.00    -0.206 F 
ATOM    103  C   UNL A   1      37.195  29.594  27.499  1.00  0.00     0.006 A 
ENDBRANCH  79  96
ENDBRANCH  53  54
ENDBRANCH  45  48
ENDBRANCH  43  44
ENDBRANCH  42  43
ENDBRANCH  41  42
ENDBRANCH  40  41
ENDBRANCH   1  40
TORSDOF 19
ENDMDL
