MODEL 1
REMARK VINA RESULT:     -13.2      0.000      0.000
REMARK SMILES Cc1c(C(=O)NCCCCCCNC(=O)c2ccc(-c3c4nc(c(-c5c(F)cccc5F)c5ccc([nH]5)c(-c5c(F)cccc5F)c5nc(c(-c6c(F)cccc6F)c6ccc3[nH]6)C=C5)C=C4)cc2)oc2c1/C(=N/NC(=O)C(c1ccccc1)c1ccccc1)CCC2
REMARK SMILES IDX 9 1 8 2 7 3 6 4 4 5 5 6 3 8 1 9 2 10 72 11 70 12 71 13 73 14
REMARK SMILES IDX 93 15 74 16 91 17 92 18 75 19 76 20 77 22 78 23 79 24 80 25
REMARK SMILES IDX 84 26 81 27 83 28 82 29 85 30 86 31 90 32 87 33 89 34 88 35
REMARK SMILES IDX 10 36 11 37 12 38 13 39 14 40 15 42 16 43 17 44 69 45 18 46
REMARK SMILES IDX 68 47 19 48 20 49 21 50 62 51 22 52 67 53 61 54 63 55 23 56
REMARK SMILES IDX 66 57 60 58 59 59 24 61 50 62 33 63 49 64 34 65 37 66 48 67
REMARK SMILES IDX 64 68 35 69 36 70 47 72 65 73 38 74 25 75 26 76 31 77 27 78
REMARK SMILES IDX 28 79 30 80 32 81 29 82 51 83 52 84 57 85 53 86 54 87 56 88
REMARK SMILES IDX 58 89 55 90 39 91 40 92 45 93 41 94 42 95 44 96 46 97 43 98
REMARK H PARENT 6 7 75 21 13 41 63 60 37 71
REMARK Flexibility Score: inf
ROOT
ATOM      1  C   UNL A   1      31.980  30.010  25.613  1.00  0.00     0.002 C 
ENDROOT
BRANCH   1   2
ATOM      2  C   UNL A   1      32.988  29.326  24.682  1.00  0.00     0.021 C 
BRANCH   2   3
ATOM      3  C   UNL A   1      32.548  29.344  23.215  1.00  0.00     0.116 C 
BRANCH   3   4
ATOM      4  N   UNL A   1      31.088  29.368  23.074  1.00  0.00    -0.349 N 
ATOM      5  C   UNL A   1      30.146  28.344  23.135  1.00  0.00     0.287 C 
ATOM      6  O   UNL A   1      28.957  28.660  23.098  1.00  0.00    -0.266 OA
ATOM      7  H   UNL A   1      30.708  30.260  22.906  1.00  0.00     0.163 HD
BRANCH   5   8
ATOM      8  C   UNL A   1      30.611  26.984  23.311  1.00  0.00     0.195 A 
ATOM      9  C   UNL A   1      30.683  26.460  25.850  1.00  0.00     0.049 C 
ATOM     10  C   UNL A   1      30.920  26.171  24.413  1.00  0.00     0.010 A 
ATOM     11  C   UNL A   1      31.700  25.096  23.870  1.00  0.00     0.043 A 
ATOM     12  O   UNL A   1      30.917  26.322  22.169  1.00  0.00    -0.455 OA
ATOM     13  C   UNL A   1      31.743  25.346  22.515  1.00  0.00     0.114 A 
ATOM     14  C   UNL A   1      32.534  24.015  24.388  1.00  0.00     0.072 C 
ATOM     15  C   UNL A   1      32.657  24.859  21.467  1.00  0.00     0.076 C 
ATOM     16  N   UNL A   1      32.277  23.501  25.552  1.00  0.00    -0.177 NA
ATOM     17  C   UNL A   1      33.656  23.722  23.440  1.00  0.00     0.059 C 
ATOM     18  C   UNL A   1      33.266  23.580  21.972  1.00  0.00     0.014 C 
BRANCH  16  19
ATOM     19  N   UNL A   1      32.851  22.461  26.266  1.00  0.00    -0.246 N 
ATOM     20  C   UNL A   1      33.578  21.295  26.095  1.00  0.00     0.252 C 
ATOM     21  H   UNL A   1      32.682  22.598  27.226  1.00  0.00     0.193 HD
ATOM     22  O   UNL A   1      33.624  20.554  27.096  1.00  0.00    -0.272 OA
BRANCH  20  23
ATOM     23  C   UNL A   1      34.376  20.846  24.832  1.00  0.00     0.140 C 
BRANCH  23  24
ATOM     24  C   UNL A   1      35.901  21.143  25.054  1.00  0.00    -0.031 A 
ATOM     25  C   UNL A   1      36.908  20.171  24.954  1.00  0.00     0.005 A 
ATOM     26  C   UNL A   1      36.346  22.458  25.358  1.00  0.00     0.005 A 
ATOM     27  C   UNL A   1      38.247  20.472  25.287  1.00  0.00     0.000 A 
ATOM     28  C   UNL A   1      37.665  22.754  25.713  1.00  0.00     0.000 A 
ATOM     29  C   UNL A   1      38.617  21.753  25.697  1.00  0.00     0.000 A 
ENDBRANCH  23  24
BRANCH  23  30
ATOM     30  C   UNL A   1      33.797  19.440  24.386  1.00  0.00    -0.031 A 
ATOM     31  C   UNL A   1      32.650  19.259  23.591  1.00  0.00     0.005 A 
ATOM     32  C   UNL A   1      34.600  18.289  24.597  1.00  0.00     0.005 A 
ATOM     33  C   UNL A   1      32.482  18.077  22.840  1.00  0.00     0.000 A 
ATOM     34  C   UNL A   1      34.446  17.129  23.835  1.00  0.00     0.000 A 
ATOM     35  C   UNL A   1      33.411  17.041  22.919  1.00  0.00     0.000 A 
ENDBRANCH  23  30
ENDBRANCH  20  23
ENDBRANCH  16  19
ENDBRANCH   5   8
ENDBRANCH   3   4
ENDBRANCH   2   3
ENDBRANCH   1   2
BRANCH   1  36
ATOM     36  C   UNL A   1      32.527  30.421  26.991  1.00  0.00     0.002 C 
BRANCH  36  37
ATOM     37  C   UNL A   1      33.938  29.926  27.344  1.00  0.00     0.021 C 
BRANCH  37  38
ATOM     38  C   UNL A   1      34.966  31.041  27.456  1.00  0.00     0.116 C 
BRANCH  38  39
ATOM     39  N   UNL A   1      34.699  31.930  28.591  1.00  0.00    -0.352 N 
ATOM     40  C   UNL A   1      35.205  31.877  29.873  1.00  0.00     0.251 C 
ATOM     41  H   UNL A   1      34.071  32.668  28.413  1.00  0.00     0.163 HD
ATOM     42  O   UNL A   1      34.645  32.456  30.802  1.00  0.00    -0.269 OA
BRANCH  40  43
ATOM     43  C   UNL A   1      36.438  31.117  30.110  1.00  0.00     0.039 A 
ATOM     44  C   UNL A   1      36.424  29.752  30.409  1.00  0.00     0.014 A 
ATOM     45  C   UNL A   1      37.636  31.807  29.978  1.00  0.00     0.014 A 
ATOM     46  C   UNL A   1      37.639  29.073  30.490  1.00  0.00     0.010 A 
ATOM     47  C   UNL A   1      38.802  31.107  29.851  1.00  0.00     0.010 A 
ATOM     48  C   UNL A   1      38.825  29.760  30.191  1.00  0.00    -0.014 A 
BRANCH  48  49
ATOM     49  C   UNL A   1      40.114  29.084  30.148  1.00  0.00     0.031 A 
ATOM     50  C   UNL A   1      40.795  28.940  31.463  1.00  0.00     0.074 A 
ATOM     51  C   UNL A   1      40.534  28.416  29.051  1.00  0.00     0.049 A 
ATOM     52  N   UNL A   1      41.908  29.472  31.844  1.00  0.00    -0.248 NA
ATOM     53  C   UNL A   1      40.091  28.207  32.528  1.00  0.00     0.031 C 
ATOM     54  C   UNL A   1      39.818  28.186  27.786  1.00  0.00     0.029 A 
ATOM     55  N   UNL A   1      41.671  27.693  28.877  1.00  0.00    -0.354 N 
ATOM     56  C   UNL A   1      42.154  28.975  33.122  1.00  0.00     0.074 A 
ATOM     57  C   UNL A   1      40.927  28.362  33.557  1.00  0.00     0.031 C 
ATOM     58  C   UNL A   1      40.425  27.202  27.090  1.00  0.00     0.029 A 
ATOM     59  C   UNL A   1      41.667  26.869  27.758  1.00  0.00     0.049 A 
ATOM     60  H   UNL A   1      42.436  27.748  29.495  1.00  0.00     0.167 HD
ATOM     61  C   UNL A   1      43.422  28.891  33.612  1.00  0.00     0.037 A 
ATOM     62  C   UNL A   1      42.615  25.967  27.413  1.00  0.00     0.037 A 
ATOM     63  C   UNL A   1      44.330  29.704  32.843  1.00  0.00     0.049 A 
ATOM     64  C   UNL A   1      43.849  26.328  28.153  1.00  0.00     0.074 A 
ATOM     65  C   UNL A   1      44.416  31.050  32.540  1.00  0.00     0.029 A 
ATOM     66  N   UNL A   1      45.137  29.068  31.931  1.00  0.00    -0.354 N 
ATOM     67  N   UNL A   1      44.533  27.416  27.933  1.00  0.00    -0.248 NA
ATOM     68  C   UNL A   1      44.058  25.710  29.452  1.00  0.00     0.031 C 
ATOM     69  C   UNL A   1      44.855  31.093  31.183  1.00  0.00     0.029 A 
ATOM     70  C   UNL A   1      45.073  29.780  30.761  1.00  0.00     0.049 A 
ATOM     71  H   UNL A   1      45.664  28.252  32.088  1.00  0.00     0.167 HD
ATOM     72  C   UNL A   1      44.920  27.853  29.192  1.00  0.00     0.074 A 
ATOM     73  C   UNL A   1      44.678  26.714  30.078  1.00  0.00     0.031 C 
ATOM     74  C   UNL A   1      45.124  29.178  29.447  1.00  0.00     0.037 A 
BRANCH  61  75
ATOM     75  C   UNL A   1      43.917  27.792  34.526  1.00  0.00     0.057 A 
ATOM     76  C   UNL A   1      43.827  26.455  34.097  1.00  0.00     0.134 A 
ATOM     77  C   UNL A   1      44.192  27.958  35.899  1.00  0.00     0.134 A 
ATOM     78  F   UNL A   1      43.563  26.159  32.815  1.00  0.00    -0.206 F 
ATOM     79  C   UNL A   1      43.912  25.372  34.981  1.00  0.00     0.040 A 
ATOM     80  C   UNL A   1      44.333  26.883  36.782  1.00  0.00     0.040 A 
ATOM     81  F   UNL A   1      44.240  29.160  36.486  1.00  0.00    -0.206 F 
ATOM     82  C   UNL A   1      44.157  25.585  36.331  1.00  0.00     0.006 A 
ENDBRANCH  61  75
BRANCH  62  83
ATOM     83  C   UNL A   1      42.451  24.674  26.715  1.00  0.00     0.057 A 
ATOM     84  C   UNL A   1      43.051  24.437  25.473  1.00  0.00     0.134 A 
ATOM     85  C   UNL A   1      41.928  23.548  27.377  1.00  0.00     0.134 A 
ATOM     86  F   UNL A   1      43.614  25.442  24.786  1.00  0.00    -0.206 F 
ATOM     87  C   UNL A   1      43.149  23.149  24.928  1.00  0.00     0.040 A 
ATOM     88  C   UNL A   1      42.013  22.259  26.842  1.00  0.00     0.040 A 
ATOM     89  F   UNL A   1      41.397  23.652  28.604  1.00  0.00    -0.206 F 
ATOM     90  C   UNL A   1      42.639  22.054  25.618  1.00  0.00     0.006 A 
ENDBRANCH  62  83
BRANCH  74  91
ATOM     91  C   UNL A   1      45.155  30.126  28.277  1.00  0.00     0.057 A 
ATOM     92  C   UNL A   1      44.031  30.812  27.792  1.00  0.00     0.134 A 
ATOM     93  C   UNL A   1      46.393  30.486  27.735  1.00  0.00     0.134 A 
ATOM     94  F   UNL A   1      42.815  30.608  28.310  1.00  0.00    -0.206 F 
ATOM     95  C   UNL A   1      44.130  31.785  26.792  1.00  0.00     0.040 A 
ATOM     96  C   UNL A   1      46.510  31.479  26.759  1.00  0.00     0.040 A 
ATOM     97  F   UNL A   1      47.519  29.914  28.188  1.00  0.00    -0.206 F 
ATOM     98  C   UNL A   1      45.376  32.128  26.278  1.00  0.00     0.006 A 
ENDBRANCH  74  91
ENDBRANCH  48  49
ENDBRANCH  40  43
ENDBRANCH  38  39
ENDBRANCH  37  38
ENDBRANCH  36  37
ENDBRANCH   1  36
TORSDOF 17
ENDMDL
MODEL 2
REMARK VINA RESULT:     -13.1      2.291      3.715
REMARK SMILES Cc1c(C(=O)NCCCCCCNC(=O)c2ccc(-c3c4nc(c(-c5c(F)cccc5F)c5ccc([nH]5)c(-c5c(F)cccc5F)c5nc(c(-c6c(F)cccc6F)c6ccc3[nH]6)C=C5)C=C4)cc2)oc2c1/C(=N/NC(=O)C(c1ccccc1)c1ccccc1)CCC2
REMARK SMILES IDX 9 1 8 2 7 3 6 4 4 5 5 6 3 8 1 9 2 10 72 11 70 12 71 13 73 14
REMARK SMILES IDX 93 15 74 16 91 17 92 18 75 19 76 20 77 22 78 23 79 24 80 25
REMARK SMILES IDX 84 26 81 27 83 28 82 29 85 30 86 31 90 32 87 33 89 34 88 35
REMARK SMILES IDX 10 36 11 37 12 38 13 39 14 40 15 42 16 43 17 44 69 45 18 46
REMARK SMILES IDX 68 47 19 48 20 49 21 50 62 51 22 52 67 53 61 54 63 55 23 56
REMARK SMILES IDX 66 57 60 58 59 59 24 61 50 62 33 63 49 64 34 65 37 66 48 67
REMARK SMILES IDX 64 68 35 69 36 70 47 72 65 73 38 74 25 75 26 76 31 77 27 78
REMARK SMILES IDX 28 79 30 80 32 81 29 82 51 83 52 84 57 85 53 86 54 87 56 88
REMARK SMILES IDX 58 89 55 90 39 91 40 92 45 93 41 94 42 95 44 96 46 97 43 98
REMARK H PARENT 6 7 75 21 13 41 63 60 37 71
REMARK Flexibility Score: inf
ROOT
ATOM      1  C   UNL A   1      34.630  31.040  28.135  1.00  0.00     0.002 C 
ENDROOT
BRANCH   1   2
ATOM      2  C   UNL A   1      35.239  30.106  27.083  1.00  0.00     0.021 C 
BRANCH   2   3
ATOM      3  C   UNL A   1      34.438  28.814  26.901  1.00  0.00     0.116 C 
BRANCH   3   4
ATOM      4  N   UNL A   1      33.109  28.892  27.517  1.00  0.00    -0.349 N 
ATOM      5  C   UNL A   1      31.932  28.201  27.244  1.00  0.00     0.287 C 
ATOM      6  O   UNL A   1      30.977  28.380  28.000  1.00  0.00    -0.266 OA
ATOM      7  H   UNL A   1      33.036  29.546  28.248  1.00  0.00     0.163 HD
BRANCH   5   8
ATOM      8  C   UNL A   1      31.918  27.264  26.140  1.00  0.00     0.195 A 
ATOM      9  C   UNL A   1      31.285  24.922  27.057  1.00  0.00     0.049 C 
ATOM     10  C   UNL A   1      31.726  25.880  26.011  1.00  0.00     0.010 A 
ATOM     11  C   UNL A   1      32.245  25.555  24.713  1.00  0.00     0.043 A 
ATOM     12  O   UNL A   1      32.249  27.783  24.933  1.00  0.00    -0.455 OA
ATOM     13  C   UNL A   1      32.650  26.764  24.187  1.00  0.00     0.114 A 
ATOM     14  C   UNL A   1      32.586  24.345  23.971  1.00  0.00     0.072 C 
ATOM     15  C   UNL A   1      33.577  27.083  23.088  1.00  0.00     0.076 C 
ATOM     16  N   UNL A   1      31.943  23.241  24.205  1.00  0.00    -0.177 NA
ATOM     17  C   UNL A   1      33.743  24.601  23.056  1.00  0.00     0.059 C 
ATOM     18  C   UNL A   1      33.652  25.866  22.207  1.00  0.00     0.014 C 
BRANCH  16  19
ATOM     19  N   UNL A   1      32.012  21.977  23.640  1.00  0.00    -0.246 N 
ATOM     20  C   UNL A   1      32.607  20.740  23.812  1.00  0.00     0.252 C 
ATOM     21  H   UNL A   1      31.442  21.952  22.838  1.00  0.00     0.193 HD
ATOM     22  O   UNL A   1      32.532  19.979  22.827  1.00  0.00    -0.272 OA
BRANCH  20  23
ATOM     23  C   UNL A   1      33.295  20.184  25.097  1.00  0.00     0.140 C 
BRANCH  23  24
ATOM     24  C   UNL A   1      33.427  18.625  24.978  1.00  0.00    -0.031 A 
ATOM     25  C   UNL A   1      34.415  17.980  24.220  1.00  0.00     0.005 A 
ATOM     26  C   UNL A   1      32.529  17.767  25.671  1.00  0.00     0.005 A 
ATOM     27  C   UNL A   1      34.406  16.578  24.051  1.00  0.00     0.000 A 
ATOM     28  C   UNL A   1      32.501  16.382  25.487  1.00  0.00     0.000 A 
ATOM     29  C   UNL A   1      33.432  15.786  24.658  1.00  0.00     0.000 A 
ENDBRANCH  23  24
BRANCH  23  30
ATOM     30  C   UNL A   1      34.497  21.156  25.444  1.00  0.00    -0.031 A 
ATOM     31  C   UNL A   1      35.619  21.373  24.621  1.00  0.00     0.005 A 
ATOM     32  C   UNL A   1      34.343  22.047  26.538  1.00  0.00     0.005 A 
ATOM     33  C   UNL A   1      36.364  22.564  24.731  1.00  0.00     0.000 A 
ATOM     34  C   UNL A   1      35.068  23.237  26.631  1.00  0.00     0.000 A 
ATOM     35  C   UNL A   1      36.050  23.519  25.697  1.00  0.00     0.000 A 
ENDBRANCH  23  30
ENDBRANCH  20  23
ENDBRANCH  16  19
ENDBRANCH   5   8
ENDBRANCH   3   4
ENDBRANCH   2   3
ENDBRANCH   1   2
BRANCH   1  36
ATOM     36  C   UNL A   1      35.012  32.524  28.001  1.00  0.00     0.002 C 
BRANCH  36  37
ATOM     37  C   UNL A   1      33.909  33.547  28.316  1.00  0.00     0.021 C 
BRANCH  37  38
ATOM     38  C   UNL A   1      34.438  34.868  28.852  1.00  0.00     0.116 C 
BRANCH  38  39
ATOM     39  N   UNL A   1      33.863  35.209  30.157  1.00  0.00    -0.352 N 
ATOM     40  C   UNL A   1      34.038  34.582  31.372  1.00  0.00     0.251 C 
ATOM     41  H   UNL A   1      33.271  35.995  30.166  1.00  0.00     0.163 HD
ATOM     42  O   UNL A   1      33.242  34.751  32.295  1.00  0.00    -0.269 OA
BRANCH  40  43
ATOM     43  C   UNL A   1      35.203  33.707  31.551  1.00  0.00     0.039 A 
ATOM     44  C   UNL A   1      35.083  32.317  31.635  1.00  0.00     0.014 A 
ATOM     45  C   UNL A   1      36.449  34.320  31.587  1.00  0.00     0.014 A 
ATOM     46  C   UNL A   1      36.244  31.548  31.670  1.00  0.00     0.010 A 
ATOM     47  C   UNL A   1      37.572  33.563  31.411  1.00  0.00     0.010 A 
ATOM     48  C   UNL A   1      37.488  32.183  31.540  1.00  0.00    -0.014 A 
BRANCH  48  49
ATOM     49  C   UNL A   1      38.731  31.429  31.458  1.00  0.00     0.031 A 
ATOM     50  C   UNL A   1      39.420  31.205  32.757  1.00  0.00     0.074 A 
ATOM     51  C   UNL A   1      39.092  30.768  30.335  1.00  0.00     0.049 A 
ATOM     52  N   UNL A   1      40.570  31.655  33.134  1.00  0.00    -0.248 NA
ATOM     53  C   UNL A   1      38.687  30.487  33.812  1.00  0.00     0.031 C 
ATOM     54  C   UNL A   1      38.346  30.620  29.076  1.00  0.00     0.029 A 
ATOM     55  N   UNL A   1      40.179  29.980  30.124  1.00  0.00    -0.354 N 
ATOM     56  C   UNL A   1      40.802  31.106  34.394  1.00  0.00     0.074 A 
ATOM     57  C   UNL A   1      39.545  30.559  34.831  1.00  0.00     0.031 C 
ATOM     58  C   UNL A   1      38.880  29.621  28.343  1.00  0.00     0.029 A 
ATOM     59  C   UNL A   1      40.107  29.192  28.982  1.00  0.00     0.049 A 
ATOM     60  H   UNL A   1      40.954  29.969  30.731  1.00  0.00     0.167 HD
ATOM     61  C   UNL A   1      42.070  30.928  34.862  1.00  0.00     0.037 A 
ATOM     62  C   UNL A   1      40.992  28.242  28.597  1.00  0.00     0.037 A 
ATOM     63  C   UNL A   1      43.016  31.705  34.101  1.00  0.00     0.049 A 
ATOM     64  C   UNL A   1      42.256  28.503  29.326  1.00  0.00     0.074 A 
ATOM     65  C   UNL A   1      43.183  33.050  33.834  1.00  0.00     0.029 A 
ATOM     66  N   UNL A   1      43.768  31.046  33.159  1.00  0.00    -0.354 N 
ATOM     67  N   UNL A   1      43.004  29.552  29.126  1.00  0.00    -0.248 NA
ATOM     68  C   UNL A   1      42.444  27.836  30.605  1.00  0.00     0.031 C 
ATOM     69  C   UNL A   1      43.604  33.105  32.473  1.00  0.00     0.029 A 
ATOM     70  C   UNL A   1      43.733  31.794  32.011  1.00  0.00     0.049 A 
ATOM     71  H   UNL A   1      44.245  30.194  33.285  1.00  0.00     0.167 HD
ATOM     72  C   UNL A   1      43.435  29.927  30.391  1.00  0.00     0.074 A 
ATOM     73  C   UNL A   1      43.135  28.780  31.248  1.00  0.00     0.031 C 
ATOM     74  C   UNL A   1      43.727  31.229  30.680  1.00  0.00     0.037 A 
BRANCH  61  75
ATOM     75  C   UNL A   1      42.507  29.775  35.737  1.00  0.00     0.057 A 
ATOM     76  C   UNL A   1      43.421  30.017  36.779  1.00  0.00     0.134 A 
ATOM     77  C   UNL A   1      42.313  28.414  35.421  1.00  0.00     0.134 A 
ATOM     78  F   UNL A   1      43.701  31.269  37.173  1.00  0.00    -0.206 F 
ATOM     79  C   UNL A   1      44.151  28.993  37.396  1.00  0.00     0.040 A 
ATOM     80  C   UNL A   1      42.997  27.379  36.067  1.00  0.00     0.040 A 
ATOM     81  F   UNL A   1      41.536  28.012  34.410  1.00  0.00    -0.206 F 
ATOM     82  C   UNL A   1      43.947  27.669  37.033  1.00  0.00     0.006 A 
ENDBRANCH  61  75
BRANCH  62  83
ATOM     83  C   UNL A   1      40.736  26.983  27.865  1.00  0.00     0.057 A 
ATOM     84  C   UNL A   1      39.781  26.063  28.313  1.00  0.00     0.134 A 
ATOM     85  C   UNL A   1      41.228  26.781  26.562  1.00  0.00     0.134 A 
ATOM     86  F   UNL A   1      39.224  26.196  29.525  1.00  0.00    -0.206 F 
ATOM     87  C   UNL A   1      39.321  25.014  27.504  1.00  0.00     0.040 A 
ATOM     88  C   UNL A   1      40.783  25.736  25.748  1.00  0.00     0.040 A 
ATOM     89  F   UNL A   1      42.091  27.645  26.009  1.00  0.00    -0.206 F 
ATOM     90  C   UNL A   1      39.813  24.856  26.213  1.00  0.00     0.006 A 
ENDBRANCH  62  83
BRANCH  74  91
ATOM     91  C   UNL A   1      43.801  32.206  29.537  1.00  0.00     0.057 A 
ATOM     92  C   UNL A   1      42.778  33.109  29.207  1.00  0.00     0.134 A 
ATOM     93  C   UNL A   1      45.014  32.356  28.857  1.00  0.00     0.134 A 
ATOM     94  F   UNL A   1      41.613  33.109  29.864  1.00  0.00    -0.206 F 
ATOM     95  C   UNL A   1      42.943  34.091  28.224  1.00  0.00     0.040 A 
ATOM     96  C   UNL A   1      45.203  33.353  27.896  1.00  0.00     0.040 A 
ATOM     97  F   UNL A   1      46.056  31.567  29.157  1.00  0.00    -0.206 F 
ATOM     98  C   UNL A   1      44.164  34.221  27.572  1.00  0.00     0.006 A 
ENDBRANCH  74  91
ENDBRANCH  48  49
ENDBRANCH  40  43
ENDBRANCH  38  39
ENDBRANCH  37  38
ENDBRANCH  36  37
ENDBRANCH   1  36
TORSDOF 17
ENDMDL
MODEL 3
REMARK VINA RESULT:     -13.1      1.753      5.727
REMARK SMILES Cc1c(C(=O)NCCCCCCNC(=O)c2ccc(-c3c4nc(c(-c5c(F)cccc5F)c5ccc([nH]5)c(-c5c(F)cccc5F)c5nc(c(-c6c(F)cccc6F)c6ccc3[nH]6)C=C5)C=C4)cc2)oc2c1/C(=N/NC(=O)C(c1ccccc1)c1ccccc1)CCC2
REMARK SMILES IDX 9 1 8 2 7 3 6 4 4 5 5 6 3 8 1 9 2 10 72 11 70 12 71 13 73 14
REMARK SMILES IDX 93 15 74 16 91 17 92 18 75 19 76 20 77 22 78 23 79 24 80 25
REMARK SMILES IDX 84 26 81 27 83 28 82 29 85 30 86 31 90 32 87 33 89 34 88 35
REMARK SMILES IDX 10 36 11 37 12 38 13 39 14 40 15 42 16 43 17 44 69 45 18 46
REMARK SMILES IDX 68 47 19 48 20 49 21 50 62 51 22 52 67 53 61 54 63 55 23 56
REMARK SMILES IDX 66 57 60 58 59 59 24 61 50 62 33 63 49 64 34 65 37 66 48 67
REMARK SMILES IDX 64 68 35 69 36 70 47 72 65 73 38 74 25 75 26 76 31 77 27 78
REMARK SMILES IDX 28 79 30 80 32 81 29 82 51 83 52 84 57 85 53 86 54 87 56 88
REMARK SMILES IDX 58 89 55 90 39 91 40 92 45 93 41 94 42 95 44 96 46 97 43 98
REMARK H PARENT 6 7 75 21 13 41 63 60 37 71
REMARK Flexibility Score: inf
ROOT
ATOM      1  C   UNL A   1      31.946  30.651  26.194  1.00  0.00     0.002 C 
ENDROOT
BRANCH   1   2
ATOM      2  C   UNL A   1      31.511  29.364  25.483  1.00  0.00     0.021 C 
BRANCH   2   3
ATOM      3  C   UNL A   1      31.326  29.553  23.975  1.00  0.00     0.116 C 
BRANCH   3   4
ATOM      4  N   UNL A   1      29.955  29.262  23.543  1.00  0.00    -0.349 N 
ATOM      5  C   UNL A   1      29.308  28.053  23.306  1.00  0.00     0.287 C 
ATOM      6  O   UNL A   1      28.102  28.089  23.061  1.00  0.00    -0.266 OA
ATOM      7  H   UNL A   1      29.396  30.058  23.394  1.00  0.00     0.163 HD
BRANCH   5   8
ATOM      8  C   UNL A   1      30.064  26.824  23.433  1.00  0.00     0.195 A 
ATOM      9  C   UNL A   1      29.738  25.900  25.834  1.00  0.00     0.049 C 
ATOM     10  C   UNL A   1      30.338  25.926  24.476  1.00  0.00     0.010 A 
ATOM     11  C   UNL A   1      31.468  25.167  24.021  1.00  0.00     0.043 A 
ATOM     12  O   UNL A   1      30.765  26.458  22.333  1.00  0.00    -0.455 OA
ATOM     13  C   UNL A   1      31.726  25.650  22.756  1.00  0.00     0.114 A 
ATOM     14  C   UNL A   1      32.428  24.232  24.599  1.00  0.00     0.072 C 
ATOM     15  C   UNL A   1      32.934  25.573  21.916  1.00  0.00     0.076 C 
ATOM     16  N   UNL A   1      32.077  23.479  25.598  1.00  0.00    -0.177 NA
ATOM     17  C   UNL A   1      33.760  24.370  23.929  1.00  0.00     0.059 C 
ATOM     18  C   UNL A   1      33.737  24.399  22.404  1.00  0.00     0.014 C 
BRANCH  16  19
ATOM     19  N   UNL A   1      32.741  22.489  26.306  1.00  0.00    -0.246 N 
ATOM     20  C   UNL A   1      33.528  21.365  26.126  1.00  0.00     0.252 C 
ATOM     21  H   UNL A   1      32.603  22.636  27.269  1.00  0.00     0.193 HD
ATOM     22  O   UNL A   1      33.660  20.649  27.137  1.00  0.00    -0.272 OA
BRANCH  20  23
ATOM     23  C   UNL A   1      34.300  20.938  24.839  1.00  0.00     0.140 C 
BRANCH  23  24
ATOM     24  C   UNL A   1      35.833  21.197  25.048  1.00  0.00    -0.031 A 
ATOM     25  C   UNL A   1      36.823  20.221  24.858  1.00  0.00     0.005 A 
ATOM     26  C   UNL A   1      36.305  22.480  25.435  1.00  0.00     0.005 A 
ATOM     27  C   UNL A   1      38.173  20.478  25.182  1.00  0.00     0.000 A 
ATOM     28  C   UNL A   1      37.636  22.733  25.780  1.00  0.00     0.000 A 
ATOM     29  C   UNL A   1      38.571  21.722  25.672  1.00  0.00     0.000 A 
ENDBRANCH  23  24
BRANCH  23  30
ATOM     30  C   UNL A   1      33.686  19.558  24.360  1.00  0.00    -0.031 A 
ATOM     31  C   UNL A   1      32.587  19.425  23.490  1.00  0.00     0.005 A 
ATOM     32  C   UNL A   1      34.417  18.371  24.628  1.00  0.00     0.005 A 
ATOM     33  C   UNL A   1      32.414  18.249  22.734  1.00  0.00     0.000 A 
ATOM     34  C   UNL A   1      34.259  17.215  23.861  1.00  0.00     0.000 A 
ATOM     35  C   UNL A   1      33.285  17.170  22.878  1.00  0.00     0.000 A 
ENDBRANCH  23  30
ENDBRANCH  20  23
ENDBRANCH  16  19
ENDBRANCH   5   8
ENDBRANCH   3   4
ENDBRANCH   2   3
ENDBRANCH   1   2
BRANCH   1  36
ATOM     36  C   UNL A   1      32.950  30.463  27.345  1.00  0.00     0.002 C 
BRANCH  36  37
ATOM     37  C   UNL A   1      34.438  30.457  26.963  1.00  0.00     0.021 C 
BRANCH  37  38
ATOM     38  C   UNL A   1      35.277  29.498  27.793  1.00  0.00     0.116 C 
BRANCH  38  39
ATOM     39  N   UNL A   1      35.400  29.931  29.188  1.00  0.00    -0.352 N 
ATOM     40  C   UNL A   1      36.377  29.619  30.110  1.00  0.00     0.251 C 
ATOM     41  H   UNL A   1      34.687  30.527  29.512  1.00  0.00     0.163 HD
ATOM     42  O   UNL A   1      36.182  29.758  31.316  1.00  0.00    -0.269 OA
BRANCH  40  43
ATOM     43  C   UNL A   1      37.669  29.120  29.623  1.00  0.00     0.039 A 
ATOM     44  C   UNL A   1      38.338  29.713  28.549  1.00  0.00     0.014 A 
ATOM     45  C   UNL A   1      38.230  28.052  30.311  1.00  0.00     0.014 A 
ATOM     46  C   UNL A   1      39.620  29.268  28.232  1.00  0.00     0.010 A 
ATOM     47  C   UNL A   1      39.553  27.763  30.136  1.00  0.00     0.010 A 
ATOM     48  C   UNL A   1      40.227  28.300  29.046  1.00  0.00    -0.014 A 
BRANCH  48  49
ATOM     49  C   UNL A   1      41.603  27.873  28.837  1.00  0.00     0.031 A 
ATOM     50  C   UNL A   1      41.762  26.619  28.053  1.00  0.00     0.074 A 
ATOM     51  C   UNL A   1      42.651  28.683  29.106  1.00  0.00     0.049 A 
ATOM     52  N   UNL A   1      42.241  25.488  28.452  1.00  0.00    -0.248 NA
ATOM     53  C   UNL A   1      41.211  26.582  26.689  1.00  0.00     0.031 C 
ATOM     54  C   UNL A   1      42.637  30.079  29.570  1.00  0.00     0.029 A 
ATOM     55  N   UNL A   1      43.976  28.455  28.910  1.00  0.00    -0.354 N 
ATOM     56  C   UNL A   1      42.248  24.658  27.333  1.00  0.00     0.074 A 
ATOM     57  C   UNL A   1      41.439  25.314  26.341  1.00  0.00     0.031 C 
ATOM     58  C   UNL A   1      43.855  30.632  29.391  1.00  0.00     0.029 A 
ATOM     59  C   UNL A   1      44.775  29.589  28.987  1.00  0.00     0.049 A 
ATOM     60  H   UNL A   1      44.340  27.558  28.729  1.00  0.00     0.167 HD
ATOM     61  C   UNL A   1      43.125  23.619  27.233  1.00  0.00     0.037 A 
ATOM     62  C   UNL A   1      46.101  29.665  28.723  1.00  0.00     0.037 A 
ATOM     63  C   UNL A   1      43.695  23.296  28.517  1.00  0.00     0.049 A 
ATOM     64  C   UNL A   1      46.639  28.285  28.795  1.00  0.00     0.074 A 
ATOM     65  C   UNL A   1      43.186  22.895  29.737  1.00  0.00     0.029 A 
ATOM     66  N   UNL A   1      44.969  23.740  28.777  1.00  0.00    -0.354 N 
ATOM     67  N   UNL A   1      46.703  27.589  29.896  1.00  0.00    -0.248 NA
ATOM     68  C   UNL A   1      46.670  27.511  27.564  1.00  0.00     0.031 C 
ATOM     69  C   UNL A   1      43.977  23.578  30.708  1.00  0.00     0.029 A 
ATOM     70  C   UNL A   1      44.960  24.300  30.028  1.00  0.00     0.049 A 
ATOM     71  H   UNL A   1      45.745  23.669  28.176  1.00  0.00     0.167 HD
ATOM     72  C   UNL A   1      46.355  26.299  29.522  1.00  0.00     0.074 A 
ATOM     73  C   UNL A   1      46.436  26.294  28.062  1.00  0.00     0.031 C 
ATOM     74  C   UNL A   1      45.757  25.446  30.405  1.00  0.00     0.037 A 
BRANCH  61  75
ATOM     75  C   UNL A   1      43.758  23.154  25.941  1.00  0.00     0.057 A 
ATOM     76  C   UNL A   1      43.718  21.785  25.616  1.00  0.00     0.134 A 
ATOM     77  C   UNL A   1      44.651  23.923  25.166  1.00  0.00     0.134 A 
ATOM     78  F   UNL A   1      42.915  20.941  26.281  1.00  0.00    -0.206 F 
ATOM     79  C   UNL A   1      44.566  21.212  24.658  1.00  0.00     0.040 A 
ATOM     80  C   UNL A   1      45.463  23.370  24.171  1.00  0.00     0.040 A 
ATOM     81  F   UNL A   1      44.866  25.223  25.392  1.00  0.00    -0.206 F 
ATOM     82  C   UNL A   1      45.449  22.005  23.938  1.00  0.00     0.006 A 
ENDBRANCH  61  75
BRANCH  62  83
ATOM     83  C   UNL A   1      46.866  30.792  28.150  1.00  0.00     0.057 A 
ATOM     84  C   UNL A   1      46.513  31.361  26.920  1.00  0.00     0.134 A 
ATOM     85  C   UNL A   1      47.793  31.515  28.924  1.00  0.00     0.134 A 
ATOM     86  F   UNL A   1      45.606  30.766  26.131  1.00  0.00    -0.206 F 
ATOM     87  C   UNL A   1      47.032  32.591  26.492  1.00  0.00     0.040 A 
ATOM     88  C   UNL A   1      48.323  32.740  28.506  1.00  0.00     0.040 A 
ATOM     89  F   UNL A   1      48.144  31.098  30.149  1.00  0.00    -0.206 F 
ATOM     90  C   UNL A   1      47.931  33.289  27.291  1.00  0.00     0.006 A 
ENDBRANCH  62  83
BRANCH  74  91
ATOM     91  C   UNL A   1      45.704  25.852  31.853  1.00  0.00     0.057 A 
ATOM     92  C   UNL A   1      46.783  25.732  32.743  1.00  0.00     0.134 A 
ATOM     93  C   UNL A   1      44.581  26.545  32.318  1.00  0.00     0.134 A 
ATOM     94  F   UNL A   1      47.935  25.169  32.365  1.00  0.00    -0.206 F 
ATOM     95  C   UNL A   1      46.734  26.246  34.043  1.00  0.00     0.040 A 
ATOM     96  C   UNL A   1      44.531  27.093  33.602  1.00  0.00     0.040 A 
ATOM     97  F   UNL A   1      43.533  26.751  31.507  1.00  0.00    -0.206 F 
ATOM     98  C   UNL A   1      45.607  26.938  34.473  1.00  0.00     0.006 A 
ENDBRANCH  74  91
ENDBRANCH  48  49
ENDBRANCH  40  43
ENDBRANCH  38  39
ENDBRANCH  37  38
ENDBRANCH  36  37
ENDBRANCH   1  36
TORSDOF 17
ENDMDL
