MODEL 1
REMARK VINA RESULT:     -12.1      0.000      0.000
REMARK SMILES O=C(NCCCCCCNC(=O)c1ccc(F)cc1-c1ccc(F)c(Cl)c1)c1ccc(-c2c3nc(c(-c4c(F)cccc4F)c4ccc([nH]4)c(-c4c(F)cccc4F)c4nc(c(-c5c(F)cccc5F)c5ccc2[nH]5)C=C4)C=C3)cc1
REMARK SMILES IDX 6 1 5 2 4 3 3 4 1 5 2 6 28 8 29 9 81 10 30 11 80 12 31 13
REMARK SMILES IDX 32 14 33 15 74 16 34 17 79 18 73 19 75 20 35 21 78 22 72 23
REMARK SMILES IDX 71 24 36 26 62 27 45 28 61 29 46 30 49 31 60 32 76 33 47 34
REMARK SMILES IDX 48 35 59 37 77 38 50 39 37 40 38 41 43 42 39 43 40 44 42 45
REMARK SMILES IDX 44 46 41 47 63 48 64 49 69 50 65 51 66 52 68 53 70 54 67 55
REMARK SMILES IDX 51 56 52 57 57 58 53 59 54 60 56 61 58 62 55 63 7 64 8 65
REMARK SMILES IDX 9 66 10 67 11 68 12 70 13 71 14 72 19 73 15 74 18 75 16 76
REMARK SMILES IDX 17 77 20 78 21 79 27 80 22 81 25 82 23 83 26 84 24 85
REMARK H PARENT 3 7 75 25 49 36 10 69
REMARK Flexibility Score: inf
ROOT
ATOM      1  C   UNL A   1      31.592  30.480  25.807  1.00  0.00     0.002 C 
ENDROOT
BRANCH   1   2
ATOM      2  C   UNL A   1      31.395  31.823  26.508  1.00  0.00     0.021 C 
BRANCH   2   3
ATOM      3  C   UNL A   1      32.664  32.478  27.034  1.00  0.00     0.116 C 
BRANCH   3   4
ATOM      4  N   UNL A   1      32.456  33.835  27.512  1.00  0.00    -0.352 N 
ATOM      5  O   UNL A   1      32.752  35.629  28.852  1.00  0.00    -0.269 OA
ATOM      6  C   UNL A   1      33.138  34.522  28.490  1.00  0.00     0.251 C 
ATOM      7  H   UNL A   1      31.727  34.331  27.076  1.00  0.00     0.163 HD
BRANCH   6   8
ATOM      8  C   UNL A   1      34.325  33.909  29.131  1.00  0.00     0.039 A 
ATOM      9  C   UNL A   1      35.613  34.270  28.735  1.00  0.00     0.014 A 
ATOM     10  C   UNL A   1      34.145  32.958  30.141  1.00  0.00     0.014 A 
ATOM     11  C   UNL A   1      36.709  33.574  29.232  1.00  0.00     0.010 A 
ATOM     12  C   UNL A   1      35.257  32.324  30.710  1.00  0.00     0.010 A 
ATOM     13  C   UNL A   1      36.546  32.604  30.238  1.00  0.00    -0.014 A 
BRANCH  13  14
ATOM     14  C   UNL A   1      37.760  31.967  30.814  1.00  0.00     0.031 A 
ATOM     15  C   UNL A   1      38.204  32.246  32.222  1.00  0.00     0.074 A 
ATOM     16  C   UNL A   1      38.420  31.063  30.064  1.00  0.00     0.049 A 
ATOM     17  N   UNL A   1      39.184  31.696  32.895  1.00  0.00    -0.248 NA
ATOM     18  C   UNL A   1      37.465  33.271  32.975  1.00  0.00     0.031 C 
ATOM     19  C   UNL A   1      38.088  30.721  28.678  1.00  0.00     0.029 A 
ATOM     20  N   UNL A   1      39.470  30.235  30.366  1.00  0.00    -0.354 N 
ATOM     21  C   UNL A   1      39.188  32.312  34.141  1.00  0.00     0.074 A 
ATOM     22  C   UNL A   1      38.126  33.296  34.126  1.00  0.00     0.031 C 
ATOM     23  C   UNL A   1      38.861  29.701  28.279  1.00  0.00     0.029 A 
ATOM     24  C   UNL A   1      39.786  29.360  29.354  1.00  0.00     0.049 A 
ATOM     25  H   UNL A   1      39.953  30.265  31.224  1.00  0.00     0.167 HD
ATOM     26  C   UNL A   1      39.998  32.070  35.199  1.00  0.00     0.037 A 
ATOM     27  C   UNL A   1      40.714  28.389  29.294  1.00  0.00     0.037 A 
ATOM     28  C   UNL A   1      41.041  31.075  35.216  1.00  0.00     0.049 A 
ATOM     29  C   UNL A   1      41.600  28.151  30.479  1.00  0.00     0.074 A 
ATOM     30  C   UNL A   1      41.898  30.746  36.254  1.00  0.00     0.029 A 
ATOM     31  N   UNL A   1      41.367  30.249  34.152  1.00  0.00    -0.354 N 
ATOM     32  N   UNL A   1      41.579  28.734  31.653  1.00  0.00    -0.248 NA
ATOM     33  C   UNL A   1      42.646  27.131  30.330  1.00  0.00     0.031 C 
ATOM     34  C   UNL A   1      42.766  29.745  35.805  1.00  0.00     0.029 A 
ATOM     35  C   UNL A   1      42.422  29.422  34.503  1.00  0.00     0.049 A 
ATOM     36  H   UNL A   1      40.915  30.249  33.278  1.00  0.00     0.167 HD
ATOM     37  C   UNL A   1      42.605  28.151  32.382  1.00  0.00     0.074 A 
ATOM     38  C   UNL A   1      43.209  27.148  31.531  1.00  0.00     0.031 C 
ATOM     39  C   UNL A   1      43.015  28.432  33.642  1.00  0.00     0.037 A 
BRANCH  26  40
ATOM     40  C   UNL A   1      39.802  32.886  36.442  1.00  0.00     0.057 A 
ATOM     41  C   UNL A   1      38.815  32.541  37.375  1.00  0.00     0.134 A 
ATOM     42  C   UNL A   1      40.510  34.073  36.660  1.00  0.00     0.134 A 
ATOM     43  F   UNL A   1      38.093  31.420  37.219  1.00  0.00    -0.206 F 
ATOM     44  C   UNL A   1      38.526  33.357  38.469  1.00  0.00     0.040 A 
ATOM     45  C   UNL A   1      40.244  34.889  37.762  1.00  0.00     0.040 A 
ATOM     46  F   UNL A   1      41.474  34.456  35.808  1.00  0.00    -0.206 F 
ATOM     47  C   UNL A   1      39.241  34.537  38.664  1.00  0.00     0.006 A 
ENDBRANCH  26  40
BRANCH  27  48
ATOM     48  C   UNL A   1      40.840  27.565  28.066  1.00  0.00     0.057 A 
ATOM     49  C   UNL A   1      40.175  26.339  27.938  1.00  0.00     0.134 A 
ATOM     50  C   UNL A   1      41.650  27.974  27.002  1.00  0.00     0.134 A 
ATOM     51  F   UNL A   1      39.389  25.889  28.928  1.00  0.00    -0.206 F 
ATOM     52  C   UNL A   1      40.324  25.542  26.804  1.00  0.00     0.040 A 
ATOM     53  C   UNL A   1      41.788  27.199  25.849  1.00  0.00     0.040 A 
ATOM     54  F   UNL A   1      42.300  29.146  27.059  1.00  0.00    -0.206 F 
ATOM     55  C   UNL A   1      41.130  25.973  25.753  1.00  0.00     0.006 A 
ENDBRANCH  27  48
BRANCH  39  56
ATOM     56  C   UNL A   1      44.172  27.641  34.175  1.00  0.00     0.057 A 
ATOM     57  C   UNL A   1      45.485  28.105  34.030  1.00  0.00     0.134 A 
ATOM     58  C   UNL A   1      43.985  26.399  34.795  1.00  0.00     0.134 A 
ATOM     59  F   UNL A   1      45.729  29.283  33.438  1.00  0.00    -0.206 F 
ATOM     60  C   UNL A   1      46.573  27.358  34.481  1.00  0.00     0.040 A 
ATOM     61  C   UNL A   1      45.065  25.654  35.270  1.00  0.00     0.040 A 
ATOM     62  F   UNL A   1      42.750  25.908  34.974  1.00  0.00    -0.206 F 
ATOM     63  C   UNL A   1      46.364  26.131  35.107  1.00  0.00     0.006 A 
ENDBRANCH  39  56
ENDBRANCH  13  14
ENDBRANCH   6   8
ENDBRANCH   3   4
ENDBRANCH   2   3
ENDBRANCH   1   2
BRANCH   1  64
ATOM     64  C   UNL A   1      31.783  29.266  26.721  1.00  0.00     0.002 C 
BRANCH  64  65
ATOM     65  C   UNL A   1      33.022  28.404  26.461  1.00  0.00     0.021 C 
BRANCH  65  66
ATOM     66  C   UNL A   1      32.807  26.893  26.519  1.00  0.00     0.116 C 
BRANCH  66  67
ATOM     67  N   UNL A   1      31.426  26.532  26.785  1.00  0.00    -0.352 N 
ATOM     68  C   UNL A   1      30.631  25.604  26.159  1.00  0.00     0.251 C 
ATOM     69  H   UNL A   1      30.998  27.023  27.523  1.00  0.00     0.163 HD
ATOM     70  O   UNL A   1      29.472  25.435  26.520  1.00  0.00    -0.269 OA
BRANCH  68  71
ATOM     71  C   UNL A   1      31.188  24.801  25.048  1.00  0.00     0.047 A 
ATOM     72  C   UNL A   1      31.568  23.475  25.321  1.00  0.00     0.017 A 
ATOM     73  C   UNL A   1      31.282  25.331  23.742  1.00  0.00    -0.003 A 
ATOM     74  C   UNL A   1      32.107  22.681  24.311  1.00  0.00     0.040 A 
ATOM     75  C   UNL A   1      31.830  24.506  22.742  1.00  0.00     0.048 A 
ATOM     76  C   UNL A   1      32.241  23.208  23.034  1.00  0.00     0.123 A 
ATOM     77  F   UNL A   1      32.765  22.450  22.063  1.00  0.00    -0.207 F 
BRANCH  73  78
ATOM     78  C   UNL A   1      30.814  26.680  23.381  1.00  0.00    -0.016 A 
ATOM     79  C   UNL A   1      31.711  27.693  23.003  1.00  0.00     0.012 A 
ATOM     80  C   UNL A   1      29.439  26.978  23.413  1.00  0.00     0.032 A 
ATOM     81  C   UNL A   1      31.247  28.971  22.675  1.00  0.00     0.041 A 
ATOM     82  C   UNL A   1      28.978  28.253  23.083  1.00  0.00     0.077 A 
ATOM     83  C   UNL A   1      29.884  29.244  22.717  1.00  0.00     0.141 A 
ATOM     84  Cl  UNL A   1      27.288  28.581  23.129  1.00  0.00    -0.081 Cl
ATOM     85  F   UNL A   1      29.462  30.476  22.395  1.00  0.00    -0.205 F 
ENDBRANCH  73  78
ENDBRANCH  68  71
ENDBRANCH  66  67
ENDBRANCH  65  66
ENDBRANCH  64  65
ENDBRANCH   1  64
TORSDOF 14
ENDMDL
MODEL 2
REMARK VINA RESULT:     -12.0      4.735      9.415
REMARK SMILES O=C(NCCCCCCNC(=O)c1ccc(F)cc1-c1ccc(F)c(Cl)c1)c1ccc(-c2c3nc(c(-c4c(F)cccc4F)c4ccc([nH]4)c(-c4c(F)cccc4F)c4nc(c(-c5c(F)cccc5F)c5ccc2[nH]5)C=C4)C=C3)cc1
REMARK SMILES IDX 6 1 5 2 4 3 3 4 1 5 2 6 28 8 29 9 81 10 30 11 80 12 31 13
REMARK SMILES IDX 32 14 33 15 74 16 34 17 79 18 73 19 75 20 35 21 78 22 72 23
REMARK SMILES IDX 71 24 36 26 62 27 45 28 61 29 46 30 49 31 60 32 76 33 47 34
REMARK SMILES IDX 48 35 59 37 77 38 50 39 37 40 38 41 43 42 39 43 40 44 42 45
REMARK SMILES IDX 44 46 41 47 63 48 64 49 69 50 65 51 66 52 68 53 70 54 67 55
REMARK SMILES IDX 51 56 52 57 57 58 53 59 54 60 56 61 58 62 55 63 7 64 8 65
REMARK SMILES IDX 9 66 10 67 11 68 12 70 13 71 14 72 19 73 15 74 18 75 16 76
REMARK SMILES IDX 17 77 20 78 21 79 27 80 22 81 25 82 23 83 26 84 24 85
REMARK H PARENT 3 7 75 25 49 36 10 69
REMARK Flexibility Score: inf
ROOT
ATOM      1  C   UNL A   1      36.428  20.143  25.006  1.00  0.00     0.002 C 
ENDROOT
BRANCH   1   2
ATOM      2  C   UNL A   1      37.894  19.953  24.619  1.00  0.00     0.021 C 
BRANCH   2   3
ATOM      3  C   UNL A   1      38.902  20.199  25.733  1.00  0.00     0.116 C 
BRANCH   3   4
ATOM      4  N   UNL A   1      40.013  19.262  25.723  1.00  0.00    -0.352 N 
ATOM      5  O   UNL A   1      42.166  18.598  25.879  1.00  0.00    -0.269 OA
ATOM      6  C   UNL A   1      41.329  19.478  26.059  1.00  0.00     0.251 C 
ATOM      7  H   UNL A   1      39.793  18.347  25.435  1.00  0.00     0.163 HD
BRANCH   6   8
ATOM      8  C   UNL A   1      41.745  20.787  26.613  1.00  0.00     0.039 A 
ATOM      9  C   UNL A   1      41.761  21.004  27.991  1.00  0.00     0.014 A 
ATOM     10  C   UNL A   1      42.121  21.814  25.739  1.00  0.00     0.014 A 
ATOM     11  C   UNL A   1      41.999  22.281  28.486  1.00  0.00     0.010 A 
ATOM     12  C   UNL A   1      42.453  23.075  26.246  1.00  0.00     0.010 A 
ATOM     13  C   UNL A   1      42.364  23.329  27.622  1.00  0.00    -0.014 A 
BRANCH  13  14
ATOM     14  C   UNL A   1      42.716  24.647  28.212  1.00  0.00     0.031 A 
ATOM     15  C   UNL A   1      44.143  25.037  28.480  1.00  0.00     0.074 A 
ATOM     16  C   UNL A   1      41.722  25.530  28.434  1.00  0.00     0.049 A 
ATOM     17  N   UNL A   1      44.612  26.185  28.901  1.00  0.00    -0.248 NA
ATOM     18  C   UNL A   1      45.177  24.016  28.253  1.00  0.00     0.031 C 
ATOM     19  C   UNL A   1      40.297  25.258  28.223  1.00  0.00     0.029 A 
ATOM     20  N   UNL A   1      41.752  26.840  28.837  1.00  0.00    -0.354 N 
ATOM     21  C   UNL A   1      45.989  26.023  29.002  1.00  0.00     0.074 A 
ATOM     22  C   UNL A   1      46.280  24.658  28.619  1.00  0.00     0.031 C 
ATOM     23  C   UNL A   1      39.600  26.386  28.419  1.00  0.00     0.029 A 
ATOM     24  C   UNL A   1      40.517  27.443  28.830  1.00  0.00     0.049 A 
ATOM     25  H   UNL A   1      42.578  27.304  29.106  1.00  0.00     0.167 HD
ATOM     26  C   UNL A   1      46.920  26.935  29.371  1.00  0.00     0.037 A 
ATOM     27  C   UNL A   1      40.157  28.706  29.121  1.00  0.00     0.037 A 
ATOM     28  C   UNL A   1      46.627  28.299  29.733  1.00  0.00     0.049 A 
ATOM     29  C   UNL A   1      41.211  29.688  29.533  1.00  0.00     0.074 A 
ATOM     30  C   UNL A   1      47.512  29.299  30.100  1.00  0.00     0.029 A 
ATOM     31  N   UNL A   1      45.359  28.854  29.769  1.00  0.00    -0.354 N 
ATOM     32  N   UNL A   1      42.509  29.521  29.609  1.00  0.00    -0.248 NA
ATOM     33  C   UNL A   1      40.753  31.031  29.914  1.00  0.00     0.031 C 
ATOM     34  C   UNL A   1      46.774  30.451  30.393  1.00  0.00     0.029 A 
ATOM     35  C   UNL A   1      45.435  30.180  30.168  1.00  0.00     0.049 A 
ATOM     36  H   UNL A   1      44.526  28.379  29.544  1.00  0.00     0.167 HD
ATOM     37  C   UNL A   1      43.022  30.734  30.042  1.00  0.00     0.074 A 
ATOM     38  C   UNL A   1      41.900  31.638  30.184  1.00  0.00     0.031 C 
ATOM     39  C   UNL A   1      44.309  31.065  30.309  1.00  0.00     0.037 A 
BRANCH  26  40
ATOM     40  C   UNL A   1      48.356  26.503  29.407  1.00  0.00     0.057 A 
ATOM     41  C   UNL A   1      48.892  25.899  30.552  1.00  0.00     0.134 A 
ATOM     42  C   UNL A   1      49.234  26.786  28.354  1.00  0.00     0.134 A 
ATOM     43  F   UNL A   1      48.106  25.610  31.600  1.00  0.00    -0.206 F 
ATOM     44  C   UNL A   1      50.254  25.610  30.656  1.00  0.00     0.040 A 
ATOM     45  C   UNL A   1      50.595  26.484  28.439  1.00  0.00     0.040 A 
ATOM     46  F   UNL A   1      48.782  27.357  27.227  1.00  0.00    -0.206 F 
ATOM     47  C   UNL A   1      51.110  25.905  29.597  1.00  0.00     0.006 A 
ENDBRANCH  26  40
BRANCH  27  48
ATOM     48  C   UNL A   1      38.733  29.109  29.019  1.00  0.00     0.057 A 
ATOM     49  C   UNL A   1      37.875  29.047  30.124  1.00  0.00     0.134 A 
ATOM     50  C   UNL A   1      38.191  29.542  27.804  1.00  0.00     0.134 A 
ATOM     51  F   UNL A   1      38.335  28.632  31.314  1.00  0.00    -0.206 F 
ATOM     52  C   UNL A   1      36.526  29.384  30.022  1.00  0.00     0.040 A 
ATOM     53  C   UNL A   1      36.848  29.908  27.693  1.00  0.00     0.040 A 
ATOM     54  F   UNL A   1      38.966  29.637  26.714  1.00  0.00    -0.206 F 
ATOM     55  C   UNL A   1      36.010  29.820  28.804  1.00  0.00     0.006 A 
ENDBRANCH  27  48
BRANCH  39  56
ATOM     56  C   UNL A   1      44.570  32.464  30.779  1.00  0.00     0.057 A 
ATOM     57  C   UNL A   1      44.562  32.774  32.145  1.00  0.00     0.134 A 
ATOM     58  C   UNL A   1      44.788  33.511  29.876  1.00  0.00     0.134 A 
ATOM     59  F   UNL A   1      44.350  31.816  33.059  1.00  0.00    -0.206 F 
ATOM     60  C   UNL A   1      44.758  34.079  32.594  1.00  0.00     0.040 A 
ATOM     61  C   UNL A   1      45.009  34.817  30.315  1.00  0.00     0.040 A 
ATOM     62  F   UNL A   1      44.821  33.274  28.556  1.00  0.00    -0.206 F 
ATOM     63  C   UNL A   1      44.987  35.105  31.679  1.00  0.00     0.006 A 
ENDBRANCH  39  56
ENDBRANCH  13  14
ENDBRANCH   6   8
ENDBRANCH   3   4
ENDBRANCH   2   3
ENDBRANCH   1   2
BRANCH   1  64
ATOM     64  C   UNL A   1      35.847  21.540  24.768  1.00  0.00     0.002 C 
BRANCH  64  65
ATOM     65  C   UNL A   1      35.783  22.469  25.984  1.00  0.00     0.021 C 
BRANCH  65  66
ATOM     66  C   UNL A   1      35.291  23.889  25.713  1.00  0.00     0.116 C 
BRANCH  66  67
ATOM     67  N   UNL A   1      35.137  24.169  24.297  1.00  0.00    -0.352 N 
ATOM     68  C   UNL A   1      34.031  24.607  23.610  1.00  0.00     0.251 C 
ATOM     69  H   UNL A   1      35.943  24.027  23.750  1.00  0.00     0.163 HD
ATOM     70  O   UNL A   1      34.085  24.788  22.399  1.00  0.00    -0.269 OA
BRANCH  68  71
ATOM     71  C   UNL A   1      32.774  24.867  24.346  1.00  0.00     0.047 A 
ATOM     72  C   UNL A   1      32.515  26.186  24.760  1.00  0.00     0.017 A 
ATOM     73  C   UNL A   1      31.838  23.835  24.575  1.00  0.00    -0.003 A 
ATOM     74  C   UNL A   1      31.350  26.480  25.465  1.00  0.00     0.040 A 
ATOM     75  C   UNL A   1      30.670  24.161  25.290  1.00  0.00     0.048 A 
ATOM     76  C   UNL A   1      30.444  25.463  25.730  1.00  0.00     0.123 A 
ATOM     77  F   UNL A   1      29.327  25.741  26.413  1.00  0.00    -0.207 F 
BRANCH  73  78
ATOM     78  C   UNL A   1      32.015  22.458  24.084  1.00  0.00    -0.016 A 
ATOM     79  C   UNL A   1      31.912  22.144  22.718  1.00  0.00     0.012 A 
ATOM     80  C   UNL A   1      32.291  21.418  24.993  1.00  0.00     0.032 A 
ATOM     81  C   UNL A   1      32.072  20.828  22.274  1.00  0.00     0.041 A 
ATOM     82  C   UNL A   1      32.454  20.106  24.547  1.00  0.00     0.077 A 
ATOM     83  C   UNL A   1      32.342  19.816  23.191  1.00  0.00     0.141 A 
ATOM     84  Cl  UNL A   1      32.795  18.861  25.687  1.00  0.00    -0.081 Cl
ATOM     85  F   UNL A   1      32.495  18.562  22.741  1.00  0.00    -0.205 F 
ENDBRANCH  73  78
ENDBRANCH  68  71
ENDBRANCH  66  67
ENDBRANCH  65  66
ENDBRANCH  64  65
ENDBRANCH   1  64
TORSDOF 14
ENDMDL
MODEL 3
REMARK VINA RESULT:     -12.0      4.447      9.004
REMARK SMILES O=C(NCCCCCCNC(=O)c1ccc(F)cc1-c1ccc(F)c(Cl)c1)c1ccc(-c2c3nc(c(-c4c(F)cccc4F)c4ccc([nH]4)c(-c4c(F)cccc4F)c4nc(c(-c5c(F)cccc5F)c5ccc2[nH]5)C=C4)C=C3)cc1
REMARK SMILES IDX 6 1 5 2 4 3 3 4 1 5 2 6 28 8 29 9 81 10 30 11 80 12 31 13
REMARK SMILES IDX 32 14 33 15 74 16 34 17 79 18 73 19 75 20 35 21 78 22 72 23
REMARK SMILES IDX 71 24 36 26 62 27 45 28 61 29 46 30 49 31 60 32 76 33 47 34
REMARK SMILES IDX 48 35 59 37 77 38 50 39 37 40 38 41 43 42 39 43 40 44 42 45
REMARK SMILES IDX 44 46 41 47 63 48 64 49 69 50 65 51 66 52 68 53 70 54 67 55
REMARK SMILES IDX 51 56 52 57 57 58 53 59 54 60 56 61 58 62 55 63 7 64 8 65
REMARK SMILES IDX 9 66 10 67 11 68 12 70 13 71 14 72 19 73 15 74 18 75 16 76
REMARK SMILES IDX 17 77 20 78 21 79 27 80 22 81 25 82 23 83 26 84 24 85
REMARK H PARENT 3 7 75 25 49 36 10 69
REMARK Flexibility Score: inf
ROOT
ATOM      1  C   UNL A   1      36.477  20.608  24.978  1.00  0.00     0.002 C 
ENDROOT
BRANCH   1   2
ATOM      2  C   UNL A   1      37.734  19.746  24.864  1.00  0.00     0.021 C 
BRANCH   2   3
ATOM      3  C   UNL A   1      38.913  20.191  25.717  1.00  0.00     0.116 C 
BRANCH   3   4
ATOM      4  N   UNL A   1      40.028  19.259  25.690  1.00  0.00    -0.352 N 
ATOM      5  O   UNL A   1      42.185  18.602  25.825  1.00  0.00    -0.269 OA
ATOM      6  C   UNL A   1      41.346  19.477  26.019  1.00  0.00     0.251 C 
ATOM      7  H   UNL A   1      39.809  18.345  25.397  1.00  0.00     0.163 HD
BRANCH   6   8
ATOM      8  C   UNL A   1      41.761  20.784  26.578  1.00  0.00     0.039 A 
ATOM      9  C   UNL A   1      41.774  20.995  27.957  1.00  0.00     0.014 A 
ATOM     10  C   UNL A   1      42.139  21.814  25.710  1.00  0.00     0.014 A 
ATOM     11  C   UNL A   1      42.011  22.270  28.459  1.00  0.00     0.010 A 
ATOM     12  C   UNL A   1      42.470  23.074  26.223  1.00  0.00     0.010 A 
ATOM     13  C   UNL A   1      42.378  23.321  27.599  1.00  0.00    -0.014 A 
BRANCH  13  14
ATOM     14  C   UNL A   1      42.729  24.637  28.196  1.00  0.00     0.031 A 
ATOM     15  C   UNL A   1      44.156  25.030  28.457  1.00  0.00     0.074 A 
ATOM     16  C   UNL A   1      41.734  25.514  28.431  1.00  0.00     0.049 A 
ATOM     17  N   UNL A   1      44.624  26.177  28.883  1.00  0.00    -0.248 NA
ATOM     18  C   UNL A   1      45.193  24.015  28.216  1.00  0.00     0.031 C 
ATOM     19  C   UNL A   1      40.308  25.239  28.228  1.00  0.00     0.029 A 
ATOM     20  N   UNL A   1      41.761  26.821  28.842  1.00  0.00    -0.354 N 
ATOM     21  C   UNL A   1      46.002  26.020  28.973  1.00  0.00     0.074 A 
ATOM     22  C   UNL A   1      46.296  24.658  28.579  1.00  0.00     0.031 C 
ATOM     23  C   UNL A   1      39.608  26.363  28.436  1.00  0.00     0.029 A 
ATOM     24  C   UNL A   1      40.524  27.420  28.848  1.00  0.00     0.049 A 
ATOM     25  H   UNL A   1      42.588  27.287  29.109  1.00  0.00     0.167 HD
ATOM     26  C   UNL A   1      46.933  26.932  29.342  1.00  0.00     0.037 A 
ATOM     27  C   UNL A   1      40.162  28.680  29.150  1.00  0.00     0.037 A 
ATOM     28  C   UNL A   1      46.637  28.293  29.715  1.00  0.00     0.049 A 
ATOM     29  C   UNL A   1      41.215  29.663  29.562  1.00  0.00     0.074 A 
ATOM     30  C   UNL A   1      47.521  29.294  30.082  1.00  0.00     0.029 A 
ATOM     31  N   UNL A   1      45.367  28.844  29.763  1.00  0.00    -0.354 N 
ATOM     32  N   UNL A   1      42.514  29.500  29.628  1.00  0.00    -0.248 NA
ATOM     33  C   UNL A   1      40.754  31.001  29.954  1.00  0.00     0.031 C 
ATOM     34  C   UNL A   1      46.781  30.441  30.388  1.00  0.00     0.029 A 
ATOM     35  C   UNL A   1      45.441  30.166  30.171  1.00  0.00     0.049 A 
ATOM     36  H   UNL A   1      44.535  28.367  29.541  1.00  0.00     0.167 HD
ATOM     37  C   UNL A   1      43.025  30.713  30.065  1.00  0.00     0.074 A 
ATOM     38  C   UNL A   1      41.901  31.612  30.221  1.00  0.00     0.031 C 
ATOM     39  C   UNL A   1      44.313  31.046  30.325  1.00  0.00     0.037 A 
BRANCH  26  40
ATOM     40  C   UNL A   1      48.371  26.506  29.365  1.00  0.00     0.057 A 
ATOM     41  C   UNL A   1      48.928  25.934  30.517  1.00  0.00     0.134 A 
ATOM     42  C   UNL A   1      49.230  26.764  28.291  1.00  0.00     0.134 A 
ATOM     43  F   UNL A   1      48.160  25.670  31.585  1.00  0.00    -0.206 F 
ATOM     44  C   UNL A   1      50.292  25.651  30.606  1.00  0.00     0.040 A 
ATOM     45  C   UNL A   1      50.593  26.468  28.361  1.00  0.00     0.040 A 
ATOM     46  F   UNL A   1      48.757  27.303  27.157  1.00  0.00    -0.206 F 
ATOM     47  C   UNL A   1      51.129  25.920  29.525  1.00  0.00     0.006 A 
ENDBRANCH  26  40
BRANCH  27  48
ATOM     48  C   UNL A   1      38.736  29.078  29.060  1.00  0.00     0.057 A 
ATOM     49  C   UNL A   1      38.186  29.564  27.868  1.00  0.00     0.134 A 
ATOM     50  C   UNL A   1      37.894  29.004  30.177  1.00  0.00     0.134 A 
ATOM     51  F   UNL A   1      38.944  29.664  26.766  1.00  0.00    -0.206 F 
ATOM     52  C   UNL A   1      36.857  29.979  27.791  1.00  0.00     0.040 A 
ATOM     53  C   UNL A   1      36.555  29.392  30.108  1.00  0.00     0.040 A 
ATOM     54  F   UNL A   1      38.359  28.533  31.343  1.00  0.00    -0.206 F 
ATOM     55  C   UNL A   1      36.036  29.889  28.913  1.00  0.00     0.006 A 
ENDBRANCH  27  48
BRANCH  39  56
ATOM     56  C   UNL A   1      44.571  32.443  30.803  1.00  0.00     0.057 A 
ATOM     57  C   UNL A   1      44.839  33.474  29.894  1.00  0.00     0.134 A 
ATOM     58  C   UNL A   1      44.596  32.756  32.168  1.00  0.00     0.134 A 
ATOM     59  F   UNL A   1      44.839  33.235  28.575  1.00  0.00    -0.206 F 
ATOM     60  C   UNL A   1      45.126  34.768  30.327  1.00  0.00     0.040 A 
ATOM     61  C   UNL A   1      44.859  34.053  32.611  1.00  0.00     0.040 A 
ATOM     62  F   UNL A   1      44.334  31.815  33.087  1.00  0.00    -0.206 F 
ATOM     63  C   UNL A   1      45.132  35.062  31.689  1.00  0.00     0.006 A 
ENDBRANCH  39  56
ENDBRANCH  13  14
ENDBRANCH   6   8
ENDBRANCH   3   4
ENDBRANCH   2   3
ENDBRANCH   1   2
BRANCH   1  64
ATOM     64  C   UNL A   1      36.668  22.108  24.734  1.00  0.00     0.002 C 
BRANCH  64  65
ATOM     65  C   UNL A   1      36.355  23.037  25.912  1.00  0.00     0.021 C 
BRANCH  65  66
ATOM     66  C   UNL A   1      35.217  24.031  25.693  1.00  0.00     0.116 C 
BRANCH  66  67
ATOM     67  N   UNL A   1      34.118  23.840  26.621  1.00  0.00    -0.352 N 
ATOM     68  C   UNL A   1      32.919  23.196  26.433  1.00  0.00     0.251 C 
ATOM     69  H   UNL A   1      34.252  24.226  27.517  1.00  0.00     0.163 HD
ATOM     70  O   UNL A   1      32.098  23.136  27.341  1.00  0.00    -0.269 OA
BRANCH  68  71
ATOM     71  C   UNL A   1      32.630  22.566  25.125  1.00  0.00     0.047 A 
ATOM     72  C   UNL A   1      32.885  21.190  24.988  1.00  0.00     0.017 A 
ATOM     73  C   UNL A   1      32.064  23.311  24.068  1.00  0.00    -0.003 A 
ATOM     74  C   UNL A   1      32.639  20.553  23.774  1.00  0.00     0.040 A 
ATOM     75  C   UNL A   1      31.826  22.641  22.853  1.00  0.00     0.048 A 
ATOM     76  C   UNL A   1      32.120  21.287  22.716  1.00  0.00     0.123 A 
ATOM     77  F   UNL A   1      31.890  20.679  21.546  1.00  0.00    -0.207 F 
BRANCH  73  78
ATOM     78  C   UNL A   1      31.693  24.731  24.187  1.00  0.00    -0.016 A 
ATOM     79  C   UNL A   1      30.451  25.126  24.714  1.00  0.00     0.012 A 
ATOM     80  C   UNL A   1      32.590  25.730  23.763  1.00  0.00     0.032 A 
ATOM     81  C   UNL A   1      30.113  26.480  24.808  1.00  0.00     0.041 A 
ATOM     82  C   UNL A   1      32.252  27.080  23.860  1.00  0.00     0.077 A 
ATOM     83  C   UNL A   1      31.015  27.449  24.380  1.00  0.00     0.141 A 
ATOM     84  Cl  UNL A   1      33.377  28.274  23.336  1.00  0.00    -0.081 Cl
ATOM     85  F   UNL A   1      30.670  28.741  24.483  1.00  0.00    -0.205 F 
ENDBRANCH  73  78
ENDBRANCH  68  71
ENDBRANCH  66  67
ENDBRANCH  65  66
ENDBRANCH  64  65
ENDBRANCH   1  64
TORSDOF 14
ENDMDL
