MODEL 1
REMARK VINA RESULT:      -9.9      0.000      0.000
REMARK SMILES CCCC[C@H](C(=O)NCCCCCCNC(=O)c1ccc(-c2c3nc(c(-c4c(F)cccc4F)c4ccc([nH]4)c(-c4c(F)cccc4F)c4nc(c(-c5c(F)cccc5F)c5ccc2[nH]5)C=C4)C=C3)cc1)c1ccnn1C
REMARK SMILES IDX 11 1 10 2 9 3 8 4 6 5 7 6 5 8 4 9 3 10 2 11 1 12 72 13 73 14
REMARK SMILES IDX 76 15 74 16 75 17 77 18 12 19 13 20 14 21 15 22 16 23 17 25
REMARK SMILES IDX 18 26 19 27 71 28 20 29 70 30 21 31 22 32 23 33 64 34 24 35
REMARK SMILES IDX 69 36 63 37 65 38 25 39 68 40 62 41 61 42 26 44 52 45 35 46
REMARK SMILES IDX 51 47 36 48 39 49 50 50 66 51 37 52 38 53 49 55 67 56 40 57
REMARK SMILES IDX 27 58 28 59 33 60 29 61 30 62 32 63 34 64 31 65 53 66 54 67
REMARK SMILES IDX 59 68 55 69 56 70 58 71 60 72 57 73 41 74 42 75 47 76 43 77
REMARK SMILES IDX 44 78 46 79 48 80 45 81
REMARK H PARENT 8 7 15 24 65 43 39 54
REMARK Flexibility Score: inf
ROOT
ATOM      1  C   UNL A   1      36.380  21.950  24.141  1.00  0.00     0.002 C 
ENDROOT
BRANCH   1   2
ATOM      2  C   UNL A   1      36.747  23.356  24.641  1.00  0.00     0.021 C 
BRANCH   2   3
ATOM      3  C   UNL A   1      35.612  24.096  25.341  1.00  0.00     0.116 C 
BRANCH   3   4
ATOM      4  N   UNL A   1      34.686  24.688  24.397  1.00  0.00    -0.356 N 
ATOM      5  C   UNL A   1      33.633  25.532  24.600  1.00  0.00     0.229 C 
ATOM      6  O   UNL A   1      33.052  25.938  23.592  1.00  0.00    -0.274 OA
ATOM      7  H   UNL A   1      34.841  24.440  23.457  1.00  0.00     0.163 HD
BRANCH   5   8
ATOM      8  C   UNL A   1      33.202  25.903  26.028  1.00  0.00     0.127 C 
BRANCH   8   9
ATOM      9  C   UNL A   1      33.244  27.407  26.415  1.00  0.00     0.020 C 
BRANCH   9  10
ATOM     10  C   UNL A   1      33.929  28.463  25.537  1.00  0.00     0.001 C 
BRANCH  10  11
ATOM     11  C   UNL A   1      33.062  29.363  24.656  1.00  0.00    -0.003 C 
ATOM     12  C   UNL A   1      31.577  29.063  24.742  1.00  0.00     0.004 C 
ENDBRANCH  10  11
ENDBRANCH   9  10
ENDBRANCH   8   9
BRANCH   8  13
ATOM     13  C   UNL A   1      31.835  25.285  26.304  1.00  0.00     0.050 A 
ATOM     14  C   UNL A   1      30.557  25.740  26.019  1.00  0.00     0.046 A 
ATOM     15  N   UNL A   1      31.642  24.035  26.854  1.00  0.00    -0.272 N 
ATOM     16  C   UNL A   1      29.687  24.740  26.474  1.00  0.00     0.135 A 
ATOM     17  N   UNL A   1      30.342  23.715  27.015  1.00  0.00    -0.182 NA
ATOM     18  C   UNL A   1      32.618  23.049  27.254  1.00  0.00     0.174 C 
ENDBRANCH   8  13
ENDBRANCH   5   8
ENDBRANCH   3   4
ENDBRANCH   2   3
ENDBRANCH   1   2
BRANCH   1  19
ATOM     19  C   UNL A   1      36.638  20.802  25.124  1.00  0.00     0.002 C 
BRANCH  19  20
ATOM     20  C   UNL A   1      37.908  19.991  24.869  1.00  0.00     0.021 C 
BRANCH  20  21
ATOM     21  C   UNL A   1      39.077  20.317  25.791  1.00  0.00     0.116 C 
BRANCH  21  22
ATOM     22  N   UNL A   1      40.077  19.263  25.829  1.00  0.00    -0.352 N 
ATOM     23  C   UNL A   1      41.420  19.359  26.106  1.00  0.00     0.251 C 
ATOM     24  H   UNL A   1      39.748  18.357  25.630  1.00  0.00     0.163 HD
ATOM     25  O   UNL A   1      42.156  18.393  25.964  1.00  0.00    -0.269 OA
BRANCH  23  26
ATOM     26  C   UNL A   1      41.977  20.656  26.548  1.00  0.00     0.039 A 
ATOM     27  C   UNL A   1      42.411  21.568  25.584  1.00  0.00     0.014 A 
ATOM     28  C   UNL A   1      42.055  20.975  27.906  1.00  0.00     0.014 A 
ATOM     29  C   UNL A   1      42.865  22.828  25.979  1.00  0.00     0.010 A 
ATOM     30  C   UNL A   1      42.433  22.257  28.294  1.00  0.00     0.010 A 
ATOM     31  C   UNL A   1      42.848  23.194  27.335  1.00  0.00    -0.014 A 
BRANCH  31  32
ATOM     32  C   UNL A   1      43.271  24.548  27.775  1.00  0.00     0.031 A 
ATOM     33  C   UNL A   1      42.235  25.587  28.108  1.00  0.00     0.074 A 
ATOM     34  C   UNL A   1      44.579  24.863  27.810  1.00  0.00     0.049 A 
ATOM     35  N   UNL A   1      42.398  26.846  28.426  1.00  0.00    -0.248 NA
ATOM     36  C   UNL A   1      40.828  25.161  28.046  1.00  0.00     0.031 C 
ATOM     37  C   UNL A   1      45.679  23.958  27.470  1.00  0.00     0.029 A 
ATOM     38  N   UNL A   1      45.208  26.039  28.136  1.00  0.00    -0.354 N 
ATOM     39  C   UNL A   1      41.120  27.364  28.586  1.00  0.00     0.074 A 
ATOM     40  C   UNL A   1      40.190  26.300  28.274  1.00  0.00     0.031 C 
ATOM     41  C   UNL A   1      46.845  24.605  27.627  1.00  0.00     0.029 A 
ATOM     42  C   UNL A   1      46.577  25.980  28.034  1.00  0.00     0.049 A 
ATOM     43  H   UNL A   1      44.724  26.849  28.417  1.00  0.00     0.167 HD
ATOM     44  C   UNL A   1      40.752  28.605  28.981  1.00  0.00     0.037 A 
ATOM     45  C   UNL A   1      47.509  26.930  28.235  1.00  0.00     0.037 A 
ATOM     46  C   UNL A   1      41.679  29.654  29.313  1.00  0.00     0.049 A 
ATOM     47  C   UNL A   1      47.075  28.307  28.657  1.00  0.00     0.074 A 
ATOM     48  C   UNL A   1      41.409  30.930  29.776  1.00  0.00     0.029 A 
ATOM     49  N   UNL A   1      43.059  29.550  29.212  1.00  0.00    -0.354 N 
ATOM     50  N   UNL A   1      45.864  28.765  28.867  1.00  0.00    -0.248 NA
ATOM     51  C   UNL A   1      48.137  29.300  28.877  1.00  0.00     0.031 C 
ATOM     52  C   UNL A   1      42.621  31.614  29.907  1.00  0.00     0.029 A 
ATOM     53  C   UNL A   1      43.651  30.746  29.583  1.00  0.00     0.049 A 
ATOM     54  H   UNL A   1      43.545  28.744  28.922  1.00  0.00     0.167 HD
ATOM     55  C   UNL A   1      46.020  30.083  29.275  1.00  0.00     0.074 A 
ATOM     56  C   UNL A   1      47.444  30.349  29.295  1.00  0.00     0.031 C 
ATOM     57  C   UNL A   1      45.071  30.991  29.608  1.00  0.00     0.037 A 
BRANCH  44  58
ATOM     58  C   UNL A   1      39.282  28.897  29.074  1.00  0.00     0.057 A 
ATOM     59  C   UNL A   1      38.567  28.730  30.268  1.00  0.00     0.134 A 
ATOM     60  C   UNL A   1      38.577  29.382  27.965  1.00  0.00     0.134 A 
ATOM     61  F   UNL A   1      39.178  28.257  31.366  1.00  0.00    -0.206 F 
ATOM     62  C   UNL A   1      37.201  29.006  30.348  1.00  0.00     0.040 A 
ATOM     63  C   UNL A   1      37.217  29.691  28.041  1.00  0.00     0.040 A 
ATOM     64  F   UNL A   1      39.199  29.572  26.792  1.00  0.00    -0.206 F 
ATOM     65  C   UNL A   1      36.523  29.495  29.233  1.00  0.00     0.006 A 
ENDBRANCH  44  58
BRANCH  45  66
ATOM     66  C   UNL A   1      48.949  26.612  28.057  1.00  0.00     0.057 A 
ATOM     67  C   UNL A   1      49.567  26.737  26.807  1.00  0.00     0.134 A 
ATOM     68  C   UNL A   1      49.739  26.164  29.124  1.00  0.00     0.134 A 
ATOM     69  F   UNL A   1      48.860  27.143  25.742  1.00  0.00    -0.206 F 
ATOM     70  C   UNL A   1      50.910  26.405  26.617  1.00  0.00     0.040 A 
ATOM     71  C   UNL A   1      51.090  25.856  28.954  1.00  0.00     0.040 A 
ATOM     72  F   UNL A   1      49.210  26.032  30.349  1.00  0.00    -0.206 F 
ATOM     73  C   UNL A   1      51.677  25.968  27.695  1.00  0.00     0.006 A 
ENDBRANCH  45  66
BRANCH  57  74
ATOM     74  C   UNL A   1      45.538  32.343  30.067  1.00  0.00     0.057 A 
ATOM     75  C   UNL A   1      45.685  33.419  29.183  1.00  0.00     0.134 A 
ATOM     76  C   UNL A   1      45.799  32.580  31.423  1.00  0.00     0.134 A 
ATOM     77  F   UNL A   1      45.463  33.256  27.870  1.00  0.00    -0.206 F 
ATOM     78  C   UNL A   1      46.097  34.676  29.629  1.00  0.00     0.040 A 
ATOM     79  C   UNL A   1      46.182  33.839  31.884  1.00  0.00     0.040 A 
ATOM     80  F   UNL A   1      45.667  31.595  32.325  1.00  0.00    -0.206 F 
ATOM     81  C   UNL A   1      46.339  34.891  30.985  1.00  0.00     0.006 A 
ENDBRANCH  57  74
ENDBRANCH  31  32
ENDBRANCH  23  26
ENDBRANCH  21  22
ENDBRANCH  20  21
ENDBRANCH  19  20
ENDBRANCH   1  19
TORSDOF 17
ENDMDL
MODEL 2
REMARK VINA RESULT:      -9.9      1.224      6.481
REMARK SMILES CCCC[C@H](C(=O)NCCCCCCNC(=O)c1ccc(-c2c3nc(c(-c4c(F)cccc4F)c4ccc([nH]4)c(-c4c(F)cccc4F)c4nc(c(-c5c(F)cccc5F)c5ccc2[nH]5)C=C4)C=C3)cc1)c1ccnn1C
REMARK SMILES IDX 11 1 10 2 9 3 8 4 6 5 7 6 5 8 4 9 3 10 2 11 1 12 72 13 73 14
REMARK SMILES IDX 76 15 74 16 75 17 77 18 12 19 13 20 14 21 15 22 16 23 17 25
REMARK SMILES IDX 18 26 19 27 71 28 20 29 70 30 21 31 22 32 23 33 64 34 24 35
REMARK SMILES IDX 69 36 63 37 65 38 25 39 68 40 62 41 61 42 26 44 52 45 35 46
REMARK SMILES IDX 51 47 36 48 39 49 50 50 66 51 37 52 38 53 49 55 67 56 40 57
REMARK SMILES IDX 27 58 28 59 33 60 29 61 30 62 32 63 34 64 31 65 53 66 54 67
REMARK SMILES IDX 59 68 55 69 56 70 58 71 60 72 57 73 41 74 42 75 47 76 43 77
REMARK SMILES IDX 44 78 46 79 48 80 45 81
REMARK H PARENT 8 7 15 24 65 43 39 54
REMARK Flexibility Score: inf
ROOT
ATOM      1  C   UNL A   1      36.303  22.222  24.897  1.00  0.00     0.002 C 
ENDROOT
BRANCH   1   2
ATOM      2  C   UNL A   1      35.675  22.805  23.622  1.00  0.00     0.021 C 
BRANCH   2   3
ATOM      3  C   UNL A   1      34.195  23.150  23.745  1.00  0.00     0.116 C 
BRANCH   3   4
ATOM      4  N   UNL A   1      33.847  24.332  22.981  1.00  0.00    -0.356 N 
ATOM      5  C   UNL A   1      33.552  25.598  23.395  1.00  0.00     0.229 C 
ATOM      6  O   UNL A   1      33.357  26.434  22.510  1.00  0.00    -0.274 OA
ATOM      7  H   UNL A   1      33.817  24.198  22.006  1.00  0.00     0.163 HD
BRANCH   5   8
ATOM      8  C   UNL A   1      33.442  25.917  24.894  1.00  0.00     0.127 C 
BRANCH   8   9
ATOM      9  C   UNL A   1      33.979  27.295  25.369  1.00  0.00     0.020 C 
BRANCH   9  10
ATOM     10  C   UNL A   1      33.585  27.909  26.720  1.00  0.00     0.001 C 
BRANCH  10  11
ATOM     11  C   UNL A   1      32.875  29.263  26.734  1.00  0.00    -0.003 C 
ATOM     12  C   UNL A   1      32.353  29.700  25.378  1.00  0.00     0.004 C 
ENDBRANCH  10  11
ENDBRANCH   9  10
ENDBRANCH   8   9
BRANCH   8  13
ATOM     13  C   UNL A   1      32.001  25.686  25.340  1.00  0.00     0.050 A 
ATOM     14  C   UNL A   1      30.820  26.296  24.950  1.00  0.00     0.046 A 
ATOM     15  N   UNL A   1      31.606  24.696  26.215  1.00  0.00    -0.272 N 
ATOM     16  C   UNL A   1      29.803  25.652  25.670  1.00  0.00     0.135 A 
ATOM     17  N   UNL A   1      30.282  24.700  26.468  1.00  0.00    -0.182 NA
ATOM     18  C   UNL A   1      32.397  23.677  26.864  1.00  0.00     0.174 C 
ENDBRANCH   8  13
ENDBRANCH   5   8
ENDBRANCH   3   4
ENDBRANCH   2   3
ENDBRANCH   1   2
BRANCH   1  19
ATOM     19  C   UNL A   1      36.266  20.694  25.020  1.00  0.00     0.002 C 
BRANCH  19  20
ATOM     20  C   UNL A   1      37.592  19.981  24.754  1.00  0.00     0.021 C 
BRANCH  20  21
ATOM     21  C   UNL A   1      38.737  20.386  25.674  1.00  0.00     0.116 C 
BRANCH  21  22
ATOM     22  N   UNL A   1      39.804  19.399  25.717  1.00  0.00    -0.352 N 
ATOM     23  C   UNL A   1      41.122  19.569  26.068  1.00  0.00     0.251 C 
ATOM     24  H   UNL A   1      39.547  18.485  25.459  1.00  0.00     0.163 HD
ATOM     25  O   UNL A   1      41.927  18.661  25.920  1.00  0.00    -0.269 OA
BRANCH  23  26
ATOM     26  C   UNL A   1      41.567  20.877  26.598  1.00  0.00     0.039 A 
ATOM     27  C   UNL A   1      42.052  21.836  25.707  1.00  0.00     0.014 A 
ATOM     28  C   UNL A   1      41.488  21.158  27.964  1.00  0.00     0.014 A 
ATOM     29  C   UNL A   1      42.402  23.103  26.180  1.00  0.00     0.010 A 
ATOM     30  C   UNL A   1      41.762  22.444  28.421  1.00  0.00     0.010 A 
ATOM     31  C   UNL A   1      42.227  23.427  27.534  1.00  0.00    -0.014 A 
BRANCH  31  32
ATOM     32  C   UNL A   1      42.536  24.785  28.050  1.00  0.00     0.031 A 
ATOM     33  C   UNL A   1      43.940  25.127  28.470  1.00  0.00     0.074 A 
ATOM     34  C   UNL A   1      41.547  25.684  28.204  1.00  0.00     0.049 A 
ATOM     35  N   UNL A   1      44.394  26.222  29.025  1.00  0.00    -0.248 NA
ATOM     36  C   UNL A   1      44.962  24.088  28.268  1.00  0.00     0.031 C 
ATOM     37  C   UNL A   1      40.138  25.461  27.873  1.00  0.00     0.029 A 
ATOM     38  N   UNL A   1      41.572  26.968  28.692  1.00  0.00    -0.354 N 
ATOM     39  C   UNL A   1      45.746  25.999  29.250  1.00  0.00     0.074 A 
ATOM     40  C   UNL A   1      46.027  24.644  28.827  1.00  0.00     0.031 C 
ATOM     41  C   UNL A   1      39.440  26.575  28.147  1.00  0.00     0.029 A 
ATOM     42  C   UNL A   1      40.340  27.575  28.712  1.00  0.00     0.049 A 
ATOM     43  H   UNL A   1      42.396  27.411  28.998  1.00  0.00     0.167 HD
ATOM     44  C   UNL A   1      46.675  26.852  29.741  1.00  0.00     0.037 A 
ATOM     45  C   UNL A   1      39.975  28.796  29.148  1.00  0.00     0.037 A 
ATOM     46  C   UNL A   1      46.397  28.206  30.139  1.00  0.00     0.049 A 
ATOM     47  C   UNL A   1      41.023  29.719  29.706  1.00  0.00     0.074 A 
ATOM     48  C   UNL A   1      47.279  29.169  30.598  1.00  0.00     0.029 A 
ATOM     49  N   UNL A   1      45.138  28.789  30.129  1.00  0.00    -0.354 N 
ATOM     50  N   UNL A   1      42.310  29.517  29.854  1.00  0.00    -0.248 NA
ATOM     51  C   UNL A   1      40.569  31.045  30.152  1.00  0.00     0.031 C 
ATOM     52  C   UNL A   1      46.547  30.317  30.915  1.00  0.00     0.029 A 
ATOM     53  C   UNL A   1      45.218  30.091  30.596  1.00  0.00     0.049 A 
ATOM     54  H   UNL A   1      44.311  28.344  29.833  1.00  0.00     0.167 HD
ATOM     55  C   UNL A   1      42.824  30.698  30.376  1.00  0.00     0.074 A 
ATOM     56  C   UNL A   1      41.711  31.615  30.509  1.00  0.00     0.031 C 
ATOM     57  C   UNL A   1      44.102  30.996  30.712  1.00  0.00     0.037 A 
BRANCH  44  58
ATOM     58  C   UNL A   1      48.082  26.342  29.877  1.00  0.00     0.057 A 
ATOM     59  C   UNL A   1      49.013  26.451  28.835  1.00  0.00     0.134 A 
ATOM     60  C   UNL A   1      48.521  25.766  31.076  1.00  0.00     0.134 A 
ATOM     61  F   UNL A   1      48.656  26.982  27.656  1.00  0.00    -0.206 F 
ATOM     62  C   UNL A   1      50.320  25.979  28.969  1.00  0.00     0.040 A 
ATOM     63  C   UNL A   1      49.834  25.317  31.233  1.00  0.00     0.040 A 
ATOM     64  F   UNL A   1      47.685  25.636  32.116  1.00  0.00    -0.206 F 
ATOM     65  C   UNL A   1      50.736  25.416  30.174  1.00  0.00     0.006 A 
ENDBRANCH  44  58
BRANCH  45  66
ATOM     66  C   UNL A   1      38.556  29.225  29.061  1.00  0.00     0.057 A 
ATOM     67  C   UNL A   1      38.021  29.714  27.863  1.00  0.00     0.134 A 
ATOM     68  C   UNL A   1      37.704  29.171  30.172  1.00  0.00     0.134 A 
ATOM     69  F   UNL A   1      38.790  29.807  26.769  1.00  0.00    -0.206 F 
ATOM     70  C   UNL A   1      36.699  30.155  27.778  1.00  0.00     0.040 A 
ATOM     71  C   UNL A   1      36.372  29.583  30.093  1.00  0.00     0.040 A 
ATOM     72  F   UNL A   1      38.151  28.704  31.347  1.00  0.00    -0.206 F 
ATOM     73  C   UNL A   1      35.869  30.086  28.895  1.00  0.00     0.006 A 
ENDBRANCH  45  66
BRANCH  57  74
ATOM     74  C   UNL A   1      44.379  32.386  31.211  1.00  0.00     0.057 A 
ATOM     75  C   UNL A   1      44.366  32.702  32.575  1.00  0.00     0.134 A 
ATOM     76  C   UNL A   1      44.711  33.409  30.313  1.00  0.00     0.134 A 
ATOM     77  F   UNL A   1      44.044  31.772  33.486  1.00  0.00    -0.206 F 
ATOM     78  C   UNL A   1      44.649  33.993  33.026  1.00  0.00     0.040 A 
ATOM     79  C   UNL A   1      45.024  34.694  30.754  1.00  0.00     0.040 A 
ATOM     80  F   UNL A   1      44.752  33.170  28.993  1.00  0.00    -0.206 F 
ATOM     81  C   UNL A   1      44.987  34.991  32.114  1.00  0.00     0.006 A 
ENDBRANCH  57  74
ENDBRANCH  31  32
ENDBRANCH  23  26
ENDBRANCH  21  22
ENDBRANCH  20  21
ENDBRANCH  19  20
ENDBRANCH   1  19
TORSDOF 17
ENDMDL
MODEL 3
REMARK VINA RESULT:      -9.9      0.691      6.431
REMARK SMILES CCCC[C@H](C(=O)NCCCCCCNC(=O)c1ccc(-c2c3nc(c(-c4c(F)cccc4F)c4ccc([nH]4)c(-c4c(F)cccc4F)c4nc(c(-c5c(F)cccc5F)c5ccc2[nH]5)C=C4)C=C3)cc1)c1ccnn1C
REMARK SMILES IDX 11 1 10 2 9 3 8 4 6 5 7 6 5 8 4 9 3 10 2 11 1 12 72 13 73 14
REMARK SMILES IDX 76 15 74 16 75 17 77 18 12 19 13 20 14 21 15 22 16 23 17 25
REMARK SMILES IDX 18 26 19 27 71 28 20 29 70 30 21 31 22 32 23 33 64 34 24 35
REMARK SMILES IDX 69 36 63 37 65 38 25 39 68 40 62 41 61 42 26 44 52 45 35 46
REMARK SMILES IDX 51 47 36 48 39 49 50 50 66 51 37 52 38 53 49 55 67 56 40 57
REMARK SMILES IDX 27 58 28 59 33 60 29 61 30 62 32 63 34 64 31 65 53 66 54 67
REMARK SMILES IDX 59 68 55 69 56 70 58 71 60 72 57 73 41 74 42 75 47 76 43 77
REMARK SMILES IDX 44 78 46 79 48 80 45 81
REMARK H PARENT 8 7 15 24 65 43 39 54
REMARK Flexibility Score: inf
ROOT
ATOM      1  C   UNL A   1      36.591  21.827  24.215  1.00  0.00     0.002 C 
ENDROOT
BRANCH   1   2
ATOM      2  C   UNL A   1      37.124  23.054  24.970  1.00  0.00     0.021 C 
BRANCH   2   3
ATOM      3  C   UNL A   1      36.053  24.058  25.384  1.00  0.00     0.116 C 
BRANCH   3   4
ATOM      4  N   UNL A   1      35.064  24.257  24.344  1.00  0.00    -0.356 N 
ATOM      5  C   UNL A   1      33.901  24.971  24.353  1.00  0.00     0.229 C 
ATOM      6  O   UNL A   1      33.280  25.023  23.290  1.00  0.00    -0.274 OA
ATOM      7  H   UNL A   1      35.263  23.803  23.493  1.00  0.00     0.163 HD
BRANCH   5   8
ATOM      8  C   UNL A   1      33.407  25.629  25.650  1.00  0.00     0.127 C 
BRANCH   8   9
ATOM      9  C   UNL A   1      33.227  27.172  25.642  1.00  0.00     0.020 C 
BRANCH   9  10
ATOM     10  C   UNL A   1      33.728  28.064  26.786  1.00  0.00     0.001 C 
BRANCH  10  11
ATOM     11  C   UNL A   1      32.866  29.246  27.229  1.00  0.00    -0.003 C 
ATOM     12  C   UNL A   1      33.614  30.564  27.297  1.00  0.00     0.004 C 
ENDBRANCH  10  11
ENDBRANCH   9  10
ENDBRANCH   8   9
BRANCH   8  13
ATOM     13  C   UNL A   1      32.140  24.913  26.111  1.00  0.00     0.050 A 
ATOM     14  C   UNL A   1      30.804  25.161  25.835  1.00  0.00     0.046 A 
ATOM     15  N   UNL A   1      32.128  23.764  26.873  1.00  0.00    -0.272 N 
ATOM     16  C   UNL A   1      30.086  24.160  26.504  1.00  0.00     0.135 A 
ATOM     17  N   UNL A   1      30.886  23.328  27.167  1.00  0.00    -0.182 NA
ATOM     18  C   UNL A   1      33.236  22.982  27.370  1.00  0.00     0.174 C 
ENDBRANCH   8  13
ENDBRANCH   5   8
ENDBRANCH   3   4
ENDBRANCH   2   3
ENDBRANCH   1   2
BRANCH   1  19
ATOM     19  C   UNL A   1      36.585  20.510  25.001  1.00  0.00     0.002 C 
BRANCH  19  20
ATOM     20  C   UNL A   1      37.848  19.660  24.870  1.00  0.00     0.021 C 
BRANCH  20  21
ATOM     21  C   UNL A   1      39.011  20.093  25.755  1.00  0.00     0.116 C 
BRANCH  21  22
ATOM     22  N   UNL A   1      40.057  19.088  25.846  1.00  0.00    -0.352 N 
ATOM     23  C   UNL A   1      41.400  19.261  26.081  1.00  0.00     0.251 C 
ATOM     24  H   UNL A   1      39.764  18.157  25.721  1.00  0.00     0.163 HD
ATOM     25  O   UNL A   1      42.174  18.319  25.992  1.00  0.00    -0.269 OA
BRANCH  23  26
ATOM     26  C   UNL A   1      41.909  20.610  26.414  1.00  0.00     0.039 A 
ATOM     27  C   UNL A   1      42.274  21.468  25.374  1.00  0.00     0.014 A 
ATOM     28  C   UNL A   1      42.008  21.029  27.742  1.00  0.00     0.014 A 
ATOM     29  C   UNL A   1      42.681  22.772  25.666  1.00  0.00     0.010 A 
ATOM     30  C   UNL A   1      42.338  22.350  28.027  1.00  0.00     0.010 A 
ATOM     31  C   UNL A   1      42.683  23.233  26.992  1.00  0.00    -0.014 A 
BRANCH  31  32
ATOM     32  C   UNL A   1      43.056  24.632  27.323  1.00  0.00     0.031 A 
ATOM     33  C   UNL A   1      44.502  25.045  27.319  1.00  0.00     0.074 A 
ATOM     34  C   UNL A   1      42.104  25.510  27.691  1.00  0.00     0.049 A 
ATOM     35  N   UNL A   1      45.037  26.190  27.662  1.00  0.00    -0.248 NA
ATOM     36  C   UNL A   1      45.479  24.026  26.904  1.00  0.00     0.031 C 
ATOM     37  C   UNL A   1      40.670  25.221  27.775  1.00  0.00     0.029 A 
ATOM     38  N   UNL A   1      42.199  26.824  28.077  1.00  0.00    -0.354 N 
ATOM     39  C   UNL A   1      46.408  26.024  27.518  1.00  0.00     0.074 A 
ATOM     40  C   UNL A   1      46.629  24.652  27.113  1.00  0.00     0.031 C 
ATOM     41  C   UNL A   1      40.021  26.330  28.165  1.00  0.00     0.029 A 
ATOM     42  C   UNL A   1      40.992  27.393  28.401  1.00  0.00     0.049 A 
ATOM     43  H   UNL A   1      43.053  27.313  28.118  1.00  0.00     0.167 HD
ATOM     44  C   UNL A   1      47.394  26.937  27.683  1.00  0.00     0.037 A 
ATOM     45  C   UNL A   1      40.701  28.630  28.849  1.00  0.00     0.037 A 
ATOM     46  C   UNL A   1      47.170  28.306  28.063  1.00  0.00     0.049 A 
ATOM     47  C   UNL A   1      41.815  29.621  29.042  1.00  0.00     0.074 A 
ATOM     48  C   UNL A   1      48.097  29.325  28.204  1.00  0.00     0.029 A 
ATOM     49  N   UNL A   1      45.930  28.849  28.367  1.00  0.00    -0.354 N 
ATOM     50  N   UNL A   1      43.103  29.469  28.840  1.00  0.00    -0.248 NA
ATOM     51  C   UNL A   1      41.438  30.960  29.518  1.00  0.00     0.031 C 
ATOM     52  C   UNL A   1      47.424  30.469  28.643  1.00  0.00     0.029 A 
ATOM     53  C   UNL A   1      46.071  30.181  28.717  1.00  0.00     0.049 A 
ATOM     54  H   UNL A   1      45.076  28.359  28.337  1.00  0.00     0.167 HD
ATOM     55  C   UNL A   1      43.682  30.698  29.130  1.00  0.00     0.074 A 
ATOM     56  C   UNL A   1      42.605  31.588  29.511  1.00  0.00     0.031 C 
ATOM     57  C   UNL A   1      44.987  31.058  29.083  1.00  0.00     0.037 A 
BRANCH  44  58
ATOM     58  C   UNL A   1      48.807  26.481  27.456  1.00  0.00     0.057 A 
ATOM     59  C   UNL A   1      49.608  26.001  28.501  1.00  0.00     0.134 A 
ATOM     60  C   UNL A   1      49.364  26.490  26.170  1.00  0.00     0.134 A 
ATOM     61  F   UNL A   1      49.141  25.976  29.759  1.00  0.00    -0.206 F 
ATOM     62  C   UNL A   1      50.919  25.575  28.282  1.00  0.00     0.040 A 
ATOM     63  C   UNL A   1      50.664  26.038  25.934  1.00  0.00     0.040 A 
ATOM     64  F   UNL A   1      48.652  26.930  25.122  1.00  0.00    -0.206 F 
ATOM     65  C   UNL A   1      51.449  25.586  26.993  1.00  0.00     0.006 A 
ENDBRANCH  44  58
BRANCH  45  66
ATOM     66  C   UNL A   1      39.293  29.009  29.132  1.00  0.00     0.057 A 
ATOM     67  C   UNL A   1      38.748  28.859  30.413  1.00  0.00     0.134 A 
ATOM     68  C   UNL A   1      38.455  29.516  28.131  1.00  0.00     0.134 A 
ATOM     69  F   UNL A   1      39.494  28.361  31.410  1.00  0.00    -0.206 F 
ATOM     70  C   UNL A   1      37.416  29.176  30.684  1.00  0.00     0.040 A 
ATOM     71  C   UNL A   1      37.129  29.864  28.395  1.00  0.00     0.040 A 
ATOM     72  F   UNL A   1      38.918  29.693  26.885  1.00  0.00    -0.206 F 
ATOM     73  C   UNL A   1      36.603  29.685  29.673  1.00  0.00     0.006 A 
ENDBRANCH  45  66
BRANCH  57  74
ATOM     74  C   UNL A   1      45.323  32.487  29.405  1.00  0.00     0.057 A 
ATOM     75  C   UNL A   1      45.690  32.892  30.693  1.00  0.00     0.134 A 
ATOM     76  C   UNL A   1      45.322  33.459  28.397  1.00  0.00     0.134 A 
ATOM     77  F   UNL A   1      45.698  32.013  31.707  1.00  0.00    -0.206 F 
ATOM     78  C   UNL A   1      46.022  34.219  30.973  1.00  0.00     0.040 A 
ATOM     79  C   UNL A   1      45.682  34.781  28.657  1.00  0.00     0.040 A 
ATOM     80  F   UNL A   1      44.991  33.135  27.136  1.00  0.00    -0.206 F 
ATOM     81  C   UNL A   1      46.026  35.166  29.950  1.00  0.00     0.006 A 
ENDBRANCH  57  74
ENDBRANCH  31  32
ENDBRANCH  23  26
ENDBRANCH  21  22
ENDBRANCH  20  21
ENDBRANCH  19  20
ENDBRANCH   1  19
TORSDOF 17
ENDMDL
