MODEL 1
REMARK VINA RESULT:     -11.7      0.000      0.000
REMARK SMILES N#C[C@H]1CN(c2cc(C(=O)NCCCCCCNC(=O)c3ccc(-c4c5nc(c(-c6c(F)cccc6F)c6ccc([nH]6)c(-c6c(F)cccc6F)c6nc(c(-c7c(F)cccc7F)c7ccc4[nH]7)C=C6)C=C5)cc3)c(N)cc2F)CCO1
REMARK SMILES IDX 14 1 13 2 12 3 11 4 9 5 10 6 8 8 6 9 7 10 78 11 77 12 79 13
REMARK SMILES IDX 75 14 5 15 3 16 4 17 82 18 81 19 80 20 2 21 1 22 76 23 15 26
REMARK SMILES IDX 16 27 17 28 18 29 19 30 20 32 21 33 22 34 74 35 23 36 73 37
REMARK SMILES IDX 24 38 25 39 26 40 67 41 27 42 72 43 66 44 68 45 28 46 71 47
REMARK SMILES IDX 65 48 64 49 29 51 55 52 38 53 54 54 39 55 42 56 53 57 69 58
REMARK SMILES IDX 40 59 41 60 52 62 70 63 43 64 30 65 31 66 36 67 32 68 33 69
REMARK SMILES IDX 35 70 37 71 34 72 56 73 57 74 62 75 58 76 59 77 61 78 63 79
REMARK SMILES IDX 60 80 44 81 45 82 50 83 46 84 47 85 49 86 51 87 48 88
REMARK H PARENT 11 7 76 24 76 25 18 31 68 50 42 61
REMARK Flexibility Score: inf
ROOT
ATOM      1  C   UNL A   1      37.092  21.704  24.401  1.00  0.00     0.002 C 
ENDROOT
BRANCH   1   2
ATOM      2  C   UNL A   1      37.333  22.851  25.387  1.00  0.00     0.021 C 
BRANCH   2   3
ATOM      3  C   UNL A   1      36.095  23.593  25.871  1.00  0.00     0.116 C 
BRANCH   3   4
ATOM      4  N   UNL A   1      35.369  22.953  26.947  1.00  0.00    -0.352 N 
ATOM      5  C   UNL A   1      34.298  22.089  26.900  1.00  0.00     0.253 C 
ATOM      6  O   UNL A   1      33.882  21.645  27.972  1.00  0.00    -0.269 OA
ATOM      7  H   UNL A   1      35.692  23.168  27.852  1.00  0.00     0.163 HD
BRANCH   5   8
ATOM      8  C   UNL A   1      33.576  21.722  25.637  1.00  0.00     0.065 A 
ATOM      9  C   UNL A   1      32.538  22.637  23.600  1.00  0.00     0.074 A 
ATOM     10  C   UNL A   1      33.245  22.815  24.795  1.00  0.00     0.045 A 
ATOM     11  C   UNL A   1      32.328  21.319  23.181  1.00  0.00     0.148 A 
ATOM     12  C   UNL A   1      32.632  20.233  23.990  1.00  0.00     0.067 A 
ATOM     13  F   UNL A   1      31.757  21.076  21.989  1.00  0.00    -0.205 F 
ATOM     14  C   UNL A   1      33.139  20.432  25.276  1.00  0.00     0.047 A 
BRANCH   9  15
ATOM     15  N   UNL A   1      31.987  23.706  22.929  1.00  0.00    -0.363 N 
ATOM     16  C   UNL A   1      30.780  25.736  23.625  1.00  0.00     0.240 C 
ATOM     17  C   UNL A   1      30.653  24.248  23.207  1.00  0.00     0.164 C 
ATOM     18  O   UNL A   1      31.540  26.495  22.649  1.00  0.00    -0.360 OA
ATOM     19  C   UNL A   1      32.867  25.957  22.506  1.00  0.00     0.183 C 
ATOM     20  C   UNL A   1      32.822  24.504  22.021  1.00  0.00     0.145 C 
BRANCH  16  21
ATOM     21  C   UNL A   1      29.437  26.327  23.776  1.00  0.00     0.096 C 
ATOM     22  N   UNL A   1      28.383  26.799  23.876  1.00  0.00    -0.195 NA
ENDBRANCH  16  21
ENDBRANCH   9  15
BRANCH  14  23
ATOM     23  N   UNL A   1      33.141  19.331  26.126  1.00  0.00    -0.398 N 
ATOM     24  H   UNL A   1      33.983  19.028  26.536  1.00  0.00     0.156 HD
ATOM     25  H   UNL A   1      32.301  18.854  26.315  1.00  0.00     0.156 HD
ENDBRANCH  14  23
ENDBRANCH   5   8
ENDBRANCH   3   4
ENDBRANCH   2   3
ENDBRANCH   1   2
BRANCH   1  26
ATOM     26  C   UNL A   1      36.894  20.308  24.999  1.00  0.00     0.002 C 
BRANCH  26  27
ATOM     27  C   UNL A   1      38.116  19.387  25.001  1.00  0.00     0.021 C 
BRANCH  27  28
ATOM     28  C   UNL A   1      39.290  19.854  25.851  1.00  0.00     0.116 C 
BRANCH  28  29
ATOM     29  N   UNL A   1      40.379  18.894  25.886  1.00  0.00    -0.352 N 
ATOM     30  C   UNL A   1      41.725  19.106  26.057  1.00  0.00     0.251 C 
ATOM     31  H   UNL A   1      40.114  17.953  25.769  1.00  0.00     0.163 HD
ATOM     32  O   UNL A   1      42.521  18.185  25.903  1.00  0.00    -0.269 OA
BRANCH  30  33
ATOM     33  C   UNL A   1      42.218  20.456  26.402  1.00  0.00     0.039 A 
ATOM     34  C   UNL A   1      42.620  21.311  25.373  1.00  0.00     0.014 A 
ATOM     35  C   UNL A   1      42.279  20.880  27.732  1.00  0.00     0.014 A 
ATOM     36  C   UNL A   1      43.024  22.614  25.674  1.00  0.00     0.010 A 
ATOM     37  C   UNL A   1      42.595  22.203  28.022  1.00  0.00     0.010 A 
ATOM     38  C   UNL A   1      42.978  23.082  26.998  1.00  0.00    -0.014 A 
BRANCH  38  39
ATOM     39  C   UNL A   1      43.331  24.485  27.333  1.00  0.00     0.031 A 
ATOM     40  C   UNL A   1      44.767  24.931  27.297  1.00  0.00     0.074 A 
ATOM     41  C   UNL A   1      42.370  25.342  27.725  1.00  0.00     0.049 A 
ATOM     42  N   UNL A   1      45.282  26.093  27.611  1.00  0.00    -0.248 NA
ATOM     43  C   UNL A   1      45.759  23.927  26.882  1.00  0.00     0.031 C 
ATOM     44  C   UNL A   1      40.945  25.025  27.830  1.00  0.00     0.029 A 
ATOM     45  N   UNL A   1      42.447  26.657  28.112  1.00  0.00    -0.354 N 
ATOM     46  C   UNL A   1      46.653  25.958  27.434  1.00  0.00     0.074 A 
ATOM     47  C   UNL A   1      46.895  24.580  27.062  1.00  0.00     0.031 C 
ATOM     48  C   UNL A   1      40.277  26.124  28.215  1.00  0.00     0.029 A 
ATOM     49  C   UNL A   1      41.230  27.208  28.433  1.00  0.00     0.049 A 
ATOM     50  H   UNL A   1      43.293  27.157  28.154  1.00  0.00     0.167 HD
ATOM     51  C   UNL A   1      47.620  26.900  27.544  1.00  0.00     0.037 A 
ATOM     52  C   UNL A   1      40.919  28.446  28.860  1.00  0.00     0.037 A 
ATOM     53  C   UNL A   1      47.374  28.268  27.920  1.00  0.00     0.049 A 
ATOM     54  C   UNL A   1      42.016  29.459  29.038  1.00  0.00     0.074 A 
ATOM     55  C   UNL A   1      48.278  29.309  28.032  1.00  0.00     0.029 A 
ATOM     56  N   UNL A   1      46.131  28.781  28.264  1.00  0.00    -0.354 N 
ATOM     57  N   UNL A   1      43.302  29.336  28.813  1.00  0.00    -0.248 NA
ATOM     58  C   UNL A   1      41.617  30.785  29.530  1.00  0.00     0.031 C 
ATOM     59  C   UNL A   1      47.595  30.434  28.505  1.00  0.00     0.029 A 
ATOM     60  C   UNL A   1      46.249  30.116  28.618  1.00  0.00     0.049 A 
ATOM     61  H   UNL A   1      45.287  28.273  28.255  1.00  0.00     0.167 HD
ATOM     62  C   UNL A   1      43.859  30.577  29.094  1.00  0.00     0.074 A 
ATOM     63  C   UNL A   1      42.769  31.439  29.501  1.00  0.00     0.031 C 
ATOM     64  C   UNL A   1      45.156  30.967  29.017  1.00  0.00     0.037 A 
BRANCH  51  65
ATOM     65  C   UNL A   1      49.034  26.466  27.265  1.00  0.00     0.057 A 
ATOM     66  C   UNL A   1      49.571  26.474  25.969  1.00  0.00     0.134 A 
ATOM     67  C   UNL A   1      49.867  26.028  28.302  1.00  0.00     0.134 A 
ATOM     68  F   UNL A   1      48.828  26.873  24.925  1.00  0.00    -0.206 F 
ATOM     69  C   UNL A   1      50.863  26.013  25.709  1.00  0.00     0.040 A 
ATOM     70  C   UNL A   1      51.175  25.601  28.059  1.00  0.00     0.040 A 
ATOM     71  F   UNL A   1      49.427  26.005  29.568  1.00  0.00    -0.206 F 
ATOM     72  C   UNL A   1      51.671  25.579  26.758  1.00  0.00     0.006 A 
ENDBRANCH  51  65
BRANCH  52  73
ATOM     73  C   UNL A   1      39.501  28.808  29.115  1.00  0.00     0.057 A 
ATOM     74  C   UNL A   1      38.933  28.632  30.384  1.00  0.00     0.134 A 
ATOM     75  C   UNL A   1      38.683  29.340  28.112  1.00  0.00     0.134 A 
ATOM     76  F   UNL A   1      39.660  28.112  31.382  1.00  0.00    -0.206 F 
ATOM     77  C   UNL A   1      37.599  28.953  30.638  1.00  0.00     0.040 A 
ATOM     78  C   UNL A   1      37.355  29.692  28.360  1.00  0.00     0.040 A 
ATOM     79  F   UNL A   1      39.169  29.542  26.877  1.00  0.00    -0.206 F 
ATOM     80  C   UNL A   1      36.808  29.492  29.625  1.00  0.00     0.006 A 
ENDBRANCH  52  73
BRANCH  64  81
ATOM     81  C   UNL A   1      45.465  32.405  29.331  1.00  0.00     0.057 A 
ATOM     82  C   UNL A   1      45.862  32.823  30.608  1.00  0.00     0.134 A 
ATOM     83  C   UNL A   1      45.405  33.379  28.325  1.00  0.00     0.134 A 
ATOM     84  F   UNL A   1      45.929  31.947  31.622  1.00  0.00    -0.206 F 
ATOM     85  C   UNL A   1      46.161  34.160  30.878  1.00  0.00     0.040 A 
ATOM     86  C   UNL A   1      45.736  34.711  28.575  1.00  0.00     0.040 A 
ATOM     87  F   UNL A   1      45.043  33.047  27.076  1.00  0.00    -0.206 F 
ATOM     88  C   UNL A   1      46.107  35.107  29.857  1.00  0.00     0.006 A 
ENDBRANCH  64  81
ENDBRANCH  38  39
ENDBRANCH  30  33
ENDBRANCH  28  29
ENDBRANCH  27  28
ENDBRANCH  26  27
ENDBRANCH   1  26
TORSDOF 16
ENDMDL
MODEL 2
REMARK VINA RESULT:     -11.5      0.476      6.078
REMARK SMILES N#C[C@H]1CN(c2cc(C(=O)NCCCCCCNC(=O)c3ccc(-c4c5nc(c(-c6c(F)cccc6F)c6ccc([nH]6)c(-c6c(F)cccc6F)c6nc(c(-c7c(F)cccc7F)c7ccc4[nH]7)C=C6)C=C5)cc3)c(N)cc2F)CCO1
REMARK SMILES IDX 14 1 13 2 12 3 11 4 9 5 10 6 8 8 6 9 7 10 78 11 77 12 79 13
REMARK SMILES IDX 75 14 5 15 3 16 4 17 82 18 81 19 80 20 2 21 1 22 76 23 15 26
REMARK SMILES IDX 16 27 17 28 18 29 19 30 20 32 21 33 22 34 74 35 23 36 73 37
REMARK SMILES IDX 24 38 25 39 26 40 67 41 27 42 72 43 66 44 68 45 28 46 71 47
REMARK SMILES IDX 65 48 64 49 29 51 55 52 38 53 54 54 39 55 42 56 53 57 69 58
REMARK SMILES IDX 40 59 41 60 52 62 70 63 43 64 30 65 31 66 36 67 32 68 33 69
REMARK SMILES IDX 35 70 37 71 34 72 56 73 57 74 62 75 58 76 59 77 61 78 63 79
REMARK SMILES IDX 60 80 44 81 45 82 50 83 46 84 47 85 49 86 51 87 48 88
REMARK H PARENT 11 7 76 24 76 25 18 31 68 50 42 61
REMARK Flexibility Score: inf
ROOT
ATOM      1  C   UNL A   1      37.046  21.898  24.429  1.00  0.00     0.002 C 
ENDROOT
BRANCH   1   2
ATOM      2  C   UNL A   1      37.226  23.022  25.453  1.00  0.00     0.021 C 
BRANCH   2   3
ATOM      3  C   UNL A   1      35.952  23.685  25.956  1.00  0.00     0.116 C 
BRANCH   3   4
ATOM      4  N   UNL A   1      35.259  22.976  27.010  1.00  0.00    -0.352 N 
ATOM      5  C   UNL A   1      34.233  22.060  26.934  1.00  0.00     0.253 C 
ATOM      6  O   UNL A   1      33.839  21.562  27.991  1.00  0.00    -0.269 OA
ATOM      7  H   UNL A   1      35.569  23.179  27.922  1.00  0.00     0.163 HD
BRANCH   5   8
ATOM      8  C   UNL A   1      33.532  21.696  25.658  1.00  0.00     0.065 A 
ATOM      9  C   UNL A   1      32.506  22.617  23.617  1.00  0.00     0.074 A 
ATOM     10  C   UNL A   1      33.196  22.792  24.823  1.00  0.00     0.045 A 
ATOM     11  C   UNL A   1      32.320  21.300  23.183  1.00  0.00     0.148 A 
ATOM     12  C   UNL A   1      32.630  20.211  23.984  1.00  0.00     0.067 A 
ATOM     13  F   UNL A   1      31.768  21.061  21.981  1.00  0.00    -0.205 F 
ATOM     14  C   UNL A   1      33.118  20.404  25.279  1.00  0.00     0.047 A 
BRANCH   9  15
ATOM     15  N   UNL A   1      31.949  23.685  22.950  1.00  0.00    -0.363 N 
ATOM     16  C   UNL A   1      30.705  25.691  23.651  1.00  0.00     0.240 C 
ATOM     17  C   UNL A   1      30.605  24.205  23.217  1.00  0.00     0.164 C 
ATOM     18  O   UNL A   1      31.467  26.470  22.692  1.00  0.00    -0.360 OA
ATOM     19  C   UNL A   1      32.802  25.952  22.560  1.00  0.00     0.183 C 
ATOM     20  C   UNL A   1      32.784  24.503  22.061  1.00  0.00     0.145 C 
BRANCH  16  21
ATOM     21  C   UNL A   1      29.352  26.261  23.792  1.00  0.00     0.096 C 
ATOM     22  N   UNL A   1      28.297  26.728  23.899  1.00  0.00    -0.195 NA
ENDBRANCH  16  21
ENDBRANCH   9  15
BRANCH  14  23
ATOM     23  N   UNL A   1      33.125  19.294  26.117  1.00  0.00    -0.398 N 
ATOM     24  H   UNL A   1      32.572  18.509  25.900  1.00  0.00     0.156 HD
ATOM     25  H   UNL A   1      33.682  19.294  26.928  1.00  0.00     0.156 HD
ENDBRANCH  14  23
ENDBRANCH   5   8
ENDBRANCH   3   4
ENDBRANCH   2   3
ENDBRANCH   1   2
BRANCH   1  26
ATOM     26  C   UNL A   1      36.885  20.479  24.980  1.00  0.00     0.002 C 
BRANCH  26  27
ATOM     27  C   UNL A   1      38.112  19.568  24.889  1.00  0.00     0.021 C 
BRANCH  27  28
ATOM     28  C   UNL A   1      39.309  19.992  25.729  1.00  0.00     0.116 C 
BRANCH  28  29
ATOM     29  N   UNL A   1      40.305  18.942  25.863  1.00  0.00    -0.352 N 
ATOM     30  C   UNL A   1      41.652  19.043  26.110  1.00  0.00     0.251 C 
ATOM     31  H   UNL A   1      39.964  18.024  25.762  1.00  0.00     0.163 HD
ATOM     32  O   UNL A   1      42.370  18.051  26.037  1.00  0.00    -0.269 OA
BRANCH  30  33
ATOM     33  C   UNL A   1      42.242  20.357  26.439  1.00  0.00     0.039 A 
ATOM     34  C   UNL A   1      42.816  21.115  25.415  1.00  0.00     0.014 A 
ATOM     35  C   UNL A   1      42.226  20.844  27.749  1.00  0.00     0.014 A 
ATOM     36  C   UNL A   1      43.317  22.388  25.695  1.00  0.00     0.010 A 
ATOM     37  C   UNL A   1      42.644  22.145  28.008  1.00  0.00     0.010 A 
ATOM     38  C   UNL A   1      43.200  22.929  26.986  1.00  0.00    -0.014 A 
BRANCH  38  39
ATOM     39  C   UNL A   1      43.659  24.308  27.290  1.00  0.00     0.031 A 
ATOM     40  C   UNL A   1      42.671  25.353  27.731  1.00  0.00     0.074 A 
ATOM     41  C   UNL A   1      44.952  24.637  27.113  1.00  0.00     0.049 A 
ATOM     42  N   UNL A   1      42.865  26.622  27.985  1.00  0.00    -0.248 NA
ATOM     43  C   UNL A   1      41.273  24.918  27.876  1.00  0.00     0.031 C 
ATOM     44  C   UNL A   1      46.004  23.724  26.661  1.00  0.00     0.029 A 
ATOM     45  N   UNL A   1      45.604  25.832  27.290  1.00  0.00    -0.354 N 
ATOM     46  C   UNL A   1      41.618  27.135  28.316  1.00  0.00     0.074 A 
ATOM     47  C   UNL A   1      40.663  26.059  28.153  1.00  0.00     0.031 C 
ATOM     48  C   UNL A   1      47.174  24.381  26.633  1.00  0.00     0.029 A 
ATOM     49  C   UNL A   1      46.948  25.771  27.016  1.00  0.00     0.049 A 
ATOM     50  H   UNL A   1      45.150  26.654  27.585  1.00  0.00     0.167 HD
ATOM     51  C   UNL A   1      41.298  28.380  28.743  1.00  0.00     0.037 A 
ATOM     52  C   UNL A   1      47.892  26.730  27.062  1.00  0.00     0.037 A 
ATOM     53  C   UNL A   1      42.250  29.449  28.897  1.00  0.00     0.049 A 
ATOM     54  C   UNL A   1      47.503  28.123  27.476  1.00  0.00     0.074 A 
ATOM     55  C   UNL A   1      42.036  30.738  29.351  1.00  0.00     0.029 A 
ATOM     56  N   UNL A   1      43.600  29.356  28.584  1.00  0.00    -0.354 N 
ATOM     57  N   UNL A   1      46.331  28.582  27.842  1.00  0.00    -0.248 NA
ATOM     58  C   UNL A   1      48.573  29.131  27.485  1.00  0.00     0.031 C 
ATOM     59  C   UNL A   1      43.240  31.443  29.251  1.00  0.00     0.029 A 
ATOM     60  C   UNL A   1      44.224  30.573  28.805  1.00  0.00     0.049 A 
ATOM     61  H   UNL A   1      44.049  28.543  28.255  1.00  0.00     0.167 HD
ATOM     62  C   UNL A   1      46.529  29.920  28.164  1.00  0.00     0.074 A 
ATOM     63  C   UNL A   1      47.935  30.194  27.955  1.00  0.00     0.031 C 
ATOM     64  C   UNL A   1      45.626  30.835  28.598  1.00  0.00     0.037 A 
BRANCH  51  65
ATOM     65  C   UNL A   1      39.850  28.646  29.056  1.00  0.00     0.057 A 
ATOM     66  C   UNL A   1      38.954  29.117  28.085  1.00  0.00     0.134 A 
ATOM     67  C   UNL A   1      39.346  28.438  30.346  1.00  0.00     0.134 A 
ATOM     68  F   UNL A   1      39.369  29.348  26.830  1.00  0.00    -0.206 F 
ATOM     69  C   UNL A   1      37.627  29.420  28.397  1.00  0.00     0.040 A 
ATOM     70  C   UNL A   1      38.011  28.700  30.661  1.00  0.00     0.040 A 
ATOM     71  F   UNL A   1      40.140  27.978  31.323  1.00  0.00    -0.206 F 
ATOM     72  C   UNL A   1      37.151  29.207  29.689  1.00  0.00     0.006 A 
ENDBRANCH  51  65
BRANCH  52  73
ATOM     73  C   UNL A   1      49.304  26.398  26.742  1.00  0.00     0.057 A 
ATOM     74  C   UNL A   1      50.150  25.850  27.714  1.00  0.00     0.134 A 
ATOM     75  C   UNL A   1      49.842  26.614  25.467  1.00  0.00     0.134 A 
ATOM     76  F   UNL A   1      49.698  25.635  28.958  1.00  0.00    -0.206 F 
ATOM     77  C   UNL A   1      51.483  25.545  27.436  1.00  0.00     0.040 A 
ATOM     78  C   UNL A   1      51.166  26.287  25.168  1.00  0.00     0.040 A 
ATOM     79  F   UNL A   1      49.082  27.128  24.489  1.00  0.00    -0.206 F 
ATOM     80  C   UNL A   1      51.992  25.758  26.157  1.00  0.00     0.006 A 
ENDBRANCH  52  73
BRANCH  64  81
ATOM     81  C   UNL A   1      46.140  32.210  28.926  1.00  0.00     0.057 A 
ATOM     82  C   UNL A   1      46.615  32.547  30.200  1.00  0.00     0.134 A 
ATOM     83  C   UNL A   1      46.199  33.199  27.935  1.00  0.00     0.134 A 
ATOM     84  F   UNL A   1      46.577  31.653  31.200  1.00  0.00    -0.206 F 
ATOM     85  C   UNL A   1      47.104  33.824  30.483  1.00  0.00     0.040 A 
ATOM     86  C   UNL A   1      46.717  34.468  28.196  1.00  0.00     0.040 A 
ATOM     87  F   UNL A   1      45.770  32.943  26.689  1.00  0.00    -0.206 F 
ATOM     88  C   UNL A   1      47.165  34.786  29.476  1.00  0.00     0.006 A 
ENDBRANCH  64  81
ENDBRANCH  38  39
ENDBRANCH  30  33
ENDBRANCH  28  29
ENDBRANCH  27  28
ENDBRANCH  26  27
ENDBRANCH   1  26
TORSDOF 16
ENDMDL
MODEL 3
REMARK VINA RESULT:     -11.4      6.006     11.005
REMARK SMILES N#C[C@H]1CN(c2cc(C(=O)NCCCCCCNC(=O)c3ccc(-c4c5nc(c(-c6c(F)cccc6F)c6ccc([nH]6)c(-c6c(F)cccc6F)c6nc(c(-c7c(F)cccc7F)c7ccc4[nH]7)C=C6)C=C5)cc3)c(N)cc2F)CCO1
REMARK SMILES IDX 14 1 13 2 12 3 11 4 9 5 10 6 8 8 6 9 7 10 78 11 77 12 79 13
REMARK SMILES IDX 75 14 5 15 3 16 4 17 82 18 81 19 80 20 2 21 1 22 76 23 15 26
REMARK SMILES IDX 16 27 17 28 18 29 19 30 20 32 21 33 22 34 74 35 23 36 73 37
REMARK SMILES IDX 24 38 25 39 26 40 67 41 27 42 72 43 66 44 68 45 28 46 71 47
REMARK SMILES IDX 65 48 64 49 29 51 55 52 38 53 54 54 39 55 42 56 53 57 69 58
REMARK SMILES IDX 40 59 41 60 52 62 70 63 43 64 30 65 31 66 36 67 32 68 33 69
REMARK SMILES IDX 35 70 37 71 34 72 56 73 57 74 62 75 58 76 59 77 61 78 63 79
REMARK SMILES IDX 60 80 44 81 45 82 50 83 46 84 47 85 49 86 51 87 48 88
REMARK H PARENT 11 7 76 24 76 25 18 31 68 50 42 61
REMARK Flexibility Score: inf
ROOT
ATOM      1  C   UNL A   1      34.442  31.986  28.715  1.00  0.00     0.002 C 
ENDROOT
BRANCH   1   2
ATOM      2  C   UNL A   1      35.397  31.165  27.844  1.00  0.00     0.021 C 
BRANCH   2   3
ATOM      3  C   UNL A   1      34.942  29.757  27.490  1.00  0.00     0.116 C 
BRANCH   3   4
ATOM      4  N   UNL A   1      33.548  29.471  27.752  1.00  0.00    -0.352 N 
ATOM      5  C   UNL A   1      32.693  28.588  27.130  1.00  0.00     0.253 C 
ATOM      6  O   UNL A   1      31.547  28.500  27.575  1.00  0.00    -0.269 OA
ATOM      7  H   UNL A   1      33.149  29.986  28.490  1.00  0.00     0.163 HD
BRANCH   5   8
ATOM      8  C   UNL A   1      33.058  27.792  25.911  1.00  0.00     0.065 A 
ATOM      9  C   UNL A   1      33.655  25.543  25.106  1.00  0.00     0.074 A 
ATOM     10  C   UNL A   1      33.273  26.409  26.138  1.00  0.00     0.045 A 
ATOM     11  C   UNL A   1      33.642  26.065  23.808  1.00  0.00     0.148 A 
ATOM     12  C   UNL A   1      33.445  27.415  23.560  1.00  0.00     0.067 A 
ATOM     13  F   UNL A   1      33.888  25.261  22.760  1.00  0.00    -0.205 F 
ATOM     14  C   UNL A   1      33.280  28.310  24.620  1.00  0.00     0.047 A 
BRANCH   9  15
ATOM     15  N   UNL A   1      34.122  24.275  25.373  1.00  0.00    -0.363 N 
ATOM     16  C   UNL A   1      33.590  22.031  24.510  1.00  0.00     0.240 C 
ATOM     17  C   UNL A   1      33.254  23.110  25.573  1.00  0.00     0.164 C 
ATOM     18  O   UNL A   1      35.008  21.724  24.500  1.00  0.00    -0.360 OA
ATOM     19  C   UNL A   1      35.783  22.900  24.203  1.00  0.00     0.183 C 
ATOM     20  C   UNL A   1      35.558  23.988  25.257  1.00  0.00     0.145 C 
BRANCH  16  21
ATOM     21  C   UNL A   1      32.818  20.804  24.785  1.00  0.00     0.096 C 
ATOM     22  N   UNL A   1      32.218  19.841  25.021  1.00  0.00    -0.195 NA
ENDBRANCH  16  21
ENDBRANCH   9  15
BRANCH  14  23
ATOM     23  N   UNL A   1      33.384  29.664  24.318  1.00  0.00    -0.398 N 
ATOM     24  H   UNL A   1      33.308  29.967  23.384  1.00  0.00     0.156 HD
ATOM     25  H   UNL A   1      33.534  30.318  25.037  1.00  0.00     0.156 HD
ENDBRANCH  14  23
ENDBRANCH   5   8
ENDBRANCH   3   4
ENDBRANCH   2   3
ENDBRANCH   1   2
BRANCH   1  26
ATOM     26  C   UNL A   1      34.588  33.509  28.656  1.00  0.00     0.002 C 
BRANCH  26  27
ATOM     27  C   UNL A   1      33.300  34.324  28.789  1.00  0.00     0.021 C 
BRANCH  27  28
ATOM     28  C   UNL A   1      33.477  35.764  29.253  1.00  0.00     0.116 C 
BRANCH  28  29
ATOM     29  N   UNL A   1      32.604  36.112  30.360  1.00  0.00    -0.352 N 
ATOM     30  C   UNL A   1      32.691  35.760  31.685  1.00  0.00     0.251 C 
ATOM     31  H   UNL A   1      31.837  36.684  30.128  1.00  0.00     0.163 HD
ATOM     32  O   UNL A   1      31.773  36.019  32.456  1.00  0.00    -0.269 OA
BRANCH  30  33
ATOM     33  C   UNL A   1      33.885  35.040  32.176  1.00  0.00     0.039 A 
ATOM     34  C   UNL A   1      33.750  33.715  32.597  1.00  0.00     0.014 A 
ATOM     35  C   UNL A   1      35.134  35.666  32.218  1.00  0.00     0.014 A 
ATOM     36  C   UNL A   1      34.879  32.999  33.000  1.00  0.00     0.010 A 
ATOM     37  C   UNL A   1      36.268  34.927  32.534  1.00  0.00     0.010 A 
ATOM     38  C   UNL A   1      36.153  33.587  32.935  1.00  0.00    -0.014 A 
BRANCH  38  39
ATOM     39  C   UNL A   1      37.375  32.821  33.288  1.00  0.00     0.031 A 
ATOM     40  C   UNL A   1      38.105  33.112  34.571  1.00  0.00     0.074 A 
ATOM     41  C   UNL A   1      37.863  31.907  32.429  1.00  0.00     0.049 A 
ATOM     42  N   UNL A   1      39.217  32.594  35.027  1.00  0.00    -0.248 NA
ATOM     43  C   UNL A   1      37.520  34.143  35.442  1.00  0.00     0.031 C 
ATOM     44  C   UNL A   1      37.266  31.554  31.139  1.00  0.00     0.029 A 
ATOM     45  N   UNL A   1      38.976  31.107  32.510  1.00  0.00    -0.354 N 
ATOM     46  C   UNL A   1      39.465  33.238  36.232  1.00  0.00     0.074 A 
ATOM     47  C   UNL A   1      38.431  34.237  36.397  1.00  0.00     0.031 C 
ATOM     48  C   UNL A   1      37.996  30.583  30.569  1.00  0.00     0.029 A 
ATOM     49  C   UNL A   1      39.138  30.280  31.426  1.00  0.00     0.049 A 
ATOM     50  H   UNL A   1      39.597  31.125  33.273  1.00  0.00     0.167 HD
ATOM     51  C   UNL A   1      40.448  33.002  37.135  1.00  0.00     0.037 A 
ATOM     52  C   UNL A   1      40.103  29.382  31.151  1.00  0.00     0.037 A 
ATOM     53  C   UNL A   1      41.478  32.010  36.964  1.00  0.00     0.049 A 
ATOM     54  C   UNL A   1      41.221  29.181  32.136  1.00  0.00     0.074 A 
ATOM     55  C   UNL A   1      42.502  31.670  37.829  1.00  0.00     0.029 A 
ATOM     56  N   UNL A   1      41.625  31.210  35.839  1.00  0.00    -0.354 N 
ATOM     57  N   UNL A   1      41.414  29.755  33.299  1.00  0.00    -0.248 NA
ATOM     58  C   UNL A   1      42.257  28.205  31.769  1.00  0.00     0.031 C 
ATOM     59  C   UNL A   1      43.305  30.712  37.202  1.00  0.00     0.029 A 
ATOM     60  C   UNL A   1      42.740  30.399  35.975  1.00  0.00     0.049 A 
ATOM     61  H   UNL A   1      41.023  31.216  35.058  1.00  0.00     0.167 HD
ATOM     62  C   UNL A   1      42.567  29.181  33.822  1.00  0.00     0.074 A 
ATOM     63  C   UNL A   1      43.025  28.210  32.849  1.00  0.00     0.031 C 
ATOM     64  C   UNL A   1      43.186  29.432  35.003  1.00  0.00     0.037 A 
BRANCH  51  65
ATOM     65  C   UNL A   1      40.453  33.848  38.380  1.00  0.00     0.057 A 
ATOM     66  C   UNL A   1      39.673  33.525  39.501  1.00  0.00     0.134 A 
ATOM     67  C   UNL A   1      41.241  35.003  38.458  1.00  0.00     0.134 A 
ATOM     68  F   UNL A   1      38.888  32.437  39.494  1.00  0.00    -0.206 F 
ATOM     69  C   UNL A   1      39.637  34.347  40.629  1.00  0.00     0.040 A 
ATOM     70  C   UNL A   1      41.242  35.812  39.596  1.00  0.00     0.040 A 
ATOM     71  F   UNL A   1      42.020  35.368  37.430  1.00  0.00    -0.206 F 
ATOM     72  C   UNL A   1      40.427  35.493  40.680  1.00  0.00     0.006 A 
ENDBRANCH  51  65
BRANCH  52  73
ATOM     73  C   UNL A   1      40.036  28.578  29.903  1.00  0.00     0.057 A 
ATOM     74  C   UNL A   1      39.298  27.388  29.856  1.00  0.00     0.134 A 
ATOM     75  C   UNL A   1      40.695  28.974  28.733  1.00  0.00     0.134 A 
ATOM     76  F   UNL A   1      38.658  26.948  30.948  1.00  0.00    -0.206 F 
ATOM     77  C   UNL A   1      39.235  26.612  28.698  1.00  0.00     0.040 A 
ATOM     78  C   UNL A   1      40.617  28.222  27.560  1.00  0.00     0.040 A 
ATOM     79  F   UNL A   1      41.411  30.108  28.709  1.00  0.00    -0.206 F 
ATOM     80  C   UNL A   1      39.891  27.033  27.543  1.00  0.00     0.006 A 
ENDBRANCH  52  73
BRANCH  64  81
ATOM     81  C   UNL A   1      44.400  28.610  35.335  1.00  0.00     0.057 A 
ATOM     82  C   UNL A   1      45.691  28.990  34.944  1.00  0.00     0.134 A 
ATOM     83  C   UNL A   1      44.277  27.441  36.098  1.00  0.00     0.134 A 
ATOM     84  F   UNL A   1      45.881  30.092  34.202  1.00  0.00    -0.206 F 
ATOM     85  C   UNL A   1      46.810  28.223  35.276  1.00  0.00     0.040 A 
ATOM     86  C   UNL A   1      45.391  26.685  36.465  1.00  0.00     0.040 A 
ATOM     87  F   UNL A   1      43.072  27.023  36.515  1.00  0.00    -0.206 F 
ATOM     88  C   UNL A   1      46.661  27.072  36.047  1.00  0.00     0.006 A 
ENDBRANCH  64  81
ENDBRANCH  38  39
ENDBRANCH  30  33
ENDBRANCH  28  29
ENDBRANCH  27  28
ENDBRANCH  26  27
ENDBRANCH   1  26
TORSDOF 16
ENDMDL
