MODEL 1
REMARK VINA RESULT:     -13.1      0.000      0.000
REMARK SMILES O=C(NCCCCCCNC(=O)[C@@H]1CCCC[C@@H]1C(=O)N1CCN(C(=O)c2sc3cc([N+](=O)[O-])ccc3c2Cl)CC1)c1ccc(-c2c3nc(c(-c4c(F)cccc4F)c4ccc([nH]4)c(-c4c(F)cccc4F)c4nc(c(-c5c(F)cccc5F)c5ccc2[nH]5)C=C4)C=C3)cc1
REMARK SMILES IDX 7 1 6 2 5 3 4 4 3 5 1 6 2 7 42 9 43 10 95 11 44 12 94 13
REMARK SMILES IDX 45 14 46 15 47 16 88 17 48 18 93 19 87 20 89 21 49 22 92 23
REMARK SMILES IDX 86 24 85 25 50 27 76 28 59 29 75 30 60 31 63 32 74 33 90 34
REMARK SMILES IDX 61 35 62 36 73 38 91 39 64 40 51 41 52 42 57 43 53 44 54 45
REMARK SMILES IDX 56 46 58 47 55 48 77 49 78 50 83 51 79 52 80 53 82 54 84 55
REMARK SMILES IDX 81 56 65 57 66 58 71 59 67 60 68 61 70 62 72 63 69 64 8 65
REMARK SMILES IDX 9 66 10 67 11 68 12 70 13 71 14 72 18 73 15 74 17 75 16 76
REMARK SMILES IDX 19 77 20 78 21 79 22 80 41 81 23 82 40 83 24 84 25 85 26 86
REMARK SMILES IDX 27 87 28 88 38 89 29 90 37 91 39 92 30 93 36 94 31 95 35 96
REMARK SMILES IDX 32 97 33 98 34 99
REMARK H PARENT 3 8 89 26 63 37 10 69
REMARK Flexibility Score: inf
ROOT
ATOM      1  C   UNL A   1      40.854  21.268  27.433  1.00  0.00     0.002 C 
ENDROOT
BRANCH   1   2
ATOM      2  C   UNL A   1      42.263  20.687  27.598  1.00  0.00     0.002 C 
BRANCH   2   3
ATOM      3  C   UNL A   1      42.609  19.325  26.981  1.00  0.00     0.021 C 
BRANCH   3   4
ATOM      4  C   UNL A   1      42.903  19.341  25.491  1.00  0.00     0.116 C 
BRANCH   4   5
ATOM      5  N   UNL A   1      44.300  19.000  25.151  1.00  0.00    -0.352 N 
ATOM      6  O   UNL A   1      46.298  19.339  24.087  1.00  0.00    -0.269 OA
ATOM      7  C   UNL A   1      45.306  19.800  24.603  1.00  0.00     0.251 C 
ATOM      8  H   UNL A   1      44.560  18.070  25.340  1.00  0.00     0.163 HD
BRANCH   7   9
ATOM      9  C   UNL A   1      45.127  21.256  24.729  1.00  0.00     0.039 A 
ATOM     10  C   UNL A   1      44.130  22.001  24.092  1.00  0.00     0.014 A 
ATOM     11  C   UNL A   1      45.890  21.803  25.734  1.00  0.00     0.014 A 
ATOM     12  C   UNL A   1      43.870  23.281  24.584  1.00  0.00     0.010 A 
ATOM     13  C   UNL A   1      45.275  22.765  26.460  1.00  0.00     0.010 A 
ATOM     14  C   UNL A   1      44.449  23.645  25.808  1.00  0.00    -0.014 A 
BRANCH  14  15
ATOM     15  C   UNL A   1      44.240  24.890  26.524  1.00  0.00     0.031 A 
ATOM     16  C   UNL A   1      45.316  25.881  26.342  1.00  0.00     0.074 A 
ATOM     17  C   UNL A   1      43.075  25.186  27.153  1.00  0.00     0.049 A 
ATOM     18  N   UNL A   1      46.272  26.132  27.167  1.00  0.00    -0.248 NA
ATOM     19  C   UNL A   1      45.467  26.526  25.031  1.00  0.00     0.031 C 
ATOM     20  C   UNL A   1      41.789  24.458  27.179  1.00  0.00     0.029 A 
ATOM     21  N   UNL A   1      42.787  26.281  27.902  1.00  0.00    -0.354 N 
ATOM     22  C   UNL A   1      47.022  27.143  26.582  1.00  0.00     0.074 A 
ATOM     23  C   UNL A   1      46.615  27.188  25.201  1.00  0.00     0.031 C 
ATOM     24  C   UNL A   1      40.821  25.231  27.714  1.00  0.00     0.029 A 
ATOM     25  C   UNL A   1      41.450  26.410  28.263  1.00  0.00     0.049 A 
ATOM     26  H   UNL A   1      43.473  26.935  28.169  1.00  0.00     0.167 HD
ATOM     27  C   UNL A   1      47.720  28.013  27.362  1.00  0.00     0.037 A 
ATOM     28  C   UNL A   1      40.909  27.409  28.999  1.00  0.00     0.037 A 
ATOM     29  C   UNL A   1      47.805  27.520  28.720  1.00  0.00     0.049 A 
ATOM     30  C   UNL A   1      42.025  28.038  29.750  1.00  0.00     0.074 A 
ATOM     31  C   UNL A   1      48.348  26.395  29.311  1.00  0.00     0.029 A 
ATOM     32  N   UNL A   1      46.897  28.016  29.629  1.00  0.00    -0.354 N 
ATOM     33  N   UNL A   1      42.684  27.427  30.696  1.00  0.00    -0.248 NA
ATOM     34  C   UNL A   1      42.737  29.129  29.099  1.00  0.00     0.031 C 
ATOM     35  C   UNL A   1      47.401  26.007  30.308  1.00  0.00     0.029 A 
ATOM     36  C   UNL A   1      46.377  26.956  30.331  1.00  0.00     0.049 A 
ATOM     37  H   UNL A   1      46.661  28.963  29.753  1.00  0.00     0.167 HD
ATOM     38  C   UNL A   1      44.016  27.757  30.478  1.00  0.00     0.074 A 
ATOM     39  C   UNL A   1      43.976  28.866  29.524  1.00  0.00     0.031 C 
ATOM     40  C   UNL A   1      45.027  26.915  30.853  1.00  0.00     0.037 A 
BRANCH  27  41
ATOM     41  C   UNL A   1      47.974  29.460  27.021  1.00  0.00     0.057 A 
ATOM     42  C   UNL A   1      46.973  30.440  26.872  1.00  0.00     0.134 A 
ATOM     43  C   UNL A   1      49.285  29.959  27.140  1.00  0.00     0.134 A 
ATOM     44  F   UNL A   1      45.673  30.143  26.792  1.00  0.00    -0.206 F 
ATOM     45  C   UNL A   1      47.246  31.811  26.898  1.00  0.00     0.040 A 
ATOM     46  C   UNL A   1      49.562  31.328  27.216  1.00  0.00     0.040 A 
ATOM     47  F   UNL A   1      50.329  29.128  27.271  1.00  0.00    -0.206 F 
ATOM     48  C   UNL A   1      48.538  32.260  27.112  1.00  0.00     0.006 A 
ENDBRANCH  27  41
BRANCH  28  49
ATOM     49  C   UNL A   1      39.571  28.023  28.864  1.00  0.00     0.057 A 
ATOM     50  C   UNL A   1      39.256  28.844  27.766  1.00  0.00     0.134 A 
ATOM     51  C   UNL A   1      38.669  28.053  29.935  1.00  0.00     0.134 A 
ATOM     52  F   UNL A   1      40.084  28.941  26.715  1.00  0.00    -0.206 F 
ATOM     53  C   UNL A   1      38.126  29.668  27.746  1.00  0.00     0.040 A 
ATOM     54  C   UNL A   1      37.532  28.874  29.929  1.00  0.00     0.040 A 
ATOM     55  F   UNL A   1      38.902  27.329  31.039  1.00  0.00    -0.206 F 
ATOM     56  C   UNL A   1      37.267  29.696  28.837  1.00  0.00     0.006 A 
ENDBRANCH  28  49
BRANCH  40  57
ATOM     57  C   UNL A   1      44.661  25.727  31.709  1.00  0.00     0.057 A 
ATOM     58  C   UNL A   1      44.672  25.869  33.100  1.00  0.00     0.134 A 
ATOM     59  C   UNL A   1      44.429  24.434  31.214  1.00  0.00     0.134 A 
ATOM     60  F   UNL A   1      44.944  27.059  33.655  1.00  0.00    -0.206 F 
ATOM     61  C   UNL A   1      44.449  24.786  33.956  1.00  0.00     0.040 A 
ATOM     62  C   UNL A   1      44.174  23.347  32.057  1.00  0.00     0.040 A 
ATOM     63  F   UNL A   1      44.492  24.172  29.904  1.00  0.00    -0.206 F 
ATOM     64  C   UNL A   1      44.188  23.521  33.436  1.00  0.00     0.006 A 
ENDBRANCH  40  57
ENDBRANCH  14  15
ENDBRANCH   7   9
ENDBRANCH   4   5
ENDBRANCH   3   4
ENDBRANCH   2   3
ENDBRANCH   1   2
BRANCH   1  65
ATOM     65  C   UNL A   1      40.137  21.214  26.079  1.00  0.00     0.021 C 
BRANCH  65  66
ATOM     66  C   UNL A   1      38.613  21.335  26.044  1.00  0.00     0.116 C 
BRANCH  66  67
ATOM     67  N   UNL A   1      38.105  22.690  26.014  1.00  0.00    -0.356 N 
ATOM     68  C   UNL A   1      36.811  23.128  25.969  1.00  0.00     0.223 C 
ATOM     69  H   UNL A   1      38.789  23.397  26.028  1.00  0.00     0.163 HD
ATOM     70  O   UNL A   1      36.632  24.342  26.083  1.00  0.00    -0.275 OA
BRANCH  68  71
ATOM     71  C   UNL A   1      35.656  22.157  25.710  1.00  0.00     0.091 C 
ATOM     72  C   UNL A   1      36.036  21.071  24.685  1.00  0.00     0.014 C 
ATOM     73  C   UNL A   1      34.276  22.744  25.360  1.00  0.00     0.091 C 
ATOM     74  C   UNL A   1      35.027  19.923  24.707  1.00  0.00     0.001 C 
ATOM     75  C   UNL A   1      33.240  21.596  25.420  1.00  0.00     0.014 C 
ATOM     76  C   UNL A   1      33.589  20.399  24.531  1.00  0.00     0.001 C 
BRANCH  73  77
ATOM     77  C   UNL A   1      34.144  23.524  24.031  1.00  0.00     0.226 C 
ATOM     78  O   UNL A   1      34.435  23.050  22.937  1.00  0.00    -0.275 OA
ATOM     79  N   UNL A   1      33.444  24.713  24.128  1.00  0.00    -0.339 N 
ATOM     80  C   UNL A   1      32.229  24.884  23.335  1.00  0.00     0.141 C 
ATOM     81  C   UNL A   1      34.142  25.977  24.330  1.00  0.00     0.141 C 
ATOM     82  C   UNL A   1      31.278  25.890  24.004  1.00  0.00     0.141 C 
ATOM     83  C   UNL A   1      33.238  26.893  25.151  1.00  0.00     0.141 C 
ATOM     84  N   UNL A   1      31.936  27.125  24.501  1.00  0.00    -0.334 N 
ATOM     85  C   UNL A   1      31.124  28.277  24.621  1.00  0.00     0.265 C 
ATOM     86  O   UNL A   1      29.994  28.253  24.128  1.00  0.00    -0.268 OA
BRANCH  85  87
ATOM     87  C   UNL A   1      31.546  29.417  25.434  1.00  0.00     0.112 A 
ATOM     88  S   UNL A   1      32.744  29.112  26.638  1.00  0.00    -0.128 S 
ATOM     89  C   UNL A   1      31.101  30.718  25.545  1.00  0.00     0.072 A 
ATOM     90  C   UNL A   1      32.881  30.764  27.079  1.00  0.00     0.043 A 
ATOM     91  C   UNL A   1      31.938  31.538  26.398  1.00  0.00     0.012 A 
ATOM     92  Cl  UNL A   1      29.693  31.359  24.791  1.00  0.00    -0.082 Cl
ATOM     93  C   UNL A   1      33.780  31.320  28.019  1.00  0.00     0.105 A 
ATOM     94  C   UNL A   1      31.923  32.934  26.662  1.00  0.00     0.018 A 
ATOM     95  C   UNL A   1      33.718  32.699  28.264  1.00  0.00     0.270 A 
ATOM     96  C   UNL A   1      32.809  33.506  27.582  1.00  0.00     0.086 A 
BRANCH  95  97
ATOM     97  N   UNL A   1      34.609  33.304  29.266  1.00  0.00     0.062 N 
ATOM     98  O   UNL A   1      35.602  33.921  28.858  1.00  0.00    -0.258 OA
ATOM     99  O   UNL A   1      34.313  33.159  30.461  1.00  0.00    -0.258 OA
ENDBRANCH  95  97
ENDBRANCH  85  87
ENDBRANCH  73  77
ENDBRANCH  68  71
ENDBRANCH  66  67
ENDBRANCH  65  66
ENDBRANCH   1  65
TORSDOF 16
ENDMDL
MODEL 2
REMARK VINA RESULT:     -12.8      3.291      8.466
REMARK SMILES O=C(NCCCCCCNC(=O)[C@@H]1CCCC[C@@H]1C(=O)N1CCN(C(=O)c2sc3cc([N+](=O)[O-])ccc3c2Cl)CC1)c1ccc(-c2c3nc(c(-c4c(F)cccc4F)c4ccc([nH]4)c(-c4c(F)cccc4F)c4nc(c(-c5c(F)cccc5F)c5ccc2[nH]5)C=C4)C=C3)cc1
REMARK SMILES IDX 7 1 6 2 5 3 4 4 3 5 1 6 2 7 42 9 43 10 95 11 44 12 94 13
REMARK SMILES IDX 45 14 46 15 47 16 88 17 48 18 93 19 87 20 89 21 49 22 92 23
REMARK SMILES IDX 86 24 85 25 50 27 76 28 59 29 75 30 60 31 63 32 74 33 90 34
REMARK SMILES IDX 61 35 62 36 73 38 91 39 64 40 51 41 52 42 57 43 53 44 54 45
REMARK SMILES IDX 56 46 58 47 55 48 77 49 78 50 83 51 79 52 80 53 82 54 84 55
REMARK SMILES IDX 81 56 65 57 66 58 71 59 67 60 68 61 70 62 72 63 69 64 8 65
REMARK SMILES IDX 9 66 10 67 11 68 12 70 13 71 14 72 18 73 15 74 17 75 16 76
REMARK SMILES IDX 19 77 20 78 21 79 22 80 41 81 23 82 40 83 24 84 25 85 26 86
REMARK SMILES IDX 27 87 28 88 38 89 29 90 37 91 39 92 30 93 36 94 31 95 35 96
REMARK SMILES IDX 32 97 33 98 34 99
REMARK H PARENT 3 8 89 26 63 37 10 69
REMARK Flexibility Score: inf
ROOT
ATOM      1  C   UNL A   1      41.973  29.319  32.278  1.00  0.00     0.002 C 
ENDROOT
BRANCH   1   2
ATOM      2  C   UNL A   1      42.176  28.774  33.696  1.00  0.00     0.002 C 
BRANCH   2   3
ATOM      3  C   UNL A   1      41.405  27.530  34.158  1.00  0.00     0.021 C 
BRANCH   3   4
ATOM      4  C   UNL A   1      42.250  26.438  34.788  1.00  0.00     0.116 C 
BRANCH   4   5
ATOM      5  N   UNL A   1      43.371  26.944  35.608  1.00  0.00    -0.352 N 
ATOM      6  O   UNL A   1      45.504  26.881  36.436  1.00  0.00    -0.269 OA
ATOM      7  C   UNL A   1      44.736  26.654  35.530  1.00  0.00     0.251 C 
ATOM      8  H   UNL A   1      43.118  27.580  36.315  1.00  0.00     0.163 HD
BRANCH   7   9
ATOM      9  C   UNL A   1      45.216  26.098  34.253  1.00  0.00     0.039 A 
ATOM     10  C   UNL A   1      45.219  24.741  33.920  1.00  0.00     0.014 A 
ATOM     11  C   UNL A   1      45.444  27.064  33.302  1.00  0.00     0.014 A 
ATOM     12  C   UNL A   1      45.359  24.410  32.571  1.00  0.00     0.010 A 
ATOM     13  C   UNL A   1      45.061  26.732  32.047  1.00  0.00     0.010 A 
ATOM     14  C   UNL A   1      45.255  25.441  31.627  1.00  0.00    -0.014 A 
BRANCH  14  15
ATOM     15  C   UNL A   1      45.291  25.296  30.184  1.00  0.00     0.031 A 
ATOM     16  C   UNL A   1      46.403  26.008  29.530  1.00  0.00     0.074 A 
ATOM     17  C   UNL A   1      44.485  24.432  29.515  1.00  0.00     0.049 A 
ATOM     18  N   UNL A   1      46.334  27.144  28.928  1.00  0.00    -0.248 NA
ATOM     19  C   UNL A   1      47.772  25.515  29.730  1.00  0.00     0.031 C 
ATOM     20  C   UNL A   1      43.537  23.419  30.023  1.00  0.00     0.029 A 
ATOM     21  N   UNL A   1      44.385  24.256  28.173  1.00  0.00    -0.354 N 
ATOM     22  C   UNL A   1      47.615  27.403  28.460  1.00  0.00     0.074 A 
ATOM     23  C   UNL A   1      48.483  26.493  29.160  1.00  0.00     0.031 C 
ATOM     24  C   UNL A   1      43.135  22.607  29.023  1.00  0.00     0.029 A 
ATOM     25  C   UNL A   1      43.616  23.165  27.780  1.00  0.00     0.049 A 
ATOM     26  H   UNL A   1      44.823  24.856  27.526  1.00  0.00     0.167 HD
ATOM     27  C   UNL A   1      47.793  28.171  27.350  1.00  0.00     0.037 A 
ATOM     28  C   UNL A   1      43.366  22.774  26.508  1.00  0.00     0.037 A 
ATOM     29  C   UNL A   1      46.570  28.868  27.013  1.00  0.00     0.049 A 
ATOM     30  C   UNL A   1      43.619  23.953  25.642  1.00  0.00     0.074 A 
ATOM     31  C   UNL A   1      45.776  29.798  27.655  1.00  0.00     0.029 A 
ATOM     32  N   UNL A   1      45.773  28.307  26.040  1.00  0.00    -0.354 N 
ATOM     33  N   UNL A   1      42.881  25.030  25.669  1.00  0.00    -0.248 NA
ATOM     34  C   UNL A   1      44.973  24.138  25.142  1.00  0.00     0.031 C 
ATOM     35  C   UNL A   1      44.434  29.404  27.366  1.00  0.00     0.029 A 
ATOM     36  C   UNL A   1      44.478  28.310  26.499  1.00  0.00     0.049 A 
ATOM     37  H   UNL A   1      46.077  27.964  25.170  1.00  0.00     0.167 HD
ATOM     38  C   UNL A   1      43.783  26.086  25.600  1.00  0.00     0.074 A 
ATOM     39  C   UNL A   1      45.051  25.471  25.204  1.00  0.00     0.031 C 
ATOM     40  C   UNL A   1      43.496  27.301  26.157  1.00  0.00     0.037 A 
BRANCH  27  41
ATOM     41  C   UNL A   1      48.912  27.996  26.353  1.00  0.00     0.057 A 
ATOM     42  C   UNL A   1      50.027  28.849  26.236  1.00  0.00     0.134 A 
ATOM     43  C   UNL A   1      49.031  26.763  25.686  1.00  0.00     0.134 A 
ATOM     44  F   UNL A   1      50.099  30.037  26.844  1.00  0.00    -0.206 F 
ATOM     45  C   UNL A   1      51.192  28.483  25.558  1.00  0.00     0.040 A 
ATOM     46  C   UNL A   1      50.212  26.367  25.047  1.00  0.00     0.040 A 
ATOM     47  F   UNL A   1      48.032  25.868  25.707  1.00  0.00    -0.206 F 
ATOM     48  C   UNL A   1      51.304  27.222  24.995  1.00  0.00     0.006 A 
ENDBRANCH  27  41
BRANCH  28  49
ATOM     49  C   UNL A   1      43.217  21.398  25.987  1.00  0.00     0.057 A 
ATOM     50  C   UNL A   1      42.007  20.695  26.130  1.00  0.00     0.134 A 
ATOM     51  C   UNL A   1      44.327  20.642  25.593  1.00  0.00     0.134 A 
ATOM     52  F   UNL A   1      40.897  21.310  26.565  1.00  0.00    -0.206 F 
ATOM     53  C   UNL A   1      41.913  19.316  25.921  1.00  0.00     0.040 A 
ATOM     54  C   UNL A   1      44.248  19.259  25.380  1.00  0.00     0.040 A 
ATOM     55  F   UNL A   1      45.530  21.219  25.462  1.00  0.00    -0.206 F 
ATOM     56  C   UNL A   1      43.040  18.589  25.558  1.00  0.00     0.006 A 
ENDBRANCH  28  49
BRANCH  40  57
ATOM     57  C   UNL A   1      42.086  27.527  26.646  1.00  0.00     0.057 A 
ATOM     58  C   UNL A   1      41.307  28.511  26.030  1.00  0.00     0.134 A 
ATOM     59  C   UNL A   1      41.529  26.903  27.774  1.00  0.00     0.134 A 
ATOM     60  F   UNL A   1      41.790  29.195  24.983  1.00  0.00    -0.206 F 
ATOM     61  C   UNL A   1      40.034  28.848  26.499  1.00  0.00     0.040 A 
ATOM     62  C   UNL A   1      40.243  27.208  28.236  1.00  0.00     0.040 A 
ATOM     63  F   UNL A   1      42.228  26.018  28.492  1.00  0.00    -0.206 F 
ATOM     64  C   UNL A   1      39.492  28.189  27.599  1.00  0.00     0.006 A 
ENDBRANCH  40  57
ENDBRANCH  14  15
ENDBRANCH   7   9
ENDBRANCH   4   5
ENDBRANCH   3   4
ENDBRANCH   2   3
ENDBRANCH   1   2
BRANCH   1  65
ATOM     65  C   UNL A   1      41.021  28.622  31.299  1.00  0.00     0.021 C 
BRANCH  65  66
ATOM     66  C   UNL A   1      39.690  29.294  30.957  1.00  0.00     0.116 C 
BRANCH  66  67
ATOM     67  N   UNL A   1      38.567  28.882  31.773  1.00  0.00    -0.356 N 
ATOM     68  C   UNL A   1      38.117  29.405  32.953  1.00  0.00     0.223 C 
ATOM     69  H   UNL A   1      38.054  28.116  31.428  1.00  0.00     0.163 HD
ATOM     70  O   UNL A   1      37.055  28.957  33.388  1.00  0.00    -0.275 OA
BRANCH  68  71
ATOM     71  C   UNL A   1      38.940  30.439  33.724  1.00  0.00     0.091 C 
ATOM     72  C   UNL A   1      38.589  30.450  35.225  1.00  0.00     0.014 C 
ATOM     73  C   UNL A   1      38.982  31.882  33.189  1.00  0.00     0.091 C 
ATOM     74  C   UNL A   1      39.646  31.209  36.027  1.00  0.00     0.001 C 
ATOM     75  C   UNL A   1      40.079  32.648  33.968  1.00  0.00     0.014 C 
ATOM     76  C   UNL A   1      39.900  32.613  35.488  1.00  0.00     0.001 C 
BRANCH  73  77
ATOM     77  C   UNL A   1      37.661  32.686  33.184  1.00  0.00     0.226 C 
ATOM     78  O   UNL A   1      37.352  33.484  34.063  1.00  0.00    -0.275 OA
ATOM     79  N   UNL A   1      36.955  32.626  31.996  1.00  0.00    -0.339 N 
ATOM     80  C   UNL A   1      36.691  33.865  31.269  1.00  0.00     0.141 C 
ATOM     81  C   UNL A   1      35.889  31.649  31.808  1.00  0.00     0.141 C 
ATOM     82  C   UNL A   1      36.512  33.589  29.767  1.00  0.00     0.141 C 
ATOM     83  C   UNL A   1      35.855  31.263  30.332  1.00  0.00     0.141 C 
ATOM     84  N   UNL A   1      35.644  32.427  29.452  1.00  0.00    -0.334 N 
ATOM     85  C   UNL A   1      35.009  32.428  28.189  1.00  0.00     0.265 C 
ATOM     86  O   UNL A   1      35.044  33.460  27.515  1.00  0.00    -0.268 OA
BRANCH  85  87
ATOM     87  C   UNL A   1      34.452  31.200  27.621  1.00  0.00     0.112 A 
ATOM     88  S   UNL A   1      32.765  31.208  27.259  1.00  0.00    -0.128 S 
ATOM     89  C   UNL A   1      34.964  29.938  27.407  1.00  0.00     0.072 A 
ATOM     90  C   UNL A   1      32.799  29.653  26.538  1.00  0.00     0.043 A 
ATOM     91  C   UNL A   1      34.063  29.072  26.672  1.00  0.00     0.012 A 
ATOM     92  Cl  UNL A   1      36.499  29.378  27.947  1.00  0.00    -0.082 Cl
ATOM     93  C   UNL A   1      31.722  28.983  25.911  1.00  0.00     0.105 A 
ATOM     94  C   UNL A   1      34.249  27.773  26.127  1.00  0.00     0.018 A 
ATOM     95  C   UNL A   1      31.944  27.695  25.405  1.00  0.00     0.270 A 
ATOM     96  C   UNL A   1      33.199  27.096  25.495  1.00  0.00     0.086 A 
BRANCH  95  97
ATOM     97  N   UNL A   1      30.835  26.953  24.785  1.00  0.00     0.062 N 
ATOM     98  O   UNL A   1      30.436  27.331  23.675  1.00  0.00    -0.258 OA
ATOM     99  O   UNL A   1      30.364  25.992  25.411  1.00  0.00    -0.258 OA
ENDBRANCH  95  97
ENDBRANCH  85  87
ENDBRANCH  73  77
ENDBRANCH  68  71
ENDBRANCH  66  67
ENDBRANCH  65  66
ENDBRANCH   1  65
TORSDOF 16
ENDMDL
MODEL 3
REMARK VINA RESULT:     -12.4      4.606     10.905
REMARK SMILES O=C(NCCCCCCNC(=O)[C@@H]1CCCC[C@@H]1C(=O)N1CCN(C(=O)c2sc3cc([N+](=O)[O-])ccc3c2Cl)CC1)c1ccc(-c2c3nc(c(-c4c(F)cccc4F)c4ccc([nH]4)c(-c4c(F)cccc4F)c4nc(c(-c5c(F)cccc5F)c5ccc2[nH]5)C=C4)C=C3)cc1
REMARK SMILES IDX 7 1 6 2 5 3 4 4 3 5 1 6 2 7 42 9 43 10 95 11 44 12 94 13
REMARK SMILES IDX 45 14 46 15 47 16 88 17 48 18 93 19 87 20 89 21 49 22 92 23
REMARK SMILES IDX 86 24 85 25 50 27 76 28 59 29 75 30 60 31 63 32 74 33 90 34
REMARK SMILES IDX 61 35 62 36 73 38 91 39 64 40 51 41 52 42 57 43 53 44 54 45
REMARK SMILES IDX 56 46 58 47 55 48 77 49 78 50 83 51 79 52 80 53 82 54 84 55
REMARK SMILES IDX 81 56 65 57 66 58 71 59 67 60 68 61 70 62 72 63 69 64 8 65
REMARK SMILES IDX 9 66 10 67 11 68 12 70 13 71 14 72 18 73 15 74 17 75 16 76
REMARK SMILES IDX 19 77 20 78 21 79 22 80 41 81 23 82 40 83 24 84 25 85 26 86
REMARK SMILES IDX 27 87 28 88 38 89 29 90 37 91 39 92 30 93 36 94 31 95 35 96
REMARK SMILES IDX 32 97 33 98 34 99
REMARK H PARENT 3 8 89 26 63 37 10 69
REMARK Flexibility Score: inf
ROOT
ATOM      1  C   UNL A   1      34.351  31.909  28.220  1.00  0.00     0.002 C 
ENDROOT
BRANCH   1   2
ATOM      2  C   UNL A   1      34.522  33.425  28.060  1.00  0.00     0.002 C 
BRANCH   2   3
ATOM      3  C   UNL A   1      33.548  34.384  28.759  1.00  0.00     0.021 C 
BRANCH   3   4
ATOM      4  C   UNL A   1      34.189  35.589  29.424  1.00  0.00     0.116 C 
BRANCH   4   5
ATOM      5  N   UNL A   1      33.480  36.053  30.635  1.00  0.00    -0.352 N 
ATOM      6  O   UNL A   1      32.536  35.768  32.701  1.00  0.00    -0.269 OA
ATOM      7  C   UNL A   1      33.385  35.460  31.897  1.00  0.00     0.251 C 
ATOM      8  H   UNL A   1      33.003  36.909  30.537  1.00  0.00     0.163 HD
BRANCH   7   9
ATOM      9  C   UNL A   1      34.415  34.462  32.231  1.00  0.00     0.039 A 
ATOM     10  C   UNL A   1      34.267  33.079  32.093  1.00  0.00     0.014 A 
ATOM     11  C   UNL A   1      35.648  35.024  32.469  1.00  0.00     0.014 A 
ATOM     12  C   UNL A   1      35.427  32.303  32.102  1.00  0.00     0.010 A 
ATOM     13  C   UNL A   1      36.698  34.335  31.966  1.00  0.00     0.010 A 
ATOM     14  C   UNL A   1      36.661  32.965  32.017  1.00  0.00    -0.014 A 
BRANCH  14  15
ATOM     15  C   UNL A   1      37.969  32.342  31.932  1.00  0.00     0.031 A 
ATOM     16  C   UNL A   1      38.666  32.219  33.224  1.00  0.00     0.074 A 
ATOM     17  C   UNL A   1      38.429  31.758  30.797  1.00  0.00     0.049 A 
ATOM     18  N   UNL A   1      39.599  32.989  33.666  1.00  0.00    -0.248 NA
ATOM     19  C   UNL A   1      38.150  31.268  34.218  1.00  0.00     0.031 C 
ATOM     20  C   UNL A   1      37.754  31.509  29.506  1.00  0.00     0.029 A 
ATOM     21  N   UNL A   1      39.650  31.205  30.580  1.00  0.00    -0.354 N 
ATOM     22  C   UNL A   1      39.958  32.478  34.905  1.00  0.00     0.074 A 
ATOM     23  C   UNL A   1      38.903  31.572  35.279  1.00  0.00     0.031 C 
ATOM     24  C   UNL A   1      38.491  30.677  28.741  1.00  0.00     0.029 A 
ATOM     25  C   UNL A   1      39.775  30.508  29.382  1.00  0.00     0.049 A 
ATOM     26  H   UNL A   1      40.391  31.289  31.223  1.00  0.00     0.167 HD
ATOM     27  C   UNL A   1      41.220  32.662  35.379  1.00  0.00     0.037 A 
ATOM     28  C   UNL A   1      40.880  29.866  28.937  1.00  0.00     0.037 A 
ATOM     29  C   UNL A   1      41.911  33.670  34.604  1.00  0.00     0.049 A 
ATOM     30  C   UNL A   1      42.033  30.441  29.675  1.00  0.00     0.074 A 
ATOM     31  C   UNL A   1      41.700  35.012  34.351  1.00  0.00     0.029 A 
ATOM     32  N   UNL A   1      42.752  33.232  33.605  1.00  0.00    -0.354 N 
ATOM     33  N   UNL A   1      42.440  31.672  29.518  1.00  0.00    -0.248 NA
ATOM     34  C   UNL A   1      42.390  29.824  30.944  1.00  0.00     0.031 C 
ATOM     35  C   UNL A   1      42.019  35.184  32.969  1.00  0.00     0.029 A 
ATOM     36  C   UNL A   1      42.485  33.964  32.474  1.00  0.00     0.049 A 
ATOM     37  H   UNL A   1      43.425  32.518  33.687  1.00  0.00     0.167 HD
ATOM     38  C   UNL A   1      42.721  32.124  30.802  1.00  0.00     0.074 A 
ATOM     39  C   UNL A   1      42.740  30.917  31.629  1.00  0.00     0.031 C 
ATOM     40  C   UNL A   1      42.615  33.448  31.127  1.00  0.00     0.037 A 
BRANCH  27  41
ATOM     41  C   UNL A   1      41.962  31.684  36.256  1.00  0.00     0.057 A 
ATOM     42  C   UNL A   1      42.357  30.390  35.863  1.00  0.00     0.134 A 
ATOM     43  C   UNL A   1      42.565  32.160  37.434  1.00  0.00     0.134 A 
ATOM     44  F   UNL A   1      41.916  29.804  34.746  1.00  0.00    -0.206 F 
ATOM     45  C   UNL A   1      43.320  29.650  36.554  1.00  0.00     0.040 A 
ATOM     46  C   UNL A   1      43.566  31.448  38.105  1.00  0.00     0.040 A 
ATOM     47  F   UNL A   1      42.262  33.372  37.923  1.00  0.00    -0.206 F 
ATOM     48  C   UNL A   1      43.958  30.194  37.656  1.00  0.00     0.006 A 
ENDBRANCH  27  41
BRANCH  28  49
ATOM     49  C   UNL A   1      40.958  28.615  28.153  1.00  0.00     0.057 A 
ATOM     50  C   UNL A   1      41.531  28.598  26.868  1.00  0.00     0.134 A 
ATOM     51  C   UNL A   1      40.229  27.477  28.518  1.00  0.00     0.134 A 
ATOM     52  F   UNL A   1      42.196  29.662  26.393  1.00  0.00    -0.206 F 
ATOM     53  C   UNL A   1      41.364  27.525  25.987  1.00  0.00     0.040 A 
ATOM     54  C   UNL A   1      40.053  26.394  27.646  1.00  0.00     0.040 A 
ATOM     55  F   UNL A   1      39.618  27.416  29.710  1.00  0.00    -0.206 F 
ATOM     56  C   UNL A   1      40.610  26.422  26.370  1.00  0.00     0.006 A 
ENDBRANCH  28  49
BRANCH  40  57
ATOM     57  C   UNL A   1      42.404  34.427  29.997  1.00  0.00     0.057 A 
ATOM     58  C   UNL A   1      43.513  35.092  29.465  1.00  0.00     0.134 A 
ATOM     59  C   UNL A   1      41.146  34.824  29.517  1.00  0.00     0.134 A 
ATOM     60  F   UNL A   1      44.746  34.813  29.913  1.00  0.00    -0.206 F 
ATOM     61  C   UNL A   1      43.382  36.089  28.493  1.00  0.00     0.040 A 
ATOM     62  C   UNL A   1      41.001  35.798  28.522  1.00  0.00     0.040 A 
ATOM     63  F   UNL A   1      40.019  34.320  30.028  1.00  0.00    -0.206 F 
ATOM     64  C   UNL A   1      42.124  36.438  28.009  1.00  0.00     0.006 A 
ENDBRANCH  40  57
ENDBRANCH  14  15
ENDBRANCH   7   9
ENDBRANCH   4   5
ENDBRANCH   3   4
ENDBRANCH   2   3
ENDBRANCH   1   2
BRANCH   1  65
ATOM     65  C   UNL A   1      33.671  31.077  27.127  1.00  0.00     0.021 C 
BRANCH  65  66
ATOM     66  C   UNL A   1      33.760  29.552  27.196  1.00  0.00     0.116 C 
BRANCH  66  67
ATOM     67  N   UNL A   1      32.540  28.884  27.598  1.00  0.00    -0.356 N 
ATOM     68  C   UNL A   1      31.834  27.909  26.951  1.00  0.00     0.223 C 
ATOM     69  H   UNL A   1      32.166  29.174  28.462  1.00  0.00     0.163 HD
ATOM     70  O   UNL A   1      30.891  27.406  27.566  1.00  0.00    -0.275 OA
BRANCH  68  71
ATOM     71  C   UNL A   1      32.159  27.524  25.506  1.00  0.00     0.091 C 
ATOM     72  C   UNL A   1      30.887  27.213  24.694  1.00  0.00     0.014 C 
ATOM     73  C   UNL A   1      33.213  26.428  25.264  1.00  0.00     0.091 C 
ATOM     74  C   UNL A   1      31.190  27.186  23.195  1.00  0.00     0.001 C 
ATOM     75  C   UNL A   1      33.556  26.420  23.755  1.00  0.00     0.014 C 
ATOM     76  C   UNL A   1      32.339  26.248  22.843  1.00  0.00     0.001 C 
BRANCH  73  77
ATOM     77  C   UNL A   1      32.885  24.997  25.751  1.00  0.00     0.226 C 
ATOM     78  O   UNL A   1      31.750  24.617  26.021  1.00  0.00    -0.275 OA
ATOM     79  N   UNL A   1      33.928  24.095  25.633  1.00  0.00    -0.339 N 
ATOM     80  C   UNL A   1      33.746  22.911  24.798  1.00  0.00     0.141 C 
ATOM     81  C   UNL A   1      34.823  23.836  26.755  1.00  0.00     0.141 C 
ATOM     82  C   UNL A   1      35.097  22.406  24.266  1.00  0.00     0.141 C 
ATOM     83  C   UNL A   1      36.205  23.510  26.193  1.00  0.00     0.141 C 
ATOM     84  N   UNL A   1      36.179  22.353  25.279  1.00  0.00    -0.334 N 
ATOM     85  C   UNL A   1      37.233  21.440  25.042  1.00  0.00     0.265 C 
ATOM     86  O   UNL A   1      37.100  20.613  24.137  1.00  0.00    -0.268 OA
BRANCH  85  87
ATOM     87  C   UNL A   1      38.510  21.560  25.745  1.00  0.00     0.112 A 
ATOM     88  S   UNL A   1      39.019  23.155  26.165  1.00  0.00    -0.128 S 
ATOM     89  C   UNL A   1      39.506  20.661  26.061  1.00  0.00     0.072 A 
ATOM     90  C   UNL A   1      40.395  22.608  27.030  1.00  0.00     0.043 A 
ATOM     91  C   UNL A   1      40.539  21.225  26.907  1.00  0.00     0.012 A 
ATOM     92  Cl  UNL A   1      39.585  19.028  25.522  1.00  0.00    -0.082 Cl
ATOM     93  C   UNL A   1      41.312  23.403  27.756  1.00  0.00     0.105 A 
ATOM     94  C   UNL A   1      41.642  20.619  27.567  1.00  0.00     0.018 A 
ATOM     95  C   UNL A   1      42.398  22.768  28.376  1.00  0.00     0.270 A 
ATOM     96  C   UNL A   1      42.558  21.386  28.298  1.00  0.00     0.086 A 
BRANCH  95  97
ATOM     97  N   UNL A   1      43.394  23.569  29.104  1.00  0.00     0.062 N 
ATOM     98  O   UNL A   1      44.467  23.026  29.401  1.00  0.00    -0.258 OA
ATOM     99  O   UNL A   1      43.100  24.742  29.378  1.00  0.00    -0.258 OA
ENDBRANCH  95  97
ENDBRANCH  85  87
ENDBRANCH  73  77
ENDBRANCH  68  71
ENDBRANCH  66  67
ENDBRANCH  65  66
ENDBRANCH   1  65
TORSDOF 16
ENDMDL
