MODEL 1
REMARK VINA RESULT:     -11.6      0.000      0.000
REMARK SMILES CC1(C)CCC[C@H]1NC(=O)N[C@@H]1COC[C@@]1(C)C(=O)NCCCCCCNC(=O)c1ccc(-c2c3nc(c(-c4c(F)cccc4F)c4ccc([nH]4)c(-c4c(F)cccc4F)c4nc(c(-c5c(F)cccc5F)c5ccc2[nH]5)C=C4)C=C3)cc1
REMARK SMILES IDX 23 1 22 2 21 3 20 4 18 5 19 6 16 8 12 9 13 10 14 11 15 12
REMARK SMILES IDX 17 13 11 14 8 15 9 16 10 18 7 20 1 21 2 22 3 23 4 24 5 25
REMARK SMILES IDX 6 26 24 27 25 28 26 29 27 30 28 31 29 33 30 34 31 35 83 36
REMARK SMILES IDX 32 37 82 38 33 39 34 40 35 41 76 42 36 43 81 44 75 45 77 46
REMARK SMILES IDX 37 47 80 48 74 49 73 50 38 52 64 53 47 54 63 55 48 56 51 57
REMARK SMILES IDX 62 58 78 59 49 60 50 61 61 63 79 64 52 65 39 66 40 67 45 68
REMARK SMILES IDX 41 69 42 70 44 71 46 72 43 73 65 74 66 75 71 76 67 77 68 78
REMARK SMILES IDX 70 79 72 80 69 81 53 82 54 83 59 84 55 85 56 86 58 87 60 88
REMARK SMILES IDX 57 89
REMARK H PARENT 20 7 8 17 11 19 27 32 77 51 51 62
REMARK Flexibility Score: inf
ROOT
ATOM      1  C   UNL A   1      36.277  21.785  24.584  1.00  0.00     0.002 C 
ENDROOT
BRANCH   1   2
ATOM      2  C   UNL A   1      35.856  22.811  25.635  1.00  0.00     0.021 C 
BRANCH   2   3
ATOM      3  C   UNL A   1      34.671  23.707  25.265  1.00  0.00     0.116 C 
BRANCH   3   4
ATOM      4  N   UNL A   1      33.756  24.010  26.351  1.00  0.00    -0.355 N 
ATOM      5  C   UNL A   1      32.467  23.617  26.579  1.00  0.00     0.230 C 
ATOM      6  O   UNL A   1      32.015  23.855  27.703  1.00  0.00    -0.274 OA
ATOM      7  H   UNL A   1      34.130  24.603  27.043  1.00  0.00     0.163 HD
BRANCH   5   8
ATOM      8  C   UNL A   1      31.596  22.991  25.480  1.00  0.00     0.092 C 
ATOM      9  C   UNL A   1      31.448  23.831  24.194  1.00  0.00     0.127 C 
ATOM     10  C   UNL A   1      31.736  22.899  23.021  1.00  0.00     0.186 C 
ATOM     11  O   UNL A   1      31.857  21.583  23.561  1.00  0.00    -0.378 OA
ATOM     12  C   UNL A   1      32.314  21.744  24.915  1.00  0.00     0.179 C 
ATOM     13  C   UNL A   1      30.315  22.523  26.140  1.00  0.00     0.026 C 
BRANCH   9  14
ATOM     14  N   UNL A   1      30.278  24.696  23.985  1.00  0.00    -0.332 N 
ATOM     15  N   UNL A   1      30.524  26.988  24.605  1.00  0.00    -0.335 N 
ATOM     16  C   UNL A   1      29.862  25.952  24.103  1.00  0.00     0.315 C 
ATOM     17  H   UNL A   1      30.080  27.837  24.381  1.00  0.00     0.165 HD
ATOM     18  O   UNL A   1      28.731  26.182  23.661  1.00  0.00    -0.249 OA
ATOM     19  H   UNL A   1      29.539  24.150  23.632  1.00  0.00     0.165 HD
BRANCH  15  20
ATOM     20  C   UNL A   1      31.730  27.214  25.400  1.00  0.00     0.089 C 
ATOM     21  C   UNL A   1      32.353  28.977  23.522  1.00  0.00     0.013 C 
ATOM     22  C   UNL A   1      32.514  28.512  24.980  1.00  0.00    -0.015 C 
ATOM     23  C   UNL A   1      34.027  28.365  25.282  1.00  0.00     0.013 C 
ATOM     24  C   UNL A   1      31.916  29.581  25.908  1.00  0.00     0.008 C 
ATOM     25  C   UNL A   1      31.769  28.870  27.238  1.00  0.00     0.003 C 
ATOM     26  C   UNL A   1      31.316  27.459  26.872  1.00  0.00     0.025 C 
ENDBRANCH  15  20
ENDBRANCH   9  14
ENDBRANCH   5   8
ENDBRANCH   3   4
ENDBRANCH   2   3
ENDBRANCH   1   2
BRANCH   1  27
ATOM     27  C   UNL A   1      36.143  20.320  25.000  1.00  0.00     0.002 C 
BRANCH  27  28
ATOM     28  C   UNL A   1      37.437  19.502  24.952  1.00  0.00     0.021 C 
BRANCH  28  29
ATOM     29  C   UNL A   1      38.658  20.202  25.545  1.00  0.00     0.116 C 
BRANCH  29  30
ATOM     30  N   UNL A   1      39.745  19.267  25.787  1.00  0.00    -0.352 N 
ATOM     31  C   UNL A   1      41.058  19.512  26.102  1.00  0.00     0.251 C 
ATOM     32  H   UNL A   1      39.503  18.315  25.714  1.00  0.00     0.163 HD
ATOM     33  O   UNL A   1      41.894  18.622  25.988  1.00  0.00    -0.269 OA
BRANCH  31  34
ATOM     34  C   UNL A   1      41.470  20.847  26.588  1.00  0.00     0.039 A 
ATOM     35  C   UNL A   1      41.422  21.116  27.959  1.00  0.00     0.014 A 
ATOM     36  C   UNL A   1      41.848  21.848  25.689  1.00  0.00     0.014 A 
ATOM     37  C   UNL A   1      41.798  22.376  28.432  1.00  0.00     0.010 A 
ATOM     38  C   UNL A   1      42.285  23.081  26.166  1.00  0.00     0.010 A 
ATOM     39  C   UNL A   1      42.254  23.360  27.541  1.00  0.00    -0.014 A 
BRANCH  39  40
ATOM     40  C   UNL A   1      42.690  24.694  28.023  1.00  0.00     0.031 A 
ATOM     41  C   UNL A   1      41.672  25.764  28.308  1.00  0.00     0.074 A 
ATOM     42  C   UNL A   1      44.003  24.961  28.145  1.00  0.00     0.049 A 
ATOM     43  N   UNL A   1      41.857  27.008  28.668  1.00  0.00    -0.248 NA
ATOM     44  C   UNL A   1      40.259  25.390  28.142  1.00  0.00     0.031 C 
ATOM     45  C   UNL A   1      45.088  24.022  27.861  1.00  0.00     0.029 A 
ATOM     46  N   UNL A   1      44.649  26.109  28.530  1.00  0.00    -0.354 N 
ATOM     47  C   UNL A   1      40.589  27.569  28.757  1.00  0.00     0.074 A 
ATOM     48  C   UNL A   1      39.647  26.544  28.363  1.00  0.00     0.031 C 
ATOM     49  C   UNL A   1      46.265  24.622  28.103  1.00  0.00     0.029 A 
ATOM     50  C   UNL A   1      46.019  25.998  28.524  1.00  0.00     0.049 A 
ATOM     51  H   UNL A   1      44.177  26.934  28.788  1.00  0.00     0.167 HD
ATOM     52  C   UNL A   1      40.240  28.816  29.154  1.00  0.00     0.037 A 
ATOM     53  C   UNL A   1      46.968  26.905  28.819  1.00  0.00     0.037 A 
ATOM     54  C   UNL A   1      41.180  29.827  29.564  1.00  0.00     0.049 A 
ATOM     55  C   UNL A   1      46.557  28.288  29.242  1.00  0.00     0.074 A 
ATOM     56  C   UNL A   1      40.925  31.104  30.032  1.00  0.00     0.029 A 
ATOM     57  N   UNL A   1      42.559  29.673  29.551  1.00  0.00    -0.354 N 
ATOM     58  N   UNL A   1      45.352  28.787  29.380  1.00  0.00    -0.248 NA
ATOM     59  C   UNL A   1      47.638  29.233  29.554  1.00  0.00     0.031 C 
ATOM     60  C   UNL A   1      42.151  31.736  30.266  1.00  0.00     0.029 A 
ATOM     61  C   UNL A   1      43.169  30.839  29.985  1.00  0.00     0.049 A 
ATOM     62  H   UNL A   1      43.033  28.856  29.275  1.00  0.00     0.167 HD
ATOM     63  C   UNL A   1      45.528  30.091  29.821  1.00  0.00     0.074 A 
ATOM     64  C   UNL A   1      46.957  30.303  29.939  1.00  0.00     0.031 C 
ATOM     65  C   UNL A   1      44.592  31.030  30.103  1.00  0.00     0.037 A 
BRANCH  52  66
ATOM     66  C   UNL A   1      38.777  29.151  29.163  1.00  0.00     0.057 A 
ATOM     67  C   UNL A   1      38.109  29.567  28.003  1.00  0.00     0.134 A 
ATOM     68  C   UNL A   1      38.023  29.041  30.338  1.00  0.00     0.134 A 
ATOM     69  F   UNL A   1      38.775  29.705  26.848  1.00  0.00    -0.206 F 
ATOM     70  C   UNL A   1      36.751  29.891  28.019  1.00  0.00     0.040 A 
ATOM     71  C   UNL A   1      36.657  29.337  30.360  1.00  0.00     0.040 A 
ATOM     72  F   UNL A   1      38.596  28.643  31.482  1.00  0.00    -0.206 F 
ATOM     73  C   UNL A   1      36.020  29.771  29.199  1.00  0.00     0.006 A 
ENDBRANCH  52  66
BRANCH  53  74
ATOM     74  C   UNL A   1      48.401  26.526  28.755  1.00  0.00     0.057 A 
ATOM     75  C   UNL A   1      49.040  25.947  29.857  1.00  0.00     0.134 A 
ATOM     76  C   UNL A   1      49.164  26.730  27.600  1.00  0.00     0.134 A 
ATOM     77  F   UNL A   1      48.366  25.744  30.998  1.00  0.00    -0.206 F 
ATOM     78  C   UNL A   1      50.391  25.598  29.819  1.00  0.00     0.040 A 
ATOM     79  C   UNL A   1      50.510  26.364  27.539  1.00  0.00     0.040 A 
ATOM     80  F   UNL A   1      48.608  27.274  26.508  1.00  0.00    -0.206 F 
ATOM     81  C   UNL A   1      51.128  25.801  28.654  1.00  0.00     0.006 A 
ENDBRANCH  53  74
BRANCH  65  82
ATOM     82  C   UNL A   1      45.082  32.358  30.597  1.00  0.00     0.057 A 
ATOM     83  C   UNL A   1      45.346  33.421  29.725  1.00  0.00     0.134 A 
ATOM     84  C   UNL A   1      45.259  32.586  31.968  1.00  0.00     0.134 A 
ATOM     85  F   UNL A   1      45.210  33.261  28.398  1.00  0.00    -0.206 F 
ATOM     86  C   UNL A   1      45.791  34.658  30.195  1.00  0.00     0.040 A 
ATOM     87  C   UNL A   1      45.679  33.826  32.453  1.00  0.00     0.040 A 
ATOM     88  F   UNL A   1      45.016  31.612  32.858  1.00  0.00    -0.206 F 
ATOM     89  C   UNL A   1      45.951  34.864  31.564  1.00  0.00     0.006 A 
ENDBRANCH  65  82
ENDBRANCH  39  40
ENDBRANCH  31  34
ENDBRANCH  29  30
ENDBRANCH  28  29
ENDBRANCH  27  28
ENDBRANCH   1  27
TORSDOF 15
ENDMDL
MODEL 2
REMARK VINA RESULT:     -11.6      1.114      6.123
REMARK SMILES CC1(C)CCC[C@H]1NC(=O)N[C@@H]1COC[C@@]1(C)C(=O)NCCCCCCNC(=O)c1ccc(-c2c3nc(c(-c4c(F)cccc4F)c4ccc([nH]4)c(-c4c(F)cccc4F)c4nc(c(-c5c(F)cccc5F)c5ccc2[nH]5)C=C4)C=C3)cc1
REMARK SMILES IDX 23 1 22 2 21 3 20 4 18 5 19 6 16 8 12 9 13 10 14 11 15 12
REMARK SMILES IDX 17 13 11 14 8 15 9 16 10 18 7 20 1 21 2 22 3 23 4 24 5 25
REMARK SMILES IDX 6 26 24 27 25 28 26 29 27 30 28 31 29 33 30 34 31 35 83 36
REMARK SMILES IDX 32 37 82 38 33 39 34 40 35 41 76 42 36 43 81 44 75 45 77 46
REMARK SMILES IDX 37 47 80 48 74 49 73 50 38 52 64 53 47 54 63 55 48 56 51 57
REMARK SMILES IDX 62 58 78 59 49 60 50 61 61 63 79 64 52 65 39 66 40 67 45 68
REMARK SMILES IDX 41 69 42 70 44 71 46 72 43 73 65 74 66 75 71 76 67 77 68 78
REMARK SMILES IDX 70 79 72 80 69 81 53 82 54 83 59 84 55 85 56 86 58 87 60 88
REMARK SMILES IDX 57 89
REMARK H PARENT 20 7 8 17 11 19 27 32 77 51 51 62
REMARK Flexibility Score: inf
ROOT
ATOM      1  C   UNL A   1      37.398  21.850  24.469  1.00  0.00     0.002 C 
ENDROOT
BRANCH   1   2
ATOM      2  C   UNL A   1      37.373  22.889  25.589  1.00  0.00     0.021 C 
BRANCH   2   3
ATOM      3  C   UNL A   1      35.994  23.435  25.972  1.00  0.00     0.116 C 
BRANCH   3   4
ATOM      4  N   UNL A   1      35.186  22.559  26.800  1.00  0.00    -0.355 N 
ATOM      5  C   UNL A   1      33.997  21.931  26.555  1.00  0.00     0.230 C 
ATOM      6  O   UNL A   1      33.657  21.069  27.370  1.00  0.00    -0.274 OA
ATOM      7  H   UNL A   1      35.559  22.388  27.695  1.00  0.00     0.163 HD
BRANCH   5   8
ATOM      8  C   UNL A   1      33.089  22.329  25.380  1.00  0.00     0.092 C 
ATOM      9  C   UNL A   1      32.771  23.834  25.270  1.00  0.00     0.127 C 
ATOM     10  C   UNL A   1      33.033  24.237  23.822  1.00  0.00     0.186 C 
ATOM     11  O   UNL A   1      33.300  23.033  23.102  1.00  0.00    -0.378 OA
ATOM     12  C   UNL A   1      33.853  22.109  24.054  1.00  0.00     0.179 C 
ATOM     13  C   UNL A   1      31.908  21.381  25.391  1.00  0.00     0.026 C 
BRANCH   9  14
ATOM     14  N   UNL A   1      31.524  24.387  25.818  1.00  0.00    -0.332 N 
ATOM     15  N   UNL A   1      31.221  26.745  25.601  1.00  0.00    -0.335 N 
ATOM     16  C   UNL A   1      30.846  25.521  25.955  1.00  0.00     0.315 C 
ATOM     17  H   UNL A   1      30.459  27.368  25.613  1.00  0.00     0.165 HD
ATOM     18  O   UNL A   1      29.717  25.410  26.445  1.00  0.00    -0.249 OA
ATOM     19  H   UNL A   1      31.008  23.658  26.231  1.00  0.00     0.165 HD
BRANCH  15  20
ATOM     20  C   UNL A   1      32.452  27.422  25.200  1.00  0.00     0.089 C 
ATOM     21  C   UNL A   1      30.863  28.918  23.697  1.00  0.00     0.013 C 
ATOM     22  C   UNL A   1      32.197  28.783  24.454  1.00  0.00    -0.015 C 
ATOM     23  C   UNL A   1      33.351  29.099  23.470  1.00  0.00     0.013 C 
ATOM     24  C   UNL A   1      32.219  29.805  25.602  1.00  0.00     0.008 C 
ATOM     25  C   UNL A   1      33.352  29.332  26.490  1.00  0.00     0.003 C 
ATOM     26  C   UNL A   1      33.244  27.810  26.473  1.00  0.00     0.025 C 
ENDBRANCH  15  20
ENDBRANCH   9  14
ENDBRANCH   5   8
ENDBRANCH   3   4
ENDBRANCH   2   3
ENDBRANCH   1   2
BRANCH   1  27
ATOM     27  C   UNL A   1      37.147  20.405  24.901  1.00  0.00     0.002 C 
BRANCH  27  28
ATOM     28  C   UNL A   1      38.381  19.499  24.916  1.00  0.00     0.021 C 
BRANCH  28  29
ATOM     29  C   UNL A   1      39.309  19.703  26.112  1.00  0.00     0.116 C 
BRANCH  29  30
ATOM     30  N   UNL A   1      40.591  19.046  25.912  1.00  0.00    -0.352 N 
ATOM     31  C   UNL A   1      41.855  19.580  25.886  1.00  0.00     0.251 C 
ATOM     32  H   UNL A   1      40.546  18.072  25.773  1.00  0.00     0.163 HD
ATOM     33  O   UNL A   1      42.787  18.932  25.422  1.00  0.00    -0.269 OA
BRANCH  31  34
ATOM     34  C   UNL A   1      42.101  20.935  26.425  1.00  0.00     0.039 A 
ATOM     35  C   UNL A   1      42.043  21.137  27.807  1.00  0.00     0.014 A 
ATOM     36  C   UNL A   1      42.331  22.013  25.567  1.00  0.00     0.014 A 
ATOM     37  C   UNL A   1      42.263  22.414  28.331  1.00  0.00     0.010 A 
ATOM     38  C   UNL A   1      42.614  23.272  26.093  1.00  0.00     0.010 A 
ATOM     39  C   UNL A   1      42.573  23.486  27.479  1.00  0.00    -0.014 A 
BRANCH  39  40
ATOM     40  C   UNL A   1      42.843  24.844  28.014  1.00  0.00     0.031 A 
ATOM     41  C   UNL A   1      44.237  25.232  28.420  1.00  0.00     0.074 A 
ATOM     42  C   UNL A   1      41.823  25.704  28.191  1.00  0.00     0.049 A 
ATOM     43  N   UNL A   1      44.661  26.340  28.972  1.00  0.00    -0.248 NA
ATOM     44  C   UNL A   1      45.292  24.229  28.200  1.00  0.00     0.031 C 
ATOM     45  C   UNL A   1      40.421  25.432  27.874  1.00  0.00     0.029 A 
ATOM     46  N   UNL A   1      41.809  26.980  28.694  1.00  0.00    -0.354 N 
ATOM     47  C   UNL A   1      46.024  26.164  29.177  1.00  0.00     0.074 A 
ATOM     48  C   UNL A   1      46.346  24.823  28.739  1.00  0.00     0.031 C 
ATOM     49  C   UNL A   1      39.685  26.515  28.167  1.00  0.00     0.029 A 
ATOM     50  C   UNL A   1      40.557  27.545  28.726  1.00  0.00     0.049 A 
ATOM     51  H   UNL A   1      42.619  27.448  29.002  1.00  0.00     0.167 HD
ATOM     52  C   UNL A   1      46.929  27.047  29.663  1.00  0.00     0.037 A 
ATOM     53  C   UNL A   1      40.157  28.753  29.162  1.00  0.00     0.037 A 
ATOM     54  C   UNL A   1      46.608  28.387  30.080  1.00  0.00     0.049 A 
ATOM     55  C   UNL A   1      41.177  29.711  29.713  1.00  0.00     0.074 A 
ATOM     56  C   UNL A   1      47.460  29.377  30.538  1.00  0.00     0.029 A 
ATOM     57  N   UNL A   1      45.328  28.925  30.089  1.00  0.00    -0.354 N 
ATOM     58  N   UNL A   1      42.472  29.553  29.845  1.00  0.00    -0.248 NA
ATOM     59  C   UNL A   1      40.679  31.015  30.170  1.00  0.00     0.031 C 
ATOM     60  C   UNL A   1      46.691  30.500  30.862  1.00  0.00     0.029 A 
ATOM     61  C   UNL A   1      45.366  30.226  30.564  1.00  0.00     0.049 A 
ATOM     62  H   UNL A   1      44.515  28.451  29.801  1.00  0.00     0.167 HD
ATOM     63  C   UNL A   1      42.948  30.745  30.374  1.00  0.00     0.074 A 
ATOM     64  C   UNL A   1      41.804  31.622  30.526  1.00  0.00     0.031 C 
ATOM     65  C   UNL A   1      44.218  31.085  30.704  1.00  0.00     0.037 A 
BRANCH  52  66
ATOM     66  C   UNL A   1      48.353  26.586  29.768  1.00  0.00     0.057 A 
ATOM     67  C   UNL A   1      49.275  26.799  28.733  1.00  0.00     0.134 A 
ATOM     68  C   UNL A   1      48.816  25.939  30.920  1.00  0.00     0.134 A 
ATOM     69  F   UNL A   1      48.895  27.402  27.597  1.00  0.00    -0.206 F 
ATOM     70  C   UNL A   1      50.596  26.357  28.829  1.00  0.00     0.040 A 
ATOM     71  C   UNL A   1      50.143  25.516  31.038  1.00  0.00     0.040 A 
ATOM     72  F   UNL A   1      47.991  25.708  31.951  1.00  0.00    -0.206 F 
ATOM     73  C   UNL A   1      51.034  25.718  29.987  1.00  0.00     0.006 A 
ENDBRANCH  52  66
BRANCH  53  74
ATOM     74  C   UNL A   1      38.727  29.139  29.068  1.00  0.00     0.057 A 
ATOM     75  C   UNL A   1      37.883  29.042  30.180  1.00  0.00     0.134 A 
ATOM     76  C   UNL A   1      38.171  29.613  27.874  1.00  0.00     0.134 A 
ATOM     77  F   UNL A   1      38.354  28.577  31.346  1.00  0.00    -0.206 F 
ATOM     78  C   UNL A   1      36.533  29.387  30.105  1.00  0.00     0.040 A 
ATOM     79  C   UNL A   1      36.828  29.985  27.791  1.00  0.00     0.040 A 
ATOM     80  F   UNL A   1      38.929  29.737  26.776  1.00  0.00    -0.206 F 
ATOM     81  C   UNL A   1      36.003  29.867  28.909  1.00  0.00     0.006 A 
ENDBRANCH  53  74
BRANCH  65  82
ATOM     82  C   UNL A   1      44.440  32.472  31.230  1.00  0.00     0.057 A 
ATOM     83  C   UNL A   1      44.681  33.557  30.380  1.00  0.00     0.134 A 
ATOM     84  C   UNL A   1      44.377  32.729  32.607  1.00  0.00     0.134 A 
ATOM     85  F   UNL A   1      44.769  33.373  29.052  1.00  0.00    -0.206 F 
ATOM     86  C   UNL A   1      44.874  34.846  30.879  1.00  0.00     0.040 A 
ATOM     87  C   UNL A   1      44.542  34.018  33.115  1.00  0.00     0.040 A 
ATOM     88  F   UNL A   1      44.141  31.734  33.476  1.00  0.00    -0.206 F 
ATOM     89  C   UNL A   1      44.798  35.079  32.251  1.00  0.00     0.006 A 
ENDBRANCH  65  82
ENDBRANCH  39  40
ENDBRANCH  31  34
ENDBRANCH  29  30
ENDBRANCH  28  29
ENDBRANCH  27  28
ENDBRANCH   1  27
TORSDOF 15
ENDMDL
MODEL 3
REMARK VINA RESULT:     -11.5      3.566      8.832
REMARK SMILES CC1(C)CCC[C@H]1NC(=O)N[C@@H]1COC[C@@]1(C)C(=O)NCCCCCCNC(=O)c1ccc(-c2c3nc(c(-c4c(F)cccc4F)c4ccc([nH]4)c(-c4c(F)cccc4F)c4nc(c(-c5c(F)cccc5F)c5ccc2[nH]5)C=C4)C=C3)cc1
REMARK SMILES IDX 23 1 22 2 21 3 20 4 18 5 19 6 16 8 12 9 13 10 14 11 15 12
REMARK SMILES IDX 17 13 11 14 8 15 9 16 10 18 7 20 1 21 2 22 3 23 4 24 5 25
REMARK SMILES IDX 6 26 24 27 25 28 26 29 27 30 28 31 29 33 30 34 31 35 83 36
REMARK SMILES IDX 32 37 82 38 33 39 34 40 35 41 76 42 36 43 81 44 75 45 77 46
REMARK SMILES IDX 37 47 80 48 74 49 73 50 38 52 64 53 47 54 63 55 48 56 51 57
REMARK SMILES IDX 62 58 78 59 49 60 50 61 61 63 79 64 52 65 39 66 40 67 45 68
REMARK SMILES IDX 41 69 42 70 44 71 46 72 43 73 65 74 66 75 71 76 67 77 68 78
REMARK SMILES IDX 70 79 72 80 69 81 53 82 54 83 59 84 55 85 56 86 58 87 60 88
REMARK SMILES IDX 57 89
REMARK H PARENT 20 7 8 17 11 19 27 32 77 51 51 62
REMARK Flexibility Score: inf
ROOT
ATOM      1  C   UNL A   1      32.339  29.756  26.211  1.00  0.00     0.002 C 
ENDROOT
BRANCH   1   2
ATOM      2  C   UNL A   1      31.808  28.519  26.934  1.00  0.00     0.021 C 
BRANCH   2   3
ATOM      3  C   UNL A   1      31.521  27.297  26.058  1.00  0.00     0.116 C 
BRANCH   3   4
ATOM      4  N   UNL A   1      31.311  27.576  24.649  1.00  0.00    -0.355 N 
ATOM      5  C   UNL A   1      31.505  26.802  23.539  1.00  0.00     0.230 C 
ATOM      6  O   UNL A   1      31.028  27.231  22.485  1.00  0.00    -0.274 OA
ATOM      7  H   UNL A   1      30.970  28.480  24.460  1.00  0.00     0.163 HD
BRANCH   5   8
ATOM      8  C   UNL A   1      32.340  25.513  23.576  1.00  0.00     0.092 C 
ATOM      9  C   UNL A   1      31.610  24.268  24.122  1.00  0.00     0.127 C 
ATOM     10  C   UNL A   1      31.855  23.139  23.125  1.00  0.00     0.186 C 
ATOM     11  O   UNL A   1      32.801  23.628  22.174  1.00  0.00    -0.378 OA
ATOM     12  C   UNL A   1      32.625  25.053  22.128  1.00  0.00     0.179 C 
ATOM     13  C   UNL A   1      33.668  25.861  24.217  1.00  0.00     0.026 C 
BRANCH   9  14
ATOM     14  N   UNL A   1      31.761  23.856  25.525  1.00  0.00    -0.332 N 
ATOM     15  N   UNL A   1      33.778  22.708  26.086  1.00  0.00    -0.335 N 
ATOM     16  C   UNL A   1      32.603  23.262  26.364  1.00  0.00     0.315 C 
ATOM     17  H   UNL A   1      34.292  22.534  26.907  1.00  0.00     0.165 HD
ATOM     18  O   UNL A   1      32.256  23.255  27.550  1.00  0.00    -0.249 OA
ATOM     19  H   UNL A   1      30.949  24.109  26.020  1.00  0.00     0.165 HD
BRANCH  15  20
ATOM     20  C   UNL A   1      34.517  22.286  24.898  1.00  0.00     0.089 C 
ATOM     21  C   UNL A   1      36.347  24.024  25.707  1.00  0.00     0.013 C 
ATOM     22  C   UNL A   1      36.020  22.751  24.906  1.00  0.00    -0.015 C 
ATOM     23  C   UNL A   1      36.549  22.934  23.461  1.00  0.00     0.013 C 
ATOM     24  C   UNL A   1      36.737  21.558  25.559  1.00  0.00     0.008 C 
ATOM     25  C   UNL A   1      36.053  20.347  24.958  1.00  0.00     0.003 C 
ATOM     26  C   UNL A   1      34.580  20.739  24.876  1.00  0.00     0.025 C 
ENDBRANCH  15  20
ENDBRANCH   9  14
ENDBRANCH   5   8
ENDBRANCH   3   4
ENDBRANCH   2   3
ENDBRANCH   1   2
BRANCH   1  27
ATOM     27  C   UNL A   1      31.276  30.724  25.691  1.00  0.00     0.002 C 
BRANCH  27  28
ATOM     28  C   UNL A   1      31.180  32.058  26.438  1.00  0.00     0.021 C 
BRANCH  28  29
ATOM     29  C   UNL A   1      32.454  32.473  27.171  1.00  0.00     0.116 C 
BRANCH  29  30
ATOM     30  N   UNL A   1      32.388  33.857  27.613  1.00  0.00    -0.352 N 
ATOM     31  C   UNL A   1      33.139  34.512  28.557  1.00  0.00     0.251 C 
ATOM     32  H   UNL A   1      31.703  34.407  27.169  1.00  0.00     0.163 HD
ATOM     33  O   UNL A   1      32.761  35.589  29.005  1.00  0.00    -0.269 OA
BRANCH  31  34
ATOM     34  C   UNL A   1      34.411  33.926  29.033  1.00  0.00     0.039 A 
ATOM     35  C   UNL A   1      35.600  34.259  28.378  1.00  0.00     0.014 A 
ATOM     36  C   UNL A   1      34.423  33.008  30.087  1.00  0.00     0.014 A 
ATOM     37  C   UNL A   1      36.808  33.705  28.810  1.00  0.00     0.010 A 
ATOM     38  C   UNL A   1      35.635  32.507  30.558  1.00  0.00     0.010 A 
ATOM     39  C   UNL A   1      36.837  32.843  29.918  1.00  0.00    -0.014 A 
BRANCH  39  40
ATOM     40  C   UNL A   1      38.112  32.269  30.415  1.00  0.00     0.031 A 
ATOM     41  C   UNL A   1      38.631  30.978  29.846  1.00  0.00     0.074 A 
ATOM     42  C   UNL A   1      38.769  32.878  31.419  1.00  0.00     0.049 A 
ATOM     43  N   UNL A   1      39.684  30.283  30.195  1.00  0.00    -0.248 NA
ATOM     44  C   UNL A   1      37.848  30.374  28.757  1.00  0.00     0.031 C 
ATOM     45  C   UNL A   1      38.348  34.113  32.081  1.00  0.00     0.029 A 
ATOM     46  N   UNL A   1      39.928  32.533  32.066  1.00  0.00    -0.354 N 
ATOM     47  C   UNL A   1      39.681  29.157  29.381  1.00  0.00     0.074 A 
ATOM     48  C   UNL A   1      38.494  29.236  28.557  1.00  0.00     0.031 C 
ATOM     49  C   UNL A   1      39.246  34.435  33.025  1.00  0.00     0.029 A 
ATOM     50  C   UNL A   1      40.287  33.411  33.060  1.00  0.00     0.049 A 
ATOM     51  H   UNL A   1      40.455  31.731  31.841  1.00  0.00     0.167 HD
ATOM     52  C   UNL A   1      40.596  28.161  29.309  1.00  0.00     0.037 A 
ATOM     53  C   UNL A   1      41.333  33.391  33.906  1.00  0.00     0.037 A 
ATOM     54  C   UNL A   1      41.786  28.096  30.118  1.00  0.00     0.049 A 
ATOM     55  C   UNL A   1      42.328  32.267  33.818  1.00  0.00     0.074 A 
ATOM     56  C   UNL A   1      42.802  27.157  30.085  1.00  0.00     0.029 A 
ATOM     57  N   UNL A   1      42.118  29.011  31.107  1.00  0.00    -0.354 N 
ATOM     58  N   UNL A   1      42.345  31.240  33.002  1.00  0.00    -0.248 NA
ATOM     59  C   UNL A   1      43.450  32.302  34.766  1.00  0.00     0.031 C 
ATOM     60  C   UNL A   1      43.729  27.481  31.083  1.00  0.00     0.029 A 
ATOM     61  C   UNL A   1      43.313  28.647  31.706  1.00  0.00     0.049 A 
ATOM     62  H   UNL A   1      41.583  29.801  31.348  1.00  0.00     0.167 HD
ATOM     63  C   UNL A   1      43.491  30.523  33.319  1.00  0.00     0.074 A 
ATOM     64  C   UNL A   1      44.149  31.239  34.393  1.00  0.00     0.031 C 
ATOM     65  C   UNL A   1      43.957  29.374  32.770  1.00  0.00     0.037 A 
BRANCH  52  66
ATOM     66  C   UNL A   1      40.342  27.062  28.319  1.00  0.00     0.057 A 
ATOM     67  C   UNL A   1      40.923  27.070  27.043  1.00  0.00     0.134 A 
ATOM     68  C   UNL A   1      39.523  25.974  28.648  1.00  0.00     0.134 A 
ATOM     69  F   UNL A   1      41.708  28.088  26.661  1.00  0.00    -0.206 F 
ATOM     70  C   UNL A   1      40.674  26.052  26.120  1.00  0.00     0.040 A 
ATOM     71  C   UNL A   1      39.288  24.937  27.742  1.00  0.00     0.040 A 
ATOM     72  F   UNL A   1      38.940  25.899  29.853  1.00  0.00    -0.206 F 
ATOM     73  C   UNL A   1      39.858  24.979  26.471  1.00  0.00     0.006 A 
ENDBRANCH  52  66
BRANCH  53  74
ATOM     74  C   UNL A   1      41.512  34.487  34.890  1.00  0.00     0.057 A 
ATOM     75  C   UNL A   1      40.963  34.395  36.174  1.00  0.00     0.134 A 
ATOM     76  C   UNL A   1      42.232  35.646  34.577  1.00  0.00     0.134 A 
ATOM     77  F   UNL A   1      40.246  33.318  36.526  1.00  0.00    -0.206 F 
ATOM     78  C   UNL A   1      41.109  35.423  37.107  1.00  0.00     0.040 A 
ATOM     79  C   UNL A   1      42.407  36.671  35.508  1.00  0.00     0.040 A 
ATOM     80  F   UNL A   1      42.789  35.791  33.366  1.00  0.00    -0.206 F 
ATOM     81  C   UNL A   1      41.839  36.563  36.776  1.00  0.00     0.006 A 
ENDBRANCH  53  74
BRANCH  65  82
ATOM     82  C   UNL A   1      45.254  28.841  33.299  1.00  0.00     0.057 A 
ATOM     83  C   UNL A   1      46.488  29.239  32.773  1.00  0.00     0.134 A 
ATOM     84  C   UNL A   1      45.268  27.942  34.374  1.00  0.00     0.134 A 
ATOM     85  F   UNL A   1      46.542  30.087  31.733  1.00  0.00    -0.206 F 
ATOM     86  C   UNL A   1      47.691  28.746  33.281  1.00  0.00     0.040 A 
ATOM     87  C   UNL A   1      46.465  27.462  34.908  1.00  0.00     0.040 A 
ATOM     88  F   UNL A   1      44.120  27.526  34.930  1.00  0.00    -0.206 F 
ATOM     89  C   UNL A   1      47.681  27.860  34.357  1.00  0.00     0.006 A 
ENDBRANCH  65  82
ENDBRANCH  39  40
ENDBRANCH  31  34
ENDBRANCH  29  30
ENDBRANCH  28  29
ENDBRANCH  27  28
ENDBRANCH   1  27
TORSDOF 15
ENDMDL
