MODEL 1
REMARK VINA RESULT:     -12.2      0.000      0.000
REMARK SMILES CCn1ncc(Br)c1C(=O)N[C@H]1C(=O)N2C(C(=O)NCCCCCCNC(=O)c3ccc(-c4c5nc(c(-c6c(F)cccc6F)c6ccc([nH]6)c(-c6c(F)cccc6F)c6nc(c(-c7c(F)cccc7F)c7ccc4[nH]7)C=C6)C=C5)cc3)=C(C)CS[C@H]12
REMARK SMILES IDX 22 1 21 2 20 3 19 4 17 5 18 6 16 8 12 9 13 10 87 11 14 12
REMARK SMILES IDX 15 13 86 14 85 15 83 16 84 17 11 18 9 19 10 20 8 22 3 23
REMARK SMILES IDX 4 24 5 25 6 26 7 27 2 28 1 29 23 30 24 31 25 32 26 33 27 34
REMARK SMILES IDX 28 36 29 37 30 38 82 39 31 40 81 41 32 42 33 43 34 44 75 45
REMARK SMILES IDX 35 46 80 47 74 48 76 49 36 50 79 51 73 52 72 53 37 55 63 56
REMARK SMILES IDX 46 57 62 58 47 59 50 60 61 61 77 62 48 63 49 64 60 66 78 67
REMARK SMILES IDX 51 68 38 69 39 70 44 71 40 72 41 73 43 74 45 75 42 76 64 77
REMARK SMILES IDX 65 78 70 79 66 80 67 81 69 82 71 83 68 84 52 85 53 86 58 87
REMARK SMILES IDX 54 88 55 89 57 90 59 91 56 92
REMARK H PARENT 19 7 11 21 26 35 76 54 50 65
REMARK Flexibility Score: inf
ROOT
ATOM      1  C   UNL A   1      39.273  21.894  26.227  1.00  0.00     0.002 C 
ENDROOT
BRANCH   1   2
ATOM      2  C   UNL A   1      38.454  20.946  25.347  1.00  0.00     0.021 C 
BRANCH   2   3
ATOM      3  C   UNL A   1      37.018  21.346  25.037  1.00  0.00     0.116 C 
BRANCH   3   4
ATOM      4  N   UNL A   1      36.137  21.382  26.176  1.00  0.00    -0.351 N 
ATOM      5  C   UNL A   1      34.782  21.436  26.281  1.00  0.00     0.268 C 
ATOM      6  O   UNL A   1      34.329  21.333  27.421  1.00  0.00    -0.268 OA
ATOM      7  H   UNL A   1      36.604  21.365  27.043  1.00  0.00     0.163 HD
BRANCH   5   8
ATOM      8  C   UNL A   1      33.845  21.706  25.114  1.00  0.00     0.110 C 
ATOM      9  C   UNL A   1      33.018  24.941  24.550  1.00  0.00     0.206 C 
ATOM     10  C   UNL A   1      34.272  24.213  25.064  1.00  0.00     0.253 C 
ATOM     11  C   UNL A   1      32.593  23.554  24.034  1.00  0.00     0.181 C 
ATOM     12  O   UNL A   1      35.375  24.564  25.461  1.00  0.00    -0.272 OA
ATOM     13  N   UNL A   1      33.673  23.034  24.836  1.00  0.00    -0.290 N 
ATOM     14  S   UNL A   1      32.875  22.847  22.409  1.00  0.00    -0.129 SA
ATOM     15  C   UNL A   1      32.394  21.182  23.085  1.00  0.00     0.104 C 
ATOM     16  C   UNL A   1      33.022  20.854  24.452  1.00  0.00    -0.034 C 
ATOM     17  C   UNL A   1      32.518  19.559  25.033  1.00  0.00     0.043 C 
BRANCH   9  18
ATOM     18  N   UNL A   1      32.054  25.524  25.563  1.00  0.00    -0.336 N 
ATOM     19  C   UNL A   1      31.275  26.667  25.702  1.00  0.00     0.271 C 
ATOM     20  O   UNL A   1      30.741  26.762  26.812  1.00  0.00    -0.267 OA
ATOM     21  H   UNL A   1      31.950  24.926  26.339  1.00  0.00     0.164 HD
BRANCH  19  22
ATOM     22  C   UNL A   1      31.013  27.672  24.693  1.00  0.00     0.140 A 
ATOM     23  N   UNL A   1      31.513  28.965  24.567  1.00  0.00    -0.259 N 
ATOM     24  N   UNL A   1      30.903  29.701  23.604  1.00  0.00    -0.180 NA
ATOM     25  C   UNL A   1      29.860  28.962  23.246  1.00  0.00     0.151 A 
ATOM     26  C   UNL A   1      29.854  27.745  23.928  1.00  0.00     0.069 A 
ATOM     27  Br  UNL A   1      28.382  26.581  23.894  1.00  0.00    -0.047 Br
BRANCH  23  28
ATOM     28  C   UNL A   1      32.410  29.756  25.389  1.00  0.00     0.142 C 
ATOM     29  C   UNL A   1      31.997  30.053  26.801  1.00  0.00     0.029 C 
ENDBRANCH  23  28
ENDBRANCH  19  22
ENDBRANCH   9  18
ENDBRANCH   5   8
ENDBRANCH   3   4
ENDBRANCH   2   3
ENDBRANCH   1   2
BRANCH   1  30
ATOM     30  C   UNL A   1      40.683  21.462  26.649  1.00  0.00     0.002 C 
BRANCH  30  31
ATOM     31  C   UNL A   1      41.210  20.104  26.168  1.00  0.00     0.021 C 
BRANCH  31  32
ATOM     32  C   UNL A   1      42.580  19.689  26.687  1.00  0.00     0.116 C 
BRANCH  32  33
ATOM     33  N   UNL A   1      43.588  19.556  25.644  1.00  0.00    -0.352 N 
ATOM     34  C   UNL A   1      44.182  20.558  24.903  1.00  0.00     0.251 C 
ATOM     35  H   UNL A   1      43.881  18.639  25.441  1.00  0.00     0.163 HD
ATOM     36  O   UNL A   1      44.714  20.307  23.827  1.00  0.00    -0.269 OA
BRANCH  34  37
ATOM     37  C   UNL A   1      44.163  21.947  25.406  1.00  0.00     0.039 A 
ATOM     38  C   UNL A   1      43.316  22.897  24.827  1.00  0.00     0.014 A 
ATOM     39  C   UNL A   1      44.997  22.298  26.466  1.00  0.00     0.014 A 
ATOM     40  C   UNL A   1      43.248  24.173  25.381  1.00  0.00     0.010 A 
ATOM     41  C   UNL A   1      44.850  23.522  27.081  1.00  0.00     0.010 A 
ATOM     42  C   UNL A   1      43.997  24.476  26.530  1.00  0.00    -0.014 A 
BRANCH  42  43
ATOM     43  C   UNL A   1      43.759  25.731  27.249  1.00  0.00     0.031 A 
ATOM     44  C   UNL A   1      44.724  26.823  26.920  1.00  0.00     0.074 A 
ATOM     45  C   UNL A   1      42.634  25.989  27.949  1.00  0.00     0.049 A 
ATOM     46  N   UNL A   1      45.526  27.453  27.715  1.00  0.00    -0.248 NA
ATOM     47  C   UNL A   1      44.891  27.188  25.501  1.00  0.00     0.031 C 
ATOM     48  C   UNL A   1      41.445  25.139  28.082  1.00  0.00     0.029 A 
ATOM     49  N   UNL A   1      42.259  27.130  28.598  1.00  0.00    -0.354 N 
ATOM     50  C   UNL A   1      46.157  28.425  26.937  1.00  0.00     0.074 A 
ATOM     51  C   UNL A   1      45.861  28.099  25.568  1.00  0.00     0.031 C 
ATOM     52  C   UNL A   1      40.415  25.873  28.558  1.00  0.00     0.029 A 
ATOM     53  C   UNL A   1      40.905  27.190  28.917  1.00  0.00     0.049 A 
ATOM     54  H   UNL A   1      42.893  27.849  28.822  1.00  0.00     0.167 HD
ATOM     55  C   UNL A   1      46.661  29.560  27.499  1.00  0.00     0.037 A 
ATOM     56  C   UNL A   1      40.227  28.255  29.414  1.00  0.00     0.037 A 
ATOM     57  C   UNL A   1      46.848  29.390  28.918  1.00  0.00     0.049 A 
ATOM     58  C   UNL A   1      41.224  29.193  29.973  1.00  0.00     0.074 A 
ATOM     59  C   UNL A   1      47.581  28.538  29.720  1.00  0.00     0.029 A 
ATOM     60  N   UNL A   1      45.927  29.979  29.747  1.00  0.00    -0.354 N 
ATOM     61  N   UNL A   1      41.922  28.968  31.048  1.00  0.00    -0.248 NA
ATOM     62  C   UNL A   1      41.728  30.249  29.110  1.00  0.00     0.031 C 
ATOM     63  C   UNL A   1      46.764  28.314  30.869  1.00  0.00     0.029 A 
ATOM     64  C   UNL A   1      45.609  29.084  30.730  1.00  0.00     0.049 A 
ATOM     65  H   UNL A   1      45.560  30.887  29.650  1.00  0.00     0.167 HD
ATOM     66  C   UNL A   1      43.163  29.519  30.777  1.00  0.00     0.074 A 
ATOM     67  C   UNL A   1      42.944  30.405  29.639  1.00  0.00     0.031 C 
ATOM     68  C   UNL A   1      44.295  28.979  31.319  1.00  0.00     0.037 A 
BRANCH  55  69
ATOM     69  C   UNL A   1      46.582  30.940  26.865  1.00  0.00     0.057 A 
ATOM     70  C   UNL A   1      47.738  31.749  26.855  1.00  0.00     0.134 A 
ATOM     71  C   UNL A   1      45.386  31.622  26.565  1.00  0.00     0.134 A 
ATOM     72  F   UNL A   1      48.947  31.229  27.115  1.00  0.00    -0.206 F 
ATOM     73  C   UNL A   1      47.687  33.138  26.681  1.00  0.00     0.040 A 
ATOM     74  C   UNL A   1      45.333  33.003  26.339  1.00  0.00     0.040 A 
ATOM     75  F   UNL A   1      44.189  31.026  26.564  1.00  0.00    -0.206 F 
ATOM     76  C   UNL A   1      46.479  33.772  26.437  1.00  0.00     0.006 A 
ENDBRANCH  55  69
BRANCH  56  77
ATOM     77  C   UNL A   1      38.805  28.641  29.267  1.00  0.00     0.057 A 
ATOM     78  C   UNL A   1      37.947  28.666  30.378  1.00  0.00     0.134 A 
ATOM     79  C   UNL A   1      38.325  29.267  28.105  1.00  0.00     0.134 A 
ATOM     80  F   UNL A   1      38.325  28.120  31.543  1.00  0.00    -0.206 F 
ATOM     81  C   UNL A   1      36.708  29.317  30.351  1.00  0.00     0.040 A 
ATOM     82  C   UNL A   1      37.083  29.911  28.061  1.00  0.00     0.040 A 
ATOM     83  F   UNL A   1      39.083  29.358  27.003  1.00  0.00    -0.206 F 
ATOM     84  C   UNL A   1      36.278  29.955  29.193  1.00  0.00     0.006 A 
ENDBRANCH  56  77
BRANCH  68  85
ATOM     85  C   UNL A   1      44.135  28.017  32.461  1.00  0.00     0.057 A 
ATOM     86  C   UNL A   1      44.019  26.625  32.321  1.00  0.00     0.134 A 
ATOM     87  C   UNL A   1      44.229  28.513  33.766  1.00  0.00     0.134 A 
ATOM     88  F   UNL A   1      44.019  26.044  31.114  1.00  0.00    -0.206 F 
ATOM     89  C   UNL A   1      43.950  25.776  33.430  1.00  0.00     0.040 A 
ATOM     90  C   UNL A   1      44.201  27.674  34.880  1.00  0.00     0.040 A 
ATOM     91  F   UNL A   1      44.394  29.829  33.977  1.00  0.00    -0.206 F 
ATOM     92  C   UNL A   1      44.048  26.300  34.715  1.00  0.00     0.006 A 
ENDBRANCH  68  85
ENDBRANCH  42  43
ENDBRANCH  34  37
ENDBRANCH  32  33
ENDBRANCH  31  32
ENDBRANCH  30  31
ENDBRANCH   1  30
TORSDOF 16
ENDMDL
MODEL 2
REMARK VINA RESULT:     -12.1      1.562      2.307
REMARK SMILES CCn1ncc(Br)c1C(=O)N[C@H]1C(=O)N2C(C(=O)NCCCCCCNC(=O)c3ccc(-c4c5nc(c(-c6c(F)cccc6F)c6ccc([nH]6)c(-c6c(F)cccc6F)c6nc(c(-c7c(F)cccc7F)c7ccc4[nH]7)C=C6)C=C5)cc3)=C(C)CS[C@H]12
REMARK SMILES IDX 22 1 21 2 20 3 19 4 17 5 18 6 16 8 12 9 13 10 87 11 14 12
REMARK SMILES IDX 15 13 86 14 85 15 83 16 84 17 11 18 9 19 10 20 8 22 3 23
REMARK SMILES IDX 4 24 5 25 6 26 7 27 2 28 1 29 23 30 24 31 25 32 26 33 27 34
REMARK SMILES IDX 28 36 29 37 30 38 82 39 31 40 81 41 32 42 33 43 34 44 75 45
REMARK SMILES IDX 35 46 80 47 74 48 76 49 36 50 79 51 73 52 72 53 37 55 63 56
REMARK SMILES IDX 46 57 62 58 47 59 50 60 61 61 77 62 48 63 49 64 60 66 78 67
REMARK SMILES IDX 51 68 38 69 39 70 44 71 40 72 41 73 43 74 45 75 42 76 64 77
REMARK SMILES IDX 65 78 70 79 66 80 67 81 69 82 71 83 68 84 52 85 53 86 58 87
REMARK SMILES IDX 54 88 55 89 57 90 59 91 56 92
REMARK H PARENT 19 7 11 21 26 35 76 54 50 65
REMARK Flexibility Score: inf
ROOT
ATOM      1  C   UNL A   1      39.120  21.163  25.676  1.00  0.00     0.002 C 
ENDROOT
BRANCH   1   2
ATOM      2  C   UNL A   1      38.299  22.418  25.981  1.00  0.00     0.021 C 
BRANCH   2   3
ATOM      3  C   UNL A   1      37.478  23.011  24.844  1.00  0.00     0.116 C 
BRANCH   3   4
ATOM      4  N   UNL A   1      36.521  24.010  25.242  1.00  0.00    -0.351 N 
ATOM      5  C   UNL A   1      35.221  23.925  25.630  1.00  0.00     0.268 C 
ATOM      6  O   UNL A   1      34.710  24.973  26.026  1.00  0.00    -0.268 OA
ATOM      7  H   UNL A   1      36.874  24.930  25.229  1.00  0.00     0.163 HD
BRANCH   5   8
ATOM      8  C   UNL A   1      34.374  22.667  25.512  1.00  0.00     0.110 C 
ATOM      9  C   UNL A   1      32.549  22.329  22.680  1.00  0.00     0.206 C 
ATOM     10  C   UNL A   1      33.916  22.944  23.026  1.00  0.00     0.253 C 
ATOM     11  C   UNL A   1      32.682  21.613  24.037  1.00  0.00     0.181 C 
ATOM     12  O   UNL A   1      34.783  23.534  22.396  1.00  0.00    -0.272 OA
ATOM     13  N   UNL A   1      33.786  22.508  24.288  1.00  0.00    -0.290 N 
ATOM     14  S   UNL A   1      33.358  19.983  24.362  1.00  0.00    -0.129 SA
ATOM     15  C   UNL A   1      33.411  20.401  26.174  1.00  0.00     0.104 C 
ATOM     16  C   UNL A   1      33.968  21.805  26.478  1.00  0.00    -0.034 C 
ATOM     17  C   UNL A   1      33.883  22.166  27.938  1.00  0.00     0.043 C 
BRANCH   9  18
ATOM     18  N   UNL A   1      31.343  23.243  22.603  1.00  0.00    -0.336 N 
ATOM     19  C   UNL A   1      30.648  24.103  23.447  1.00  0.00     0.271 C 
ATOM     20  O   UNL A   1      29.605  24.539  22.949  1.00  0.00    -0.267 OA
ATOM     21  H   UNL A   1      30.939  23.224  21.705  1.00  0.00     0.164 HD
BRANCH  19  22
ATOM     22  C   UNL A   1      31.050  24.542  24.767  1.00  0.00     0.140 A 
ATOM     23  N   UNL A   1      30.904  23.915  26.001  1.00  0.00    -0.259 N 
ATOM     24  N   UNL A   1      31.222  24.702  27.061  1.00  0.00    -0.180 NA
ATOM     25  C   UNL A   1      31.369  25.911  26.532  1.00  0.00     0.151 A 
ATOM     26  C   UNL A   1      31.213  25.871  25.146  1.00  0.00     0.069 A 
ATOM     27  Br  UNL A   1      31.064  27.425  24.106  1.00  0.00    -0.047 Br
BRANCH  23  28
ATOM     28  C   UNL A   1      30.287  22.664  26.401  1.00  0.00     0.142 C 
ATOM     29  C   UNL A   1      29.259  22.701  27.493  1.00  0.00     0.029 C 
ENDBRANCH  23  28
ENDBRANCH  19  22
ENDBRANCH   9  18
ENDBRANCH   5   8
ENDBRANCH   3   4
ENDBRANCH   2   3
ENDBRANCH   1   2
BRANCH   1  30
ATOM     30  C   UNL A   1      40.369  20.884  26.522  1.00  0.00     0.002 C 
BRANCH  30  31
ATOM     31  C   UNL A   1      41.213  19.645  26.201  1.00  0.00     0.021 C 
BRANCH  31  32
ATOM     32  C   UNL A   1      42.639  19.641  26.736  1.00  0.00     0.116 C 
BRANCH  32  33
ATOM     33  N   UNL A   1      43.654  19.513  25.700  1.00  0.00    -0.352 N 
ATOM     34  C   UNL A   1      44.224  20.515  24.941  1.00  0.00     0.251 C 
ATOM     35  H   UNL A   1      43.973  18.600  25.518  1.00  0.00     0.163 HD
ATOM     36  O   UNL A   1      44.769  20.256  23.873  1.00  0.00    -0.269 OA
BRANCH  34  37
ATOM     37  C   UNL A   1      44.165  21.913  25.414  1.00  0.00     0.039 A 
ATOM     38  C   UNL A   1      43.158  22.771  24.962  1.00  0.00     0.014 A 
ATOM     39  C   UNL A   1      45.124  22.366  26.318  1.00  0.00     0.014 A 
ATOM     40  C   UNL A   1      43.070  24.055  25.495  1.00  0.00     0.010 A 
ATOM     41  C   UNL A   1      44.971  23.593  26.926  1.00  0.00     0.010 A 
ATOM     42  C   UNL A   1      43.962  24.455  26.502  1.00  0.00    -0.014 A 
BRANCH  42  43
ATOM     43  C   UNL A   1      43.735  25.709  27.226  1.00  0.00     0.031 A 
ATOM     44  C   UNL A   1      44.702  26.798  26.895  1.00  0.00     0.074 A 
ATOM     45  C   UNL A   1      42.614  25.969  27.933  1.00  0.00     0.049 A 
ATOM     46  N   UNL A   1      45.512  27.421  27.687  1.00  0.00    -0.248 NA
ATOM     47  C   UNL A   1      44.862  27.166  25.477  1.00  0.00     0.031 C 
ATOM     48  C   UNL A   1      41.422  25.125  28.071  1.00  0.00     0.029 A 
ATOM     49  N   UNL A   1      42.248  27.110  28.588  1.00  0.00    -0.354 N 
ATOM     50  C   UNL A   1      46.142  28.393  26.909  1.00  0.00     0.074 A 
ATOM     51  C   UNL A   1      45.837  28.072  25.541  1.00  0.00     0.031 C 
ATOM     52  C   UNL A   1      40.398  25.861  28.555  1.00  0.00     0.029 A 
ATOM     53  C   UNL A   1      40.896  27.176  28.915  1.00  0.00     0.049 A 
ATOM     54  H   UNL A   1      42.887  27.826  28.811  1.00  0.00     0.167 HD
ATOM     55  C   UNL A   1      46.654  29.524  27.471  1.00  0.00     0.037 A 
ATOM     56  C   UNL A   1      40.226  28.241  29.419  1.00  0.00     0.037 A 
ATOM     57  C   UNL A   1      46.849  29.349  28.889  1.00  0.00     0.049 A 
ATOM     58  C   UNL A   1      41.230  29.173  29.976  1.00  0.00     0.074 A 
ATOM     59  C   UNL A   1      47.583  28.491  29.684  1.00  0.00     0.029 A 
ATOM     60  N   UNL A   1      45.936  29.940  29.725  1.00  0.00    -0.354 N 
ATOM     61  N   UNL A   1      41.934  28.943  31.046  1.00  0.00    -0.248 NA
ATOM     62  C   UNL A   1      41.734  30.230  29.113  1.00  0.00     0.031 C 
ATOM     63  C   UNL A   1      46.772  28.267  30.837  1.00  0.00     0.029 A 
ATOM     64  C   UNL A   1      45.620  29.043  30.707  1.00  0.00     0.049 A 
ATOM     65  H   UNL A   1      45.572  30.849  29.633  1.00  0.00     0.167 HD
ATOM     66  C   UNL A   1      43.175  29.488  30.770  1.00  0.00     0.074 A 
ATOM     67  C   UNL A   1      42.954  30.379  29.636  1.00  0.00     0.031 C 
ATOM     68  C   UNL A   1      44.308  28.942  31.303  1.00  0.00     0.037 A 
BRANCH  55  69
ATOM     69  C   UNL A   1      46.578  30.906  26.842  1.00  0.00     0.057 A 
ATOM     70  C   UNL A   1      47.739  31.708  26.822  1.00  0.00     0.134 A 
ATOM     71  C   UNL A   1      45.384  31.598  26.557  1.00  0.00     0.134 A 
ATOM     72  F   UNL A   1      48.948  31.179  27.067  1.00  0.00    -0.206 F 
ATOM     73  C   UNL A   1      47.697  33.097  26.652  1.00  0.00     0.040 A 
ATOM     74  C   UNL A   1      45.337  32.979  26.335  1.00  0.00     0.040 A 
ATOM     75  F   UNL A   1      44.183  31.009  26.567  1.00  0.00    -0.206 F 
ATOM     76  C   UNL A   1      46.490  33.740  26.423  1.00  0.00     0.006 A 
ENDBRANCH  55  69
BRANCH  56  77
ATOM     77  C   UNL A   1      38.805  28.634  29.281  1.00  0.00     0.057 A 
ATOM     78  C   UNL A   1      37.952  28.651  30.396  1.00  0.00     0.134 A 
ATOM     79  C   UNL A   1      38.323  29.274  28.127  1.00  0.00     0.134 A 
ATOM     80  F   UNL A   1      38.331  28.093  31.554  1.00  0.00    -0.206 F 
ATOM     81  C   UNL A   1      36.714  29.307  30.381  1.00  0.00     0.040 A 
ATOM     82  C   UNL A   1      37.083  29.923  28.095  1.00  0.00     0.040 A 
ATOM     83  F   UNL A   1      39.077  29.373  27.024  1.00  0.00    -0.206 F 
ATOM     84  C   UNL A   1      36.283  29.959  29.231  1.00  0.00     0.006 A 
ENDBRANCH  56  77
BRANCH  68  85
ATOM     85  C   UNL A   1      44.150  27.977  32.443  1.00  0.00     0.057 A 
ATOM     86  C   UNL A   1      43.971  28.349  33.784  1.00  0.00     0.134 A 
ATOM     87  C   UNL A   1      44.052  26.611  32.149  1.00  0.00     0.134 A 
ATOM     88  F   UNL A   1      43.950  29.637  34.152  1.00  0.00    -0.206 F 
ATOM     89  C   UNL A   1      43.752  27.401  34.789  1.00  0.00     0.040 A 
ATOM     90  C   UNL A   1      43.797  25.659  33.137  1.00  0.00     0.040 A 
ATOM     91  F   UNL A   1      44.162  26.185  30.881  1.00  0.00    -0.206 F 
ATOM     92  C   UNL A   1      43.658  26.052  34.465  1.00  0.00     0.006 A 
ENDBRANCH  68  85
ENDBRANCH  42  43
ENDBRANCH  34  37
ENDBRANCH  32  33
ENDBRANCH  31  32
ENDBRANCH  30  31
ENDBRANCH   1  30
TORSDOF 16
ENDMDL
MODEL 3
REMARK VINA RESULT:     -11.4      1.976      2.654
REMARK SMILES CCn1ncc(Br)c1C(=O)N[C@H]1C(=O)N2C(C(=O)NCCCCCCNC(=O)c3ccc(-c4c5nc(c(-c6c(F)cccc6F)c6ccc([nH]6)c(-c6c(F)cccc6F)c6nc(c(-c7c(F)cccc7F)c7ccc4[nH]7)C=C6)C=C5)cc3)=C(C)CS[C@H]12
REMARK SMILES IDX 22 1 21 2 20 3 19 4 17 5 18 6 16 8 12 9 13 10 87 11 14 12
REMARK SMILES IDX 15 13 86 14 85 15 83 16 84 17 11 18 9 19 10 20 8 22 3 23
REMARK SMILES IDX 4 24 5 25 6 26 7 27 2 28 1 29 23 30 24 31 25 32 26 33 27 34
REMARK SMILES IDX 28 36 29 37 30 38 82 39 31 40 81 41 32 42 33 43 34 44 75 45
REMARK SMILES IDX 35 46 80 47 74 48 76 49 36 50 79 51 73 52 72 53 37 55 63 56
REMARK SMILES IDX 46 57 62 58 47 59 50 60 61 61 77 62 48 63 49 64 60 66 78 67
REMARK SMILES IDX 51 68 38 69 39 70 44 71 40 72 41 73 43 74 45 75 42 76 64 77
REMARK SMILES IDX 65 78 70 79 66 80 67 81 69 82 71 83 68 84 52 85 53 86 58 87
REMARK SMILES IDX 54 88 55 89 57 90 59 91 56 92
REMARK H PARENT 19 7 11 21 26 35 76 54 50 65
REMARK Flexibility Score: inf
ROOT
ATOM      1  C   UNL A   1      38.014  23.587  26.305  1.00  0.00     0.002 C 
ENDROOT
BRANCH   1   2
ATOM      2  C   UNL A   1      37.695  22.762  25.056  1.00  0.00     0.021 C 
BRANCH   2   3
ATOM      3  C   UNL A   1      36.785  21.554  25.229  1.00  0.00     0.116 C 
BRANCH   3   4
ATOM      4  N   UNL A   1      35.895  21.620  26.359  1.00  0.00    -0.351 N 
ATOM      5  C   UNL A   1      34.551  21.446  26.473  1.00  0.00     0.268 C 
ATOM      6  O   UNL A   1      34.106  21.453  27.621  1.00  0.00    -0.268 OA
ATOM      7  H   UNL A   1      36.343  21.831  27.210  1.00  0.00     0.163 HD
BRANCH   5   8
ATOM      8  C   UNL A   1      33.599  21.346  25.292  1.00  0.00     0.110 C 
ATOM      9  C   UNL A   1      32.198  24.238  24.224  1.00  0.00     0.206 C 
ATOM     10  C   UNL A   1      33.557  23.847  24.831  1.00  0.00     0.253 C 
ATOM     11  C   UNL A   1      32.044  22.732  23.944  1.00  0.00     0.181 C 
ATOM     12  O   UNL A   1      34.569  24.456  25.150  1.00  0.00    -0.272 OA
ATOM     13  N   UNL A   1      33.189  22.557  24.805  1.00  0.00    -0.290 N 
ATOM     14  S   UNL A   1      32.479  21.836  22.452  1.00  0.00    -0.129 SA
ATOM     15  C   UNL A   1      32.302  20.242  23.394  1.00  0.00     0.104 C 
ATOM     16  C   UNL A   1      32.958  20.261  24.788  1.00  0.00    -0.034 C 
ATOM     17  C   UNL A   1      32.693  19.006  25.578  1.00  0.00     0.043 C 
BRANCH   9  18
ATOM     18  N   UNL A   1      31.127  24.788  25.143  1.00  0.00    -0.336 N 
ATOM     19  C   UNL A   1      30.723  26.029  25.626  1.00  0.00     0.271 C 
ATOM     20  O   UNL A   1      29.848  25.953  26.495  1.00  0.00    -0.267 OA
ATOM     21  H   UNL A   1      30.557  24.067  25.497  1.00  0.00     0.164 HD
BRANCH  19  22
ATOM     22  C   UNL A   1      31.183  27.328  25.183  1.00  0.00     0.140 A 
ATOM     23  N   UNL A   1      32.001  28.253  25.825  1.00  0.00    -0.259 N 
ATOM     24  N   UNL A   1      32.071  29.456  25.200  1.00  0.00    -0.180 NA
ATOM     25  C   UNL A   1      31.129  29.389  24.266  1.00  0.00     0.151 A 
ATOM     26  C   UNL A   1      30.521  28.132  24.261  1.00  0.00     0.069 A 
ATOM     27  Br  UNL A   1      28.961  27.774  23.282  1.00  0.00    -0.047 Br
BRANCH  23  28
ATOM     28  C   UNL A   1      32.631  28.268  27.132  1.00  0.00     0.142 C 
ATOM     29  C   UNL A   1      34.013  28.840  27.244  1.00  0.00     0.029 C 
ENDBRANCH  23  28
ENDBRANCH  19  22
ENDBRANCH   9  18
ENDBRANCH   5   8
ENDBRANCH   3   4
ENDBRANCH   2   3
ENDBRANCH   1   2
BRANCH   1  30
ATOM     30  C   UNL A   1      39.358  23.355  27.010  1.00  0.00     0.002 C 
BRANCH  30  31
ATOM     31  C   UNL A   1      40.044  21.993  26.850  1.00  0.00     0.021 C 
BRANCH  31  32
ATOM     32  C   UNL A   1      41.510  21.924  27.260  1.00  0.00     0.116 C 
BRANCH  32  33
ATOM     33  N   UNL A   1      42.436  21.968  26.137  1.00  0.00    -0.352 N 
ATOM     34  C   UNL A   1      42.884  23.076  25.448  1.00  0.00     0.251 C 
ATOM     35  H   UNL A   1      42.785  21.099  25.831  1.00  0.00     0.163 HD
ATOM     36  O   UNL A   1      43.346  22.963  24.317  1.00  0.00    -0.269 OA
BRANCH  34  37
ATOM     37  C   UNL A   1      42.794  24.410  26.073  1.00  0.00     0.039 A 
ATOM     38  C   UNL A   1      41.832  25.330  25.643  1.00  0.00     0.014 A 
ATOM     39  C   UNL A   1      43.678  24.742  27.098  1.00  0.00     0.014 A 
ATOM     40  C   UNL A   1      41.707  26.545  26.313  1.00  0.00     0.010 A 
ATOM     41  C   UNL A   1      43.482  25.893  27.830  1.00  0.00     0.010 A 
ATOM     42  C   UNL A   1      42.516  26.813  27.428  1.00  0.00    -0.014 A 
BRANCH  42  43
ATOM     43  C   UNL A   1      42.236  27.978  28.272  1.00  0.00     0.031 A 
ATOM     44  C   UNL A   1      43.264  29.059  28.194  1.00  0.00     0.074 A 
ATOM     45  C   UNL A   1      41.046  28.197  28.872  1.00  0.00     0.049 A 
ATOM     46  N   UNL A   1      43.990  29.548  29.146  1.00  0.00    -0.248 NA
ATOM     47  C   UNL A   1      43.604  29.589  26.861  1.00  0.00     0.031 C 
ATOM     48  C   UNL A   1      39.825  27.392  28.764  1.00  0.00     0.029 A 
ATOM     49  N   UNL A   1      40.635  29.264  29.617  1.00  0.00    -0.354 N 
ATOM     50  C   UNL A   1      44.734  30.580  28.574  1.00  0.00     0.074 A 
ATOM     51  C   UNL A   1      44.587  30.440  27.150  1.00  0.00     0.031 C 
ATOM     52  C   UNL A   1      38.770  28.106  29.214  1.00  0.00     0.029 A 
ATOM     53  C   UNL A   1      39.256  29.346  29.791  1.00  0.00     0.049 A 
ATOM     54  H   UNL A   1      41.260  29.922  30.000  1.00  0.00     0.167 HD
ATOM     55  C   UNL A   1      45.205  31.613  29.328  1.00  0.00     0.037 A 
ATOM     56  C   UNL A   1      38.558  30.369  30.343  1.00  0.00     0.037 A 
ATOM     57  C   UNL A   1      45.224  31.260  30.726  1.00  0.00     0.049 A 
ATOM     58  C   UNL A   1      39.512  31.185  31.124  1.00  0.00     0.074 A 
ATOM     59  C   UNL A   1      45.834  30.283  31.488  1.00  0.00     0.029 A 
ATOM     60  N   UNL A   1      44.233  31.782  31.518  1.00  0.00    -0.354 N 
ATOM     61  N   UNL A   1      40.076  30.798  32.231  1.00  0.00    -0.248 NA
ATOM     62  C   UNL A   1      40.144  32.317  30.464  1.00  0.00     0.031 C 
ATOM     63  C   UNL A   1      44.884  29.954  32.501  1.00  0.00     0.029 A 
ATOM     64  C   UNL A   1      43.777  30.787  32.337  1.00  0.00     0.049 A 
ATOM     65  H   UNL A   1      43.906  32.711  31.498  1.00  0.00     0.167 HD
ATOM     66  C   UNL A   1      41.356  31.322  32.171  1.00  0.00     0.074 A 
ATOM     67  C   UNL A   1      41.296  32.351  31.139  1.00  0.00     0.031 C 
ATOM     68  C   UNL A   1      42.401  30.669  32.759  1.00  0.00     0.037 A 
BRANCH  55  69
ATOM     69  C   UNL A   1      45.242  33.063  28.872  1.00  0.00     0.057 A 
ATOM     70  C   UNL A   1      44.046  33.666  28.430  1.00  0.00     0.134 A 
ATOM     71  C   UNL A   1      46.413  33.777  28.547  1.00  0.00     0.134 A 
ATOM     72  F   UNL A   1      42.855  33.100  28.677  1.00  0.00    -0.206 F 
ATOM     73  C   UNL A   1      44.028  34.815  27.629  1.00  0.00     0.040 A 
ATOM     74  C   UNL A   1      46.402  34.954  27.791  1.00  0.00     0.040 A 
ATOM     75  F   UNL A   1      47.639  33.340  28.854  1.00  0.00    -0.206 F 
ATOM     76  C   UNL A   1      45.212  35.456  27.294  1.00  0.00     0.006 A 
ENDBRANCH  55  69
BRANCH  56  77
ATOM     77  C   UNL A   1      37.175  30.834  30.092  1.00  0.00     0.057 A 
ATOM     78  C   UNL A   1      36.341  31.220  31.154  1.00  0.00     0.134 A 
ATOM     79  C   UNL A   1      36.735  31.185  28.805  1.00  0.00     0.134 A 
ATOM     80  F   UNL A   1      36.686  30.957  32.422  1.00  0.00    -0.206 F 
ATOM     81  C   UNL A   1      35.165  31.953  30.952  1.00  0.00     0.040 A 
ATOM     82  C   UNL A   1      35.555  31.908  28.589  1.00  0.00     0.040 A 
ATOM     83  F   UNL A   1      37.479  30.922  27.722  1.00  0.00    -0.206 F 
ATOM     84  C   UNL A   1      34.777  32.312  29.667  1.00  0.00     0.006 A 
ENDBRANCH  56  77
BRANCH  68  85
ATOM     85  C   UNL A   1      42.083  29.580  33.744  1.00  0.00     0.057 A 
ATOM     86  C   UNL A   1      41.861  28.237  33.404  1.00  0.00     0.134 A 
ATOM     87  C   UNL A   1      42.126  29.885  35.110  1.00  0.00     0.134 A 
ATOM     88  F   UNL A   1      41.897  27.826  32.129  1.00  0.00    -0.206 F 
ATOM     89  C   UNL A   1      41.645  27.256  34.377  1.00  0.00     0.040 A 
ATOM     90  C   UNL A   1      41.951  28.909  36.091  1.00  0.00     0.040 A 
ATOM     91  F   UNL A   1      42.385  31.140  35.513  1.00  0.00    -0.206 F 
ATOM     92  C   UNL A   1      41.696  27.591  35.726  1.00  0.00     0.006 A 
ENDBRANCH  68  85
ENDBRANCH  42  43
ENDBRANCH  34  37
ENDBRANCH  32  33
ENDBRANCH  31  32
ENDBRANCH  30  31
ENDBRANCH   1  30
TORSDOF 16
ENDMDL
