MODEL 1
REMARK VINA RESULT:     -10.8      0.000      0.000
REMARK SMILES CCCCOc1ccc(-c2nc(C)c(C(=O)NCCCCCCNC(=O)c3ccc(-c4c5nc(c(-c6c(F)cccc6F)c6ccc([nH]6)c(-c6c(F)cccc6F)c6nc(c(-c7c(F)cccc7F)c7ccc4[nH]7)C=C6)C=C5)cc3)s2)cc1
REMARK SMILES IDX 19 1 18 2 17 3 15 4 16 5 14 7 10 8 11 9 81 10 12 11 13 12
REMARK SMILES IDX 9 13 6 14 7 15 83 16 8 17 82 18 5 19 4 20 3 21 2 22 1 23
REMARK SMILES IDX 20 24 21 25 22 26 23 27 24 28 25 29 26 31 27 32 28 33 80 34
REMARK SMILES IDX 29 35 79 36 30 37 31 38 32 39 73 40 33 41 78 42 72 43 74 44
REMARK SMILES IDX 34 45 77 46 71 47 70 48 35 50 61 51 44 52 60 53 45 54 48 55
REMARK SMILES IDX 59 56 75 57 46 58 47 59 58 61 76 62 49 63 36 64 37 65 42 66
REMARK SMILES IDX 38 67 39 68 41 69 43 70 40 71 62 72 63 73 68 74 64 75 65 76
REMARK SMILES IDX 67 77 69 78 66 79 50 80 51 81 56 82 52 83 53 84 55 85 57 86
REMARK SMILES IDX 54 87
REMARK H PARENT 17 6 24 30 74 49 48 60
REMARK Flexibility Score: inf
ROOT
ATOM      1  C   UNL A   1      33.750  31.280  27.454  1.00  0.00     0.021 C 
ENDROOT
BRANCH   1   2
ATOM      2  C   UNL A   1      34.134  29.907  26.898  1.00  0.00     0.116 C 
BRANCH   2   3
ATOM      3  N   UNL A   1      33.758  29.827  25.511  1.00  0.00    -0.351 N 
ATOM      4  C   UNL A   1      33.282  28.816  24.723  1.00  0.00     0.263 C 
ATOM      5  O   UNL A   1      33.133  29.149  23.540  1.00  0.00    -0.268 OA
ATOM      6  H   UNL A   1      33.869  30.678  25.028  1.00  0.00     0.163 HD
BRANCH   4   7
ATOM      7  C   UNL A   1      32.930  27.489  25.209  1.00  0.00     0.115 A 
ATOM      8  C   UNL A   1      33.068  25.048  25.451  1.00  0.00     0.124 A 
ATOM      9  N   UNL A   1      32.193  25.544  26.294  1.00  0.00    -0.241 NA
ATOM     10  S   UNL A   1      33.731  26.187  24.373  1.00  0.00    -0.108 S 
ATOM     11  C   UNL A   1      32.157  26.933  26.225  1.00  0.00     0.062 A 
ATOM     12  C   UNL A   1      31.352  27.553  27.308  1.00  0.00     0.068 C 
BRANCH   8  13
ATOM     13  C   UNL A   1      33.487  23.642  25.453  1.00  0.00     0.011 A 
ATOM     14  C   UNL A   1      33.896  20.879  25.390  1.00  0.00     0.119 A 
ATOM     15  C   UNL A   1      33.851  21.589  24.196  1.00  0.00     0.047 A 
ATOM     16  C   UNL A   1      33.859  21.539  26.613  1.00  0.00     0.047 A 
ATOM     17  C   UNL A   1      33.639  22.968  24.230  1.00  0.00     0.015 A 
ATOM     18  C   UNL A   1      33.627  22.913  26.646  1.00  0.00     0.015 A 
BRANCH  14  19
ATOM     19  O   UNL A   1      33.973  19.516  25.405  1.00  0.00    -0.494 OA
BRANCH  19  20
ATOM     20  C   UNL A   1      32.668  18.912  25.359  1.00  0.00     0.229 C 
BRANCH  20  21
ATOM     21  C   UNL A   1      32.734  17.394  25.133  1.00  0.00     0.041 C 
BRANCH  21  22
ATOM     22  C   UNL A   1      34.040  16.842  24.545  1.00  0.00     0.000 C 
ATOM     23  C   UNL A   1      34.112  16.874  23.027  1.00  0.00     0.004 C 
ENDBRANCH  21  22
ENDBRANCH  20  21
ENDBRANCH  19  20
ENDBRANCH  14  19
ENDBRANCH   8  13
ENDBRANCH   4   7
ENDBRANCH   2   3
ENDBRANCH   1   2
BRANCH   1  24
ATOM     24  C   UNL A   1      34.938  32.044  28.046  1.00  0.00     0.002 C 
BRANCH  24  25
ATOM     25  C   UNL A   1      34.600  33.462  28.522  1.00  0.00     0.002 C 
BRANCH  25  26
ATOM     26  C   UNL A   1      34.398  33.605  30.034  1.00  0.00     0.021 C 
BRANCH  26  27
ATOM     27  C   UNL A   1      34.691  32.336  30.829  1.00  0.00     0.116 C 
BRANCH  27  28
ATOM     28  N   UNL A   1      35.094  32.644  32.193  1.00  0.00    -0.352 N 
ATOM     29  C   UNL A   1      36.222  32.266  32.874  1.00  0.00     0.251 C 
ATOM     30  H   UNL A   1      34.465  33.207  32.699  1.00  0.00     0.163 HD
ATOM     31  O   UNL A   1      36.278  32.390  34.092  1.00  0.00    -0.269 OA
BRANCH  29  32
ATOM     32  C   UNL A   1      37.373  31.705  32.135  1.00  0.00     0.039 A 
ATOM     33  C   UNL A   1      37.515  31.999  30.777  1.00  0.00     0.014 A 
ATOM     34  C   UNL A   1      38.287  30.863  32.774  1.00  0.00     0.014 A 
ATOM     35  C   UNL A   1      38.605  31.488  30.070  1.00  0.00     0.010 A 
ATOM     36  C   UNL A   1      39.409  30.410  32.086  1.00  0.00     0.010 A 
ATOM     37  C   UNL A   1      39.575  30.712  30.726  1.00  0.00    -0.014 A 
BRANCH  37  38
ATOM     38  C   UNL A   1      40.763  30.196  30.004  1.00  0.00     0.031 A 
ATOM     39  C   UNL A   1      41.929  31.105  29.724  1.00  0.00     0.074 A 
ATOM     40  C   UNL A   1      40.767  28.930  29.547  1.00  0.00     0.049 A 
ATOM     41  N   UNL A   1      43.024  30.862  29.048  1.00  0.00    -0.248 NA
ATOM     42  C   UNL A   1      41.841  32.476  30.251  1.00  0.00     0.031 C 
ATOM     43  C   UNL A   1      39.678  27.966  29.717  1.00  0.00     0.029 A 
ATOM     44  N   UNL A   1      41.715  28.238  28.836  1.00  0.00    -0.354 N 
ATOM     45  C   UNL A   1      43.745  32.049  29.058  1.00  0.00     0.074 A 
ATOM     46  C   UNL A   1      42.943  33.025  29.762  1.00  0.00     0.031 C 
ATOM     47  C   UNL A   1      40.029  26.803  29.144  1.00  0.00     0.029 A 
ATOM     48  C   UNL A   1      41.347  26.949  28.538  1.00  0.00     0.049 A 
ATOM     49  H   UNL A   1      42.578  28.629  28.566  1.00  0.00     0.167 HD
ATOM     50  C   UNL A   1      44.975  32.295  28.547  1.00  0.00     0.037 A 
ATOM     51  C   UNL A   1      41.998  25.996  27.845  1.00  0.00     0.037 A 
ATOM     52  C   UNL A   1      45.780  31.313  27.872  1.00  0.00     0.049 A 
ATOM     53  C   UNL A   1      43.359  26.297  27.282  1.00  0.00     0.074 A 
ATOM     54  C   UNL A   1      47.064  31.448  27.371  1.00  0.00     0.029 A 
ATOM     55  N   UNL A   1      45.380  30.013  27.602  1.00  0.00    -0.354 N 
ATOM     56  N   UNL A   1      44.057  27.405  27.355  1.00  0.00    -0.248 NA
ATOM     57  C   UNL A   1      44.026  25.214  26.545  1.00  0.00     0.031 C 
ATOM     58  C   UNL A   1      47.424  30.241  26.760  1.00  0.00     0.029 A 
ATOM     59  C   UNL A   1      46.383  29.341  26.922  1.00  0.00     0.049 A 
ATOM     60  H   UNL A   1      44.512  29.625  27.856  1.00  0.00     0.167 HD
ATOM     61  C   UNL A   1      45.253  27.145  26.698  1.00  0.00     0.074 A 
ATOM     62  C   UNL A   1      45.191  25.770  26.247  1.00  0.00     0.031 C 
ATOM     63  C   UNL A   1      46.306  27.970  26.487  1.00  0.00     0.037 A 
BRANCH  50  64
ATOM     64  C   UNL A   1      45.527  33.682  28.708  1.00  0.00     0.057 A 
ATOM     65  C   UNL A   1      45.310  34.678  27.748  1.00  0.00     0.134 A 
ATOM     66  C   UNL A   1      46.253  34.036  29.853  1.00  0.00     0.134 A 
ATOM     67  F   UNL A   1      44.634  34.402  26.622  1.00  0.00    -0.206 F 
ATOM     68  C   UNL A   1      45.816  35.969  27.907  1.00  0.00     0.040 A 
ATOM     69  C   UNL A   1      46.740  35.330  30.037  1.00  0.00     0.040 A 
ATOM     70  F   UNL A   1      46.491  33.132  30.815  1.00  0.00    -0.206 F 
ATOM     71  C   UNL A   1      46.527  36.300  29.059  1.00  0.00     0.006 A 
ENDBRANCH  50  64
BRANCH  51  72
ATOM     72  C   UNL A   1      41.382  24.659  27.660  1.00  0.00     0.057 A 
ATOM     73  C   UNL A   1      40.377  24.453  26.706  1.00  0.00     0.134 A 
ATOM     74  C   UNL A   1      41.769  23.560  28.436  1.00  0.00     0.134 A 
ATOM     75  F   UNL A   1      39.951  25.472  25.945  1.00  0.00    -0.206 F 
ATOM     76  C   UNL A   1      39.767  23.209  26.544  1.00  0.00     0.040 A 
ATOM     77  C   UNL A   1      41.183  22.303  28.268  1.00  0.00     0.040 A 
ATOM     78  F   UNL A   1      42.731  23.689  29.362  1.00  0.00    -0.206 F 
ATOM     79  C   UNL A   1      40.173  22.128  27.324  1.00  0.00     0.006 A 
ENDBRANCH  51  72
BRANCH  63  80
ATOM     80  C   UNL A   1      47.490  27.398  25.762  1.00  0.00     0.057 A 
ATOM     81  C   UNL A   1      47.621  27.492  24.372  1.00  0.00     0.134 A 
ATOM     82  C   UNL A   1      48.527  26.779  26.471  1.00  0.00     0.134 A 
ATOM     83  F   UNL A   1      46.655  28.062  23.635  1.00  0.00    -0.206 F 
ATOM     84  C   UNL A   1      48.732  26.971  23.708  1.00  0.00     0.040 A 
ATOM     85  C   UNL A   1      49.655  26.276  25.821  1.00  0.00     0.040 A 
ATOM     86  F   UNL A   1      48.466  26.664  27.806  1.00  0.00    -0.206 F 
ATOM     87  C   UNL A   1      49.757  26.366  24.435  1.00  0.00     0.006 A 
ENDBRANCH  63  80
ENDBRANCH  37  38
ENDBRANCH  29  32
ENDBRANCH  27  28
ENDBRANCH  26  27
ENDBRANCH  25  26
ENDBRANCH  24  25
ENDBRANCH   1  24
TORSDOF 18
ENDMDL
MODEL 2
REMARK VINA RESULT:     -10.5      3.611      8.124
REMARK SMILES CCCCOc1ccc(-c2nc(C)c(C(=O)NCCCCCCNC(=O)c3ccc(-c4c5nc(c(-c6c(F)cccc6F)c6ccc([nH]6)c(-c6c(F)cccc6F)c6nc(c(-c7c(F)cccc7F)c7ccc4[nH]7)C=C6)C=C5)cc3)s2)cc1
REMARK SMILES IDX 19 1 18 2 17 3 15 4 16 5 14 7 10 8 11 9 81 10 12 11 13 12
REMARK SMILES IDX 9 13 6 14 7 15 83 16 8 17 82 18 5 19 4 20 3 21 2 22 1 23
REMARK SMILES IDX 20 24 21 25 22 26 23 27 24 28 25 29 26 31 27 32 28 33 80 34
REMARK SMILES IDX 29 35 79 36 30 37 31 38 32 39 73 40 33 41 78 42 72 43 74 44
REMARK SMILES IDX 34 45 77 46 71 47 70 48 35 50 61 51 44 52 60 53 45 54 48 55
REMARK SMILES IDX 59 56 75 57 46 58 47 59 58 61 76 62 49 63 36 64 37 65 42 66
REMARK SMILES IDX 38 67 39 68 41 69 43 70 40 71 62 72 63 73 68 74 64 75 65 76
REMARK SMILES IDX 67 77 69 78 66 79 50 80 51 81 56 82 52 83 53 84 55 85 57 86
REMARK SMILES IDX 54 87
REMARK H PARENT 17 6 24 30 74 49 48 60
REMARK Flexibility Score: inf
ROOT
ATOM      1  C   UNL A   1      39.694  34.574  29.934  1.00  0.00     0.021 C 
ENDROOT
BRANCH   1   2
ATOM      2  C   UNL A   1      38.281  34.221  29.465  1.00  0.00     0.116 C 
BRANCH   2   3
ATOM      3  N   UNL A   1      37.395  34.174  30.599  1.00  0.00    -0.351 N 
ATOM      4  C   UNL A   1      36.055  33.939  30.736  1.00  0.00     0.263 C 
ATOM      5  O   UNL A   1      35.659  34.045  31.903  1.00  0.00    -0.268 OA
ATOM      6  H   UNL A   1      37.850  34.349  31.455  1.00  0.00     0.163 HD
BRANCH   4   7
ATOM      7  C   UNL A   1      35.172  33.551  29.645  1.00  0.00     0.115 A 
ATOM      8  C   UNL A   1      34.109  32.067  28.000  1.00  0.00     0.124 A 
ATOM      9  N   UNL A   1      33.540  33.250  27.987  1.00  0.00    -0.241 NA
ATOM     10  S   UNL A   1      35.465  31.951  29.023  1.00  0.00    -0.108 S 
ATOM     11  C   UNL A   1      34.078  34.080  28.965  1.00  0.00     0.062 A 
ATOM     12  C   UNL A   1      33.322  35.347  29.139  1.00  0.00     0.068 C 
BRANCH   8  13
ATOM     13  C   UNL A   1      33.604  30.917  27.241  1.00  0.00     0.011 A 
ATOM     14  C   UNL A   1      32.428  28.641  26.128  1.00  0.00     0.119 A 
ATOM     15  C   UNL A   1      31.736  29.846  26.104  1.00  0.00     0.047 A 
ATOM     16  C   UNL A   1      33.738  28.581  26.589  1.00  0.00     0.047 A 
ATOM     17  C   UNL A   1      32.323  30.981  26.668  1.00  0.00     0.015 A 
ATOM     18  C   UNL A   1      34.315  29.708  27.171  1.00  0.00     0.015 A 
BRANCH  14  19
ATOM     19  O   UNL A   1      31.848  27.480  25.707  1.00  0.00    -0.494 OA
BRANCH  19  20
ATOM     20  C   UNL A   1      31.506  27.535  24.310  1.00  0.00     0.229 C 
BRANCH  20  21
ATOM     21  C   UNL A   1      30.055  27.106  24.045  1.00  0.00     0.041 C 
BRANCH  21  22
ATOM     22  C   UNL A   1      29.224  28.015  23.129  1.00  0.00     0.000 C 
ATOM     23  C   UNL A   1      29.970  29.231  22.602  1.00  0.00     0.004 C 
ENDBRANCH  21  22
ENDBRANCH  20  21
ENDBRANCH  19  20
ENDBRANCH  14  19
ENDBRANCH   8  13
ENDBRANCH   4   7
ENDBRANCH   2   3
ENDBRANCH   1   2
BRANCH   1  24
ATOM     24  C   UNL A   1      40.507  35.333  28.881  1.00  0.00     0.002 C 
BRANCH  24  25
ATOM     25  C   UNL A   1      42.010  35.404  29.177  1.00  0.00     0.002 C 
BRANCH  25  26
ATOM     26  C   UNL A   1      42.673  36.743  28.836  1.00  0.00     0.021 C 
BRANCH  26  27
ATOM     27  C   UNL A   1      43.716  37.203  29.850  1.00  0.00     0.116 C 
BRANCH  27  28
ATOM     28  N   UNL A   1      45.001  37.453  29.216  1.00  0.00    -0.352 N 
ATOM     29  C   UNL A   1      45.930  36.558  28.751  1.00  0.00     0.251 C 
ATOM     30  H   UNL A   1      45.236  38.402  29.103  1.00  0.00     0.163 HD
ATOM     31  O   UNL A   1      47.068  36.931  28.488  1.00  0.00    -0.269 OA
BRANCH  29  32
ATOM     32  C   UNL A   1      45.558  35.139  28.569  1.00  0.00     0.039 A 
ATOM     33  C   UNL A   1      45.031  34.729  27.341  1.00  0.00     0.014 A 
ATOM     34  C   UNL A   1      45.696  34.226  29.618  1.00  0.00     0.014 A 
ATOM     35  C   UNL A   1      44.689  33.390  27.150  1.00  0.00     0.010 A 
ATOM     36  C   UNL A   1      45.419  32.879  29.403  1.00  0.00     0.010 A 
ATOM     37  C   UNL A   1      44.905  32.449  28.170  1.00  0.00    -0.014 A 
BRANCH  37  38
ATOM     38  C   UNL A   1      44.590  31.014  27.972  1.00  0.00     0.031 A 
ATOM     39  C   UNL A   1      43.266  30.461  28.425  1.00  0.00     0.074 A 
ATOM     40  C   UNL A   1      45.518  30.196  27.441  1.00  0.00     0.049 A 
ATOM     41  N   UNL A   1      42.835  29.226  28.404  1.00  0.00    -0.248 NA
ATOM     42  C   UNL A   1      42.312  31.421  29.002  1.00  0.00     0.031 C 
ATOM     43  C   UNL A   1      46.855  30.604  27.004  1.00  0.00     0.029 A 
ATOM     44  N   UNL A   1      45.484  28.848  27.188  1.00  0.00    -0.354 N 
ATOM     45  C   UNL A   1      41.569  29.258  28.975  1.00  0.00     0.074 A 
ATOM     46  C   UNL A   1      41.322  30.624  29.379  1.00  0.00     0.031 C 
ATOM     47  C   UNL A   1      47.504  29.533  26.519  1.00  0.00     0.029 A 
ATOM     48  C   UNL A   1      46.646  28.360  26.644  1.00  0.00     0.049 A 
ATOM     49  H   UNL A   1      44.700  28.284  27.380  1.00  0.00     0.167 HD
ATOM     50  C   UNL A   1      40.683  28.244  29.127  1.00  0.00     0.037 A 
ATOM     51  C   UNL A   1      46.984  27.105  26.293  1.00  0.00     0.037 A 
ATOM     52  C   UNL A   1      40.923  26.892  28.699  1.00  0.00     0.049 A 
ATOM     53  C   UNL A   1      45.986  25.997  26.478  1.00  0.00     0.074 A 
ATOM     54  C   UNL A   1      40.066  25.806  28.754  1.00  0.00     0.029 A 
ATOM     55  N   UNL A   1      42.107  26.439  28.137  1.00  0.00    -0.354 N 
ATOM     56  N   UNL A   1      44.767  26.054  26.960  1.00  0.00    -0.248 NA
ATOM     57  C   UNL A   1      46.407  24.650  26.066  1.00  0.00     0.031 C 
ATOM     58  C   UNL A   1      40.747  24.687  28.263  1.00  0.00     0.029 A 
ATOM     59  C   UNL A   1      42.012  25.085  27.860  1.00  0.00     0.049 A 
ATOM     60  H   UNL A   1      42.898  26.998  27.960  1.00  0.00     0.167 HD
ATOM     61  C   UNL A   1      44.268  24.760  26.885  1.00  0.00     0.074 A 
ATOM     62  C   UNL A   1      45.309  23.943  26.297  1.00  0.00     0.031 C 
ATOM     63  C   UNL A   1      43.057  24.290  27.268  1.00  0.00     0.037 A 
BRANCH  50  64
ATOM     64  C   UNL A   1      39.369  28.565  29.777  1.00  0.00     0.057 A 
ATOM     65  C   UNL A   1      38.269  29.013  29.035  1.00  0.00     0.134 A 
ATOM     66  C   UNL A   1      39.190  28.388  31.155  1.00  0.00     0.134 A 
ATOM     67  F   UNL A   1      38.377  29.216  27.713  1.00  0.00    -0.206 F 
ATOM     68  C   UNL A   1      37.045  29.300  29.644  1.00  0.00     0.040 A 
ATOM     69  C   UNL A   1      37.964  28.644  31.771  1.00  0.00     0.040 A 
ATOM     70  F   UNL A   1      40.200  27.955  31.923  1.00  0.00    -0.206 F 
ATOM     71  C   UNL A   1      36.889  29.108  31.015  1.00  0.00     0.006 A 
ENDBRANCH  50  64
BRANCH  51  72
ATOM     72  C   UNL A   1      48.321  26.830  25.710  1.00  0.00     0.057 A 
ATOM     73  C   UNL A   1      49.379  26.385  26.512  1.00  0.00     0.134 A 
ATOM     74  C   UNL A   1      48.579  27.015  24.347  1.00  0.00     0.134 A 
ATOM     75  F   UNL A   1      49.199  26.206  27.829  1.00  0.00    -0.206 F 
ATOM     76  C   UNL A   1      50.650  26.153  25.984  1.00  0.00     0.040 A 
ATOM     77  C   UNL A   1      49.839  26.764  23.800  1.00  0.00     0.040 A 
ATOM     78  F   UNL A   1      47.606  27.433  23.523  1.00  0.00    -0.206 F 
ATOM     79  C   UNL A   1      50.881  26.339  24.622  1.00  0.00     0.006 A 
ENDBRANCH  51  72
BRANCH  63  80
ATOM     80  C   UNL A   1      42.781  22.833  27.035  1.00  0.00     0.057 A 
ATOM     81  C   UNL A   1      42.681  21.922  28.093  1.00  0.00     0.134 A 
ATOM     82  C   UNL A   1      42.579  22.345  25.738  1.00  0.00     0.134 A 
ATOM     83  F   UNL A   1      42.878  22.325  29.358  1.00  0.00    -0.206 F 
ATOM     84  C   UNL A   1      42.410  20.572  27.869  1.00  0.00     0.040 A 
ATOM     85  C   UNL A   1      42.283  21.002  25.503  1.00  0.00     0.040 A 
ATOM     86  F   UNL A   1      42.653  23.168  24.681  1.00  0.00    -0.206 F 
ATOM     87  C   UNL A   1      42.204  20.110  26.569  1.00  0.00     0.006 A 
ENDBRANCH  63  80
ENDBRANCH  37  38
ENDBRANCH  29  32
ENDBRANCH  27  28
ENDBRANCH  26  27
ENDBRANCH  25  26
ENDBRANCH  24  25
ENDBRANCH   1  24
TORSDOF 18
ENDMDL
MODEL 3
REMARK VINA RESULT:     -10.4      4.584      7.073
REMARK SMILES CCCCOc1ccc(-c2nc(C)c(C(=O)NCCCCCCNC(=O)c3ccc(-c4c5nc(c(-c6c(F)cccc6F)c6ccc([nH]6)c(-c6c(F)cccc6F)c6nc(c(-c7c(F)cccc7F)c7ccc4[nH]7)C=C6)C=C5)cc3)s2)cc1
REMARK SMILES IDX 19 1 18 2 17 3 15 4 16 5 14 7 10 8 11 9 81 10 12 11 13 12
REMARK SMILES IDX 9 13 6 14 7 15 83 16 8 17 82 18 5 19 4 20 3 21 2 22 1 23
REMARK SMILES IDX 20 24 21 25 22 26 23 27 24 28 25 29 26 31 27 32 28 33 80 34
REMARK SMILES IDX 29 35 79 36 30 37 31 38 32 39 73 40 33 41 78 42 72 43 74 44
REMARK SMILES IDX 34 45 77 46 71 47 70 48 35 50 61 51 44 52 60 53 45 54 48 55
REMARK SMILES IDX 59 56 75 57 46 58 47 59 58 61 76 62 49 63 36 64 37 65 42 66
REMARK SMILES IDX 38 67 39 68 41 69 43 70 40 71 62 72 63 73 68 74 64 75 65 76
REMARK SMILES IDX 67 77 69 78 66 79 50 80 51 81 56 82 52 83 53 84 55 85 57 86
REMARK SMILES IDX 54 87
REMARK H PARENT 17 6 24 30 74 49 48 60
REMARK Flexibility Score: inf
ROOT
ATOM      1  C   UNL A   1      33.524  31.775  27.652  1.00  0.00     0.021 C 
ENDROOT
BRANCH   1   2
ATOM      2  C   UNL A   1      33.839  30.404  27.049  1.00  0.00     0.116 C 
BRANCH   2   3
ATOM      3  N   UNL A   1      33.272  30.318  25.729  1.00  0.00    -0.351 N 
ATOM      4  C   UNL A   1      32.865  29.272  24.947  1.00  0.00     0.263 C 
ATOM      5  O   UNL A   1      32.477  29.623  23.827  1.00  0.00    -0.268 OA
ATOM      6  H   UNL A   1      33.154  31.195  25.297  1.00  0.00     0.163 HD
BRANCH   4   7
ATOM      7  C   UNL A   1      32.832  27.882  25.383  1.00  0.00     0.115 A 
ATOM      8  C   UNL A   1      33.482  25.514  25.473  1.00  0.00     0.124 A 
ATOM      9  N   UNL A   1      32.603  25.786  26.410  1.00  0.00    -0.241 NA
ATOM     10  S   UNL A   1      33.803  26.808  24.414  1.00  0.00    -0.108 S 
ATOM     11  C   UNL A   1      32.281  27.139  26.423  1.00  0.00     0.062 A 
ATOM     12  C   UNL A   1      31.465  27.536  27.599  1.00  0.00     0.068 C 
BRANCH   8  13
ATOM     13  C   UNL A   1      34.175  24.226  25.362  1.00  0.00     0.011 A 
ATOM     14  C   UNL A   1      35.784  21.942  25.378  1.00  0.00     0.119 A 
ATOM     15  C   UNL A   1      34.928  22.180  26.447  1.00  0.00     0.047 A 
ATOM     16  C   UNL A   1      35.763  22.759  24.254  1.00  0.00     0.047 A 
ATOM     17  C   UNL A   1      34.130  23.326  26.440  1.00  0.00     0.015 A 
ATOM     18  C   UNL A   1      34.983  23.913  24.256  1.00  0.00     0.015 A 
BRANCH  14  19
ATOM     19  O   UNL A   1      36.673  20.908  25.397  1.00  0.00    -0.494 OA
BRANCH  19  20
ATOM     20  C   UNL A   1      38.011  21.354  25.112  1.00  0.00     0.229 C 
BRANCH  20  21
ATOM     21  C   UNL A   1      38.654  22.075  26.306  1.00  0.00     0.041 C 
BRANCH  21  22
ATOM     22  C   UNL A   1      40.186  22.176  26.307  1.00  0.00     0.000 C 
ATOM     23  C   UNL A   1      40.825  22.062  27.683  1.00  0.00     0.004 C 
ENDBRANCH  21  22
ENDBRANCH  20  21
ENDBRANCH  19  20
ENDBRANCH  14  19
ENDBRANCH   8  13
ENDBRANCH   4   7
ENDBRANCH   2   3
ENDBRANCH   1   2
BRANCH   1  24
ATOM     24  C   UNL A   1      34.675  32.346  28.485  1.00  0.00     0.002 C 
BRANCH  24  25
ATOM     25  C   UNL A   1      34.668  33.875  28.604  1.00  0.00     0.002 C 
BRANCH  25  26
ATOM     26  C   UNL A   1      33.295  34.494  28.888  1.00  0.00     0.021 C 
BRANCH  26  27
ATOM     27  C   UNL A   1      33.341  35.965  29.290  1.00  0.00     0.116 C 
BRANCH  27  28
ATOM     28  N   UNL A   1      32.586  36.207  30.509  1.00  0.00    -0.352 N 
ATOM     29  C   UNL A   1      32.722  35.629  31.746  1.00  0.00     0.251 C 
ATOM     30  H   UNL A   1      31.876  36.884  30.436  1.00  0.00     0.163 HD
ATOM     31  O   UNL A   1      31.837  35.754  32.585  1.00  0.00    -0.269 OA
BRANCH  29  32
ATOM     32  C   UNL A   1      33.938  34.853  32.065  1.00  0.00     0.039 A 
ATOM     33  C   UNL A   1      35.181  35.488  32.012  1.00  0.00     0.014 A 
ATOM     34  C   UNL A   1      33.853  33.494  32.381  1.00  0.00     0.014 A 
ATOM     35  C   UNL A   1      36.337  34.771  32.325  1.00  0.00     0.010 A 
ATOM     36  C   UNL A   1      34.998  32.799  32.759  1.00  0.00     0.010 A 
ATOM     37  C   UNL A   1      36.252  33.428  32.727  1.00  0.00    -0.014 A 
BRANCH  37  38
ATOM     38  C   UNL A   1      37.463  32.661  33.107  1.00  0.00     0.031 A 
ATOM     39  C   UNL A   1      38.181  32.971  34.392  1.00  0.00     0.074 A 
ATOM     40  C   UNL A   1      37.951  31.729  32.267  1.00  0.00     0.049 A 
ATOM     41  N   UNL A   1      39.291  32.462  34.863  1.00  0.00    -0.248 NA
ATOM     42  C   UNL A   1      37.586  34.009  35.248  1.00  0.00     0.031 C 
ATOM     43  C   UNL A   1      37.369  31.369  30.972  1.00  0.00     0.029 A 
ATOM     44  N   UNL A   1      39.055  30.920  32.372  1.00  0.00    -0.354 N 
ATOM     45  C   UNL A   1      39.533  33.126  36.059  1.00  0.00     0.074 A 
ATOM     46  C   UNL A   1      38.484  34.108  36.218  1.00  0.00     0.031 C 
ATOM     47  C   UNL A   1      38.110  30.398  30.414  1.00  0.00     0.029 A 
ATOM     48  C   UNL A   1      39.236  30.094  31.290  1.00  0.00     0.049 A 
ATOM     49  H   UNL A   1      39.659  30.933  33.149  1.00  0.00     0.167 HD
ATOM     50  C   UNL A   1      40.527  32.918  36.955  1.00  0.00     0.037 A 
ATOM     51  C   UNL A   1      40.206  29.197  31.032  1.00  0.00     0.037 A 
ATOM     52  C   UNL A   1      41.554  31.921  36.806  1.00  0.00     0.049 A 
ATOM     53  C   UNL A   1      41.302  28.991  32.040  1.00  0.00     0.074 A 
ATOM     54  C   UNL A   1      42.570  31.592  37.687  1.00  0.00     0.029 A 
ATOM     55  N   UNL A   1      41.695  31.092  35.704  1.00  0.00    -0.354 N 
ATOM     56  N   UNL A   1      41.482  29.580  33.198  1.00  0.00    -0.248 NA
ATOM     57  C   UNL A   1      42.327  27.990  31.709  1.00  0.00     0.031 C 
ATOM     58  C   UNL A   1      43.352  30.592  37.098  1.00  0.00     0.029 A 
ATOM     59  C   UNL A   1      42.795  30.266  35.872  1.00  0.00     0.049 A 
ATOM     60  H   UNL A   1      41.102  31.090  34.919  1.00  0.00     0.167 HD
ATOM     61  C   UNL A   1      42.623  29.005  33.744  1.00  0.00     0.074 A 
ATOM     62  C   UNL A   1      43.083  28.010  32.797  1.00  0.00     0.031 C 
ATOM     63  C   UNL A   1      43.234  29.277  34.922  1.00  0.00     0.037 A 
BRANCH  50  64
ATOM     64  C   UNL A   1      40.546  33.783  38.182  1.00  0.00     0.057 A 
ATOM     65  C   UNL A   1      41.343  34.931  38.263  1.00  0.00     0.134 A 
ATOM     66  C   UNL A   1      39.730  33.485  39.281  1.00  0.00     0.134 A 
ATOM     67  F   UNL A   1      42.157  35.267  37.250  1.00  0.00    -0.206 F 
ATOM     68  C   UNL A   1      41.349  35.738  39.402  1.00  0.00     0.040 A 
ATOM     69  C   UNL A   1      39.705  34.299  40.415  1.00  0.00     0.040 A 
ATOM     70  F   UNL A   1      38.937  32.403  39.267  1.00  0.00    -0.206 F 
ATOM     71  C   UNL A   1      40.522  35.426  40.479  1.00  0.00     0.006 A 
ENDBRANCH  50  64
BRANCH  51  72
ATOM     72  C   UNL A   1      40.176  28.410  29.774  1.00  0.00     0.057 A 
ATOM     73  C   UNL A   1      40.884  28.833  28.642  1.00  0.00     0.134 A 
ATOM     74  C   UNL A   1      39.435  27.228  29.667  1.00  0.00     0.134 A 
ATOM     75  F   UNL A   1      41.597  29.968  28.678  1.00  0.00    -0.206 F 
ATOM     76  C   UNL A   1      40.839  28.120  27.443  1.00  0.00     0.040 A 
ATOM     77  C   UNL A   1      39.401  26.491  28.481  1.00  0.00     0.040 A 
ATOM     78  F   UNL A   1      38.742  26.764  30.718  1.00  0.00    -0.206 F 
ATOM     79  C   UNL A   1      40.099  26.942  27.362  1.00  0.00     0.006 A 
ENDBRANCH  51  72
BRANCH  63  80
ATOM     80  C   UNL A   1      44.449  28.465  35.267  1.00  0.00     0.057 A 
ATOM     81  C   UNL A   1      44.354  27.250  35.955  1.00  0.00     0.134 A 
ATOM     82  C   UNL A   1      45.724  28.889  34.872  1.00  0.00     0.134 A 
ATOM     83  F   UNL A   1      43.162  26.796  36.373  1.00  0.00    -0.206 F 
ATOM     84  C   UNL A   1      45.487  26.495  36.259  1.00  0.00     0.040 A 
ATOM     85  C   UNL A   1      46.862  28.130  35.147  1.00  0.00     0.040 A 
ATOM     86  F   UNL A   1      45.882  30.040  34.201  1.00  0.00    -0.206 F 
ATOM     87  C   UNL A   1      46.746  26.932  35.848  1.00  0.00     0.006 A 
ENDBRANCH  63  80
ENDBRANCH  37  38
ENDBRANCH  29  32
ENDBRANCH  27  28
ENDBRANCH  26  27
ENDBRANCH  25  26
ENDBRANCH  24  25
ENDBRANCH   1  24
TORSDOF 18
ENDMDL
