MODEL 1
REMARK VINA RESULT:     -10.4      0.000      0.000
REMARK SMILES CN(CC(=O)NCC(=O)NCCCCCCNC(=O)c1ccc(-c2c3nc(c(-c4c(F)cccc4F)c4ccc([nH]4)c(-c4c(F)cccc4F)c4nc(c(-c5c(F)cccc5F)c5ccc2[nH]5)C=C4)C=C3)cc1)c1ncccn1
REMARK SMILES IDX 12 1 11 2 10 3 8 4 9 5 7 7 6 8 4 9 5 10 3 12 2 13 1 14 74 15
REMARK SMILES IDX 75 16 79 17 76 18 78 19 77 20 13 21 14 22 15 23 16 24 17 25
REMARK SMILES IDX 18 26 19 28 20 29 21 30 73 31 22 32 72 33 23 34 24 35 25 36
REMARK SMILES IDX 66 37 26 38 71 39 65 40 67 41 27 42 70 43 64 44 63 45 28 47
REMARK SMILES IDX 54 48 37 49 53 50 38 51 41 52 52 53 68 54 39 55 40 56 51 58
REMARK SMILES IDX 69 59 42 60 29 61 30 62 35 63 31 64 32 65 34 66 36 67 33 68
REMARK SMILES IDX 55 69 56 70 61 71 57 72 58 73 60 74 62 75 59 76 43 77 44 78
REMARK SMILES IDX 49 79 45 80 46 81 48 82 50 83 47 84
REMARK H PARENT 10 6 6 11 17 27 67 46 41 57
REMARK Flexibility Score: inf
ROOT
ATOM      1  C   UNL A   1      32.680  28.784  25.300  1.00  0.00     0.021 C 
ENDROOT
BRANCH   1   2
ATOM      2  C   UNL A   1      32.954  28.900  23.803  1.00  0.00     0.116 C 
BRANCH   2   3
ATOM      3  N   UNL A   1      31.801  29.364  23.057  1.00  0.00    -0.355 N 
ATOM      4  C   UNL A   1      30.840  28.628  22.422  1.00  0.00     0.239 C 
ATOM      5  O   UNL A   1      29.837  29.218  22.012  1.00  0.00    -0.273 OA
ATOM      6  H   UNL A   1      31.697  30.341  22.999  1.00  0.00     0.163 HD
BRANCH   4   7
ATOM      7  C   UNL A   1      30.934  27.098  22.354  1.00  0.00     0.216 C 
BRANCH   7   8
ATOM      8  N   UNL A   1      31.711  26.593  21.236  1.00  0.00    -0.345 N 
ATOM      9  C   UNL A   1      32.728  25.677  21.239  1.00  0.00     0.240 C 
ATOM     10  O   UNL A   1      33.135  25.278  20.143  1.00  0.00    -0.273 OA
ATOM     11  H   UNL A   1      31.474  26.960  20.355  1.00  0.00     0.164 HD
BRANCH   9  12
ATOM     12  C   UNL A   1      33.264  25.109  22.565  1.00  0.00     0.219 C 
BRANCH  12  13
ATOM     13  N   UNL A   1      32.616  23.867  22.995  1.00  0.00    -0.335 N 
ATOM     14  C   UNL A   1      32.846  22.625  22.290  1.00  0.00     0.147 C 
BRANCH  13  15
ATOM     15  C   UNL A   1      32.055  23.798  24.255  1.00  0.00     0.225 A 
ATOM     16  N   UNL A   1      31.530  22.638  24.669  1.00  0.00    -0.221 NA
ATOM     17  N   UNL A   1      32.098  24.884  25.047  1.00  0.00    -0.221 NA
ATOM     18  C   UNL A   1      31.015  22.576  25.910  1.00  0.00     0.117 A 
ATOM     19  C   UNL A   1      31.549  24.791  26.274  1.00  0.00     0.117 A 
ATOM     20  C   UNL A   1      30.991  23.642  26.770  1.00  0.00     0.040 A 
ENDBRANCH  13  15
ENDBRANCH  12  13
ENDBRANCH   9  12
ENDBRANCH   7   8
ENDBRANCH   4   7
ENDBRANCH   2   3
ENDBRANCH   1   2
BRANCH   1  21
ATOM     21  C   UNL A   1      32.721  30.108  26.070  1.00  0.00     0.002 C 
BRANCH  21  22
ATOM     22  C   UNL A   1      31.363  30.734  26.420  1.00  0.00     0.002 C 
BRANCH  22  23
ATOM     23  C   UNL A   1      31.352  32.244  26.670  1.00  0.00     0.021 C 
BRANCH  23  24
ATOM     24  C   UNL A   1      32.694  32.884  27.022  1.00  0.00     0.116 C 
BRANCH  24  25
ATOM     25  N   UNL A   1      32.546  34.159  27.699  1.00  0.00    -0.352 N 
ATOM     26  C   UNL A   1      33.206  34.667  28.793  1.00  0.00     0.251 C 
ATOM     27  H   UNL A   1      31.865  34.755  27.314  1.00  0.00     0.163 HD
ATOM     28  O   UNL A   1      32.814  35.717  29.296  1.00  0.00    -0.269 OA
BRANCH  26  29
ATOM     29  C   UNL A   1      34.372  33.972  29.395  1.00  0.00     0.039 A 
ATOM     30  C   UNL A   1      35.647  34.260  28.892  1.00  0.00     0.014 A 
ATOM     31  C   UNL A   1      34.230  32.985  30.376  1.00  0.00     0.014 A 
ATOM     32  C   UNL A   1      36.773  33.590  29.386  1.00  0.00     0.010 A 
ATOM     33  C   UNL A   1      35.362  32.351  30.906  1.00  0.00     0.010 A 
ATOM     34  C   UNL A   1      36.642  32.637  30.407  1.00  0.00    -0.014 A 
BRANCH  34  35
ATOM     35  C   UNL A   1      37.833  31.906  30.924  1.00  0.00     0.031 A 
ATOM     36  C   UNL A   1      38.412  32.251  32.271  1.00  0.00     0.074 A 
ATOM     37  C   UNL A   1      38.420  30.949  30.179  1.00  0.00     0.049 A 
ATOM     38  N   UNL A   1      39.467  31.756  32.871  1.00  0.00    -0.248 NA
ATOM     39  C   UNL A   1      37.724  33.301  33.037  1.00  0.00     0.031 C 
ATOM     40  C   UNL A   1      37.985  30.526  28.849  1.00  0.00     0.029 A 
ATOM     41  N   UNL A   1      39.516  30.163  30.438  1.00  0.00    -0.354 N 
ATOM     42  C   UNL A   1      39.580  32.446  34.072  1.00  0.00     0.074 A 
ATOM     43  C   UNL A   1      38.509  33.419  34.100  1.00  0.00     0.031 C 
ATOM     44  C   UNL A   1      38.795  29.547  28.413  1.00  0.00     0.029 A 
ATOM     45  C   UNL A   1      39.821  29.290  29.420  1.00  0.00     0.049 A 
ATOM     46  H   UNL A   1      40.035  30.218  31.272  1.00  0.00     0.167 HD
ATOM     47  C   UNL A   1      40.479  32.274  35.071  1.00  0.00     0.037 A 
ATOM     48  C   UNL A   1      40.813  28.387  29.310  1.00  0.00     0.037 A 
ATOM     49  C   UNL A   1      41.527  31.288  35.072  1.00  0.00     0.049 A 
ATOM     50  C   UNL A   1      41.795  28.209  30.435  1.00  0.00     0.074 A 
ATOM     51  C   UNL A   1      42.451  31.011  36.066  1.00  0.00     0.029 A 
ATOM     52  N   UNL A   1      41.787  30.412  34.031  1.00  0.00    -0.354 N 
ATOM     53  N   UNL A   1      41.857  28.836  31.584  1.00  0.00    -0.248 NA
ATOM     54  C   UNL A   1      42.840  27.191  30.251  1.00  0.00     0.031 C 
ATOM     55  C   UNL A   1      43.290  29.986  35.614  1.00  0.00     0.029 A 
ATOM     56  C   UNL A   1      42.864  29.602  34.354  1.00  0.00     0.049 A 
ATOM     57  H   UNL A   1      41.282  30.370  33.187  1.00  0.00     0.167 HD
ATOM     58  C   UNL A   1      42.924  28.269  32.269  1.00  0.00     0.074 A 
ATOM     59  C   UNL A   1      43.478  27.244  31.411  1.00  0.00     0.031 C 
ATOM     60  C   UNL A   1      43.400  28.573  33.501  1.00  0.00     0.037 A 
BRANCH  47  61
ATOM     61  C   UNL A   1      40.365  33.181  36.261  1.00  0.00     0.057 A 
ATOM     62  C   UNL A   1      39.471  32.916  37.305  1.00  0.00     0.134 A 
ATOM     63  C   UNL A   1      41.184  34.311  36.381  1.00  0.00     0.134 A 
ATOM     64  F   UNL A   1      38.652  31.855  37.245  1.00  0.00    -0.206 F 
ATOM     65  C   UNL A   1      39.376  33.757  38.416  1.00  0.00     0.040 A 
ATOM     66  C   UNL A   1      41.115  35.147  37.497  1.00  0.00     0.040 A 
ATOM     67  F   UNL A   1      42.069  34.616  35.419  1.00  0.00    -0.206 F 
ATOM     68  C   UNL A   1      40.204  34.874  38.515  1.00  0.00     0.006 A 
ENDBRANCH  47  61
BRANCH  48  69
ATOM     69  C   UNL A   1      40.918  27.549  28.090  1.00  0.00     0.057 A 
ATOM     70  C   UNL A   1      41.695  27.958  27.000  1.00  0.00     0.134 A 
ATOM     71  C   UNL A   1      40.236  26.331  27.979  1.00  0.00     0.134 A 
ATOM     72  F   UNL A   1      42.353  29.126  27.043  1.00  0.00    -0.206 F 
ATOM     73  C   UNL A   1      41.780  27.194  25.836  1.00  0.00     0.040 A 
ATOM     74  C   UNL A   1      40.327  25.548  26.828  1.00  0.00     0.040 A 
ATOM     75  F   UNL A   1      39.478  25.885  28.992  1.00  0.00    -0.206 F 
ATOM     76  C   UNL A   1      41.097  25.982  25.749  1.00  0.00     0.006 A 
ENDBRANCH  48  69
BRANCH  60  77
ATOM     77  C   UNL A   1      44.551  27.761  34.015  1.00  0.00     0.057 A 
ATOM     78  C   UNL A   1      45.879  28.155  33.817  1.00  0.00     0.134 A 
ATOM     79  C   UNL A   1      44.324  26.590  34.748  1.00  0.00     0.134 A 
ATOM     80  F   UNL A   1      46.163  29.260  33.110  1.00  0.00    -0.206 F 
ATOM     81  C   UNL A   1      46.944  27.401  34.316  1.00  0.00     0.040 A 
ATOM     82  C   UNL A   1      45.380  25.839  35.270  1.00  0.00     0.040 A 
ATOM     83  F   UNL A   1      43.074  26.161  34.979  1.00  0.00    -0.206 F 
ATOM     84  C   UNL A   1      46.695  26.243  35.050  1.00  0.00     0.006 A 
ENDBRANCH  60  77
ENDBRANCH  34  35
ENDBRANCH  26  29
ENDBRANCH  24  25
ENDBRANCH  23  24
ENDBRANCH  22  23
ENDBRANCH  21  22
ENDBRANCH   1  21
TORSDOF 17
ENDMDL
MODEL 2
REMARK VINA RESULT:     -10.4      2.413      3.975
REMARK SMILES CN(CC(=O)NCC(=O)NCCCCCCNC(=O)c1ccc(-c2c3nc(c(-c4c(F)cccc4F)c4ccc([nH]4)c(-c4c(F)cccc4F)c4nc(c(-c5c(F)cccc5F)c5ccc2[nH]5)C=C4)C=C3)cc1)c1ncccn1
REMARK SMILES IDX 12 1 11 2 10 3 8 4 9 5 7 7 6 8 4 9 5 10 3 12 2 13 1 14 74 15
REMARK SMILES IDX 75 16 79 17 76 18 78 19 77 20 13 21 14 22 15 23 16 24 17 25
REMARK SMILES IDX 18 26 19 28 20 29 21 30 73 31 22 32 72 33 23 34 24 35 25 36
REMARK SMILES IDX 66 37 26 38 71 39 65 40 67 41 27 42 70 43 64 44 63 45 28 47
REMARK SMILES IDX 54 48 37 49 53 50 38 51 41 52 52 53 68 54 39 55 40 56 51 58
REMARK SMILES IDX 69 59 42 60 29 61 30 62 35 63 31 64 32 65 34 66 36 67 33 68
REMARK SMILES IDX 55 69 56 70 61 71 57 72 58 73 60 74 62 75 59 76 43 77 44 78
REMARK SMILES IDX 49 79 45 80 46 81 48 82 50 83 47 84
REMARK H PARENT 10 6 6 11 17 27 67 46 41 57
REMARK Flexibility Score: inf
ROOT
ATOM      1  C   UNL A   1      35.904  32.650  28.516  1.00  0.00     0.021 C 
ENDROOT
BRANCH   1   2
ATOM      2  C   UNL A   1      35.361  31.361  27.908  1.00  0.00     0.116 C 
BRANCH   2   3
ATOM      3  N   UNL A   1      33.946  31.437  27.603  1.00  0.00    -0.355 N 
ATOM      4  C   UNL A   1      33.151  30.509  26.991  1.00  0.00     0.239 C 
ATOM      5  O   UNL A   1      31.931  30.693  27.006  1.00  0.00    -0.273 OA
ATOM      6  H   UNL A   1      33.497  32.271  27.873  1.00  0.00     0.163 HD
BRANCH   4   7
ATOM      7  C   UNL A   1      33.742  29.207  26.436  1.00  0.00     0.216 C 
BRANCH   7   8
ATOM      8  N   UNL A   1      33.936  29.200  24.996  1.00  0.00    -0.345 N 
ATOM      9  C   UNL A   1      33.008  29.035  24.004  1.00  0.00     0.240 C 
ATOM     10  O   UNL A   1      33.380  29.228  22.842  1.00  0.00    -0.273 OA
ATOM     11  H   UNL A   1      34.862  29.332  24.693  1.00  0.00     0.164 HD
BRANCH   9  12
ATOM     12  C   UNL A   1      31.543  28.713  24.350  1.00  0.00     0.219 C 
BRANCH  12  13
ATOM     13  N   UNL A   1      30.655  28.625  23.187  1.00  0.00    -0.335 N 
ATOM     14  C   UNL A   1      30.322  27.346  22.600  1.00  0.00     0.147 C 
BRANCH  13  15
ATOM     15  C   UNL A   1      29.872  29.711  22.852  1.00  0.00     0.225 A 
ATOM     16  N   UNL A   1      29.459  29.848  21.585  1.00  0.00    -0.221 NA
ATOM     17  N   UNL A   1      29.503  30.572  23.818  1.00  0.00    -0.221 NA
ATOM     18  C   UNL A   1      28.670  30.893  21.279  1.00  0.00     0.117 A 
ATOM     19  C   UNL A   1      28.733  31.620  23.467  1.00  0.00     0.117 A 
ATOM     20  C   UNL A   1      28.273  31.831  22.194  1.00  0.00     0.040 A 
ENDBRANCH  13  15
ENDBRANCH  12  13
ENDBRANCH   9  12
ENDBRANCH   7   8
ENDBRANCH   4   7
ENDBRANCH   2   3
ENDBRANCH   1   2
BRANCH   1  21
ATOM     21  C   UNL A   1      34.840  33.594  29.088  1.00  0.00     0.002 C 
BRANCH  21  22
ATOM     22  C   UNL A   1      34.796  35.008  28.492  1.00  0.00     0.002 C 
BRANCH  22  23
ATOM     23  C   UNL A   1      33.627  35.896  28.927  1.00  0.00     0.021 C 
BRANCH  23  24
ATOM     24  C   UNL A   1      32.577  35.244  29.826  1.00  0.00     0.116 C 
BRANCH  24  25
ATOM     25  N   UNL A   1      32.309  36.016  31.026  1.00  0.00    -0.352 N 
ATOM     26  C   UNL A   1      32.922  35.990  32.255  1.00  0.00     0.251 C 
ATOM     27  H   UNL A   1      31.571  36.661  30.945  1.00  0.00     0.163 HD
ATOM     28  O   UNL A   1      32.433  36.628  33.183  1.00  0.00    -0.269 OA
BRANCH  26  29
ATOM     29  C   UNL A   1      34.155  35.196  32.498  1.00  0.00     0.039 A 
ATOM     30  C   UNL A   1      34.027  33.944  33.110  1.00  0.00     0.014 A 
ATOM     31  C   UNL A   1      35.431  35.694  32.218  1.00  0.00     0.014 A 
ATOM     32  C   UNL A   1      35.162  33.182  33.412  1.00  0.00     0.010 A 
ATOM     33  C   UNL A   1      36.564  34.911  32.473  1.00  0.00     0.010 A 
ATOM     34  C   UNL A   1      36.442  33.654  33.085  1.00  0.00    -0.014 A 
BRANCH  34  35
ATOM     35  C   UNL A   1      37.656  32.858  33.420  1.00  0.00     0.031 A 
ATOM     36  C   UNL A   1      38.414  33.124  34.694  1.00  0.00     0.074 A 
ATOM     37  C   UNL A   1      38.102  31.910  32.572  1.00  0.00     0.049 A 
ATOM     38  N   UNL A   1      39.514  32.565  35.135  1.00  0.00    -0.248 NA
ATOM     39  C   UNL A   1      37.874  34.167  35.579  1.00  0.00     0.031 C 
ATOM     40  C   UNL A   1      37.485  31.559  31.294  1.00  0.00     0.029 A 
ATOM     41  N   UNL A   1      39.188  31.073  32.660  1.00  0.00    -0.354 N 
ATOM     42  C   UNL A   1      39.807  33.200  36.337  1.00  0.00     0.074 A 
ATOM     43  C   UNL A   1      38.791  34.211  36.536  1.00  0.00     0.031 C 
ATOM     44  C   UNL A   1      38.191  30.569  30.723  1.00  0.00     0.029 A 
ATOM     45  C   UNL A   1      39.324  30.231  31.581  1.00  0.00     0.049 A 
ATOM     46  H   UNL A   1      39.809  31.073  33.423  1.00  0.00     0.167 HD
ATOM     47  C   UNL A   1      40.817  32.953  37.206  1.00  0.00     0.037 A 
ATOM     48  C   UNL A   1      40.254  29.296  31.313  1.00  0.00     0.037 A 
ATOM     49  C   UNL A   1      41.813  31.928  37.038  1.00  0.00     0.049 A 
ATOM     50  C   UNL A   1      41.362  29.035  32.297  1.00  0.00     0.074 A 
ATOM     51  C   UNL A   1      42.842  31.576  37.895  1.00  0.00     0.029 A 
ATOM     52  N   UNL A   1      41.902  31.086  35.941  1.00  0.00    -0.354 N 
ATOM     53  N   UNL A   1      41.595  29.611  33.450  1.00  0.00    -0.248 NA
ATOM     54  C   UNL A   1      42.330  27.986  31.944  1.00  0.00     0.031 C 
ATOM     55  C   UNL A   1      43.572  30.539  37.303  1.00  0.00     0.029 A 
ATOM     56  C   UNL A   1      42.975  30.223  36.095  1.00  0.00     0.049 A 
ATOM     57  H   UNL A   1      41.293  31.099  35.168  1.00  0.00     0.167 HD
ATOM     58  C   UNL A   1      42.715  28.976  33.973  1.00  0.00     0.074 A 
ATOM     59  C   UNL A   1      43.111  27.967  33.015  1.00  0.00     0.031 C 
ATOM     60  C   UNL A   1      43.355  29.210  35.144  1.00  0.00     0.037 A 
BRANCH  47  61
ATOM     61  C   UNL A   1      40.893  33.814  38.432  1.00  0.00     0.057 A 
ATOM     62  C   UNL A   1      41.665  34.982  38.465  1.00  0.00     0.134 A 
ATOM     63  C   UNL A   1      40.159  33.490  39.581  1.00  0.00     0.134 A 
ATOM     64  F   UNL A   1      42.399  35.341  37.400  1.00  0.00    -0.206 F 
ATOM     65  C   UNL A   1      41.724  35.786  39.605  1.00  0.00     0.040 A 
ATOM     66  C   UNL A   1      40.192  34.298  40.719  1.00  0.00     0.040 A 
ATOM     67  F   UNL A   1      39.394  32.390  39.612  1.00  0.00    -0.206 F 
ATOM     68  C   UNL A   1      40.982  35.447  40.734  1.00  0.00     0.006 A 
ENDBRANCH  47  61
BRANCH  48  69
ATOM     69  C   UNL A   1      40.168  28.506  30.060  1.00  0.00     0.057 A 
ATOM     70  C   UNL A   1      40.882  28.887  28.919  1.00  0.00     0.134 A 
ATOM     71  C   UNL A   1      39.364  27.364  29.971  1.00  0.00     0.134 A 
ATOM     72  F   UNL A   1      41.653  29.984  28.941  1.00  0.00    -0.206 F 
ATOM     73  C   UNL A   1      40.789  28.169  27.726  1.00  0.00     0.040 A 
ATOM     74  C   UNL A   1      39.275  26.626  28.789  1.00  0.00     0.040 A 
ATOM     75  F   UNL A   1      38.658  26.948  31.033  1.00  0.00    -0.206 F 
ATOM     76  C   UNL A   1      39.985  27.032  27.660  1.00  0.00     0.006 A 
ENDBRANCH  48  69
BRANCH  60  77
ATOM     77  C   UNL A   1      44.525  28.335  35.477  1.00  0.00     0.057 A 
ATOM     78  C   UNL A   1      45.832  28.681  35.117  1.00  0.00     0.134 A 
ATOM     79  C   UNL A   1      44.343  27.148  36.199  1.00  0.00     0.134 A 
ATOM     80  F   UNL A   1      46.071  29.798  34.413  1.00  0.00    -0.206 F 
ATOM     81  C   UNL A   1      46.918  27.868  35.449  1.00  0.00     0.040 A 
ATOM     82  C   UNL A   1      45.423  26.338  36.554  1.00  0.00     0.040 A 
ATOM     83  F   UNL A   1      43.116  26.763  36.580  1.00  0.00    -0.206 F 
ATOM     84  C   UNL A   1      46.715  26.695  36.175  1.00  0.00     0.006 A 
ENDBRANCH  60  77
ENDBRANCH  34  35
ENDBRANCH  26  29
ENDBRANCH  24  25
ENDBRANCH  23  24
ENDBRANCH  22  23
ENDBRANCH  21  22
ENDBRANCH   1  21
TORSDOF 17
ENDMDL
MODEL 3
REMARK VINA RESULT:     -10.2      4.135      9.176
REMARK SMILES CN(CC(=O)NCC(=O)NCCCCCCNC(=O)c1ccc(-c2c3nc(c(-c4c(F)cccc4F)c4ccc([nH]4)c(-c4c(F)cccc4F)c4nc(c(-c5c(F)cccc5F)c5ccc2[nH]5)C=C4)C=C3)cc1)c1ncccn1
REMARK SMILES IDX 12 1 11 2 10 3 8 4 9 5 7 7 6 8 4 9 5 10 3 12 2 13 1 14 74 15
REMARK SMILES IDX 75 16 79 17 76 18 78 19 77 20 13 21 14 22 15 23 16 24 17 25
REMARK SMILES IDX 18 26 19 28 20 29 21 30 73 31 22 32 72 33 23 34 24 35 25 36
REMARK SMILES IDX 66 37 26 38 71 39 65 40 67 41 27 42 70 43 64 44 63 45 28 47
REMARK SMILES IDX 54 48 37 49 53 50 38 51 41 52 52 53 68 54 39 55 40 56 51 58
REMARK SMILES IDX 69 59 42 60 29 61 30 62 35 63 31 64 32 65 34 66 36 67 33 68
REMARK SMILES IDX 55 69 56 70 61 71 57 72 58 73 60 74 62 75 59 76 43 77 44 78
REMARK SMILES IDX 49 79 45 80 46 81 48 82 50 83 47 84
REMARK H PARENT 10 6 6 11 17 27 67 46 41 57
REMARK Flexibility Score: inf
ROOT
ATOM      1  C   UNL A   1      36.053  22.344  23.874  1.00  0.00     0.021 C 
ENDROOT
BRANCH   1   2
ATOM      2  C   UNL A   1      34.574  22.716  23.845  1.00  0.00     0.116 C 
BRANCH   2   3
ATOM      3  N   UNL A   1      34.351  24.097  23.463  1.00  0.00    -0.355 N 
ATOM      4  C   UNL A   1      33.942  25.144  24.241  1.00  0.00     0.239 C 
ATOM      5  O   UNL A   1      34.004  26.279  23.762  1.00  0.00    -0.273 OA
ATOM      6  H   UNL A   1      34.515  24.309  22.516  1.00  0.00     0.163 HD
BRANCH   4   7
ATOM      7  C   UNL A   1      33.559  24.933  25.712  1.00  0.00     0.216 C 
BRANCH   7   8
ATOM      8  N   UNL A   1      32.795  26.021  26.297  1.00  0.00    -0.345 N 
ATOM      9  C   UNL A   1      31.438  26.187  26.351  1.00  0.00     0.240 C 
ATOM     10  O   UNL A   1      31.008  27.115  27.044  1.00  0.00    -0.273 OA
ATOM     11  H   UNL A   1      33.327  26.738  26.710  1.00  0.00     0.164 HD
BRANCH   9  12
ATOM     12  C   UNL A   1      30.499  25.190  25.647  1.00  0.00     0.219 C 
BRANCH  12  13
ATOM     13  N   UNL A   1      30.426  25.356  24.193  1.00  0.00    -0.335 N 
ATOM     14  C   UNL A   1      30.505  24.214  23.309  1.00  0.00     0.147 C 
BRANCH  13  15
ATOM     15  C   UNL A   1      29.951  26.543  23.671  1.00  0.00     0.225 A 
ATOM     16  N   UNL A   1      30.796  27.347  23.012  1.00  0.00    -0.221 NA
ATOM     17  N   UNL A   1      28.643  26.831  23.794  1.00  0.00    -0.221 NA
ATOM     18  C   UNL A   1      30.313  28.485  22.482  1.00  0.00     0.117 A 
ATOM     19  C   UNL A   1      28.202  27.992  23.271  1.00  0.00     0.117 A 
ATOM     20  C   UNL A   1      29.003  28.868  22.587  1.00  0.00     0.040 A 
ENDBRANCH  13  15
ENDBRANCH  12  13
ENDBRANCH   9  12
ENDBRANCH   7   8
ENDBRANCH   4   7
ENDBRANCH   2   3
ENDBRANCH   1   2
BRANCH   1  21
ATOM     21  C   UNL A   1      36.493  21.536  25.100  1.00  0.00     0.002 C 
BRANCH  21  22
ATOM     22  C   UNL A   1      36.524  20.011  24.933  1.00  0.00     0.002 C 
BRANCH  22  23
ATOM     23  C   UNL A   1      37.906  19.361  24.839  1.00  0.00     0.021 C 
BRANCH  23  24
ATOM     24  C   UNL A   1      39.000  19.963  25.722  1.00  0.00     0.116 C 
BRANCH  24  25
ATOM     25  N   UNL A   1      40.200  19.147  25.761  1.00  0.00    -0.352 N 
ATOM     26  C   UNL A   1      41.500  19.490  26.046  1.00  0.00     0.251 C 
ATOM     27  H   UNL A   1      40.061  18.197  25.548  1.00  0.00     0.163 HD
ATOM     28  O   UNL A   1      42.391  18.663  25.872  1.00  0.00    -0.269 OA
BRANCH  26  29
ATOM     29  C   UNL A   1      41.859  20.842  26.546  1.00  0.00     0.039 A 
ATOM     30  C   UNL A   1      41.710  21.104  27.914  1.00  0.00     0.014 A 
ATOM     31  C   UNL A   1      42.253  21.876  25.690  1.00  0.00     0.014 A 
ATOM     32  C   UNL A   1      41.981  22.378  28.426  1.00  0.00     0.010 A 
ATOM     33  C   UNL A   1      42.574  23.136  26.210  1.00  0.00     0.010 A 
ATOM     34  C   UNL A   1      42.427  23.405  27.580  1.00  0.00    -0.014 A 
BRANCH  34  35
ATOM     35  C   UNL A   1      42.700  24.768  28.114  1.00  0.00     0.031 A 
ATOM     36  C   UNL A   1      44.096  25.163  28.520  1.00  0.00     0.074 A 
ATOM     37  C   UNL A   1      41.694  25.652  28.266  1.00  0.00     0.049 A 
ATOM     38  N   UNL A   1      44.520  26.287  29.043  1.00  0.00    -0.248 NA
ATOM     39  C   UNL A   1      45.150  24.156  28.326  1.00  0.00     0.031 C 
ATOM     40  C   UNL A   1      40.291  25.403  27.939  1.00  0.00     0.029 A 
ATOM     41  N   UNL A   1      41.702  26.941  28.742  1.00  0.00    -0.354 N 
ATOM     42  C   UNL A   1      45.883  26.115  29.259  1.00  0.00     0.074 A 
ATOM     43  C   UNL A   1      46.206  24.767  28.844  1.00  0.00     0.031 C 
ATOM     44  C   UNL A   1      39.575  26.506  28.208  1.00  0.00     0.029 A 
ATOM     45  C   UNL A   1      40.461  27.533  28.751  1.00  0.00     0.049 A 
ATOM     46  H   UNL A   1      42.518  27.398  29.047  1.00  0.00     0.167 HD
ATOM     47  C   UNL A   1      46.787  27.003  29.739  1.00  0.00     0.037 A 
ATOM     48  C   UNL A   1      40.080  28.761  29.149  1.00  0.00     0.037 A 
ATOM     49  C   UNL A   1      46.485  28.357  30.121  1.00  0.00     0.049 A 
ATOM     50  C   UNL A   1      41.104  29.731  29.672  1.00  0.00     0.074 A 
ATOM     51  C   UNL A   1      47.351  29.340  30.570  1.00  0.00     0.029 A 
ATOM     52  N   UNL A   1      45.220  28.921  30.095  1.00  0.00    -0.354 N 
ATOM     53  N   UNL A   1      42.395  29.569  29.823  1.00  0.00    -0.248 NA
ATOM     54  C   UNL A   1      40.616  31.060  30.072  1.00  0.00     0.031 C 
ATOM     55  C   UNL A   1      46.605  30.492  30.844  1.00  0.00     0.029 A 
ATOM     56  C   UNL A   1      45.281  30.235  30.531  1.00  0.00     0.049 A 
ATOM     57  H   UNL A   1      44.400  28.458  29.810  1.00  0.00     0.167 HD
ATOM     58  C   UNL A   1      42.877  30.779  30.304  1.00  0.00     0.074 A 
ATOM     59  C   UNL A   1      41.742  31.670  30.414  1.00  0.00     0.031 C 
ATOM     60  C   UNL A   1      44.149  31.121  30.624  1.00  0.00     0.037 A 
BRANCH  47  61
ATOM     61  C   UNL A   1      48.205  26.532  29.875  1.00  0.00     0.057 A 
ATOM     62  C   UNL A   1      48.659  25.891  31.035  1.00  0.00     0.134 A 
ATOM     63  C   UNL A   1      49.116  26.690  28.823  1.00  0.00     0.134 A 
ATOM     64  F   UNL A   1      47.838  25.719  32.082  1.00  0.00    -0.206 F 
ATOM     65  C   UNL A   1      49.977  25.445  31.153  1.00  0.00     0.040 A 
ATOM     66  C   UNL A   1      50.430  26.228  28.921  1.00  0.00     0.040 A 
ATOM     67  F   UNL A   1      48.742  27.288  27.683  1.00  0.00    -0.206 F 
ATOM     68  C   UNL A   1      50.865  25.609  30.091  1.00  0.00     0.006 A 
ENDBRANCH  47  61
BRANCH  48  69
ATOM     69  C   UNL A   1      38.656  29.163  29.046  1.00  0.00     0.057 A 
ATOM     70  C   UNL A   1      37.800  29.070  30.149  1.00  0.00     0.134 A 
ATOM     71  C   UNL A   1      38.116  29.636  27.844  1.00  0.00     0.134 A 
ATOM     72  F   UNL A   1      38.258  28.604  31.320  1.00  0.00    -0.206 F 
ATOM     73  C   UNL A   1      36.452  29.418  30.058  1.00  0.00     0.040 A 
ATOM     74  C   UNL A   1      36.774  30.005  27.744  1.00  0.00     0.040 A 
ATOM     75  F   UNL A   1      38.888  29.750  26.754  1.00  0.00    -0.206 F 
ATOM     76  C   UNL A   1      35.936  29.892  28.853  1.00  0.00     0.006 A 
ENDBRANCH  48  69
BRANCH  60  77
ATOM     77  C   UNL A   1      44.390  32.527  31.084  1.00  0.00     0.057 A 
ATOM     78  C   UNL A   1      44.664  33.562  30.183  1.00  0.00     0.134 A 
ATOM     79  C   UNL A   1      44.311  32.853  32.444  1.00  0.00     0.134 A 
ATOM     80  F   UNL A   1      44.767  33.311  28.869  1.00  0.00    -0.206 F 
ATOM     81  C   UNL A   1      44.868  34.873  30.621  1.00  0.00     0.040 A 
ATOM     82  C   UNL A   1      44.493  34.164  32.891  1.00  0.00     0.040 A 
ATOM     83  F   UNL A   1      44.045  31.908  33.358  1.00  0.00    -0.206 F 
ATOM     84  C   UNL A   1      44.776  35.177  31.978  1.00  0.00     0.006 A 
ENDBRANCH  60  77
ENDBRANCH  34  35
ENDBRANCH  26  29
ENDBRANCH  24  25
ENDBRANCH  23  24
ENDBRANCH  22  23
ENDBRANCH  21  22
ENDBRANCH   1  21
TORSDOF 17
ENDMDL
