MODEL 1
REMARK VINA RESULT:     -13.7      0.000      0.000
REMARK SMILES Cc1ccc(-c2cc(C(=O)NCCCCCCNC(=O)c3ccc(-c4c5nc(c(-c6c(F)cccc6F)c6ccc([nH]6)c(-c6c(F)cccc6F)c6nc(c(-c7c(F)cccc7F)c7ccc4[nH]7)C=C6)C=C5)cc3)c3c(-c4cccc([N+](=O)[O-])c4)[nH]nc3n2)cc1
REMARK SMILES IDX 14 1 13 2 12 3 11 4 9 5 10 6 8 8 6 9 7 10 89 11 88 12 75 13
REMARK SMILES IDX 87 14 76 15 86 16 5 18 1 19 2 20 3 21 91 22 4 23 90 24 77 25
REMARK SMILES IDX 78 26 85 27 79 28 81 29 80 30 82 31 83 32 84 33 15 34 16 35
REMARK SMILES IDX 17 36 18 37 19 38 20 40 21 41 22 42 74 43 23 44 73 45 24 46
REMARK SMILES IDX 25 47 26 48 67 49 27 50 72 51 66 52 68 53 28 54 71 55 65 56
REMARK SMILES IDX 64 57 29 59 55 60 38 61 54 62 39 63 42 64 53 65 69 66 40 67
REMARK SMILES IDX 41 68 52 70 70 71 43 72 30 73 31 74 36 75 32 76 33 77 35 78
REMARK SMILES IDX 37 79 34 80 56 81 57 82 62 83 58 84 59 85 61 86 63 87 60 88
REMARK SMILES IDX 44 89 45 90 50 91 46 92 47 93 49 94 51 95 48 96
REMARK H PARENT 11 7 86 17 18 39 68 58 42 69
REMARK Flexibility Score: inf
ROOT
ATOM      1  C   UNL A   1      33.062  29.681  25.548  1.00  0.00     0.002 C 
ENDROOT
BRANCH   1   2
ATOM      2  C   UNL A   1      32.039  28.532  25.573  1.00  0.00     0.021 C 
BRANCH   2   3
ATOM      3  C   UNL A   1      32.168  27.604  26.781  1.00  0.00     0.116 C 
BRANCH   3   4
ATOM      4  N   UNL A   1      31.441  26.373  26.576  1.00  0.00    -0.352 N 
ATOM      5  C   UNL A   1      31.639  25.211  25.885  1.00  0.00     0.252 C 
ATOM      6  O   UNL A   1      30.823  24.342  26.176  1.00  0.00    -0.269 OA
ATOM      7  H   UNL A   1      30.582  26.371  27.058  1.00  0.00     0.163 HD
BRANCH   5   8
ATOM      8  C   UNL A   1      32.750  24.951  24.934  1.00  0.00     0.055 A 
ATOM      9  C   UNL A   1      34.977  23.971  24.413  1.00  0.00     0.074 A 
ATOM     10  C   UNL A   1      34.016  24.494  25.317  1.00  0.00     0.043 A 
ATOM     11  N   UNL A   1      34.881  23.985  23.061  1.00  0.00    -0.226 NA
ATOM     12  C   UNL A   1      33.733  24.566  22.628  1.00  0.00     0.182 A 
ATOM     13  C   UNL A   1      32.701  25.034  23.525  1.00  0.00     0.059 A 
ATOM     14  N   UNL A   1      33.407  24.755  21.351  1.00  0.00    -0.154 NA
ATOM     15  C   UNL A   1      31.742  25.585  22.685  1.00  0.00     0.076 A 
ATOM     16  N   UNL A   1      32.216  25.364  21.413  1.00  0.00    -0.275 N 
ATOM     17  H   UNL A   1      31.715  25.633  20.608  1.00  0.00     0.190 HD
BRANCH   9  18
ATOM     18  C   UNL A   1      36.127  23.253  24.989  1.00  0.00     0.000 A 
ATOM     19  C   UNL A   1      39.830  21.435  26.296  1.00  0.00     0.044 C 
ATOM     20  C   UNL A   1      38.526  22.054  25.885  1.00  0.00    -0.051 A 
ATOM     21  C   UNL A   1      37.636  21.350  25.062  1.00  0.00     0.004 A 
ATOM     22  C   UNL A   1      38.189  23.342  26.301  1.00  0.00     0.004 A 
ATOM     23  C   UNL A   1      36.444  21.941  24.623  1.00  0.00     0.010 A 
ATOM     24  C   UNL A   1      37.002  23.931  25.860  1.00  0.00     0.010 A 
ENDBRANCH   9  18
BRANCH  15  25
ATOM     25  C   UNL A   1      30.507  26.326  22.899  1.00  0.00     0.007 A 
ATOM     26  C   UNL A   1      29.460  25.757  23.637  1.00  0.00     0.011 A 
ATOM     27  C   UNL A   1      30.410  27.659  22.473  1.00  0.00     0.096 A 
ATOM     28  C   UNL A   1      28.350  26.524  24.001  1.00  0.00     0.008 A 
ATOM     29  C   UNL A   1      29.316  28.433  22.881  1.00  0.00     0.270 A 
ATOM     30  C   UNL A   1      28.281  27.870  23.640  1.00  0.00     0.085 A 
BRANCH  29  31
ATOM     31  N   UNL A   1      29.295  29.869  22.577  1.00  0.00     0.062 N 
ATOM     32  O   UNL A   1      29.308  30.207  21.385  1.00  0.00    -0.258 OA
ATOM     33  O   UNL A   1      29.272  30.663  23.530  1.00  0.00    -0.258 OA
ENDBRANCH  29  31
ENDBRANCH  15  25
ENDBRANCH   5   8
ENDBRANCH   3   4
ENDBRANCH   2   3
ENDBRANCH   1   2
BRANCH   1  34
ATOM     34  C   UNL A   1      33.930  29.848  26.807  1.00  0.00     0.002 C 
BRANCH  34  35
ATOM     35  C   UNL A   1      33.651  31.092  27.654  1.00  0.00     0.021 C 
BRANCH  35  36
ATOM     36  C   UNL A   1      34.850  32.010  27.819  1.00  0.00     0.116 C 
BRANCH  36  37
ATOM     37  N   UNL A   1      35.196  32.265  29.209  1.00  0.00    -0.352 N 
ATOM     38  C   UNL A   1      35.963  31.517  30.091  1.00  0.00     0.251 C 
ATOM     39  H   UNL A   1      34.828  33.098  29.583  1.00  0.00     0.163 HD
ATOM     40  O   UNL A   1      36.083  31.873  31.245  1.00  0.00    -0.269 OA
BRANCH  38  41
ATOM     41  C   UNL A   1      36.774  30.383  29.569  1.00  0.00     0.039 A 
ATOM     42  C   UNL A   1      36.903  29.267  30.405  1.00  0.00     0.014 A 
ATOM     43  C   UNL A   1      37.593  30.523  28.456  1.00  0.00     0.014 A 
ATOM     44  C   UNL A   1      38.035  28.468  30.300  1.00  0.00     0.010 A 
ATOM     45  C   UNL A   1      38.771  29.809  28.419  1.00  0.00     0.010 A 
ATOM     46  C   UNL A   1      39.024  28.839  29.394  1.00  0.00    -0.014 A 
BRANCH  46  47
ATOM     47  C   UNL A   1      40.395  28.358  29.465  1.00  0.00     0.031 A 
ATOM     48  C   UNL A   1      40.752  27.061  28.865  1.00  0.00     0.074 A 
ATOM     49  C   UNL A   1      41.347  29.176  29.967  1.00  0.00     0.049 A 
ATOM     50  N   UNL A   1      41.836  26.412  29.119  1.00  0.00    -0.248 NA
ATOM     51  C   UNL A   1      39.866  26.359  27.947  1.00  0.00     0.031 C 
ATOM     52  C   UNL A   1      42.795  29.050  29.831  1.00  0.00     0.029 A 
ATOM     53  N   UNL A   1      41.173  30.201  30.909  1.00  0.00    -0.354 N 
ATOM     54  C   UNL A   1      41.927  25.372  28.222  1.00  0.00     0.074 A 
ATOM     55  C   UNL A   1      40.645  25.345  27.560  1.00  0.00     0.031 C 
ATOM     56  C   UNL A   1      43.384  29.731  30.827  1.00  0.00     0.029 A 
ATOM     57  C   UNL A   1      42.327  30.171  31.722  1.00  0.00     0.049 A 
ATOM     58  H   UNL A   1      40.405  30.812  30.987  1.00  0.00     0.167 HD
ATOM     59  C   UNL A   1      43.130  24.746  28.061  1.00  0.00     0.037 A 
ATOM     60  C   UNL A   1      42.256  29.856  33.048  1.00  0.00     0.037 A 
ATOM     61  C   UNL A   1      44.100  25.232  29.043  1.00  0.00     0.049 A 
ATOM     62  C   UNL A   1      43.089  28.656  33.432  1.00  0.00     0.074 A 
ATOM     63  C   UNL A   1      45.108  26.182  28.979  1.00  0.00     0.029 A 
ATOM     64  N   UNL A   1      43.900  24.962  30.392  1.00  0.00    -0.354 N 
ATOM     65  N   UNL A   1      43.466  27.730  32.594  1.00  0.00    -0.248 NA
ATOM     66  C   UNL A   1      43.553  28.401  34.793  1.00  0.00     0.031 C 
ATOM     67  C   UNL A   1      45.475  26.523  30.304  1.00  0.00     0.029 A 
ATOM     68  C   UNL A   1      44.707  25.765  31.173  1.00  0.00     0.049 A 
ATOM     69  H   UNL A   1      43.269  24.291  30.742  1.00  0.00     0.167 HD
ATOM     70  C   UNL A   1      44.186  26.773  33.261  1.00  0.00     0.074 A 
ATOM     71  C   UNL A   1      44.227  27.248  34.632  1.00  0.00     0.031 C 
ATOM     72  C   UNL A   1      44.679  25.668  32.625  1.00  0.00     0.037 A 
BRANCH  59  73
ATOM     73  C   UNL A   1      43.508  23.933  26.840  1.00  0.00     0.057 A 
ATOM     74  C   UNL A   1      43.398  22.527  26.849  1.00  0.00     0.134 A 
ATOM     75  C   UNL A   1      44.054  24.452  25.652  1.00  0.00     0.134 A 
ATOM     76  F   UNL A   1      42.797  21.872  27.850  1.00  0.00    -0.206 F 
ATOM     77  C   UNL A   1      43.904  21.710  25.828  1.00  0.00     0.040 A 
ATOM     78  C   UNL A   1      44.611  23.647  24.646  1.00  0.00     0.040 A 
ATOM     79  F   UNL A   1      44.018  25.758  25.372  1.00  0.00    -0.206 F 
ATOM     80  C   UNL A   1      44.551  22.267  24.738  1.00  0.00     0.006 A 
ENDBRANCH  59  73
BRANCH  60  81
ATOM     81  C   UNL A   1      40.959  30.229  33.674  1.00  0.00     0.057 A 
ATOM     82  C   UNL A   1      40.771  31.558  34.094  1.00  0.00     0.134 A 
ATOM     83  C   UNL A   1      39.816  29.441  33.523  1.00  0.00     0.134 A 
ATOM     84  F   UNL A   1      41.828  32.369  34.261  1.00  0.00    -0.206 F 
ATOM     85  C   UNL A   1      39.497  32.115  34.236  1.00  0.00     0.040 A 
ATOM     86  C   UNL A   1      38.533  29.985  33.678  1.00  0.00     0.040 A 
ATOM     87  F   UNL A   1      39.910  28.170  33.109  1.00  0.00    -0.206 F 
ATOM     88  C   UNL A   1      38.372  31.334  33.994  1.00  0.00     0.006 A 
ENDBRANCH  60  81
BRANCH  72  89
ATOM     89  C   UNL A   1      45.257  24.434  33.281  1.00  0.00     0.057 A 
ATOM     90  C   UNL A   1      46.552  24.349  33.811  1.00  0.00     0.134 A 
ATOM     91  C   UNL A   1      44.436  23.310  33.540  1.00  0.00     0.134 A 
ATOM     92  F   UNL A   1      47.409  25.376  33.748  1.00  0.00    -0.206 F 
ATOM     93  C   UNL A   1      47.015  23.215  34.496  1.00  0.00     0.040 A 
ATOM     94  C   UNL A   1      44.868  22.199  34.271  1.00  0.00     0.040 A 
ATOM     95  F   UNL A   1      43.163  23.252  33.120  1.00  0.00    -0.206 F 
ATOM     96  C   UNL A   1      46.169  22.141  34.740  1.00  0.00     0.006 A 
ENDBRANCH  72  89
ENDBRANCH  46  47
ENDBRANCH  38  41
ENDBRANCH  36  37
ENDBRANCH  35  36
ENDBRANCH  34  35
ENDBRANCH   1  34
TORSDOF 16
ENDMDL
MODEL 2
REMARK VINA RESULT:     -13.7      3.925      8.630
REMARK SMILES Cc1ccc(-c2cc(C(=O)NCCCCCCNC(=O)c3ccc(-c4c5nc(c(-c6c(F)cccc6F)c6ccc([nH]6)c(-c6c(F)cccc6F)c6nc(c(-c7c(F)cccc7F)c7ccc4[nH]7)C=C6)C=C5)cc3)c3c(-c4cccc([N+](=O)[O-])c4)[nH]nc3n2)cc1
REMARK SMILES IDX 14 1 13 2 12 3 11 4 9 5 10 6 8 8 6 9 7 10 89 11 88 12 75 13
REMARK SMILES IDX 87 14 76 15 86 16 5 18 1 19 2 20 3 21 91 22 4 23 90 24 77 25
REMARK SMILES IDX 78 26 85 27 79 28 81 29 80 30 82 31 83 32 84 33 15 34 16 35
REMARK SMILES IDX 17 36 18 37 19 38 20 40 21 41 22 42 74 43 23 44 73 45 24 46
REMARK SMILES IDX 25 47 26 48 67 49 27 50 72 51 66 52 68 53 28 54 71 55 65 56
REMARK SMILES IDX 64 57 29 59 55 60 38 61 54 62 39 63 42 64 53 65 69 66 40 67
REMARK SMILES IDX 41 68 52 70 70 71 43 72 30 73 31 74 36 75 32 76 33 77 35 78
REMARK SMILES IDX 37 79 34 80 56 81 57 82 62 83 58 84 59 85 61 86 63 87 60 88
REMARK SMILES IDX 44 89 45 90 50 91 46 92 47 93 49 94 51 95 48 96
REMARK H PARENT 11 7 86 17 18 39 68 58 42 69
REMARK Flexibility Score: inf
ROOT
ATOM      1  C   UNL A   1      36.323  22.375  25.341  1.00  0.00     0.002 C 
ENDROOT
BRANCH   1   2
ATOM      2  C   UNL A   1      36.143  23.500  24.306  1.00  0.00     0.021 C 
BRANCH   2   3
ATOM      3  C   UNL A   1      35.310  24.682  24.802  1.00  0.00     0.116 C 
BRANCH   3   4
ATOM      4  N   UNL A   1      34.337  25.088  23.815  1.00  0.00    -0.352 N 
ATOM      5  C   UNL A   1      33.048  24.760  23.503  1.00  0.00     0.252 C 
ATOM      6  O   UNL A   1      32.545  25.530  22.692  1.00  0.00    -0.269 OA
ATOM      7  H   UNL A   1      34.694  25.781  23.212  1.00  0.00     0.163 HD
BRANCH   5   8
ATOM      8  C   UNL A   1      32.271  23.648  24.109  1.00  0.00     0.055 A 
ATOM      9  C   UNL A   1      31.923  21.221  24.532  1.00  0.00     0.074 A 
ATOM     10  C   UNL A   1      32.438  22.301  23.769  1.00  0.00     0.043 A 
ATOM     11  N   UNL A   1      31.078  21.329  25.585  1.00  0.00    -0.226 NA
ATOM     12  C   UNL A   1      30.754  22.618  25.862  1.00  0.00     0.182 A 
ATOM     13  C   UNL A   1      31.325  23.741  25.154  1.00  0.00     0.059 A 
ATOM     14  N   UNL A   1      29.906  23.006  26.812  1.00  0.00    -0.154 NA
ATOM     15  C   UNL A   1      30.703  24.849  25.714  1.00  0.00     0.076 A 
ATOM     16  N   UNL A   1      29.895  24.341  26.702  1.00  0.00    -0.275 N 
ATOM     17  H   UNL A   1      29.348  24.916  27.287  1.00  0.00     0.190 HD
BRANCH   9  18
ATOM     18  C   UNL A   1      32.433  19.873  24.226  1.00  0.00     0.000 A 
ATOM     19  C   UNL A   1      34.423  16.179  23.170  1.00  0.00     0.044 C 
ATOM     20  C   UNL A   1      33.702  17.434  23.564  1.00  0.00    -0.051 A 
ATOM     21  C   UNL A   1      32.753  18.005  22.705  1.00  0.00     0.004 A 
ATOM     22  C   UNL A   1      33.979  18.061  24.779  1.00  0.00     0.004 A 
ATOM     23  C   UNL A   1      32.118  19.210  23.036  1.00  0.00     0.010 A 
ATOM     24  C   UNL A   1      33.348  19.262  25.106  1.00  0.00     0.010 A 
ENDBRANCH   9  18
BRANCH  15  25
ATOM     25  C   UNL A   1      30.709  26.276  25.421  1.00  0.00     0.007 A 
ATOM     26  C   UNL A   1      31.612  27.128  26.073  1.00  0.00     0.011 A 
ATOM     27  C   UNL A   1      29.898  26.781  24.395  1.00  0.00     0.096 A 
ATOM     28  C   UNL A   1      31.751  28.459  25.668  1.00  0.00     0.008 A 
ATOM     29  C   UNL A   1      30.075  28.104  23.966  1.00  0.00     0.270 A 
ATOM     30  C   UNL A   1      30.995  28.948  24.602  1.00  0.00     0.085 A 
BRANCH  29  31
ATOM     31  N   UNL A   1      29.346  28.583  22.786  1.00  0.00     0.062 N 
ATOM     32  O   UNL A   1      30.011  28.933  21.799  1.00  0.00    -0.258 OA
ATOM     33  O   UNL A   1      28.108  28.617  22.844  1.00  0.00    -0.258 OA
ENDBRANCH  29  31
ENDBRANCH  15  25
ENDBRANCH   5   8
ENDBRANCH   3   4
ENDBRANCH   2   3
ENDBRANCH   1   2
BRANCH   1  34
ATOM     34  C   UNL A   1      37.315  21.260  24.967  1.00  0.00     0.002 C 
BRANCH  34  35
ATOM     35  C   UNL A   1      38.703  21.356  25.607  1.00  0.00     0.021 C 
BRANCH  35  36
ATOM     36  C   UNL A   1      38.954  22.656  26.350  1.00  0.00     0.116 C 
BRANCH  36  37
ATOM     37  N   UNL A   1      40.350  22.861  26.704  1.00  0.00    -0.352 N 
ATOM     38  C   UNL A   1      41.036  24.030  26.996  1.00  0.00     0.251 C 
ATOM     39  H   UNL A   1      40.894  22.041  26.741  1.00  0.00     0.163 HD
ATOM     40  O   UNL A   1      42.231  23.998  27.207  1.00  0.00    -0.269 OA
BRANCH  38  41
ATOM     41  C   UNL A   1      40.270  25.287  27.222  1.00  0.00     0.039 A 
ATOM     42  C   UNL A   1      40.592  26.375  26.401  1.00  0.00     0.014 A 
ATOM     43  C   UNL A   1      39.491  25.473  28.357  1.00  0.00     0.014 A 
ATOM     44  C   UNL A   1      40.396  27.665  26.877  1.00  0.00     0.010 A 
ATOM     45  C   UNL A   1      39.398  26.742  28.884  1.00  0.00     0.010 A 
ATOM     46  C   UNL A   1      39.928  27.826  28.177  1.00  0.00    -0.014 A 
BRANCH  46  47
ATOM     47  C   UNL A   1      40.065  29.065  28.929  1.00  0.00     0.031 A 
ATOM     48  C   UNL A   1      38.999  30.080  28.874  1.00  0.00     0.074 A 
ATOM     49  C   UNL A   1      41.112  29.202  29.773  1.00  0.00     0.049 A 
ATOM     50  N   UNL A   1      39.139  31.306  29.246  1.00  0.00    -0.248 NA
ATOM     51  C   UNL A   1      37.678  29.792  28.334  1.00  0.00     0.031 C 
ATOM     52  C   UNL A   1      41.269  30.176  30.848  1.00  0.00     0.029 A 
ATOM     53  N   UNL A   1      42.369  28.589  29.670  1.00  0.00    -0.354 N 
ATOM     54  C   UNL A   1      37.892  31.888  29.258  1.00  0.00     0.074 A 
ATOM     55  C   UNL A   1      37.029  30.924  28.620  1.00  0.00     0.031 C 
ATOM     56  C   UNL A   1      42.577  30.312  31.121  1.00  0.00     0.029 A 
ATOM     57  C   UNL A   1      43.300  29.553  30.115  1.00  0.00     0.049 A 
ATOM     58  H   UNL A   1      42.562  27.677  29.353  1.00  0.00     0.167 HD
ATOM     59  C   UNL A   1      37.723  33.065  29.930  1.00  0.00     0.037 A 
ATOM     60  C   UNL A   1      44.235  30.080  29.272  1.00  0.00     0.037 A 
ATOM     61  C   UNL A   1      39.010  33.581  30.400  1.00  0.00     0.049 A 
ATOM     62  C   UNL A   1      44.151  31.583  29.137  1.00  0.00     0.074 A 
ATOM     63  C   UNL A   1      39.663  33.511  31.621  1.00  0.00     0.029 A 
ATOM     64  N   UNL A   1      39.957  34.000  29.471  1.00  0.00    -0.354 N 
ATOM     65  N   UNL A   1      43.076  32.279  29.386  1.00  0.00    -0.248 NA
ATOM     66  C   UNL A   1      45.267  32.416  28.700  1.00  0.00     0.031 C 
ATOM     67  C   UNL A   1      41.025  33.839  31.411  1.00  0.00     0.029 A 
ATOM     68  C   UNL A   1      41.196  34.130  30.067  1.00  0.00     0.049 A 
ATOM     69  H   UNL A   1      39.770  34.181  28.522  1.00  0.00     0.167 HD
ATOM     70  C   UNL A   1      43.323  33.606  29.145  1.00  0.00     0.074 A 
ATOM     71  C   UNL A   1      44.714  33.642  28.734  1.00  0.00     0.031 C 
ATOM     72  C   UNL A   1      42.355  34.559  29.298  1.00  0.00     0.037 A 
BRANCH  59  73
ATOM     73  C   UNL A   1      36.385  33.582  30.419  1.00  0.00     0.057 A 
ATOM     74  C   UNL A   1      35.427  34.073  29.508  1.00  0.00     0.134 A 
ATOM     75  C   UNL A   1      35.998  33.694  31.766  1.00  0.00     0.134 A 
ATOM     76  F   UNL A   1      35.578  33.942  28.184  1.00  0.00    -0.206 F 
ATOM     77  C   UNL A   1      34.255  34.732  29.907  1.00  0.00     0.040 A 
ATOM     78  C   UNL A   1      34.855  34.396  32.181  1.00  0.00     0.040 A 
ATOM     79  F   UNL A   1      36.666  33.077  32.745  1.00  0.00    -0.206 F 
ATOM     80  C   UNL A   1      33.984  34.933  31.249  1.00  0.00     0.006 A 
ENDBRANCH  59  73
BRANCH  60  81
ATOM     81  C   UNL A   1      44.644  29.150  28.187  1.00  0.00     0.057 A 
ATOM     82  C   UNL A   1      45.542  28.111  28.493  1.00  0.00     0.134 A 
ATOM     83  C   UNL A   1      43.909  29.028  27.005  1.00  0.00     0.134 A 
ATOM     84  F   UNL A   1      46.281  28.166  29.612  1.00  0.00    -0.206 F 
ATOM     85  C   UNL A   1      45.614  26.946  27.725  1.00  0.00     0.040 A 
ATOM     86  C   UNL A   1      43.985  27.871  26.218  1.00  0.00     0.040 A 
ATOM     87  F   UNL A   1      43.020  29.967  26.652  1.00  0.00    -0.206 F 
ATOM     88  C   UNL A   1      44.807  26.810  26.600  1.00  0.00     0.006 A 
ENDBRANCH  60  81
BRANCH  72  89
ATOM     89  C   UNL A   1      42.421  35.995  28.827  1.00  0.00     0.057 A 
ATOM     90  C   UNL A   1      43.049  37.033  29.530  1.00  0.00     0.134 A 
ATOM     91  C   UNL A   1      41.971  36.345  27.531  1.00  0.00     0.134 A 
ATOM     92  F   UNL A   1      43.628  36.829  30.720  1.00  0.00    -0.206 F 
ATOM     93  C   UNL A   1      43.170  38.331  29.011  1.00  0.00     0.040 A 
ATOM     94  C   UNL A   1      42.137  37.620  26.982  1.00  0.00     0.040 A 
ATOM     95  F   UNL A   1      41.372  35.454  26.725  1.00  0.00    -0.206 F 
ATOM     96  C   UNL A   1      42.726  38.625  27.729  1.00  0.00     0.006 A 
ENDBRANCH  72  89
ENDBRANCH  46  47
ENDBRANCH  38  41
ENDBRANCH  36  37
ENDBRANCH  35  36
ENDBRANCH  34  35
ENDBRANCH   1  34
TORSDOF 16
ENDMDL
MODEL 3
REMARK VINA RESULT:     -13.6      3.778      9.163
REMARK SMILES Cc1ccc(-c2cc(C(=O)NCCCCCCNC(=O)c3ccc(-c4c5nc(c(-c6c(F)cccc6F)c6ccc([nH]6)c(-c6c(F)cccc6F)c6nc(c(-c7c(F)cccc7F)c7ccc4[nH]7)C=C6)C=C5)cc3)c3c(-c4cccc([N+](=O)[O-])c4)[nH]nc3n2)cc1
REMARK SMILES IDX 14 1 13 2 12 3 11 4 9 5 10 6 8 8 6 9 7 10 89 11 88 12 75 13
REMARK SMILES IDX 87 14 76 15 86 16 5 18 1 19 2 20 3 21 91 22 4 23 90 24 77 25
REMARK SMILES IDX 78 26 85 27 79 28 81 29 80 30 82 31 83 32 84 33 15 34 16 35
REMARK SMILES IDX 17 36 18 37 19 38 20 40 21 41 22 42 74 43 23 44 73 45 24 46
REMARK SMILES IDX 25 47 26 48 67 49 27 50 72 51 66 52 68 53 28 54 71 55 65 56
REMARK SMILES IDX 64 57 29 59 55 60 38 61 54 62 39 63 42 64 53 65 69 66 40 67
REMARK SMILES IDX 41 68 52 70 70 71 43 72 30 73 31 74 36 75 32 76 33 77 35 78
REMARK SMILES IDX 37 79 34 80 56 81 57 82 62 83 58 84 59 85 61 86 63 87 60 88
REMARK SMILES IDX 44 89 45 90 50 91 46 92 47 93 49 94 51 95 48 96
REMARK H PARENT 11 7 86 17 18 39 68 58 42 69
REMARK Flexibility Score: inf
ROOT
ATOM      1  C   UNL A   1      37.689  23.340  25.906  1.00  0.00     0.002 C 
ENDROOT
BRANCH   1   2
ATOM      2  C   UNL A   1      36.227  23.753  25.660  1.00  0.00     0.021 C 
BRANCH   2   3
ATOM      3  C   UNL A   1      35.460  22.818  24.725  1.00  0.00     0.116 C 
BRANCH   3   4
ATOM      4  N   UNL A   1      34.826  23.552  23.655  1.00  0.00    -0.352 N 
ATOM      5  C   UNL A   1      33.922  24.571  23.555  1.00  0.00     0.252 C 
ATOM      6  O   UNL A   1      33.831  25.014  22.414  1.00  0.00    -0.269 OA
ATOM      7  H   UNL A   1      35.122  23.237  22.769  1.00  0.00     0.163 HD
BRANCH   5   8
ATOM      8  C   UNL A   1      33.164  25.165  24.686  1.00  0.00     0.055 A 
ATOM      9  C   UNL A   1      32.661  27.078  26.195  1.00  0.00     0.074 A 
ATOM     10  C   UNL A   1      33.520  26.358  25.325  1.00  0.00     0.043 A 
ATOM     11  N   UNL A   1      31.460  26.651  26.654  1.00  0.00    -0.226 NA
ATOM     12  C   UNL A   1      31.134  25.419  26.185  1.00  0.00     0.182 A 
ATOM     13  C   UNL A   1      31.950  24.697  25.236  1.00  0.00     0.059 A 
ATOM     14  N   UNL A   1      30.035  24.743  26.515  1.00  0.00    -0.154 NA
ATOM     15  C   UNL A   1      31.285  23.490  25.062  1.00  0.00     0.076 A 
ATOM     16  N   UNL A   1      30.150  23.597  25.831  1.00  0.00    -0.275 N 
ATOM     17  H   UNL A   1      29.472  22.883  25.874  1.00  0.00     0.190 HD
BRANCH   9  18
ATOM     18  C   UNL A   1      33.053  28.455  26.546  1.00  0.00     0.000 A 
ATOM     19  C   UNL A   1      34.224  32.310  28.124  1.00  0.00     0.044 C 
ATOM     20  C   UNL A   1      33.834  30.987  27.534  1.00  0.00    -0.051 A 
ATOM     21  C   UNL A   1      32.503  30.737  27.172  1.00  0.00     0.004 A 
ATOM     22  C   UNL A   1      34.785  29.981  27.353  1.00  0.00     0.004 A 
ATOM     23  C   UNL A   1      32.117  29.485  26.675  1.00  0.00     0.010 A 
ATOM     24  C   UNL A   1      34.398  28.734  26.861  1.00  0.00     0.010 A 
ENDBRANCH   9  18
BRANCH  15  25
ATOM     25  C   UNL A   1      31.584  22.257  24.347  1.00  0.00     0.007 A 
ATOM     26  C   UNL A   1      31.578  22.235  22.945  1.00  0.00     0.011 A 
ATOM     27  C   UNL A   1      31.999  21.122  25.056  1.00  0.00     0.096 A 
ATOM     28  C   UNL A   1      32.040  21.112  22.252  1.00  0.00     0.008 A 
ATOM     29  C   UNL A   1      32.503  20.018  24.354  1.00  0.00     0.270 A 
ATOM     30  C   UNL A   1      32.520  20.006  22.953  1.00  0.00     0.085 A 
BRANCH  29  31
ATOM     31  N   UNL A   1      33.091  18.898  25.098  1.00  0.00     0.062 N 
ATOM     32  O   UNL A   1      32.560  18.573  26.170  1.00  0.00    -0.258 OA
ATOM     33  O   UNL A   1      34.091  18.344  24.616  1.00  0.00    -0.258 OA
ENDBRANCH  29  31
ENDBRANCH  15  25
ENDBRANCH   5   8
ENDBRANCH   3   4
ENDBRANCH   2   3
ENDBRANCH   1   2
BRANCH   1  34
ATOM     34  C   UNL A   1      38.118  21.979  25.330  1.00  0.00     0.002 C 
BRANCH  34  35
ATOM     35  C   UNL A   1      39.277  21.283  26.049  1.00  0.00     0.021 C 
BRANCH  35  36
ATOM     36  C   UNL A   1      40.019  22.171  27.032  1.00  0.00     0.116 C 
BRANCH  36  37
ATOM     37  N   UNL A   1      41.267  22.703  26.506  1.00  0.00    -0.352 N 
ATOM     38  C   UNL A   1      41.662  24.015  26.299  1.00  0.00     0.251 C 
ATOM     39  H   UNL A   1      41.935  22.024  26.256  1.00  0.00     0.163 HD
ATOM     40  O   UNL A   1      42.735  24.253  25.783  1.00  0.00    -0.269 OA
BRANCH  38  41
ATOM     41  C   UNL A   1      40.847  25.120  26.873  1.00  0.00     0.039 A 
ATOM     42  C   UNL A   1      40.796  26.311  26.136  1.00  0.00     0.014 A 
ATOM     43  C   UNL A   1      40.400  25.092  28.188  1.00  0.00     0.014 A 
ATOM     44  C   UNL A   1      40.589  27.512  26.802  1.00  0.00     0.010 A 
ATOM     45  C   UNL A   1      40.309  26.283  28.873  1.00  0.00     0.010 A 
ATOM     46  C   UNL A   1      40.488  27.490  28.190  1.00  0.00    -0.014 A 
BRANCH  46  47
ATOM     47  C   UNL A   1      40.682  28.666  29.025  1.00  0.00     0.031 A 
ATOM     48  C   UNL A   1      39.579  29.625  29.213  1.00  0.00     0.074 A 
ATOM     49  C   UNL A   1      41.833  28.786  29.722  1.00  0.00     0.049 A 
ATOM     50  N   UNL A   1      39.721  30.820  29.672  1.00  0.00    -0.248 NA
ATOM     51  C   UNL A   1      38.206  29.313  28.840  1.00  0.00     0.031 C 
ATOM     52  C   UNL A   1      42.105  29.673  30.850  1.00  0.00     0.029 A 
ATOM     53  N   UNL A   1      43.086  28.253  29.389  1.00  0.00    -0.354 N 
ATOM     54  C   UNL A   1      38.467  31.333  29.913  1.00  0.00     0.074 A 
ATOM     55  C   UNL A   1      37.560  30.381  29.316  1.00  0.00     0.031 C 
ATOM     56  C   UNL A   1      43.432  29.855  30.947  1.00  0.00     0.029 A 
ATOM     57  C   UNL A   1      44.032  29.223  29.784  1.00  0.00     0.049 A 
ATOM     58  H   UNL A   1      43.268  27.382  28.965  1.00  0.00     0.167 HD
ATOM     59  C   UNL A   1      38.350  32.438  30.706  1.00  0.00     0.037 A 
ATOM     60  C   UNL A   1      44.813  29.869  28.870  1.00  0.00     0.037 A 
ATOM     61  C   UNL A   1      39.669  32.980  31.035  1.00  0.00     0.049 A 
ATOM     62  C   UNL A   1      44.650  31.371  28.886  1.00  0.00     0.074 A 
ATOM     63  C   UNL A   1      40.493  32.841  32.141  1.00  0.00     0.029 A 
ATOM     64  N   UNL A   1      40.454  33.526  30.026  1.00  0.00    -0.354 N 
ATOM     65  N   UNL A   1      43.595  31.985  29.346  1.00  0.00    -0.248 NA
ATOM     66  C   UNL A   1      45.657  32.296  28.375  1.00  0.00     0.031 C 
ATOM     67  C   UNL A   1      41.797  33.258  31.773  1.00  0.00     0.029 A 
ATOM     68  C   UNL A   1      41.759  33.669  30.451  1.00  0.00     0.049 A 
ATOM     69  H   UNL A   1      40.124  33.775  29.132  1.00  0.00     0.167 HD
ATOM     70  C   UNL A   1      43.751  33.340  29.195  1.00  0.00     0.074 A 
ATOM     71  C   UNL A   1      45.066  33.484  28.598  1.00  0.00     0.031 C 
ATOM     72  C   UNL A   1      42.777  34.223  29.569  1.00  0.00     0.037 A 
BRANCH  59  73
ATOM     73  C   UNL A   1      37.076  32.839  31.423  1.00  0.00     0.057 A 
ATOM     74  C   UNL A   1      36.217  33.812  30.872  1.00  0.00     0.134 A 
ATOM     75  C   UNL A   1      36.669  32.369  32.684  1.00  0.00     0.134 A 
ATOM     76  F   UNL A   1      36.387  34.285  29.631  1.00  0.00    -0.206 F 
ATOM     77  C   UNL A   1      35.129  34.359  31.569  1.00  0.00     0.040 A 
ATOM     78  C   UNL A   1      35.615  32.943  33.414  1.00  0.00     0.040 A 
ATOM     79  F   UNL A   1      37.223  31.292  33.248  1.00  0.00    -0.206 F 
ATOM     80  C   UNL A   1      34.848  33.954  32.863  1.00  0.00     0.006 A 
ENDBRANCH  59  73
BRANCH  60  81
ATOM     81  C   UNL A   1      45.099  29.057  27.658  1.00  0.00     0.057 A 
ATOM     82  C   UNL A   1      46.152  28.125  27.703  1.00  0.00     0.134 A 
ATOM     83  C   UNL A   1      44.160  28.905  26.635  1.00  0.00     0.134 A 
ATOM     84  F   UNL A   1      47.090  28.215  28.660  1.00  0.00    -0.206 F 
ATOM     85  C   UNL A   1      46.200  27.021  26.848  1.00  0.00     0.040 A 
ATOM     86  C   UNL A   1      44.207  27.810  25.761  1.00  0.00     0.040 A 
ATOM     87  F   UNL A   1      43.117  29.741  26.535  1.00  0.00    -0.206 F 
ATOM     88  C   UNL A   1      45.204  26.844  25.894  1.00  0.00     0.006 A 
ENDBRANCH  60  81
BRANCH  72  89
ATOM     89  C   UNL A   1      42.717  35.695  29.227  1.00  0.00     0.057 A 
ATOM     90  C   UNL A   1      43.442  36.695  29.890  1.00  0.00     0.134 A 
ATOM     91  C   UNL A   1      42.018  36.135  28.076  1.00  0.00     0.134 A 
ATOM     92  F   UNL A   1      44.242  36.416  30.926  1.00  0.00    -0.206 F 
ATOM     93  C   UNL A   1      43.429  38.036  29.478  1.00  0.00     0.040 A 
ATOM     94  C   UNL A   1      42.045  37.457  27.623  1.00  0.00     0.040 A 
ATOM     95  F   UNL A   1      41.299  35.291  27.320  1.00  0.00    -0.206 F 
ATOM     96  C   UNL A   1      42.741  38.419  28.335  1.00  0.00     0.006 A 
ENDBRANCH  72  89
ENDBRANCH  46  47
ENDBRANCH  38  41
ENDBRANCH  36  37
ENDBRANCH  35  36
ENDBRANCH  34  35
ENDBRANCH   1  34
TORSDOF 16
ENDMDL
