MODEL 1
REMARK VINA RESULT:     -11.7      0.000      0.000
REMARK SMILES CC(C)(C)OC(=O)N1CCC[C@H]1C(=O)N1CCC[C@H]1C(=O)N1CCC[C@@H]1C(=O)NCCCCCCNC(=O)c1ccc(-c2c3nc(c(-c4c(F)cccc4F)c4ccc([nH]4)c(-c4c(F)cccc4F)c4nc(c(-c5c(F)cccc5F)c5ccc2[nH]5)C=C4)C=C3)cc1
REMARK SMILES IDX 30 1 29 2 27 3 28 4 26 6 22 7 23 8 24 9 25 10 20 11 21 12
REMARK SMILES IDX 19 13 15 14 16 15 17 16 18 17 13 18 14 19 12 20 8 21 9 22
REMARK SMILES IDX 10 23 11 24 6 25 7 26 5 27 2 28 1 29 3 30 4 31 31 32 32 33
REMARK SMILES IDX 33 34 34 35 35 36 36 37 37 38 38 40 39 41 40 42 92 43 41 44
REMARK SMILES IDX 91 45 42 46 43 47 44 48 85 49 45 50 90 51 84 52 86 53 46 54
REMARK SMILES IDX 89 55 83 56 82 57 47 59 73 60 56 61 72 62 57 63 60 64 71 65
REMARK SMILES IDX 87 66 58 67 59 68 70 70 88 71 61 72 48 73 49 74 54 75 50 76
REMARK SMILES IDX 51 77 53 78 55 79 52 80 74 81 75 82 80 83 76 84 77 85 79 86
REMARK SMILES IDX 81 87 78 88 62 89 63 90 68 91 64 92 65 93 67 94 69 95 66 96
REMARK H PARENT 29 5 36 39 86 58 60 69
REMARK Flexibility Score: inf
ROOT
ATOM      1  C   UNL A   1      36.654  23.803  25.776  1.00  0.00     0.116 C 
ENDROOT
BRANCH   1   2
ATOM      2  N   UNL A   1      35.884  22.957  26.657  1.00  0.00    -0.354 N 
ATOM      3  C   UNL A   1      34.595  22.517  26.573  1.00  0.00     0.242 C 
ATOM      4  O   UNL A   1      34.105  22.009  27.587  1.00  0.00    -0.273 OA
ATOM      5  H   UNL A   1      36.370  22.645  27.453  1.00  0.00     0.163 HD
BRANCH   3   6
ATOM      6  C   UNL A   1      33.720  22.811  25.341  1.00  0.00     0.174 C 
ATOM      7  N   UNL A   1      32.327  23.071  25.684  1.00  0.00    -0.329 N 
ATOM      8  C   UNL A   1      31.441  22.464  24.716  1.00  0.00     0.120 C 
ATOM      9  C   UNL A   1      32.209  21.261  24.195  1.00  0.00     0.024 C 
ATOM     10  C   UNL A   1      33.686  21.632  24.364  1.00  0.00     0.037 C 
BRANCH   7  11
ATOM     11  C   UNL A   1      31.999  24.260  26.319  1.00  0.00     0.246 C 
ATOM     12  O   UNL A   1      31.423  24.293  27.403  1.00  0.00    -0.272 OA
BRANCH  11  13
ATOM     13  C   UNL A   1      32.406  25.523  25.528  1.00  0.00     0.174 C 
ATOM     14  N   UNL A   1      31.340  26.522  25.488  1.00  0.00    -0.329 N 
ATOM     15  C   UNL A   1      31.546  27.480  26.545  1.00  0.00     0.120 C 
ATOM     16  C   UNL A   1      33.046  27.670  26.492  1.00  0.00     0.024 C 
ATOM     17  C   UNL A   1      33.574  26.259  26.202  1.00  0.00     0.037 C 
BRANCH  14  18
ATOM     18  C   UNL A   1      30.285  26.407  24.624  1.00  0.00     0.246 C 
ATOM     19  O   UNL A   1      29.201  25.996  25.047  1.00  0.00    -0.272 OA
BRANCH  18  20
ATOM     20  C   UNL A   1      30.428  26.767  23.116  1.00  0.00     0.178 C 
ATOM     21  N   UNL A   1      31.079  28.041  22.803  1.00  0.00    -0.296 N 
ATOM     22  C   UNL A   1      32.498  27.855  22.600  1.00  0.00     0.124 C 
ATOM     23  C   UNL A   1      32.546  26.524  21.874  1.00  0.00     0.024 C 
ATOM     24  C   UNL A   1      31.391  25.724  22.483  1.00  0.00     0.037 C 
BRANCH  21  25
ATOM     25  C   UNL A   1      30.370  29.159  22.443  1.00  0.00     0.410 C 
ATOM     26  O   UNL A   1      30.643  29.822  21.451  1.00  0.00    -0.224 OA
BRANCH  25  27
ATOM     27  O   UNL A   1      29.333  29.401  23.280  1.00  0.00    -0.444 OA
BRANCH  27  28
ATOM     28  C   UNL A   1      28.037  29.885  22.824  1.00  0.00     0.106 C 
ATOM     29  C   UNL A   1      27.756  31.149  23.646  1.00  0.00     0.056 C 
ATOM     30  C   UNL A   1      27.007  28.808  23.184  1.00  0.00     0.056 C 
ATOM     31  C   UNL A   1      27.924  30.240  21.337  1.00  0.00     0.056 C 
ENDBRANCH  27  28
ENDBRANCH  25  27
ENDBRANCH  21  25
ENDBRANCH  18  20
ENDBRANCH  14  18
ENDBRANCH  11  13
ENDBRANCH   7  11
ENDBRANCH   3   6
ENDBRANCH   1   2
BRANCH   1  32
ATOM     32  C   UNL A   1      38.117  23.810  26.196  1.00  0.00     0.021 C 
BRANCH  32  33
ATOM     33  C   UNL A   1      38.785  22.441  26.047  1.00  0.00     0.002 C 
BRANCH  33  34
ATOM     34  C   UNL A   1      38.088  21.498  25.059  1.00  0.00     0.002 C 
BRANCH  34  35
ATOM     35  C   UNL A   1      38.606  20.059  25.075  1.00  0.00     0.021 C 
BRANCH  35  36
ATOM     36  C   UNL A   1      39.455  19.728  26.294  1.00  0.00     0.116 C 
BRANCH  36  37
ATOM     37  N   UNL A   1      40.690  19.054  25.920  1.00  0.00    -0.352 N 
ATOM     38  C   UNL A   1      41.956  19.574  25.840  1.00  0.00     0.251 C 
ATOM     39  H   UNL A   1      40.605  18.100  25.693  1.00  0.00     0.163 HD
ATOM     40  O   UNL A   1      42.861  18.954  25.293  1.00  0.00    -0.269 OA
BRANCH  38  41
ATOM     41  C   UNL A   1      42.209  20.907  26.417  1.00  0.00     0.039 A 
ATOM     42  C   UNL A   1      42.246  21.060  27.804  1.00  0.00     0.014 A 
ATOM     43  C   UNL A   1      42.446  21.995  25.572  1.00  0.00     0.014 A 
ATOM     44  C   UNL A   1      42.581  22.302  28.348  1.00  0.00     0.010 A 
ATOM     45  C   UNL A   1      42.858  23.204  26.113  1.00  0.00     0.010 A 
ATOM     46  C   UNL A   1      42.921  23.373  27.506  1.00  0.00    -0.014 A 
BRANCH  46  47
ATOM     47  C   UNL A   1      43.313  24.700  28.039  1.00  0.00     0.031 A 
ATOM     48  C   UNL A   1      42.248  25.722  28.324  1.00  0.00     0.074 A 
ATOM     49  C   UNL A   1      44.615  25.019  28.172  1.00  0.00     0.049 A 
ATOM     50  N   UNL A   1      42.374  26.986  28.632  1.00  0.00    -0.248 NA
ATOM     51  C   UNL A   1      40.852  25.265  28.210  1.00  0.00     0.031 C 
ATOM     52  C   UNL A   1      45.740  24.122  27.902  1.00  0.00     0.029 A 
ATOM     53  N   UNL A   1      45.210  26.196  28.547  1.00  0.00    -0.354 N 
ATOM     54  C   UNL A   1      41.079  27.480  28.724  1.00  0.00     0.074 A 
ATOM     55  C   UNL A   1      40.185  26.395  28.384  1.00  0.00     0.031 C 
ATOM     56  C   UNL A   1      46.889  24.780  28.131  1.00  0.00     0.029 A 
ATOM     57  C   UNL A   1      46.583  26.155  28.514  1.00  0.00     0.049 A 
ATOM     58  H   UNL A   1      44.701  26.996  28.814  1.00  0.00     0.167 HD
ATOM     59  C   UNL A   1      40.670  28.721  29.079  1.00  0.00     0.037 A 
ATOM     60  C   UNL A   1      47.490  27.124  28.744  1.00  0.00     0.037 A 
ATOM     61  C   UNL A   1      41.565  29.787  29.440  1.00  0.00     0.049 A 
ATOM     62  C   UNL A   1      47.012  28.503  29.115  1.00  0.00     0.074 A 
ATOM     63  C   UNL A   1      41.253  31.067  29.863  1.00  0.00     0.029 A 
ATOM     64  N   UNL A   1      42.949  29.697  29.421  1.00  0.00    -0.354 N 
ATOM     65  N   UNL A   1      45.784  28.945  29.243  1.00  0.00    -0.248 NA
ATOM     66  C   UNL A   1      48.045  29.516  29.374  1.00  0.00     0.031 C 
ATOM     67  C   UNL A   1      42.448  31.768  30.048  1.00  0.00     0.029 A 
ATOM     68  C   UNL A   1      43.505  30.905  29.803  1.00  0.00     0.049 A 
ATOM     69  H   UNL A   1      43.460  28.894  29.170  1.00  0.00     0.167 HD
ATOM     70  C   UNL A   1      45.898  30.273  29.641  1.00  0.00     0.074 A 
ATOM     71  C   UNL A   1      47.314  30.562  29.733  1.00  0.00     0.031 C 
ATOM     72  C   UNL A   1      44.918  31.168  29.913  1.00  0.00     0.037 A 
BRANCH  59  73
ATOM     73  C   UNL A   1      39.193  28.989  29.090  1.00  0.00     0.057 A 
ATOM     74  C   UNL A   1      38.419  28.842  30.250  1.00  0.00     0.134 A 
ATOM     75  C   UNL A   1      38.538  29.424  27.932  1.00  0.00     0.134 A 
ATOM     76  F   UNL A   1      38.980  28.415  31.392  1.00  0.00    -0.206 F 
ATOM     77  C   UNL A   1      37.045  29.088  30.249  1.00  0.00     0.040 A 
ATOM     78  C   UNL A   1      37.171  29.706  27.926  1.00  0.00     0.040 A 
ATOM     79  F   UNL A   1      39.218  29.592  26.787  1.00  0.00    -0.206 F 
ATOM     80  C   UNL A   1      36.419  29.530  29.085  1.00  0.00     0.006 A 
ENDBRANCH  59  73
BRANCH  60  81
ATOM     81  C   UNL A   1      48.942  26.826  28.647  1.00  0.00     0.057 A 
ATOM     82  C   UNL A   1      49.631  26.981  27.438  1.00  0.00     0.134 A 
ATOM     83  C   UNL A   1      49.673  26.365  29.749  1.00  0.00     0.134 A 
ATOM     84  F   UNL A   1      48.983  27.403  26.342  1.00  0.00    -0.206 F 
ATOM     85  C   UNL A   1      50.985  26.664  27.321  1.00  0.00     0.040 A 
ATOM     86  C   UNL A   1      51.034  26.071  29.653  1.00  0.00     0.040 A 
ATOM     87  F   UNL A   1      49.077  26.205  30.940  1.00  0.00    -0.206 F 
ATOM     88  C   UNL A   1      51.692  26.211  28.433  1.00  0.00     0.006 A 
ENDBRANCH  60  81
BRANCH  72  89
ATOM     89  C   UNL A   1      45.332  32.526  30.402  1.00  0.00     0.057 A 
ATOM     90  C   UNL A   1      45.546  32.799  31.758  1.00  0.00     0.134 A 
ATOM     91  C   UNL A   1      45.582  33.559  29.487  1.00  0.00     0.134 A 
ATOM     92  F   UNL A   1      45.312  31.858  32.687  1.00  0.00    -0.206 F 
ATOM     93  C   UNL A   1      45.979  34.055  32.189  1.00  0.00     0.040 A 
ATOM     94  C   UNL A   1      46.044  34.807  29.903  1.00  0.00     0.040 A 
ATOM     95  F   UNL A   1      45.407  33.361  28.172  1.00  0.00    -0.206 F 
ATOM     96  C   UNL A   1      46.240  35.059  31.259  1.00  0.00     0.006 A 
ENDBRANCH  72  89
ENDBRANCH  46  47
ENDBRANCH  38  41
ENDBRANCH  36  37
ENDBRANCH  35  36
ENDBRANCH  34  35
ENDBRANCH  33  34
ENDBRANCH  32  33
ENDBRANCH   1  32
TORSDOF 20
ENDMDL
MODEL 2
REMARK VINA RESULT:     -11.6      0.865      5.854
REMARK SMILES CC(C)(C)OC(=O)N1CCC[C@H]1C(=O)N1CCC[C@H]1C(=O)N1CCC[C@@H]1C(=O)NCCCCCCNC(=O)c1ccc(-c2c3nc(c(-c4c(F)cccc4F)c4ccc([nH]4)c(-c4c(F)cccc4F)c4nc(c(-c5c(F)cccc5F)c5ccc2[nH]5)C=C4)C=C3)cc1
REMARK SMILES IDX 30 1 29 2 27 3 28 4 26 6 22 7 23 8 24 9 25 10 20 11 21 12
REMARK SMILES IDX 19 13 15 14 16 15 17 16 18 17 13 18 14 19 12 20 8 21 9 22
REMARK SMILES IDX 10 23 11 24 6 25 7 26 5 27 2 28 1 29 3 30 4 31 31 32 32 33
REMARK SMILES IDX 33 34 34 35 35 36 36 37 37 38 38 40 39 41 40 42 92 43 41 44
REMARK SMILES IDX 91 45 42 46 43 47 44 48 85 49 45 50 90 51 84 52 86 53 46 54
REMARK SMILES IDX 89 55 83 56 82 57 47 59 73 60 56 61 72 62 57 63 60 64 71 65
REMARK SMILES IDX 87 66 58 67 59 68 70 70 88 71 61 72 48 73 49 74 54 75 50 76
REMARK SMILES IDX 51 77 53 78 55 79 52 80 74 81 75 82 80 83 76 84 77 85 79 86
REMARK SMILES IDX 81 87 78 88 62 89 63 90 68 91 64 92 65 93 67 94 69 95 66 96
REMARK H PARENT 29 5 36 39 86 58 60 69
REMARK Flexibility Score: inf
ROOT
ATOM      1  C   UNL A   1      36.636  23.586  25.615  1.00  0.00     0.116 C 
ENDROOT
BRANCH   1   2
ATOM      2  N   UNL A   1      35.932  22.816  26.613  1.00  0.00    -0.354 N 
ATOM      3  C   UNL A   1      34.646  22.359  26.648  1.00  0.00     0.242 C 
ATOM      4  O   UNL A   1      34.225  21.939  27.730  1.00  0.00    -0.273 OA
ATOM      5  H   UNL A   1      36.469  22.579  27.402  1.00  0.00     0.163 HD
BRANCH   3   6
ATOM      6  C   UNL A   1      33.694  22.535  25.450  1.00  0.00     0.174 C 
ATOM      7  N   UNL A   1      32.325  22.830  25.854  1.00  0.00    -0.329 N 
ATOM      8  C   UNL A   1      31.383  22.134  25.006  1.00  0.00     0.120 C 
ATOM      9  C   UNL A   1      32.122  20.885  24.555  1.00  0.00     0.024 C 
ATOM     10  C   UNL A   1      33.604  21.268  24.594  1.00  0.00     0.037 C 
BRANCH   7  11
ATOM     11  C   UNL A   1      32.032  24.074  26.391  1.00  0.00     0.246 C 
ATOM     12  O   UNL A   1      31.435  24.210  27.456  1.00  0.00    -0.272 OA
BRANCH  11  13
ATOM     13  C   UNL A   1      32.508  25.257  25.520  1.00  0.00     0.174 C 
ATOM     14  N   UNL A   1      31.519  26.333  25.455  1.00  0.00    -0.329 N 
ATOM     15  C   UNL A   1      31.831  27.327  26.450  1.00  0.00     0.120 C 
ATOM     16  C   UNL A   1      33.339  27.397  26.345  1.00  0.00     0.024 C 
ATOM     17  C   UNL A   1      33.749  25.936  26.119  1.00  0.00     0.037 C 
BRANCH  14  18
ATOM     18  C   UNL A   1      30.431  26.254  24.629  1.00  0.00     0.246 C 
ATOM     19  O   UNL A   1      29.326  25.986  25.110  1.00  0.00    -0.272 OA
BRANCH  18  20
ATOM     20  C   UNL A   1      30.560  26.477  23.093  1.00  0.00     0.178 C 
ATOM     21  N   UNL A   1      31.349  27.633  22.661  1.00  0.00    -0.296 N 
ATOM     22  C   UNL A   1      32.726  27.257  22.434  1.00  0.00     0.124 C 
ATOM     23  C   UNL A   1      32.584  25.880  21.816  1.00  0.00     0.024 C 
ATOM     24  C   UNL A   1      31.365  25.278  22.519  1.00  0.00     0.037 C 
BRANCH  21  25
ATOM     25  C   UNL A   1      30.768  28.800  22.233  1.00  0.00     0.410 C 
ATOM     26  O   UNL A   1      31.417  29.808  21.984  1.00  0.00    -0.224 OA
BRANCH  25  27
ATOM     27  O   UNL A   1      29.427  28.682  22.083  1.00  0.00    -0.444 OA
BRANCH  27  28
ATOM     28  C   UNL A   1      28.484  29.705  22.512  1.00  0.00     0.106 C 
ATOM     29  C   UNL A   1      27.282  28.944  23.087  1.00  0.00     0.056 C 
ATOM     30  C   UNL A   1      28.047  30.464  21.254  1.00  0.00     0.056 C 
ATOM     31  C   UNL A   1      28.982  30.693  23.573  1.00  0.00     0.056 C 
ENDBRANCH  27  28
ENDBRANCH  25  27
ENDBRANCH  21  25
ENDBRANCH  18  20
ENDBRANCH  14  18
ENDBRANCH  11  13
ENDBRANCH   7  11
ENDBRANCH   3   6
ENDBRANCH   1   2
BRANCH   1  32
ATOM     32  C   UNL A   1      38.131  23.573  25.897  1.00  0.00     0.021 C 
BRANCH  32  33
ATOM     33  C   UNL A   1      38.701  22.159  26.025  1.00  0.00     0.002 C 
BRANCH  33  34
ATOM     34  C   UNL A   1      38.113  21.146  25.034  1.00  0.00     0.002 C 
BRANCH  34  35
ATOM     35  C   UNL A   1      38.798  19.779  25.036  1.00  0.00     0.021 C 
BRANCH  35  36
ATOM     36  C   UNL A   1      39.634  19.515  26.281  1.00  0.00     0.116 C 
BRANCH  36  37
ATOM     37  N   UNL A   1      40.941  18.969  25.944  1.00  0.00    -0.352 N 
ATOM     38  C   UNL A   1      42.144  19.623  25.865  1.00  0.00     0.251 C 
ATOM     39  H   UNL A   1      40.964  18.005  25.746  1.00  0.00     0.163 HD
ATOM     40  O   UNL A   1      43.119  19.089  25.349  1.00  0.00    -0.269 OA
BRANCH  38  41
ATOM     41  C   UNL A   1      42.240  20.992  26.402  1.00  0.00     0.039 A 
ATOM     42  C   UNL A   1      42.150  21.197  27.781  1.00  0.00     0.014 A 
ATOM     43  C   UNL A   1      42.458  22.065  25.534  1.00  0.00     0.014 A 
ATOM     44  C   UNL A   1      42.338  22.481  28.296  1.00  0.00     0.010 A 
ATOM     45  C   UNL A   1      42.725  23.323  26.054  1.00  0.00     0.010 A 
ATOM     46  C   UNL A   1      42.658  23.546  27.439  1.00  0.00    -0.014 A 
BRANCH  46  47
ATOM     47  C   UNL A   1      42.898  24.919  27.944  1.00  0.00     0.031 A 
ATOM     48  C   UNL A   1      44.277  25.305  28.401  1.00  0.00     0.074 A 
ATOM     49  C   UNL A   1      41.870  25.778  28.085  1.00  0.00     0.049 A 
ATOM     50  N   UNL A   1      44.672  26.383  29.026  1.00  0.00    -0.248 NA
ATOM     51  C   UNL A   1      45.349  24.326  28.152  1.00  0.00     0.031 C 
ATOM     52  C   UNL A   1      40.482  25.512  27.702  1.00  0.00     0.029 A 
ATOM     53  N   UNL A   1      41.832  27.045  28.611  1.00  0.00    -0.354 N 
ATOM     54  C   UNL A   1      46.028  26.201  29.267  1.00  0.00     0.074 A 
ATOM     55  C   UNL A   1      46.375  24.887  28.771  1.00  0.00     0.031 C 
ATOM     56  C   UNL A   1      39.732  26.587  27.997  1.00  0.00     0.029 A 
ATOM     57  C   UNL A   1      40.574  27.595  28.633  1.00  0.00     0.049 A 
ATOM     58  H   UNL A   1      42.632  27.515  28.942  1.00  0.00     0.167 HD
ATOM     59  C   UNL A   1      46.910  27.059  29.830  1.00  0.00     0.037 A 
ATOM     60  C   UNL A   1      40.146  28.771  29.132  1.00  0.00     0.037 A 
ATOM     61  C   UNL A   1      46.562  28.374  30.298  1.00  0.00     0.049 A 
ATOM     62  C   UNL A   1      41.140  29.700  29.776  1.00  0.00     0.074 A 
ATOM     63  C   UNL A   1      47.388  29.342  30.840  1.00  0.00     0.029 A 
ATOM     64  N   UNL A   1      45.281  28.906  30.278  1.00  0.00    -0.354 N 
ATOM     65  N   UNL A   1      42.428  29.536  29.956  1.00  0.00    -0.248 NA
ATOM     66  C   UNL A   1      40.621  30.977  30.286  1.00  0.00     0.031 C 
ATOM     67  C   UNL A   1      46.599  30.439  31.198  1.00  0.00     0.029 A 
ATOM     68  C   UNL A   1      45.290  30.180  30.818  1.00  0.00     0.049 A 
ATOM     69  H   UNL A   1      44.483  28.445  29.932  1.00  0.00     0.167 HD
ATOM     70  C   UNL A   1      42.881  30.705  30.557  1.00  0.00     0.074 A 
ATOM     71  C   UNL A   1      41.729  31.569  30.710  1.00  0.00     0.031 C 
ATOM     72  C   UNL A   1      44.138  31.036  30.940  1.00  0.00     0.037 A 
BRANCH  59  73
ATOM     73  C   UNL A   1      48.332  26.600  29.976  1.00  0.00     0.057 A 
ATOM     74  C   UNL A   1      48.752  25.818  31.061  1.00  0.00     0.134 A 
ATOM     75  C   UNL A   1      49.289  26.921  29.006  1.00  0.00     0.134 A 
ATOM     76  F   UNL A   1      47.890  25.486  32.034  1.00  0.00    -0.206 F 
ATOM     77  C   UNL A   1      50.078  25.400  31.192  1.00  0.00     0.040 A 
ATOM     78  C   UNL A   1      50.610  26.481  29.107  1.00  0.00     0.040 A 
ATOM     79  F   UNL A   1      48.955  27.661  27.937  1.00  0.00    -0.206 F 
ATOM     80  C   UNL A   1      51.009  25.725  30.207  1.00  0.00     0.006 A 
ENDBRANCH  59  73
BRANCH  60  81
ATOM     81  C   UNL A   1      38.712  29.148  29.030  1.00  0.00     0.057 A 
ATOM     82  C   UNL A   1      38.175  29.623  27.828  1.00  0.00     0.134 A 
ATOM     83  C   UNL A   1      37.850  29.061  30.130  1.00  0.00     0.134 A 
ATOM     84  F   UNL A   1      38.953  29.746  26.743  1.00  0.00    -0.206 F 
ATOM     85  C   UNL A   1      36.841  30.022  27.729  1.00  0.00     0.040 A 
ATOM     86  C   UNL A   1      36.507  29.430  30.038  1.00  0.00     0.040 A 
ATOM     87  F   UNL A   1      38.298  28.604  31.309  1.00  0.00    -0.206 F 
ATOM     88  C   UNL A   1      36.001  29.922  28.836  1.00  0.00     0.006 A 
ENDBRANCH  60  81
BRANCH  72  89
ATOM     89  C   UNL A   1      44.356  32.413  31.500  1.00  0.00     0.057 A 
ATOM     90  C   UNL A   1      44.629  33.517  30.683  1.00  0.00     0.134 A 
ATOM     91  C   UNL A   1      44.224  32.643  32.877  1.00  0.00     0.134 A 
ATOM     92  F   UNL A   1      44.780  33.363  29.359  1.00  0.00    -0.206 F 
ATOM     93  C   UNL A   1      44.779  34.798  31.218  1.00  0.00     0.040 A 
ATOM     94  C   UNL A   1      44.341  33.922  33.418  1.00  0.00     0.040 A 
ATOM     95  F   UNL A   1      43.953  31.629  33.713  1.00  0.00    -0.206 F 
ATOM     96  C   UNL A   1      44.624  35.004  32.588  1.00  0.00     0.006 A 
ENDBRANCH  72  89
ENDBRANCH  46  47
ENDBRANCH  38  41
ENDBRANCH  36  37
ENDBRANCH  35  36
ENDBRANCH  34  35
ENDBRANCH  33  34
ENDBRANCH  32  33
ENDBRANCH   1  32
TORSDOF 20
ENDMDL
MODEL 3
REMARK VINA RESULT:     -11.5      4.466      6.171
REMARK SMILES CC(C)(C)OC(=O)N1CCC[C@H]1C(=O)N1CCC[C@H]1C(=O)N1CCC[C@@H]1C(=O)NCCCCCCNC(=O)c1ccc(-c2c3nc(c(-c4c(F)cccc4F)c4ccc([nH]4)c(-c4c(F)cccc4F)c4nc(c(-c5c(F)cccc5F)c5ccc2[nH]5)C=C4)C=C3)cc1
REMARK SMILES IDX 30 1 29 2 27 3 28 4 26 6 22 7 23 8 24 9 25 10 20 11 21 12
REMARK SMILES IDX 19 13 15 14 16 15 17 16 18 17 13 18 14 19 12 20 8 21 9 22
REMARK SMILES IDX 10 23 11 24 6 25 7 26 5 27 2 28 1 29 3 30 4 31 31 32 32 33
REMARK SMILES IDX 33 34 34 35 35 36 36 37 37 38 38 40 39 41 40 42 92 43 41 44
REMARK SMILES IDX 91 45 42 46 43 47 44 48 85 49 45 50 90 51 84 52 86 53 46 54
REMARK SMILES IDX 89 55 83 56 82 57 47 59 73 60 56 61 72 62 57 63 60 64 71 65
REMARK SMILES IDX 87 66 58 67 59 68 70 70 88 71 61 72 48 73 49 74 54 75 50 76
REMARK SMILES IDX 51 77 53 78 55 79 52 80 74 81 75 82 80 83 76 84 77 85 79 86
REMARK SMILES IDX 81 87 78 88 62 89 63 90 68 91 64 92 65 93 67 94 69 95 66 96
REMARK H PARENT 29 5 36 39 86 58 60 69
REMARK Flexibility Score: inf
ROOT
ATOM      1  C   UNL A   1      37.282  23.135  25.545  1.00  0.00     0.116 C 
ENDROOT
BRANCH   1   2
ATOM      2  N   UNL A   1      36.312  22.587  26.464  1.00  0.00    -0.354 N 
ATOM      3  C   UNL A   1      35.149  21.910  26.239  1.00  0.00     0.242 C 
ATOM      4  O   UNL A   1      34.381  21.772  27.197  1.00  0.00    -0.273 OA
ATOM      5  H   UNL A   1      36.526  22.725  27.415  1.00  0.00     0.163 HD
BRANCH   3   6
ATOM      6  C   UNL A   1      34.713  21.504  24.819  1.00  0.00     0.174 C 
ATOM      7  N   UNL A   1      33.785  22.454  24.218  1.00  0.00    -0.329 N 
ATOM      8  C   UNL A   1      32.759  21.761  23.471  1.00  0.00     0.120 C 
ATOM      9  C   UNL A   1      32.616  20.419  24.169  1.00  0.00     0.024 C 
ATOM     10  C   UNL A   1      33.984  20.156  24.804  1.00  0.00     0.037 C 
BRANCH   7  11
ATOM     11  C   UNL A   1      34.255  23.697  23.820  1.00  0.00     0.246 C 
ATOM     12  O   UNL A   1      35.192  23.829  23.037  1.00  0.00    -0.272 OA
BRANCH  11  13
ATOM     13  C   UNL A   1      33.508  24.882  24.468  1.00  0.00     0.174 C 
ATOM     14  N   UNL A   1      32.594  25.541  23.535  1.00  0.00    -0.329 N 
ATOM     15  C   UNL A   1      31.270  24.999  23.704  1.00  0.00     0.120 C 
ATOM     16  C   UNL A   1      31.184  24.875  25.209  1.00  0.00     0.024 C 
ATOM     17  C   UNL A   1      32.592  24.417  25.610  1.00  0.00     0.037 C 
BRANCH  14  18
ATOM     18  C   UNL A   1      33.048  26.429  22.599  1.00  0.00     0.246 C 
ATOM     19  O   UNL A   1      33.651  26.007  21.608  1.00  0.00    -0.272 OA
BRANCH  18  20
ATOM     20  C   UNL A   1      32.835  27.963  22.765  1.00  0.00     0.178 C 
ATOM     21  N   UNL A   1      31.572  28.389  23.373  1.00  0.00    -0.296 N 
ATOM     22  C   UNL A   1      31.718  28.543  24.802  1.00  0.00     0.124 C 
ATOM     23  C   UNL A   1      33.112  29.129  24.921  1.00  0.00     0.024 C 
ATOM     24  C   UNL A   1      33.894  28.468  23.784  1.00  0.00     0.037 C 
BRANCH  21  25
ATOM     25  C   UNL A   1      30.526  28.874  22.629  1.00  0.00     0.410 C 
ATOM     26  O   UNL A   1      30.105  28.302  21.632  1.00  0.00    -0.224 OA
BRANCH  25  27
ATOM     27  O   UNL A   1      30.008  30.011  23.150  1.00  0.00    -0.444 OA
BRANCH  27  28
ATOM     28  C   UNL A   1      28.648  30.462  22.888  1.00  0.00     0.106 C 
ATOM     29  C   UNL A   1      28.669  31.026  21.461  1.00  0.00     0.056 C 
ATOM     30  C   UNL A   1      28.356  31.597  23.876  1.00  0.00     0.056 C 
ATOM     31  C   UNL A   1      27.547  29.398  22.972  1.00  0.00     0.056 C 
ENDBRANCH  27  28
ENDBRANCH  25  27
ENDBRANCH  21  25
ENDBRANCH  18  20
ENDBRANCH  14  18
ENDBRANCH  11  13
ENDBRANCH   7  11
ENDBRANCH   3   6
ENDBRANCH   1   2
BRANCH   1  32
ATOM     32  C   UNL A   1      38.671  23.109  26.166  1.00  0.00     0.021 C 
BRANCH  32  33
ATOM     33  C   UNL A   1      39.310  21.719  26.138  1.00  0.00     0.002 C 
BRANCH  33  34
ATOM     34  C   UNL A   1      40.793  21.694  26.526  1.00  0.00     0.002 C 
BRANCH  34  35
ATOM     35  C   UNL A   1      41.114  22.358  27.866  1.00  0.00     0.021 C 
BRANCH  35  36
ATOM     36  C   UNL A   1      42.185  23.436  27.774  1.00  0.00     0.116 C 
BRANCH  36  37
ATOM     37  N   UNL A   1      42.161  24.107  26.482  1.00  0.00    -0.352 N 
ATOM     38  C   UNL A   1      41.656  25.343  26.171  1.00  0.00     0.251 C 
ATOM     39  H   UNL A   1      42.557  23.606  25.733  1.00  0.00     0.163 HD
ATOM     40  O   UNL A   1      41.496  25.685  25.005  1.00  0.00    -0.269 OA
BRANCH  38  41
ATOM     41  C   UNL A   1      41.294  26.255  27.272  1.00  0.00     0.039 A 
ATOM     42  C   UNL A   1      40.195  25.956  28.079  1.00  0.00     0.014 A 
ATOM     43  C   UNL A   1      42.074  27.387  27.519  1.00  0.00     0.014 A 
ATOM     44  C   UNL A   1      39.911  26.767  29.179  1.00  0.00     0.010 A 
ATOM     45  C   UNL A   1      41.840  28.143  28.659  1.00  0.00     0.010 A 
ATOM     46  C   UNL A   1      40.751  27.847  29.494  1.00  0.00    -0.014 A 
BRANCH  46  47
ATOM     47  C   UNL A   1      40.507  28.716  30.671  1.00  0.00     0.031 A 
ATOM     48  C   UNL A   1      39.443  29.776  30.594  1.00  0.00     0.074 A 
ATOM     49  C   UNL A   1      41.296  28.622  31.758  1.00  0.00     0.049 A 
ATOM     50  N   UNL A   1      39.176  30.744  31.431  1.00  0.00    -0.248 NA
ATOM     51  C   UNL A   1      38.590  29.764  29.394  1.00  0.00     0.031 C 
ATOM     52  C   UNL A   1      42.378  27.654  31.941  1.00  0.00     0.029 A 
ATOM     53  N   UNL A   1      41.323  29.371  32.907  1.00  0.00    -0.354 N 
ATOM     54  C   UNL A   1      38.144  31.469  30.848  1.00  0.00     0.074 A 
ATOM     55  C   UNL A   1      37.872  30.863  29.563  1.00  0.00     0.031 C 
ATOM     56  C   UNL A   1      42.955  27.861  33.137  1.00  0.00     0.029 A 
ATOM     57  C   UNL A   1      42.319  29.005  33.781  1.00  0.00     0.049 A 
ATOM     58  H   UNL A   1      40.688  30.102  33.089  1.00  0.00     0.167 HD
ATOM     59  C   UNL A   1      37.469  32.530  31.347  1.00  0.00     0.037 A 
ATOM     60  C   UNL A   1      42.689  29.548  34.957  1.00  0.00     0.037 A 
ATOM     61  C   UNL A   1      37.729  33.112  32.637  1.00  0.00     0.049 A 
ATOM     62  C   UNL A   1      41.939  30.744  35.481  1.00  0.00     0.074 A 
ATOM     63  C   UNL A   1      37.071  34.157  33.259  1.00  0.00     0.029 A 
ATOM     64  N   UNL A   1      38.728  32.694  33.504  1.00  0.00    -0.354 N 
ATOM     65  N   UNL A   1      40.935  31.391  34.942  1.00  0.00    -0.248 NA
ATOM     66  C   UNL A   1      42.374  31.282  36.778  1.00  0.00     0.031 C 
ATOM     67  C   UNL A   1      37.706  34.409  34.478  1.00  0.00     0.029 A 
ATOM     68  C   UNL A   1      38.719  33.477  34.645  1.00  0.00     0.049 A 
ATOM     69  H   UNL A   1      39.353  31.953  33.332  1.00  0.00     0.167 HD
ATOM     70  C   UNL A   1      40.589  32.383  35.853  1.00  0.00     0.074 A 
ATOM     71  C   UNL A   1      41.491  32.251  36.978  1.00  0.00     0.031 C 
ATOM     72  C   UNL A   1      39.609  33.315  35.768  1.00  0.00     0.037 A 
BRANCH  59  73
ATOM     73  C   UNL A   1      36.391  33.132  30.494  1.00  0.00     0.057 A 
ATOM     74  C   UNL A   1      36.681  34.007  29.437  1.00  0.00     0.134 A 
ATOM     75  C   UNL A   1      35.045  32.815  30.714  1.00  0.00     0.134 A 
ATOM     76  F   UNL A   1      37.949  34.365  29.180  1.00  0.00    -0.206 F 
ATOM     77  C   UNL A   1      35.672  34.567  28.652  1.00  0.00     0.040 A 
ATOM     78  C   UNL A   1      34.029  33.341  29.915  1.00  0.00     0.040 A 
ATOM     79  F   UNL A   1      34.695  31.980  31.704  1.00  0.00    -0.206 F 
ATOM     80  C   UNL A   1      34.341  34.227  28.886  1.00  0.00     0.006 A 
ENDBRANCH  59  73
BRANCH  60  81
ATOM     81  C   UNL A   1      43.814  28.960  35.729  1.00  0.00     0.057 A 
ATOM     82  C   UNL A   1      45.122  29.433  35.571  1.00  0.00     0.134 A 
ATOM     83  C   UNL A   1      43.616  27.904  36.628  1.00  0.00     0.134 A 
ATOM     84  F   UNL A   1      45.380  30.431  34.712  1.00  0.00    -0.206 F 
ATOM     85  C   UNL A   1      46.195  28.862  36.256  1.00  0.00     0.040 A 
ATOM     86  C   UNL A   1      44.676  27.343  37.342  1.00  0.00     0.040 A 
ATOM     87  F   UNL A   1      42.386  27.411  36.835  1.00  0.00    -0.206 F 
ATOM     88  C   UNL A   1      45.972  27.816  37.149  1.00  0.00     0.006 A 
ENDBRANCH  60  81
BRANCH  72  89
ATOM     89  C   UNL A   1      39.407  34.223  36.946  1.00  0.00     0.057 A 
ATOM     90  C   UNL A   1      38.701  33.823  38.086  1.00  0.00     0.134 A 
ATOM     91  C   UNL A   1      39.989  35.499  36.960  1.00  0.00     0.134 A 
ATOM     92  F   UNL A   1      38.108  32.620  38.132  1.00  0.00    -0.206 F 
ATOM     93  C   UNL A   1      38.566  34.665  39.192  1.00  0.00     0.040 A 
ATOM     94  C   UNL A   1      39.888  36.336  38.070  1.00  0.00     0.040 A 
ATOM     95  F   UNL A   1      40.688  35.940  35.903  1.00  0.00    -0.206 F 
ATOM     96  C   UNL A   1      39.171  35.921  39.190  1.00  0.00     0.006 A 
ENDBRANCH  72  89
ENDBRANCH  46  47
ENDBRANCH  38  41
ENDBRANCH  36  37
ENDBRANCH  35  36
ENDBRANCH  34  35
ENDBRANCH  33  34
ENDBRANCH  32  33
ENDBRANCH   1  32
TORSDOF 20
ENDMDL
