MODEL 1
REMARK VINA RESULT:     -11.7      0.000      0.000
REMARK SMILES Cc1nn(-c2cccc(C(=O)NCCCCCCNC(=O)c3ccc(-c4c5nc(c(-c6c(F)cccc6F)c6ccc([nH]6)c(-c6c(F)cccc6F)c6nc(c(-c7c(F)cccc7F)c7ccc4[nH]7)C=C6)C=C5)cc3)c2)c(C)c1Cl
REMARK SMILES IDX 16 1 15 2 14 3 13 4 12 5 10 6 11 7 9 9 5 10 6 11 76 12 7 13
REMARK SMILES IDX 8 14 4 15 1 16 2 17 3 18 79 19 77 20 80 21 78 22 17 23 18 24
REMARK SMILES IDX 19 25 20 26 21 28 22 29 23 30 75 31 24 32 74 33 25 34 26 35
REMARK SMILES IDX 27 36 68 37 28 38 73 39 67 40 69 41 29 42 72 43 66 44 65 45
REMARK SMILES IDX 30 47 56 48 39 49 55 50 40 51 43 52 54 53 70 54 41 55 42 56
REMARK SMILES IDX 53 58 71 59 44 60 31 61 32 62 37 63 33 64 34 65 36 66 38 67
REMARK SMILES IDX 35 68 57 69 58 70 63 71 59 72 60 73 62 74 64 75 61 76 45 77
REMARK SMILES IDX 46 78 51 79 47 80 48 81 50 82 52 83 49 84
REMARK H PARENT 12 8 19 27 69 46 43 57
REMARK Flexibility Score: inf
ROOT
ATOM      1  C   UNL A   1      41.073  21.329  27.621  1.00  0.00     0.002 C 
ENDROOT
BRANCH   1   2
ATOM      2  C   UNL A   1      40.395  22.119  26.493  1.00  0.00     0.002 C 
BRANCH   2   3
ATOM      3  C   UNL A   1      38.944  21.782  26.159  1.00  0.00     0.021 C 
BRANCH   3   4
ATOM      4  C   UNL A   1      38.021  22.939  25.795  1.00  0.00     0.116 C 
BRANCH   4   5
ATOM      5  N   UNL A   1      37.584  22.974  24.407  1.00  0.00    -0.352 N 
ATOM      6  C   UNL A   1      36.344  23.198  23.839  1.00  0.00     0.251 C 
ATOM      7  O   UNL A   1      36.251  23.168  22.613  1.00  0.00    -0.269 OA
ATOM      8  H   UNL A   1      38.303  22.807  23.755  1.00  0.00     0.163 HD
BRANCH   6   9
ATOM      9  C   UNL A   1      35.111  23.420  24.651  1.00  0.00     0.041 A 
ATOM     10  C   UNL A   1      33.419  24.900  25.580  1.00  0.00     0.066 A 
ATOM     11  C   UNL A   1      33.042  23.905  26.487  1.00  0.00     0.028 A 
ATOM     12  C   UNL A   1      34.396  24.617  24.617  1.00  0.00     0.042 A 
ATOM     13  C   UNL A   1      33.621  22.635  26.402  1.00  0.00     0.003 A 
ATOM     14  C   UNL A   1      34.668  22.401  25.503  1.00  0.00     0.014 A 
BRANCH  10  15
ATOM     15  N   UNL A   1      32.926  26.231  25.716  1.00  0.00    -0.236 N 
ATOM     16  C   UNL A   1      33.803  29.594  26.495  1.00  0.00     0.070 C 
ATOM     17  C   UNL A   1      33.165  28.333  26.042  1.00  0.00     0.079 A 
ATOM     18  N   UNL A   1      33.654  27.143  26.419  1.00  0.00    -0.171 NA
ATOM     19  C   UNL A   1      32.020  28.185  25.238  1.00  0.00     0.085 A 
ATOM     20  C   UNL A   1      31.839  26.828  25.088  1.00  0.00     0.060 A 
ATOM     21  Cl  UNL A   1      31.052  29.433  24.619  1.00  0.00    -0.080 Cl
ATOM     22  C   UNL A   1      30.716  26.097  24.448  1.00  0.00     0.068 C 
ENDBRANCH  10  15
ENDBRANCH   6   9
ENDBRANCH   4   5
ENDBRANCH   3   4
ENDBRANCH   2   3
ENDBRANCH   1   2
BRANCH   1  23
ATOM     23  C   UNL A   1      41.914  20.100  27.250  1.00  0.00     0.021 C 
BRANCH  23  24
ATOM     24  C   UNL A   1      42.066  19.840  25.760  1.00  0.00     0.116 C 
BRANCH  24  25
ATOM     25  N   UNL A   1      43.440  19.552  25.353  1.00  0.00    -0.352 N 
ATOM     26  C   UNL A   1      44.428  20.447  24.973  1.00  0.00     0.251 C 
ATOM     27  H   UNL A   1      43.696  18.601  25.349  1.00  0.00     0.163 HD
ATOM     28  O   UNL A   1      45.387  20.085  24.313  1.00  0.00    -0.269 OA
BRANCH  26  29
ATOM     29  C   UNL A   1      44.298  21.858  25.386  1.00  0.00     0.039 A 
ATOM     30  C   UNL A   1      43.553  22.775  24.643  1.00  0.00     0.014 A 
ATOM     31  C   UNL A   1      44.925  22.246  26.566  1.00  0.00     0.014 A 
ATOM     32  C   UNL A   1      43.384  24.063  25.150  1.00  0.00     0.010 A 
ATOM     33  C   UNL A   1      44.593  23.434  27.158  1.00  0.00     0.010 A 
ATOM     34  C   UNL A   1      43.891  24.375  26.424  1.00  0.00    -0.014 A 
BRANCH  34  35
ATOM     35  C   UNL A   1      43.611  25.659  27.051  1.00  0.00     0.031 A 
ATOM     36  C   UNL A   1      44.574  26.721  26.676  1.00  0.00     0.074 A 
ATOM     37  C   UNL A   1      42.481  25.934  27.742  1.00  0.00     0.049 A 
ATOM     38  N   UNL A   1      45.560  27.159  27.383  1.00  0.00    -0.248 NA
ATOM     39  C   UNL A   1      44.559  27.234  25.297  1.00  0.00     0.031 C 
ATOM     40  C   UNL A   1      41.279  25.099  27.872  1.00  0.00     0.029 A 
ATOM     41  N   UNL A   1      42.130  27.069  28.416  1.00  0.00    -0.354 N 
ATOM     42  C   UNL A   1      46.102  28.209  26.649  1.00  0.00     0.074 A 
ATOM     43  C   UNL A   1      45.620  28.046  25.304  1.00  0.00     0.031 C 
ATOM     44  C   UNL A   1      40.261  25.836  28.371  1.00  0.00     0.029 A 
ATOM     45  C   UNL A   1      40.790  27.119  28.789  1.00  0.00     0.049 A 
ATOM     46  H   UNL A   1      42.770  27.788  28.620  1.00  0.00     0.167 HD
ATOM     47  C   UNL A   1      46.599  29.299  27.297  1.00  0.00     0.037 A 
ATOM     48  C   UNL A   1      40.160  28.132  29.427  1.00  0.00     0.037 A 
ATOM     49  C   UNL A   1      46.704  29.035  28.712  1.00  0.00     0.049 A 
ATOM     50  C   UNL A   1      41.189  28.927  30.130  1.00  0.00     0.074 A 
ATOM     51  C   UNL A   1      47.552  28.355  29.558  1.00  0.00     0.029 A 
ATOM     52  N   UNL A   1      45.527  29.227  29.382  1.00  0.00    -0.354 N 
ATOM     53  N   UNL A   1      41.886  28.470  31.133  1.00  0.00    -0.248 NA
ATOM     54  C   UNL A   1      41.709  30.136  29.502  1.00  0.00     0.031 C 
ATOM     55  C   UNL A   1      46.791  28.048  30.729  1.00  0.00     0.029 A 
ATOM     56  C   UNL A   1      45.514  28.584  30.589  1.00  0.00     0.049 A 
ATOM     57  H   UNL A   1      44.778  29.765  29.037  1.00  0.00     0.167 HD
ATOM     58  C   UNL A   1      43.123  29.059  30.979  1.00  0.00     0.074 A 
ATOM     59  C   UNL A   1      42.905  30.197  30.093  1.00  0.00     0.031 C 
ATOM     60  C   UNL A   1      44.264  28.380  31.284  1.00  0.00     0.037 A 
BRANCH  47  61
ATOM     61  C   UNL A   1      46.493  30.732  26.812  1.00  0.00     0.057 A 
ATOM     62  C   UNL A   1      47.646  31.541  26.848  1.00  0.00     0.134 A 
ATOM     63  C   UNL A   1      45.284  31.432  26.620  1.00  0.00     0.134 A 
ATOM     64  F   UNL A   1      48.860  31.002  27.036  1.00  0.00    -0.206 F 
ATOM     65  C   UNL A   1      47.589  32.940  26.774  1.00  0.00     0.040 A 
ATOM     66  C   UNL A   1      45.222  32.823  26.496  1.00  0.00     0.040 A 
ATOM     67  F   UNL A   1      44.090  30.830  26.646  1.00  0.00    -0.206 F 
ATOM     68  C   UNL A   1      46.372  33.586  26.603  1.00  0.00     0.006 A 
ENDBRANCH  47  61
BRANCH  48  69
ATOM     69  C   UNL A   1      38.762  28.596  29.318  1.00  0.00     0.057 A 
ATOM     70  C   UNL A   1      37.916  28.623  30.435  1.00  0.00     0.134 A 
ATOM     71  C   UNL A   1      38.332  29.318  28.193  1.00  0.00     0.134 A 
ATOM     72  F   UNL A   1      38.260  27.984  31.564  1.00  0.00    -0.206 F 
ATOM     73  C   UNL A   1      36.731  29.369  30.453  1.00  0.00     0.040 A 
ATOM     74  C   UNL A   1      37.150  30.066  28.197  1.00  0.00     0.040 A 
ATOM     75  F   UNL A   1      39.096  29.397  27.094  1.00  0.00    -0.206 F 
ATOM     76  C   UNL A   1      36.355  30.110  29.336  1.00  0.00     0.006 A 
ENDBRANCH  48  69
BRANCH  60  77
ATOM     77  C   UNL A   1      44.165  27.270  32.281  1.00  0.00     0.057 A 
ATOM     78  C   UNL A   1      44.161  25.904  31.966  1.00  0.00     0.134 A 
ATOM     79  C   UNL A   1      44.134  27.611  33.637  1.00  0.00     0.134 A 
ATOM     80  F   UNL A   1      44.252  25.484  30.698  1.00  0.00    -0.206 F 
ATOM     81  C   UNL A   1      44.095  24.925  32.962  1.00  0.00     0.040 A 
ATOM     82  C   UNL A   1      44.099  26.644  34.641  1.00  0.00     0.040 A 
ATOM     83  F   UNL A   1      44.167  28.901  34.009  1.00  0.00    -0.206 F 
ATOM     84  C   UNL A   1      44.069  25.294  34.304  1.00  0.00     0.006 A 
ENDBRANCH  60  77
ENDBRANCH  34  35
ENDBRANCH  26  29
ENDBRANCH  24  25
ENDBRANCH  23  24
ENDBRANCH   1  23
TORSDOF 14
ENDMDL
MODEL 2
REMARK VINA RESULT:     -11.2      3.058      7.566
REMARK SMILES Cc1nn(-c2cccc(C(=O)NCCCCCCNC(=O)c3ccc(-c4c5nc(c(-c6c(F)cccc6F)c6ccc([nH]6)c(-c6c(F)cccc6F)c6nc(c(-c7c(F)cccc7F)c7ccc4[nH]7)C=C6)C=C5)cc3)c2)c(C)c1Cl
REMARK SMILES IDX 16 1 15 2 14 3 13 4 12 5 10 6 11 7 9 9 5 10 6 11 76 12 7 13
REMARK SMILES IDX 8 14 4 15 1 16 2 17 3 18 79 19 77 20 80 21 78 22 17 23 18 24
REMARK SMILES IDX 19 25 20 26 21 28 22 29 23 30 75 31 24 32 74 33 25 34 26 35
REMARK SMILES IDX 27 36 68 37 28 38 73 39 67 40 69 41 29 42 72 43 66 44 65 45
REMARK SMILES IDX 30 47 56 48 39 49 55 50 40 51 43 52 54 53 70 54 41 55 42 56
REMARK SMILES IDX 53 58 71 59 44 60 31 61 32 62 37 63 33 64 34 65 36 66 38 67
REMARK SMILES IDX 35 68 57 69 58 70 63 71 59 72 60 73 62 74 64 75 61 76 45 77
REMARK SMILES IDX 46 78 51 79 47 80 48 81 50 82 52 83 49 84
REMARK H PARENT 12 8 19 27 69 46 43 57
REMARK Flexibility Score: inf
ROOT
ATOM      1  C   UNL A   1      32.873  28.641  27.020  1.00  0.00     0.002 C 
ENDROOT
BRANCH   1   2
ATOM      2  C   UNL A   1      32.950  27.143  26.694  1.00  0.00     0.002 C 
BRANCH   2   3
ATOM      3  C   UNL A   1      32.392  26.676  25.352  1.00  0.00     0.021 C 
BRANCH   3   4
ATOM      4  C   UNL A   1      31.047  25.958  25.363  1.00  0.00     0.116 C 
BRANCH   4   5
ATOM      5  N   UNL A   1      30.877  24.972  26.420  1.00  0.00    -0.352 N 
ATOM      6  C   UNL A   1      31.480  23.748  26.641  1.00  0.00     0.251 C 
ATOM      7  O   UNL A   1      31.141  23.103  27.631  1.00  0.00    -0.269 OA
ATOM      8  H   UNL A   1      30.211  25.223  27.100  1.00  0.00     0.163 HD
BRANCH   6   9
ATOM      9  C   UNL A   1      32.480  23.158  25.703  1.00  0.00     0.041 A 
ATOM     10  C   UNL A   1      34.784  22.721  25.055  1.00  0.00     0.066 A 
ATOM     11  C   UNL A   1      34.363  22.409  23.758  1.00  0.00     0.028 A 
ATOM     12  C   UNL A   1      33.826  23.014  26.036  1.00  0.00     0.042 A 
ATOM     13  C   UNL A   1      32.997  22.364  23.466  1.00  0.00     0.003 A 
ATOM     14  C   UNL A   1      32.060  22.760  24.428  1.00  0.00     0.014 A 
BRANCH  10  15
ATOM     15  N   UNL A   1      36.169  22.882  25.351  1.00  0.00    -0.236 N 
ATOM     16  C   UNL A   1      38.561  24.852  27.107  1.00  0.00     0.070 C 
ATOM     17  C   UNL A   1      37.812  23.810  26.361  1.00  0.00     0.079 A 
ATOM     18  N   UNL A   1      36.615  24.080  25.819  1.00  0.00    -0.171 NA
ATOM     19  C   UNL A   1      38.210  22.487  26.091  1.00  0.00     0.085 A 
ATOM     20  C   UNL A   1      37.171  21.920  25.386  1.00  0.00     0.060 A 
ATOM     21  Cl  UNL A   1      39.683  21.767  26.524  1.00  0.00    -0.080 Cl
ATOM     22  C   UNL A   1      37.100  20.588  24.732  1.00  0.00     0.068 C 
ENDBRANCH  10  15
ENDBRANCH   6   9
ENDBRANCH   4   5
ENDBRANCH   3   4
ENDBRANCH   2   3
ENDBRANCH   1   2
BRANCH   1  23
ATOM     23  C   UNL A   1      34.029  29.547  26.573  1.00  0.00     0.021 C 
BRANCH  23  24
ATOM     24  C   UNL A   1      35.358  29.297  27.265  1.00  0.00     0.116 C 
BRANCH  24  25
ATOM     25  N   UNL A   1      35.460  29.922  28.582  1.00  0.00    -0.352 N 
ATOM     26  C   UNL A   1      36.441  29.742  29.545  1.00  0.00     0.251 C 
ATOM     27  H   UNL A   1      34.739  30.552  28.815  1.00  0.00     0.163 HD
ATOM     28  O   UNL A   1      36.234  30.013  30.715  1.00  0.00    -0.269 OA
BRANCH  26  29
ATOM     29  C   UNL A   1      37.753  29.213  29.123  1.00  0.00     0.039 A 
ATOM     30  C   UNL A   1      38.420  29.710  28.002  1.00  0.00     0.014 A 
ATOM     31  C   UNL A   1      38.325  28.210  29.900  1.00  0.00     0.014 A 
ATOM     32  C   UNL A   1      39.702  29.239  27.727  1.00  0.00     0.010 A 
ATOM     33  C   UNL A   1      39.648  27.900  29.750  1.00  0.00     0.010 A 
ATOM     34  C   UNL A   1      40.318  28.348  28.624  1.00  0.00    -0.014 A 
BRANCH  34  35
ATOM     35  C   UNL A   1      41.708  27.947  28.451  1.00  0.00     0.031 A 
ATOM     36  C   UNL A   1      41.869  26.712  27.647  1.00  0.00     0.074 A 
ATOM     37  C   UNL A   1      42.766  28.712  28.800  1.00  0.00     0.049 A 
ATOM     38  N   UNL A   1      42.106  25.524  28.088  1.00  0.00    -0.248 NA
ATOM     39  C   UNL A   1      41.559  26.760  26.209  1.00  0.00     0.031 C 
ATOM     40  C   UNL A   1      42.756  30.109  29.259  1.00  0.00     0.029 A 
ATOM     41  N   UNL A   1      44.100  28.428  28.741  1.00  0.00    -0.354 N 
ATOM     42  C   UNL A   1      42.266  24.734  26.954  1.00  0.00     0.074 A 
ATOM     43  C   UNL A   1      41.685  25.474  25.867  1.00  0.00     0.031 C 
ATOM     44  C   UNL A   1      44.008  30.616  29.211  1.00  0.00     0.029 A 
ATOM     45  C   UNL A   1      44.927  29.533  28.925  1.00  0.00     0.049 A 
ATOM     46  H   UNL A   1      44.447  27.520  28.582  1.00  0.00     0.167 HD
ATOM     47  C   UNL A   1      43.174  23.720  26.963  1.00  0.00     0.037 A 
ATOM     48  C   UNL A   1      46.280  29.555  28.877  1.00  0.00     0.037 A 
ATOM     49  C   UNL A   1      43.646  23.481  28.306  1.00  0.00     0.049 A 
ATOM     50  C   UNL A   1      46.758  28.179  29.130  1.00  0.00     0.074 A 
ATOM     51  C   UNL A   1      43.190  22.858  29.447  1.00  0.00     0.029 A 
ATOM     52  N   UNL A   1      44.654  24.327  28.678  1.00  0.00    -0.354 N 
ATOM     53  N   UNL A   1      46.614  27.569  30.273  1.00  0.00    -0.248 NA
ATOM     54  C   UNL A   1      47.099  27.323  28.000  1.00  0.00     0.031 C 
ATOM     55  C   UNL A   1      43.896  23.453  30.539  1.00  0.00     0.029 A 
ATOM     56  C   UNL A   1      44.794  24.391  30.037  1.00  0.00     0.049 A 
ATOM     57  H   UNL A   1      45.213  24.831  28.044  1.00  0.00     0.167 HD
ATOM     58  C   UNL A   1      46.415  26.249  29.928  1.00  0.00     0.074 A 
ATOM     59  C   UNL A   1      46.905  26.127  28.560  1.00  0.00     0.031 C 
ATOM     60  C   UNL A   1      45.555  25.463  30.634  1.00  0.00     0.037 A 
BRANCH  47  61
ATOM     61  C   UNL A   1      44.034  23.302  25.786  1.00  0.00     0.057 A 
ATOM     62  C   UNL A   1      44.028  21.947  25.395  1.00  0.00     0.134 A 
ATOM     63  C   UNL A   1      45.080  24.071  25.237  1.00  0.00     0.134 A 
ATOM     64  F   UNL A   1      43.092  21.103  25.855  1.00  0.00    -0.206 F 
ATOM     65  C   UNL A   1      45.026  21.391  24.584  1.00  0.00     0.040 A 
ATOM     66  C   UNL A   1      46.053  23.536  24.387  1.00  0.00     0.040 A 
ATOM     67  F   UNL A   1      45.286  25.350  25.568  1.00  0.00    -0.206 F 
ATOM     68  C   UNL A   1      46.048  22.185  24.082  1.00  0.00     0.006 A 
ENDBRANCH  47  61
BRANCH  48  69
ATOM     69  C   UNL A   1      47.194  30.624  28.430  1.00  0.00     0.057 A 
ATOM     70  C   UNL A   1      47.157  31.110  27.115  1.00  0.00     0.134 A 
ATOM     71  C   UNL A   1      47.893  31.406  29.364  1.00  0.00     0.134 A 
ATOM     72  F   UNL A   1      46.489  30.442  26.163  1.00  0.00    -0.206 F 
ATOM     73  C   UNL A   1      47.740  32.331  26.758  1.00  0.00     0.040 A 
ATOM     74  C   UNL A   1      48.481  32.628  29.019  1.00  0.00     0.040 A 
ATOM     75  F   UNL A   1      47.940  31.054  30.657  1.00  0.00    -0.206 F 
ATOM     76  C   UNL A   1      48.388  33.105  27.717  1.00  0.00     0.006 A 
ENDBRANCH  48  69
BRANCH  60  77
ATOM     77  C   UNL A   1      45.284  25.836  32.057  1.00  0.00     0.057 A 
ATOM     78  C   UNL A   1      46.152  25.594  33.130  1.00  0.00     0.134 A 
ATOM     79  C   UNL A   1      44.104  26.533  32.335  1.00  0.00     0.134 A 
ATOM     80  F   UNL A   1      47.332  24.990  32.947  1.00  0.00    -0.206 F 
ATOM     81  C   UNL A   1      45.836  26.003  34.431  1.00  0.00     0.040 A 
ATOM     82  C   UNL A   1      43.792  26.972  33.622  1.00  0.00     0.040 A 
ATOM     83  F   UNL A   1      43.244  26.825  31.347  1.00  0.00    -0.206 F 
ATOM     84  C   UNL A   1      44.656  26.699  34.677  1.00  0.00     0.006 A 
ENDBRANCH  60  77
ENDBRANCH  34  35
ENDBRANCH  26  29
ENDBRANCH  24  25
ENDBRANCH  23  24
ENDBRANCH   1  23
TORSDOF 14
ENDMDL
MODEL 3
REMARK VINA RESULT:     -11.2      4.622      9.923
REMARK SMILES Cc1nn(-c2cccc(C(=O)NCCCCCCNC(=O)c3ccc(-c4c5nc(c(-c6c(F)cccc6F)c6ccc([nH]6)c(-c6c(F)cccc6F)c6nc(c(-c7c(F)cccc7F)c7ccc4[nH]7)C=C6)C=C5)cc3)c2)c(C)c1Cl
REMARK SMILES IDX 16 1 15 2 14 3 13 4 12 5 10 6 11 7 9 9 5 10 6 11 76 12 7 13
REMARK SMILES IDX 8 14 4 15 1 16 2 17 3 18 79 19 77 20 80 21 78 22 17 23 18 24
REMARK SMILES IDX 19 25 20 26 21 28 22 29 23 30 75 31 24 32 74 33 25 34 26 35
REMARK SMILES IDX 27 36 68 37 28 38 73 39 67 40 69 41 29 42 72 43 66 44 65 45
REMARK SMILES IDX 30 47 56 48 39 49 55 50 40 51 43 52 54 53 70 54 41 55 42 56
REMARK SMILES IDX 53 58 71 59 44 60 31 61 32 62 37 63 33 64 34 65 36 66 38 67
REMARK SMILES IDX 35 68 57 69 58 70 63 71 59 72 60 73 62 74 64 75 61 76 45 77
REMARK SMILES IDX 46 78 51 79 47 80 48 81 50 82 52 83 49 84
REMARK H PARENT 12 8 19 27 69 46 43 57
REMARK Flexibility Score: inf
ROOT
ATOM      1  C   UNL A   1      34.136  33.717  28.249  1.00  0.00     0.002 C 
ENDROOT
BRANCH   1   2
ATOM      2  C   UNL A   1      34.097  32.238  28.661  1.00  0.00     0.002 C 
BRANCH   2   3
ATOM      3  C   UNL A   1      34.586  31.203  27.651  1.00  0.00     0.021 C 
BRANCH   3   4
ATOM      4  C   UNL A   1      33.532  30.494  26.808  1.00  0.00     0.116 C 
BRANCH   4   5
ATOM      5  N   UNL A   1      32.623  29.629  27.546  1.00  0.00    -0.352 N 
ATOM      6  C   UNL A   1      31.813  28.586  27.139  1.00  0.00     0.251 C 
ATOM      7  O   UNL A   1      31.129  28.015  27.987  1.00  0.00    -0.269 OA
ATOM      8  H   UNL A   1      32.579  29.823  28.511  1.00  0.00     0.163 HD
BRANCH   6   9
ATOM      9  C   UNL A   1      31.692  28.165  25.712  1.00  0.00     0.041 A 
ATOM     10  C   UNL A   1      32.080  26.548  23.936  1.00  0.00     0.066 A 
ATOM     11  C   UNL A   1      31.832  27.536  22.978  1.00  0.00     0.028 A 
ATOM     12  C   UNL A   1      31.927  26.855  25.295  1.00  0.00     0.042 A 
ATOM     13  C   UNL A   1      31.407  28.805  23.386  1.00  0.00     0.003 A 
ATOM     14  C   UNL A   1      31.360  29.125  24.748  1.00  0.00     0.014 A 
BRANCH  10  15
ATOM     15  N   UNL A   1      32.619  25.286  23.554  1.00  0.00    -0.236 N 
ATOM     16  C   UNL A   1      35.577  23.304  23.416  1.00  0.00     0.070 C 
ATOM     17  C   UNL A   1      34.192  23.839  23.428  1.00  0.00     0.079 A 
ATOM     18  N   UNL A   1      33.965  25.160  23.385  1.00  0.00    -0.171 NA
ATOM     19  C   UNL A   1      32.987  23.112  23.450  1.00  0.00     0.085 A 
ATOM     20  C   UNL A   1      31.982  24.054  23.467  1.00  0.00     0.060 A 
ATOM     21  Cl  UNL A   1      32.824  21.424  23.427  1.00  0.00    -0.080 Cl
ATOM     22  C   UNL A   1      30.513  23.858  23.363  1.00  0.00     0.068 C 
ENDBRANCH  10  15
ENDBRANCH   6   9
ENDBRANCH   4   5
ENDBRANCH   3   4
ENDBRANCH   2   3
ENDBRANCH   1   2
BRANCH   1  23
ATOM     23  C   UNL A   1      32.999  34.637  28.715  1.00  0.00     0.021 C 
BRANCH  23  24
ATOM     24  C   UNL A   1      33.437  35.880  29.473  1.00  0.00     0.116 C 
BRANCH  24  25
ATOM     25  N   UNL A   1      32.741  36.066  30.744  1.00  0.00    -0.352 N 
ATOM     26  C   UNL A   1      32.888  35.343  31.918  1.00  0.00     0.251 C 
ATOM     27  H   UNL A   1      32.083  36.799  30.770  1.00  0.00     0.163 HD
ATOM     28  O   UNL A   1      32.017  35.340  32.770  1.00  0.00    -0.269 OA
BRANCH  26  29
ATOM     29  C   UNL A   1      34.130  34.572  32.119  1.00  0.00     0.039 A 
ATOM     30  C   UNL A   1      34.143  33.176  32.083  1.00  0.00     0.014 A 
ATOM     31  C   UNL A   1      35.308  35.285  32.320  1.00  0.00     0.014 A 
ATOM     32  C   UNL A   1      35.368  32.518  32.173  1.00  0.00     0.010 A 
ATOM     33  C   UNL A   1      36.517  34.655  32.204  1.00  0.00     0.010 A 
ATOM     34  C   UNL A   1      36.555  33.271  32.209  1.00  0.00    -0.014 A 
BRANCH  34  35
ATOM     35  C   UNL A   1      37.859  32.624  32.155  1.00  0.00     0.031 A 
ATOM     36  C   UNL A   1      38.562  32.604  33.459  1.00  0.00     0.074 A 
ATOM     37  C   UNL A   1      38.313  31.925  31.090  1.00  0.00     0.049 A 
ATOM     38  N   UNL A   1      39.522  33.379  33.835  1.00  0.00    -0.248 NA
ATOM     39  C   UNL A   1      38.030  31.754  34.536  1.00  0.00     0.031 C 
ATOM     40  C   UNL A   1      37.573  31.546  29.878  1.00  0.00     0.029 A 
ATOM     41  N   UNL A   1      39.525  31.326  30.898  1.00  0.00    -0.354 N 
ATOM     42  C   UNL A   1      39.906  32.910  35.088  1.00  0.00     0.074 A 
ATOM     43  C   UNL A   1      38.818  32.096  35.560  1.00  0.00     0.031 C 
ATOM     44  C   UNL A   1      38.260  30.602  29.198  1.00  0.00     0.029 A 
ATOM     45  C   UNL A   1      39.569  30.465  29.805  1.00  0.00     0.049 A 
ATOM     46  H   UNL A   1      40.301  31.489  31.483  1.00  0.00     0.167 HD
ATOM     47  C   UNL A   1      41.219  32.947  35.447  1.00  0.00     0.037 A 
ATOM     48  C   UNL A   1      40.619  29.711  29.404  1.00  0.00     0.037 A 
ATOM     49  C   UNL A   1      41.972  33.744  34.509  1.00  0.00     0.049 A 
ATOM     50  C   UNL A   1      41.845  30.323  29.957  1.00  0.00     0.074 A 
ATOM     51  C   UNL A   1      42.180  35.080  34.247  1.00  0.00     0.029 A 
ATOM     52  N   UNL A   1      42.345  33.046  33.392  1.00  0.00    -0.354 N 
ATOM     53  N   UNL A   1      42.293  31.491  29.588  1.00  0.00    -0.248 NA
ATOM     54  C   UNL A   1      42.412  29.795  31.193  1.00  0.00     0.031 C 
ATOM     55  C   UNL A   1      42.588  35.162  32.880  1.00  0.00     0.029 A 
ATOM     56  C   UNL A   1      42.663  33.876  32.354  1.00  0.00     0.049 A 
ATOM     57  H   UNL A   1      42.379  32.064  33.343  1.00  0.00     0.167 HD
ATOM     58  C   UNL A   1      42.843  32.019  30.737  1.00  0.00     0.074 A 
ATOM     59  C   UNL A   1      43.057  30.881  31.624  1.00  0.00     0.031 C 
ATOM     60  C   UNL A   1      42.748  33.350  31.011  1.00  0.00     0.037 A 
BRANCH  47  61
ATOM     61  C   UNL A   1      41.931  31.895  36.275  1.00  0.00     0.057 A 
ATOM     62  C   UNL A   1      42.685  32.313  37.390  1.00  0.00     0.134 A 
ATOM     63  C   UNL A   1      42.174  30.570  35.860  1.00  0.00     0.134 A 
ATOM     64  F   UNL A   1      42.558  33.556  37.881  1.00  0.00    -0.206 F 
ATOM     65  C   UNL A   1      43.653  31.500  37.994  1.00  0.00     0.040 A 
ATOM     66  C   UNL A   1      43.104  29.734  36.487  1.00  0.00     0.040 A 
ATOM     67  F   UNL A   1      41.611  30.041  34.769  1.00  0.00    -0.206 F 
ATOM     68  C   UNL A   1      43.870  30.207  37.539  1.00  0.00     0.006 A 
ENDBRANCH  47  61
BRANCH  48  69
ATOM     69  C   UNL A   1      40.639  28.388  28.750  1.00  0.00     0.057 A 
ATOM     70  C   UNL A   1      39.974  27.289  29.312  1.00  0.00     0.134 A 
ATOM     71  C   UNL A   1      41.037  28.257  27.409  1.00  0.00     0.134 A 
ATOM     72  F   UNL A   1      39.534  27.335  30.578  1.00  0.00    -0.206 F 
ATOM     73  C   UNL A   1      39.675  26.141  28.568  1.00  0.00     0.040 A 
ATOM     74  C   UNL A   1      40.745  27.115  26.655  1.00  0.00     0.040 A 
ATOM     75  F   UNL A   1      41.631  29.273  26.767  1.00  0.00    -0.206 F 
ATOM     76  C   UNL A   1      40.044  26.061  27.227  1.00  0.00     0.006 A 
ENDBRANCH  48  69
BRANCH  60  77
ATOM     77  C   UNL A   1      42.571  34.285  29.857  1.00  0.00     0.057 A 
ATOM     78  C   UNL A   1      43.590  34.679  28.979  1.00  0.00     0.134 A 
ATOM     79  C   UNL A   1      41.282  34.756  29.590  1.00  0.00     0.134 A 
ATOM     80  F   UNL A   1      44.842  34.226  29.120  1.00  0.00    -0.206 F 
ATOM     81  C   UNL A   1      43.336  35.536  27.903  1.00  0.00     0.040 A 
ATOM     82  C   UNL A   1      41.010  35.586  28.503  1.00  0.00     0.040 A 
ATOM     83  F   UNL A   1      40.254  34.391  30.373  1.00  0.00    -0.206 F 
ATOM     84  C   UNL A   1      42.041  35.987  27.660  1.00  0.00     0.006 A 
ENDBRANCH  60  77
ENDBRANCH  34  35
ENDBRANCH  26  29
ENDBRANCH  24  25
ENDBRANCH  23  24
ENDBRANCH   1  23
TORSDOF 14
ENDMDL
