MODEL 1
REMARK VINA RESULT:     -11.0      0.000      0.000
REMARK SMILES O=C(Cc1cccn(C(F)F)c1=O)NCCCCCCNC(=O)c1ccc(-c2c3nc(c(-c4c(F)cccc4F)c4ccc([nH]4)c(-c4c(F)cccc4F)c4nc(c(-c5c(F)cccc5F)c5ccc2[nH]5)C=C4)C=C3)cc1
REMARK SMILES IDX 17 1 16 2 15 3 14 4 1 5 2 6 3 8 4 9 5 10 12 11 6 12 8 13
REMARK SMILES IDX 13 14 7 15 9 16 10 17 11 18 18 19 19 20 20 21 21 22 22 23
REMARK SMILES IDX 23 25 24 26 25 27 77 28 26 29 76 30 27 31 28 32 29 33 70 34
REMARK SMILES IDX 30 35 75 36 69 37 71 38 31 39 74 40 68 41 67 42 32 44 58 45
REMARK SMILES IDX 41 46 57 47 42 48 45 49 56 50 72 51 43 52 44 53 55 55 73 56
REMARK SMILES IDX 46 57 33 58 34 59 39 60 35 61 36 62 38 63 40 64 37 65 59 66
REMARK SMILES IDX 60 67 65 68 61 69 62 70 64 71 66 72 63 73 47 74 48 75 53 76
REMARK SMILES IDX 49 77 50 78 52 79 54 80 51 81
REMARK H PARENT 14 7 21 24 71 43 45 54
REMARK Flexibility Score: inf
ROOT
ATOM      1  C   UNL A   1      31.930  29.411  27.153  1.00  0.00     0.002 C 
ENDROOT
BRANCH   1   2
ATOM      2  C   UNL A   1      33.007  28.347  26.892  1.00  0.00     0.021 C 
BRANCH   2   3
ATOM      3  C   UNL A   1      32.479  26.975  26.478  1.00  0.00     0.116 C 
BRANCH   3   4
ATOM      4  N   UNL A   1      31.840  27.027  25.183  1.00  0.00    -0.356 N 
ATOM      5  O   UNL A   1      30.011  25.730  25.687  1.00  0.00    -0.275 OA
ATOM      6  C   UNL A   1      30.653  26.401  24.885  1.00  0.00     0.224 C 
ATOM      7  H   UNL A   1      32.283  27.541  24.470  1.00  0.00     0.163 HD
BRANCH   6   8
ATOM      8  C   UNL A   1      30.191  26.619  23.451  1.00  0.00     0.141 C 
BRANCH   8   9
ATOM      9  C   UNL A   1      29.161  27.709  23.393  1.00  0.00     0.027 A 
ATOM     10  C   UNL A   1      27.839  27.495  23.502  1.00  0.00     0.011 A 
ATOM     11  C   UNL A   1      29.655  29.113  23.178  1.00  0.00     0.258 A 
ATOM     12  C   UNL A   1      26.901  28.586  23.439  1.00  0.00     0.019 A 
ATOM     13  N   UNL A   1      28.692  30.104  23.145  1.00  0.00    -0.258 N 
ATOM     14  O   UNL A   1      30.861  29.324  23.053  1.00  0.00    -0.269 OA
ATOM     15  C   UNL A   1      27.341  29.838  23.271  1.00  0.00     0.095 A 
BRANCH  13  16
ATOM     16  C   UNL A   1      29.131  31.466  22.974  1.00  0.00     0.451 C 
ATOM     17  F   UNL A   1      28.096  32.227  22.529  1.00  0.00    -0.185 F 
ATOM     18  F   UNL A   1      29.492  31.981  24.178  1.00  0.00    -0.185 F 
ENDBRANCH  13  16
ENDBRANCH   8   9
ENDBRANCH   6   8
ENDBRANCH   3   4
ENDBRANCH   2   3
ENDBRANCH   1   2
BRANCH   1  19
ATOM     19  C   UNL A   1      31.915  30.594  26.179  1.00  0.00     0.002 C 
BRANCH  19  20
ATOM     20  C   UNL A   1      31.537  31.942  26.793  1.00  0.00     0.021 C 
BRANCH  20  21
ATOM     21  C   UNL A   1      32.706  32.771  27.316  1.00  0.00     0.116 C 
BRANCH  21  22
ATOM     22  N   UNL A   1      32.349  34.147  27.629  1.00  0.00    -0.352 N 
ATOM     23  C   UNL A   1      32.937  35.006  28.529  1.00  0.00     0.251 C 
ATOM     24  H   UNL A   1      31.584  34.513  27.127  1.00  0.00     0.163 HD
ATOM     25  O   UNL A   1      32.446  36.108  28.751  1.00  0.00    -0.269 OA
BRANCH  23  26
ATOM     26  C   UNL A   1      34.143  34.571  29.271  1.00  0.00     0.039 A 
ATOM     27  C   UNL A   1      35.414  34.719  28.714  1.00  0.00     0.014 A 
ATOM     28  C   UNL A   1      33.991  33.966  30.522  1.00  0.00     0.014 A 
ATOM     29  C   UNL A   1      36.506  34.104  29.318  1.00  0.00     0.010 A 
ATOM     30  C   UNL A   1      35.106  33.419  31.167  1.00  0.00     0.010 A 
ATOM     31  C   UNL A   1      36.362  33.431  30.542  1.00  0.00    -0.014 A 
BRANCH  31  32
ATOM     32  C   UNL A   1      37.533  32.724  31.126  1.00  0.00     0.031 A 
ATOM     33  C   UNL A   1      38.058  33.098  32.487  1.00  0.00     0.074 A 
ATOM     34  C   UNL A   1      38.081  31.690  30.458  1.00  0.00     0.049 A 
ATOM     35  N   UNL A   1      39.035  32.556  33.173  1.00  0.00    -0.248 NA
ATOM     36  C   UNL A   1      37.407  34.227  33.168  1.00  0.00     0.031 C 
ATOM     37  C   UNL A   1      37.660  31.222  29.136  1.00  0.00     0.029 A 
ATOM     38  N   UNL A   1      39.087  30.828  30.812  1.00  0.00    -0.354 N 
ATOM     39  C   UNL A   1      39.126  33.288  34.352  1.00  0.00     0.074 A 
ATOM     40  C   UNL A   1      38.127  34.331  34.276  1.00  0.00     0.031 C 
ATOM     41  C   UNL A   1      38.365  30.127  28.814  1.00  0.00     0.029 A 
ATOM     42  C   UNL A   1      39.322  29.847  29.879  1.00  0.00     0.049 A 
ATOM     43  H   UNL A   1      39.594  30.906  31.652  1.00  0.00     0.167 HD
ATOM     44  C   UNL A   1      39.956  33.101  35.407  1.00  0.00     0.037 A 
ATOM     45  C   UNL A   1      40.212  28.838  29.879  1.00  0.00     0.037 A 
ATOM     46  C   UNL A   1      40.938  32.051  35.497  1.00  0.00     0.049 A 
ATOM     47  C   UNL A   1      41.142  28.676  31.046  1.00  0.00     0.074 A 
ATOM     48  C   UNL A   1      41.806  31.766  36.537  1.00  0.00     0.029 A 
ATOM     49  N   UNL A   1      41.180  31.110  34.507  1.00  0.00    -0.354 N 
ATOM     50  N   UNL A   1      41.203  29.367  32.158  1.00  0.00    -0.248 NA
ATOM     51  C   UNL A   1      42.135  27.597  30.951  1.00  0.00     0.031 C 
ATOM     52  C   UNL A   1      42.599  30.675  36.161  1.00  0.00     0.029 A 
ATOM     53  C   UNL A   1      42.197  30.256  34.903  1.00  0.00     0.049 A 
ATOM     54  H   UNL A   1      40.699  31.056  33.650  1.00  0.00     0.167 HD
ATOM     55  C   UNL A   1      42.229  28.798  32.901  1.00  0.00     0.074 A 
ATOM     56  C   UNL A   1      42.746  27.690  32.123  1.00  0.00     0.031 C 
ATOM     57  C   UNL A   1      42.703  29.162  34.117  1.00  0.00     0.037 A 
BRANCH  44  58
ATOM     58  C   UNL A   1      39.845  34.067  36.551  1.00  0.00     0.057 A 
ATOM     59  C   UNL A   1      39.034  33.774  37.656  1.00  0.00     0.134 A 
ATOM     60  C   UNL A   1      40.515  35.297  36.549  1.00  0.00     0.134 A 
ATOM     61  F   UNL A   1      38.360  32.617  37.718  1.00  0.00    -0.206 F 
ATOM     62  C   UNL A   1      38.897  34.670  38.717  1.00  0.00     0.040 A 
ATOM     63  C   UNL A   1      40.404  36.191  37.616  1.00  0.00     0.040 A 
ATOM     64  F   UNL A   1      41.317  35.632  35.527  1.00  0.00    -0.206 F 
ATOM     65  C   UNL A   1      39.588  35.880  38.703  1.00  0.00     0.006 A 
ENDBRANCH  44  58
BRANCH  45  66
ATOM     66  C   UNL A   1      40.269  27.900  28.732  1.00  0.00     0.057 A 
ATOM     67  C   UNL A   1      41.001  28.203  27.578  1.00  0.00     0.134 A 
ATOM     68  C   UNL A   1      39.604  26.669  28.772  1.00  0.00     0.134 A 
ATOM     69  F   UNL A   1      41.656  29.369  27.478  1.00  0.00    -0.206 F 
ATOM     70  C   UNL A   1      41.063  27.321  26.500  1.00  0.00     0.040 A 
ATOM     71  C   UNL A   1      39.678  25.765  27.712  1.00  0.00     0.040 A 
ATOM     72  F   UNL A   1      38.904  26.314  29.860  1.00  0.00    -0.206 F 
ATOM     73  C   UNL A   1      40.407  26.093  26.568  1.00  0.00     0.006 A 
ENDBRANCH  45  66
BRANCH  57  74
ATOM     74  C   UNL A   1      43.823  28.339  34.680  1.00  0.00     0.057 A 
ATOM     75  C   UNL A   1      45.158  28.692  34.446  1.00  0.00     0.134 A 
ATOM     76  C   UNL A   1      43.580  27.196  35.452  1.00  0.00     0.134 A 
ATOM     77  F   UNL A   1      45.458  29.772  33.711  1.00  0.00    -0.206 F 
ATOM     78  C   UNL A   1      46.211  27.938  34.965  1.00  0.00     0.040 A 
ATOM     79  C   UNL A   1      44.625  26.448  35.997  1.00  0.00     0.040 A 
ATOM     80  F   UNL A   1      42.322  26.815  35.725  1.00  0.00    -0.206 F 
ATOM     81  C   UNL A   1      45.946  26.818  35.750  1.00  0.00     0.006 A 
ENDBRANCH  57  74
ENDBRANCH  31  32
ENDBRANCH  23  26
ENDBRANCH  21  22
ENDBRANCH  20  21
ENDBRANCH  19  20
ENDBRANCH   1  19
TORSDOF 15
ENDMDL
MODEL 2
REMARK VINA RESULT:     -11.0      4.970      8.265
REMARK SMILES O=C(Cc1cccn(C(F)F)c1=O)NCCCCCCNC(=O)c1ccc(-c2c3nc(c(-c4c(F)cccc4F)c4ccc([nH]4)c(-c4c(F)cccc4F)c4nc(c(-c5c(F)cccc5F)c5ccc2[nH]5)C=C4)C=C3)cc1
REMARK SMILES IDX 17 1 16 2 15 3 14 4 1 5 2 6 3 8 4 9 5 10 12 11 6 12 8 13
REMARK SMILES IDX 13 14 7 15 9 16 10 17 11 18 18 19 19 20 20 21 21 22 22 23
REMARK SMILES IDX 23 25 24 26 25 27 77 28 26 29 76 30 27 31 28 32 29 33 70 34
REMARK SMILES IDX 30 35 75 36 69 37 71 38 31 39 74 40 68 41 67 42 32 44 58 45
REMARK SMILES IDX 41 46 57 47 42 48 45 49 56 50 72 51 43 52 44 53 55 55 73 56
REMARK SMILES IDX 46 57 33 58 34 59 39 60 35 61 36 62 38 63 40 64 37 65 59 66
REMARK SMILES IDX 60 67 65 68 61 69 62 70 64 71 66 72 63 73 47 74 48 75 53 76
REMARK SMILES IDX 49 77 50 78 52 79 54 80 51 81
REMARK H PARENT 14 7 21 24 71 43 45 54
REMARK Flexibility Score: inf
ROOT
ATOM      1  C   UNL A   1      35.522  34.106  33.917  1.00  0.00     0.002 C 
ENDROOT
BRANCH   1   2
ATOM      2  C   UNL A   1      36.843  33.644  34.549  1.00  0.00     0.021 C 
BRANCH   2   3
ATOM      3  C   UNL A   1      37.146  32.153  34.404  1.00  0.00     0.116 C 
BRANCH   3   4
ATOM      4  N   UNL A   1      38.568  31.901  34.427  1.00  0.00    -0.356 N 
ATOM      5  O   UNL A   1      38.587  30.393  36.161  1.00  0.00    -0.275 OA
ATOM      6  C   UNL A   1      39.182  31.038  35.303  1.00  0.00     0.224 C 
ATOM      7  H   UNL A   1      39.132  32.376  33.775  1.00  0.00     0.163 HD
BRANCH   6   8
ATOM      8  C   UNL A   1      40.690  30.944  35.113  1.00  0.00     0.141 C 
BRANCH   8   9
ATOM      9  C   UNL A   1      41.099  29.521  34.875  1.00  0.00     0.027 A 
ATOM     10  C   UNL A   1      40.794  28.830  33.764  1.00  0.00     0.011 A 
ATOM     11  C   UNL A   1      41.877  28.836  35.965  1.00  0.00     0.258 A 
ATOM     12  C   UNL A   1      41.218  27.463  33.596  1.00  0.00     0.019 A 
ATOM     13  N   UNL A   1      42.259  27.531  35.719  1.00  0.00    -0.258 N 
ATOM     14  O   UNL A   1      42.147  29.446  37.000  1.00  0.00    -0.269 OA
ATOM     15  C   UNL A   1      41.930  26.862  34.555  1.00  0.00     0.095 A 
BRANCH  13  16
ATOM     16  C   UNL A   1      43.035  26.854  36.728  1.00  0.00     0.451 C 
ATOM     17  F   UNL A   1      43.439  25.643  36.258  1.00  0.00    -0.185 F 
ATOM     18  F   UNL A   1      44.168  27.561  36.980  1.00  0.00    -0.185 F 
ENDBRANCH  13  16
ENDBRANCH   8   9
ENDBRANCH   6   8
ENDBRANCH   3   4
ENDBRANCH   2   3
ENDBRANCH   1   2
BRANCH   1  19
ATOM     19  C   UNL A   1      35.611  35.346  33.021  1.00  0.00     0.002 C 
BRANCH  19  20
ATOM     20  C   UNL A   1      34.273  35.993  32.664  1.00  0.00     0.021 C 
BRANCH  20  21
ATOM     21  C   UNL A   1      33.156  35.021  32.299  1.00  0.00     0.116 C 
BRANCH  21  22
ATOM     22  N   UNL A   1      32.636  35.211  30.953  1.00  0.00    -0.352 N 
ATOM     23  C   UNL A   1      33.196  34.838  29.752  1.00  0.00     0.251 C 
ATOM     24  H   UNL A   1      31.765  35.668  30.893  1.00  0.00     0.163 HD
ATOM     25  O   UNL A   1      32.675  35.168  28.692  1.00  0.00    -0.269 OA
BRANCH  23  26
ATOM     26  C   UNL A   1      34.465  34.074  29.746  1.00  0.00     0.039 A 
ATOM     27  C   UNL A   1      34.608  32.925  30.525  1.00  0.00     0.014 A 
ATOM     28  C   UNL A   1      35.539  34.544  28.985  1.00  0.00     0.014 A 
ATOM     29  C   UNL A   1      35.867  32.354  30.684  1.00  0.00     0.010 A 
ATOM     30  C   UNL A   1      36.786  33.917  29.084  1.00  0.00     0.010 A 
ATOM     31  C   UNL A   1      36.974  32.853  29.980  1.00  0.00    -0.014 A 
BRANCH  31  32
ATOM     32  C   UNL A   1      38.319  32.267  30.226  1.00  0.00     0.031 A 
ATOM     33  C   UNL A   1      39.296  32.945  31.151  1.00  0.00     0.074 A 
ATOM     34  C   UNL A   1      38.635  31.081  29.672  1.00  0.00     0.049 A 
ATOM     35  N   UNL A   1      40.490  32.553  31.523  1.00  0.00    -0.248 NA
ATOM     36  C   UNL A   1      38.884  34.232  31.733  1.00  0.00     0.031 C 
ATOM     37  C   UNL A   1      37.775  30.318  28.765  1.00  0.00     0.029 A 
ATOM     38  N   UNL A   1      39.750  30.296  29.813  1.00  0.00    -0.354 N 
ATOM     39  C   UNL A   1      40.975  33.548  32.364  1.00  0.00     0.074 A 
ATOM     40  C   UNL A   1      39.961  34.578  32.423  1.00  0.00     0.031 C 
ATOM     41  C   UNL A   1      38.371  29.151  28.474  1.00  0.00     0.029 A 
ATOM     42  C   UNL A   1      39.674  29.107  29.130  1.00  0.00     0.049 A 
ATOM     43  H   UNL A   1      40.531  30.559  30.352  1.00  0.00     0.167 HD
ATOM     44  C   UNL A   1      42.151  33.595  33.035  1.00  0.00     0.037 A 
ATOM     45  C   UNL A   1      40.556  28.096  29.035  1.00  0.00     0.037 A 
ATOM     46  C   UNL A   1      43.155  32.564  32.996  1.00  0.00     0.049 A 
ATOM     47  C   UNL A   1      41.866  28.191  29.762  1.00  0.00     0.074 A 
ATOM     48  C   UNL A   1      44.368  32.511  33.663  1.00  0.00     0.029 A 
ATOM     49  N   UNL A   1      43.062  31.399  32.248  1.00  0.00    -0.354 N 
ATOM     50  N   UNL A   1      42.301  29.132  30.564  1.00  0.00    -0.248 NA
ATOM     51  C   UNL A   1      42.812  27.085  29.561  1.00  0.00     0.031 C 
ATOM     52  C   UNL A   1      45.023  31.332  33.290  1.00  0.00     0.029 A 
ATOM     53  C   UNL A   1      44.203  30.632  32.422  1.00  0.00     0.049 A 
ATOM     54  H   UNL A   1      42.297  31.154  31.679  1.00  0.00     0.167 HD
ATOM     55  C   UNL A   1      43.563  28.724  30.976  1.00  0.00     0.074 A 
ATOM     56  C   UNL A   1      43.813  27.441  30.352  1.00  0.00     0.031 C 
ATOM     57  C   UNL A   1      44.439  29.359  31.792  1.00  0.00     0.037 A 
BRANCH  44  58
ATOM     58  C   UNL A   1      42.423  34.817  33.865  1.00  0.00     0.057 A 
ATOM     59  C   UNL A   1      41.999  34.882  35.199  1.00  0.00     0.134 A 
ATOM     60  C   UNL A   1      43.077  35.939  33.339  1.00  0.00     0.134 A 
ATOM     61  F   UNL A   1      41.362  33.846  35.762  1.00  0.00    -0.206 F 
ATOM     62  C   UNL A   1      42.219  36.018  35.979  1.00  0.00     0.040 A 
ATOM     63  C   UNL A   1      43.322  37.072  34.117  1.00  0.00     0.040 A 
ATOM     64  F   UNL A   1      43.518  35.936  32.073  1.00  0.00    -0.206 F 
ATOM     65  C   UNL A   1      42.887  37.116  35.441  1.00  0.00     0.006 A 
ENDBRANCH  44  58
BRANCH  45  66
ATOM     66  C   UNL A   1      40.232  26.902  28.217  1.00  0.00     0.057 A 
ATOM     67  C   UNL A   1      39.408  25.883  28.708  1.00  0.00     0.134 A 
ATOM     68  C   UNL A   1      40.728  26.762  26.916  1.00  0.00     0.134 A 
ATOM     69  F   UNL A   1      38.905  25.958  29.950  1.00  0.00    -0.206 F 
ATOM     70  C   UNL A   1      39.095  24.763  27.939  1.00  0.00     0.040 A 
ATOM     71  C   UNL A   1      40.403  25.659  26.125  1.00  0.00     0.040 A 
ATOM     72  F   UNL A   1      41.506  27.716  26.383  1.00  0.00    -0.206 F 
ATOM     73  C   UNL A   1      39.587  24.652  26.640  1.00  0.00     0.006 A 
ENDBRANCH  45  66
BRANCH  57  74
ATOM     74  C   UNL A   1      45.736  28.658  32.068  1.00  0.00     0.057 A 
ATOM     75  C   UNL A   1      46.836  28.829  31.219  1.00  0.00     0.134 A 
ATOM     76  C   UNL A   1      45.894  27.813  33.174  1.00  0.00     0.134 A 
ATOM     77  F   UNL A   1      46.748  29.621  30.140  1.00  0.00    -0.206 F 
ATOM     78  C   UNL A   1      48.050  28.186  31.463  1.00  0.00     0.040 A 
ATOM     79  C   UNL A   1      47.111  27.184  33.442  1.00  0.00     0.040 A 
ATOM     80  F   UNL A   1      44.882  27.622  34.034  1.00  0.00    -0.206 F 
ATOM     81  C   UNL A   1      48.192  27.367  32.582  1.00  0.00     0.006 A 
ENDBRANCH  57  74
ENDBRANCH  31  32
ENDBRANCH  23  26
ENDBRANCH  21  22
ENDBRANCH  20  21
ENDBRANCH  19  20
ENDBRANCH   1  19
TORSDOF 15
ENDMDL
MODEL 3
REMARK VINA RESULT:     -10.9      0.524      6.336
REMARK SMILES O=C(Cc1cccn(C(F)F)c1=O)NCCCCCCNC(=O)c1ccc(-c2c3nc(c(-c4c(F)cccc4F)c4ccc([nH]4)c(-c4c(F)cccc4F)c4nc(c(-c5c(F)cccc5F)c5ccc2[nH]5)C=C4)C=C3)cc1
REMARK SMILES IDX 17 1 16 2 15 3 14 4 1 5 2 6 3 8 4 9 5 10 12 11 6 12 8 13
REMARK SMILES IDX 13 14 7 15 9 16 10 17 11 18 18 19 19 20 20 21 21 22 22 23
REMARK SMILES IDX 23 25 24 26 25 27 77 28 26 29 76 30 27 31 28 32 29 33 70 34
REMARK SMILES IDX 30 35 75 36 69 37 71 38 31 39 74 40 68 41 67 42 32 44 58 45
REMARK SMILES IDX 41 46 57 47 42 48 45 49 56 50 72 51 43 52 44 53 55 55 73 56
REMARK SMILES IDX 46 57 33 58 34 59 39 60 35 61 36 62 38 63 40 64 37 65 59 66
REMARK SMILES IDX 60 67 65 68 61 69 62 70 64 71 66 72 63 73 47 74 48 75 53 76
REMARK SMILES IDX 49 77 50 78 52 79 54 80 51 81
REMARK H PARENT 14 7 21 24 71 43 45 54
REMARK Flexibility Score: inf
ROOT
ATOM      1  C   UNL A   1      31.715  29.402  27.000  1.00  0.00     0.002 C 
ENDROOT
BRANCH   1   2
ATOM      2  C   UNL A   1      32.884  28.408  27.052  1.00  0.00     0.021 C 
BRANCH   2   3
ATOM      3  C   UNL A   1      32.578  27.015  26.506  1.00  0.00     0.116 C 
BRANCH   3   4
ATOM      4  N   UNL A   1      31.966  27.085  25.199  1.00  0.00    -0.356 N 
ATOM      5  O   UNL A   1      30.170  25.716  25.623  1.00  0.00    -0.275 OA
ATOM      6  C   UNL A   1      30.806  26.431  24.856  1.00  0.00     0.224 C 
ATOM      7  H   UNL A   1      32.406  27.635  24.511  1.00  0.00     0.163 HD
BRANCH   6   8
ATOM      8  C   UNL A   1      30.368  26.678  23.419  1.00  0.00     0.141 C 
BRANCH   8   9
ATOM      9  C   UNL A   1      29.264  27.692  23.376  1.00  0.00     0.027 A 
ATOM     10  C   UNL A   1      27.958  27.380  23.432  1.00  0.00     0.011 A 
ATOM     11  C   UNL A   1      29.660  29.137  23.239  1.00  0.00     0.258 A 
ATOM     12  C   UNL A   1      26.945  28.403  23.386  1.00  0.00     0.019 A 
ATOM     13  N   UNL A   1      28.628  30.057  23.219  1.00  0.00    -0.258 N 
ATOM     14  O   UNL A   1      30.850  29.440  23.164  1.00  0.00    -0.269 OA
ATOM     15  C   UNL A   1      27.298  29.689  23.289  1.00  0.00     0.095 A 
BRANCH  13  16
ATOM     16  C   UNL A   1      28.972  31.453  23.122  1.00  0.00     0.451 C 
ATOM     17  F   UNL A   1      27.868  32.173  22.790  1.00  0.00    -0.185 F 
ATOM     18  F   UNL A   1      29.370  31.908  24.340  1.00  0.00    -0.185 F 
ENDBRANCH  13  16
ENDBRANCH   8   9
ENDBRANCH   6   8
ENDBRANCH   3   4
ENDBRANCH   2   3
ENDBRANCH   1   2
BRANCH   1  19
ATOM     19  C   UNL A   1      31.951  30.665  26.164  1.00  0.00     0.002 C 
BRANCH  19  20
ATOM     20  C   UNL A   1      31.562  31.979  26.840  1.00  0.00     0.021 C 
BRANCH  20  21
ATOM     21  C   UNL A   1      32.725  32.795  27.395  1.00  0.00     0.116 C 
BRANCH  21  22
ATOM     22  N   UNL A   1      32.393  34.193  27.635  1.00  0.00    -0.352 N 
ATOM     23  C   UNL A   1      32.950  35.068  28.539  1.00  0.00     0.251 C 
ATOM     24  H   UNL A   1      31.672  34.561  27.074  1.00  0.00     0.163 HD
ATOM     25  O   UNL A   1      32.481  36.191  28.690  1.00  0.00    -0.269 OA
BRANCH  23  26
ATOM     26  C   UNL A   1      34.094  34.627  29.370  1.00  0.00     0.039 A 
ATOM     27  C   UNL A   1      35.383  34.574  28.837  1.00  0.00     0.014 A 
ATOM     28  C   UNL A   1      33.863  34.217  30.686  1.00  0.00     0.014 A 
ATOM     29  C   UNL A   1      36.399  33.947  29.552  1.00  0.00     0.010 A 
ATOM     30  C   UNL A   1      34.906  33.661  31.434  1.00  0.00     0.010 A 
ATOM     31  C   UNL A   1      36.169  33.468  30.852  1.00  0.00    -0.014 A 
BRANCH  31  32
ATOM     32  C   UNL A   1      37.254  32.739  31.561  1.00  0.00     0.031 A 
ATOM     33  C   UNL A   1      37.963  31.584  30.904  1.00  0.00     0.074 A 
ATOM     34  C   UNL A   1      37.653  33.165  32.775  1.00  0.00     0.049 A 
ATOM     35  N   UNL A   1      38.964  30.866  31.351  1.00  0.00    -0.248 NA
ATOM     36  C   UNL A   1      37.486  31.176  29.573  1.00  0.00     0.031 C 
ATOM     37  C   UNL A   1      37.055  34.277  33.517  1.00  0.00     0.029 A 
ATOM     38  N   UNL A   1      38.673  32.735  33.584  1.00  0.00    -0.354 N 
ATOM     39  C   UNL A   1      39.223  29.916  30.369  1.00  0.00     0.074 A 
ATOM     40  C   UNL A   1      38.255  30.128  29.315  1.00  0.00     0.031 C 
ATOM     41  C   UNL A   1      37.753  34.476  34.646  1.00  0.00     0.029 A 
ATOM     42  C   UNL A   1      38.811  33.475  34.733  1.00  0.00     0.049 A 
ATOM     43  H   UNL A   1      39.251  31.970  33.363  1.00  0.00     0.167 HD
ATOM     44  C   UNL A   1      40.187  28.964  30.340  1.00  0.00     0.037 A 
ATOM     45  C   UNL A   1      39.687  33.357  35.747  1.00  0.00     0.037 A 
ATOM     46  C   UNL A   1      41.167  28.763  31.376  1.00  0.00     0.049 A 
ATOM     47  C   UNL A   1      40.722  32.271  35.704  1.00  0.00     0.074 A 
ATOM     48  C   UNL A   1      42.198  27.841  31.423  1.00  0.00     0.029 A 
ATOM     49  N   UNL A   1      41.238  29.500  32.549  1.00  0.00    -0.354 N 
ATOM     50  N   UNL A   1      40.962  31.393  34.762  1.00  0.00    -0.248 NA
ATOM     51  C   UNL A   1      41.602  32.155  36.875  1.00  0.00     0.031 C 
ATOM     52  C   UNL A   1      42.870  27.995  32.641  1.00  0.00     0.029 A 
ATOM     53  C   UNL A   1      42.282  29.040  33.335  1.00  0.00     0.049 A 
ATOM     54  H   UNL A   1      40.635  30.241  32.787  1.00  0.00     0.167 HD
ATOM     55  C   UNL A   1      42.029  30.631  35.217  1.00  0.00     0.074 A 
ATOM     56  C   UNL A   1      42.404  31.166  36.511  1.00  0.00     0.031 C 
ATOM     57  C   UNL A   1      42.641  29.579  34.621  1.00  0.00     0.037 A 
BRANCH  44  58
ATOM     58  C   UNL A   1      40.220  28.053  29.147  1.00  0.00     0.057 A 
ATOM     59  C   UNL A   1      39.497  26.854  29.144  1.00  0.00     0.134 A 
ATOM     60  C   UNL A   1      40.989  28.346  28.013  1.00  0.00     0.134 A 
ATOM     61  F   UNL A   1      38.746  26.509  30.201  1.00  0.00    -0.206 F 
ATOM     62  C   UNL A   1      39.535  25.981  28.056  1.00  0.00     0.040 A 
ATOM     63  C   UNL A   1      41.017  27.492  26.909  1.00  0.00     0.040 A 
ATOM     64  F   UNL A   1      41.695  29.485  27.947  1.00  0.00    -0.206 F 
ATOM     65  C   UNL A   1      40.292  26.301  26.931  1.00  0.00     0.006 A 
ENDBRANCH  44  58
BRANCH  45  66
ATOM     66  C   UNL A   1      39.623  34.295  36.895  1.00  0.00     0.057 A 
ATOM     67  C   UNL A   1      38.952  33.957  38.076  1.00  0.00     0.134 A 
ATOM     68  C   UNL A   1      40.248  35.546  36.841  1.00  0.00     0.134 A 
ATOM     69  F   UNL A   1      38.331  32.773  38.187  1.00  0.00    -0.206 F 
ATOM     70  C   UNL A   1      38.896  34.832  39.160  1.00  0.00     0.040 A 
ATOM     71  C   UNL A   1      40.222  36.422  37.927  1.00  0.00     0.040 A 
ATOM     72  F   UNL A   1      40.923  35.917  35.743  1.00  0.00    -0.206 F 
ATOM     73  C   UNL A   1      39.539  36.067  39.090  1.00  0.00     0.006 A 
ENDBRANCH  45  66
BRANCH  57  74
ATOM     74  C   UNL A   1      43.790  28.958  35.358  1.00  0.00     0.057 A 
ATOM     75  C   UNL A   1      45.104  29.373  35.113  1.00  0.00     0.134 A 
ATOM     76  C   UNL A   1      43.594  27.948  36.308  1.00  0.00     0.134 A 
ATOM     77  F   UNL A   1      45.360  30.333  34.212  1.00  0.00    -0.206 F 
ATOM     78  C   UNL A   1      46.184  28.807  35.792  1.00  0.00     0.040 A 
ATOM     79  C   UNL A   1      44.664  27.391  37.011  1.00  0.00     0.040 A 
ATOM     80  F   UNL A   1      42.356  27.519  36.599  1.00  0.00    -0.206 F 
ATOM     81  C   UNL A   1      45.965  27.819  36.750  1.00  0.00     0.006 A 
ENDBRANCH  57  74
ENDBRANCH  31  32
ENDBRANCH  23  26
ENDBRANCH  21  22
ENDBRANCH  20  21
ENDBRANCH  19  20
ENDBRANCH   1  19
TORSDOF 15
ENDMDL
