MODEL 1
REMARK VINA RESULT:     -10.8      0.000      0.000
REMARK SMILES Cc1n[nH]c(C(F)(F)Cl)c1C(=O)NCCCCCCNC(=O)c1ccc(-c2c3nc(c(-c4c(F)cccc4F)c4ccc([nH]4)c(-c4c(F)cccc4F)c4nc(c(-c5c(F)cccc5F)c5ccc2[nH]5)C=C4)C=C3)cc1
REMARK SMILES IDX 17 1 16 2 15 3 14 4 13 5 11 6 12 7 10 9 1 10 2 11 3 12 4 13
REMARK SMILES IDX 5 14 6 16 7 17 8 18 9 19 18 20 19 21 20 22 21 23 22 25 23 26
REMARK SMILES IDX 24 27 76 28 25 29 75 30 26 31 27 32 28 33 69 34 29 35 74 36
REMARK SMILES IDX 68 37 70 38 30 39 73 40 67 41 66 42 31 44 57 45 40 46 56 47
REMARK SMILES IDX 41 48 44 49 55 50 71 51 42 52 43 53 54 55 72 56 45 57 32 58
REMARK SMILES IDX 33 59 38 60 34 61 35 62 37 63 39 64 36 65 58 66 59 67 64 68
REMARK SMILES IDX 60 69 61 70 63 71 65 72 62 73 46 74 47 75 52 76 48 77 49 78
REMARK SMILES IDX 51 79 53 80 50 81
REMARK H PARENT 13 8 4 15 20 24 70 43 44 54
REMARK Flexibility Score: inf
ROOT
ATOM      1  C   UNL A   1      31.492  30.730  26.044  1.00  0.00     0.002 C 
ENDROOT
BRANCH   1   2
ATOM      2  C   UNL A   1      32.350  29.633  26.680  1.00  0.00     0.002 C 
BRANCH   2   3
ATOM      3  C   UNL A   1      31.616  28.489  27.380  1.00  0.00     0.021 C 
BRANCH   3   4
ATOM      4  C   UNL A   1      31.718  27.099  26.763  1.00  0.00     0.116 C 
BRANCH   4   5
ATOM      5  N   UNL A   1      30.660  26.739  25.850  1.00  0.00    -0.352 N 
ATOM      6  C   UNL A   1      30.494  26.959  24.509  1.00  0.00     0.255 C 
ATOM      7  O   UNL A   1      29.557  26.330  23.986  1.00  0.00    -0.269 OA
ATOM      8  H   UNL A   1      29.921  26.242  26.269  1.00  0.00     0.163 HD
BRANCH   6   9
ATOM      9  C   UNL A   1      31.301  27.878  23.701  1.00  0.00     0.091 A 
ATOM     10  C   UNL A   1      33.834  26.996  23.658  1.00  0.00     0.069 C 
ATOM     11  C   UNL A   1      32.701  27.906  23.352  1.00  0.00     0.072 A 
ATOM     12  N   UNL A   1      33.002  28.936  22.554  1.00  0.00    -0.180 NA
ATOM     13  N   UNL A   1      31.835  29.512  22.303  1.00  0.00    -0.274 N 
ATOM     14  C   UNL A   1      30.778  28.944  22.950  1.00  0.00     0.133 A 
ATOM     15  H   UNL A   1      31.740  30.285  21.700  1.00  0.00     0.190 HD
BRANCH  14  16
ATOM     16  C   UNL A   1      29.463  29.563  22.629  1.00  0.00     0.365 C 
ATOM     17  F   UNL A   1      29.517  29.998  21.330  1.00  0.00    -0.181 F 
ATOM     18  F   UNL A   1      28.504  28.592  22.613  1.00  0.00    -0.181 F 
ATOM     19  Cl  UNL A   1      28.911  30.920  23.592  1.00  0.00    -0.040 Cl
ENDBRANCH  14  16
ENDBRANCH   6   9
ENDBRANCH   4   5
ENDBRANCH   3   4
ENDBRANCH   2   3
ENDBRANCH   1   2
BRANCH   1  20
ATOM     20  C   UNL A   1      31.368  32.044  26.818  1.00  0.00     0.021 C 
BRANCH  20  21
ATOM     21  C   UNL A   1      32.667  32.806  27.059  1.00  0.00     0.116 C 
BRANCH  21  22
ATOM     22  N   UNL A   1      32.452  34.124  27.632  1.00  0.00    -0.352 N 
ATOM     23  C   UNL A   1      33.129  34.755  28.643  1.00  0.00     0.251 C 
ATOM     24  H   UNL A   1      31.713  34.640  27.235  1.00  0.00     0.163 HD
ATOM     25  O   UNL A   1      32.703  35.820  29.099  1.00  0.00    -0.269 OA
BRANCH  23  26
ATOM     26  C   UNL A   1      34.356  34.159  29.211  1.00  0.00     0.039 A 
ATOM     27  C   UNL A   1      34.252  33.350  30.347  1.00  0.00     0.014 A 
ATOM     28  C   UNL A   1      35.609  34.402  28.639  1.00  0.00     0.014 A 
ATOM     29  C   UNL A   1      35.393  32.742  30.874  1.00  0.00     0.010 A 
ATOM     30  C   UNL A   1      36.734  33.738  29.121  1.00  0.00     0.010 A 
ATOM     31  C   UNL A   1      36.639  32.904  30.245  1.00  0.00    -0.014 A 
BRANCH  31  32
ATOM     32  C   UNL A   1      37.851  32.211  30.752  1.00  0.00     0.031 A 
ATOM     33  C   UNL A   1      38.608  32.768  31.926  1.00  0.00     0.074 A 
ATOM     34  C   UNL A   1      38.305  31.112  30.116  1.00  0.00     0.049 A 
ATOM     35  N   UNL A   1      39.722  32.345  32.468  1.00  0.00    -0.248 NA
ATOM     36  C   UNL A   1      38.053  33.975  32.559  1.00  0.00     0.031 C 
ATOM     37  C   UNL A   1      37.684  30.498  28.940  1.00  0.00     0.029 A 
ATOM     38  N   UNL A   1      39.399  30.323  30.364  1.00  0.00    -0.354 N 
ATOM     39  C   UNL A   1      40.007  33.240  33.493  1.00  0.00     0.074 A 
ATOM     40  C   UNL A   1      38.979  34.257  33.464  1.00  0.00     0.031 C 
ATOM     41  C   UNL A   1      38.397  29.417  28.583  1.00  0.00     0.029 A 
ATOM     42  C   UNL A   1      39.542  29.283  29.477  1.00  0.00     0.049 A 
ATOM     43  H   UNL A   1      40.024  30.485  31.108  1.00  0.00     0.167 HD
ATOM     44  C   UNL A   1      41.020  33.203  34.391  1.00  0.00     0.037 A 
ATOM     45  C   UNL A   1      40.494  28.335  29.388  1.00  0.00     0.037 A 
ATOM     46  C   UNL A   1      42.028  32.175  34.431  1.00  0.00     0.049 A 
ATOM     47  C   UNL A   1      41.614  28.324  30.391  1.00  0.00     0.074 A 
ATOM     48  C   UNL A   1      43.062  32.019  35.338  1.00  0.00     0.029 A 
ATOM     49  N   UNL A   1      42.128  31.131  33.526  1.00  0.00    -0.354 N 
ATOM     50  N   UNL A   1      41.834  29.138  31.395  1.00  0.00    -0.248 NA
ATOM     51  C   UNL A   1      42.617  27.258  30.252  1.00  0.00     0.031 C 
ATOM     52  C   UNL A   1      43.816  30.906  34.952  1.00  0.00     0.029 A 
ATOM     53  C   UNL A   1      43.220  30.338  33.838  1.00  0.00     0.049 A 
ATOM     54  H   UNL A   1      41.514  30.975  32.772  1.00  0.00     0.167 HD
ATOM     55  C   UNL A   1      42.976  28.664  32.026  1.00  0.00     0.074 A 
ATOM     56  C   UNL A   1      43.398  27.484  31.299  1.00  0.00     0.031 C 
ATOM     57  C   UNL A   1      43.620  29.160  33.111  1.00  0.00     0.037 A 
BRANCH  44  58
ATOM     58  C   UNL A   1      41.087  34.306  35.408  1.00  0.00     0.057 A 
ATOM     59  C   UNL A   1      41.765  35.506  35.152  1.00  0.00     0.134 A 
ATOM     60  C   UNL A   1      40.432  34.185  36.640  1.00  0.00     0.134 A 
ATOM     61  F   UNL A   1      42.422  35.683  33.997  1.00  0.00    -0.206 F 
ATOM     62  C   UNL A   1      41.808  36.535  36.095  1.00  0.00     0.040 A 
ATOM     63  C   UNL A   1      40.444  35.218  37.579  1.00  0.00     0.040 A 
ATOM     64  F   UNL A   1      39.760  33.065  36.948  1.00  0.00    -0.206 F 
ATOM     65  C   UNL A   1      41.139  36.396  37.309  1.00  0.00     0.006 A 
ENDBRANCH  44  58
BRANCH  45  66
ATOM     66  C   UNL A   1      40.423  27.305  28.319  1.00  0.00     0.057 A 
ATOM     67  C   UNL A   1      41.088  27.484  27.100  1.00  0.00     0.134 A 
ATOM     68  C   UNL A   1      39.680  26.131  28.481  1.00  0.00     0.134 A 
ATOM     69  F   UNL A   1      41.803  28.597  26.877  1.00  0.00    -0.206 F 
ATOM     70  C   UNL A   1      40.998  26.543  26.073  1.00  0.00     0.040 A 
ATOM     71  C   UNL A   1      39.603  25.169  27.473  1.00  0.00     0.040 A 
ATOM     72  F   UNL A   1      39.026  25.895  29.629  1.00  0.00    -0.206 F 
ATOM     73  C   UNL A   1      40.255  25.379  26.260  1.00  0.00     0.006 A 
ENDBRANCH  45  66
BRANCH  57  74
ATOM     74  C   UNL A   1      44.821  28.406  33.604  1.00  0.00     0.057 A 
ATOM     75  C   UNL A   1      44.711  27.353  34.520  1.00  0.00     0.134 A 
ATOM     76  C   UNL A   1      46.099  28.713  33.121  1.00  0.00     0.134 A 
ATOM     77  F   UNL A   1      43.515  27.017  35.030  1.00  0.00    -0.206 F 
ATOM     78  C   UNL A   1      45.833  26.648  34.958  1.00  0.00     0.040 A 
ATOM     79  C   UNL A   1      47.226  27.997  33.529  1.00  0.00     0.040 A 
ATOM     80  F   UNL A   1      46.273  29.705  32.234  1.00  0.00    -0.206 F 
ATOM     81  C   UNL A   1      47.094  26.965  34.456  1.00  0.00     0.006 A 
ENDBRANCH  57  74
ENDBRANCH  31  32
ENDBRANCH  23  26
ENDBRANCH  21  22
ENDBRANCH  20  21
ENDBRANCH   1  20
TORSDOF 14
ENDMDL
MODEL 2
REMARK VINA RESULT:     -10.7      1.591      6.720
REMARK SMILES Cc1n[nH]c(C(F)(F)Cl)c1C(=O)NCCCCCCNC(=O)c1ccc(-c2c3nc(c(-c4c(F)cccc4F)c4ccc([nH]4)c(-c4c(F)cccc4F)c4nc(c(-c5c(F)cccc5F)c5ccc2[nH]5)C=C4)C=C3)cc1
REMARK SMILES IDX 17 1 16 2 15 3 14 4 13 5 11 6 12 7 10 9 1 10 2 11 3 12 4 13
REMARK SMILES IDX 5 14 6 16 7 17 8 18 9 19 18 20 19 21 20 22 21 23 22 25 23 26
REMARK SMILES IDX 24 27 76 28 25 29 75 30 26 31 27 32 28 33 69 34 29 35 74 36
REMARK SMILES IDX 68 37 70 38 30 39 73 40 67 41 66 42 31 44 57 45 40 46 56 47
REMARK SMILES IDX 41 48 44 49 55 50 71 51 42 52 43 53 54 55 72 56 45 57 32 58
REMARK SMILES IDX 33 59 38 60 34 61 35 62 37 63 39 64 36 65 58 66 59 67 64 68
REMARK SMILES IDX 60 69 61 70 63 71 65 72 62 73 46 74 47 75 52 76 48 77 49 78
REMARK SMILES IDX 51 79 53 80 50 81
REMARK H PARENT 13 8 4 15 20 24 70 43 44 54
REMARK Flexibility Score: inf
ROOT
ATOM      1  C   UNL A   1      31.499  30.419  25.946  1.00  0.00     0.002 C 
ENDROOT
BRANCH   1   2
ATOM      2  C   UNL A   1      32.919  29.862  25.817  1.00  0.00     0.002 C 
BRANCH   2   3
ATOM      3  C   UNL A   1      33.314  29.258  24.469  1.00  0.00     0.021 C 
BRANCH   3   4
ATOM      4  C   UNL A   1      33.559  27.755  24.410  1.00  0.00     0.116 C 
BRANCH   4   5
ATOM      5  N   UNL A   1      33.808  27.211  23.096  1.00  0.00    -0.352 N 
ATOM      6  C   UNL A   1      33.120  26.302  22.338  1.00  0.00     0.255 C 
ATOM      7  O   UNL A   1      33.500  26.209  21.157  1.00  0.00    -0.269 OA
ATOM      8  H   UNL A   1      34.621  27.559  22.665  1.00  0.00     0.163 HD
BRANCH   6   9
ATOM      9  C   UNL A   1      32.034  25.448  22.827  1.00  0.00     0.091 A 
ATOM     10  C   UNL A   1      32.931  22.925  23.006  1.00  0.00     0.069 C 
ATOM     11  C   UNL A   1      31.944  24.033  23.097  1.00  0.00     0.072 A 
ATOM     12  N   UNL A   1      30.743  23.683  23.566  1.00  0.00    -0.180 NA
ATOM     13  N   UNL A   1      30.092  24.830  23.697  1.00  0.00    -0.274 N 
ATOM     14  C   UNL A   1      30.790  25.923  23.275  1.00  0.00     0.133 A 
ATOM     15  H   UNL A   1      29.181  24.888  24.067  1.00  0.00     0.190 HD
BRANCH  14  16
ATOM     16  C   UNL A   1      30.075  27.214  23.467  1.00  0.00     0.365 C 
ATOM     17  F   UNL A   1      28.730  26.951  23.430  1.00  0.00    -0.181 F 
ATOM     18  F   UNL A   1      30.291  27.658  24.740  1.00  0.00    -0.181 F 
ATOM     19  Cl  UNL A   1      30.365  28.517  22.331  1.00  0.00    -0.040 Cl
ENDBRANCH  14  16
ENDBRANCH   6   9
ENDBRANCH   4   5
ENDBRANCH   3   4
ENDBRANCH   2   3
ENDBRANCH   1   2
BRANCH   1  20
ATOM     20  C   UNL A   1      31.365  31.844  26.488  1.00  0.00     0.021 C 
BRANCH  20  21
ATOM     21  C   UNL A   1      32.605  32.427  27.158  1.00  0.00     0.116 C 
BRANCH  21  22
ATOM     22  N   UNL A   1      32.452  33.827  27.512  1.00  0.00    -0.352 N 
ATOM     23  C   UNL A   1      33.140  34.573  28.433  1.00  0.00     0.251 C 
ATOM     24  H   UNL A   1      31.754  34.313  27.016  1.00  0.00     0.163 HD
ATOM     25  O   UNL A   1      32.765  35.717  28.704  1.00  0.00    -0.269 OA
BRANCH  23  26
ATOM     26  C   UNL A   1      34.318  34.010  29.127  1.00  0.00     0.039 A 
ATOM     27  C   UNL A   1      34.120  33.232  30.271  1.00  0.00     0.014 A 
ATOM     28  C   UNL A   1      35.614  34.255  28.663  1.00  0.00     0.014 A 
ATOM     29  C   UNL A   1      35.216  32.654  30.916  1.00  0.00     0.010 A 
ATOM     30  C   UNL A   1      36.698  33.620  29.263  1.00  0.00     0.010 A 
ATOM     31  C   UNL A   1      36.511  32.816  30.398  1.00  0.00    -0.014 A 
BRANCH  31  32
ATOM     32  C   UNL A   1      37.680  32.154  31.031  1.00  0.00     0.031 A 
ATOM     33  C   UNL A   1      38.417  31.061  30.307  1.00  0.00     0.074 A 
ATOM     34  C   UNL A   1      38.040  32.495  32.285  1.00  0.00     0.049 A 
ATOM     35  N   UNL A   1      39.414  30.321  30.721  1.00  0.00    -0.248 NA
ATOM     36  C   UNL A   1      37.956  30.741  28.947  1.00  0.00     0.031 C 
ATOM     37  C   UNL A   1      37.379  33.509  33.109  1.00  0.00     0.029 A 
ATOM     38  N   UNL A   1      39.045  32.018  33.088  1.00  0.00    -0.354 N 
ATOM     39  C   UNL A   1      39.689  29.441  29.681  1.00  0.00     0.074 A 
ATOM     40  C   UNL A   1      38.722  29.704  28.638  1.00  0.00     0.031 C 
ATOM     41  C   UNL A   1      38.009  33.592  34.292  1.00  0.00     0.029 A 
ATOM     42  C   UNL A   1      39.092  32.613  34.326  1.00  0.00     0.049 A 
ATOM     43  H   UNL A   1      39.675  31.317  32.805  1.00  0.00     0.167 HD
ATOM     44  C   UNL A   1      40.674  28.516  29.593  1.00  0.00     0.037 A 
ATOM     45  C   UNL A   1      39.907  32.389  35.373  1.00  0.00     0.037 A 
ATOM     46  C   UNL A   1      41.650  28.273  30.624  1.00  0.00     0.049 A 
ATOM     47  C   UNL A   1      40.985  31.347  35.254  1.00  0.00     0.074 A 
ATOM     48  C   UNL A   1      42.721  27.396  30.607  1.00  0.00     0.029 A 
ATOM     49  N   UNL A   1      41.672  28.907  31.856  1.00  0.00    -0.354 N 
ATOM     50  N   UNL A   1      41.275  30.570  34.239  1.00  0.00    -0.248 NA
ATOM     51  C   UNL A   1      41.854  31.155  36.424  1.00  0.00     0.031 C 
ATOM     52  C   UNL A   1      43.363  27.467  31.847  1.00  0.00     0.029 A 
ATOM     53  C   UNL A   1      42.725  28.426  32.616  1.00  0.00     0.049 A 
ATOM     54  H   UNL A   1      41.034  29.599  32.147  1.00  0.00     0.167 HD
ATOM     55  C   UNL A   1      42.376  29.822  34.635  1.00  0.00     0.074 A 
ATOM     56  C   UNL A   1      42.711  30.248  35.978  1.00  0.00     0.031 C 
ATOM     57  C   UNL A   1      43.052  28.869  33.948  1.00  0.00     0.037 A 
BRANCH  44  58
ATOM     58  C   UNL A   1      40.748  27.695  28.337  1.00  0.00     0.057 A 
ATOM     59  C   UNL A   1      40.068  26.477  28.210  1.00  0.00     0.134 A 
ATOM     60  C   UNL A   1      41.470  28.150  27.226  1.00  0.00     0.134 A 
ATOM     61  F   UNL A   1      39.367  25.978  29.238  1.00  0.00    -0.206 F 
ATOM     62  C   UNL A   1      40.125  25.728  27.033  1.00  0.00     0.040 A 
ATOM     63  C   UNL A   1      41.511  27.424  26.034  1.00  0.00     0.040 A 
ATOM     64  F   UNL A   1      42.139  29.312  27.277  1.00  0.00    -0.206 F 
ATOM     65  C   UNL A   1      40.842  26.206  25.937  1.00  0.00     0.006 A 
ENDBRANCH  44  58
BRANCH  45  66
ATOM     66  C   UNL A   1      39.750  33.177  36.623  1.00  0.00     0.057 A 
ATOM     67  C   UNL A   1      38.855  32.776  37.621  1.00  0.00     0.134 A 
ATOM     68  C   UNL A   1      40.474  34.354  36.842  1.00  0.00     0.134 A 
ATOM     69  F   UNL A   1      38.118  31.666  37.462  1.00  0.00    -0.206 F 
ATOM     70  C   UNL A   1      38.668  33.527  38.782  1.00  0.00     0.040 A 
ATOM     71  C   UNL A   1      40.318  35.102  38.011  1.00  0.00     0.040 A 
ATOM     72  F   UNL A   1      41.355  34.789  35.929  1.00  0.00    -0.206 F 
ATOM     73  C   UNL A   1      39.404  34.693  38.981  1.00  0.00     0.006 A 
ENDBRANCH  45  66
BRANCH  57  74
ATOM     74  C   UNL A   1      44.245  28.252  34.618  1.00  0.00     0.057 A 
ATOM     75  C   UNL A   1      45.522  28.821  34.531  1.00  0.00     0.134 A 
ATOM     76  C   UNL A   1      44.104  27.096  35.396  1.00  0.00     0.134 A 
ATOM     77  F   UNL A   1      45.726  29.923  33.792  1.00  0.00    -0.206 F 
ATOM     78  C   UNL A   1      46.620  28.248  35.174  1.00  0.00     0.040 A 
ATOM     79  C   UNL A   1      45.189  26.529  36.066  1.00  0.00     0.040 A 
ATOM     80  F   UNL A   1      42.906  26.505  35.528  1.00  0.00    -0.206 F 
ATOM     81  C   UNL A   1      46.453  27.103  35.950  1.00  0.00     0.006 A 
ENDBRANCH  57  74
ENDBRANCH  31  32
ENDBRANCH  23  26
ENDBRANCH  21  22
ENDBRANCH  20  21
ENDBRANCH   1  20
TORSDOF 14
ENDMDL
MODEL 3
REMARK VINA RESULT:     -10.7      4.415      9.241
REMARK SMILES Cc1n[nH]c(C(F)(F)Cl)c1C(=O)NCCCCCCNC(=O)c1ccc(-c2c3nc(c(-c4c(F)cccc4F)c4ccc([nH]4)c(-c4c(F)cccc4F)c4nc(c(-c5c(F)cccc5F)c5ccc2[nH]5)C=C4)C=C3)cc1
REMARK SMILES IDX 17 1 16 2 15 3 14 4 13 5 11 6 12 7 10 9 1 10 2 11 3 12 4 13
REMARK SMILES IDX 5 14 6 16 7 17 8 18 9 19 18 20 19 21 20 22 21 23 22 25 23 26
REMARK SMILES IDX 24 27 76 28 25 29 75 30 26 31 27 32 28 33 69 34 29 35 74 36
REMARK SMILES IDX 68 37 70 38 30 39 73 40 67 41 66 42 31 44 57 45 40 46 56 47
REMARK SMILES IDX 41 48 44 49 55 50 71 51 42 52 43 53 54 55 72 56 45 57 32 58
REMARK SMILES IDX 33 59 38 60 34 61 35 62 37 63 39 64 36 65 58 66 59 67 64 68
REMARK SMILES IDX 60 69 61 70 63 71 65 72 62 73 46 74 47 75 52 76 48 77 49 78
REMARK SMILES IDX 51 79 53 80 50 81
REMARK H PARENT 13 8 4 15 20 24 70 43 44 54
REMARK Flexibility Score: inf
ROOT
ATOM      1  C   UNL A   1      36.559  20.381  24.904  1.00  0.00     0.002 C 
ENDROOT
BRANCH   1   2
ATOM      2  C   UNL A   1      36.732  21.769  24.284  1.00  0.00     0.002 C 
BRANCH   2   3
ATOM      3  C   UNL A   1      36.087  22.947  25.014  1.00  0.00     0.021 C 
BRANCH   3   4
ATOM      4  C   UNL A   1      34.944  23.675  24.314  1.00  0.00     0.116 C 
BRANCH   4   5
ATOM      5  N   UNL A   1      34.628  24.986  24.828  1.00  0.00    -0.352 N 
ATOM      6  C   UNL A   1      33.705  25.411  25.747  1.00  0.00     0.255 C 
ATOM      7  O   UNL A   1      33.837  26.591  26.115  1.00  0.00    -0.269 OA
ATOM      8  H   UNL A   1      35.177  25.709  24.448  1.00  0.00     0.163 HD
BRANCH   6   9
ATOM      9  C   UNL A   1      32.604  24.598  26.270  1.00  0.00     0.091 A 
ATOM     10  C   UNL A   1      33.627  22.490  27.577  1.00  0.00     0.069 C 
ATOM     11  C   UNL A   1      32.564  23.369  27.026  1.00  0.00     0.072 A 
ATOM     12  N   UNL A   1      31.314  22.995  27.316  1.00  0.00    -0.180 NA
ATOM     13  N   UNL A   1      30.558  23.984  26.860  1.00  0.00    -0.274 N 
ATOM     14  C   UNL A   1      31.250  24.971  26.223  1.00  0.00     0.133 A 
ATOM     15  H   UNL A   1      29.580  24.003  26.972  1.00  0.00     0.190 HD
BRANCH  14  16
ATOM     16  C   UNL A   1      30.404  26.102  25.754  1.00  0.00     0.365 C 
ATOM     17  F   UNL A   1      29.093  25.723  25.892  1.00  0.00    -0.181 F 
ATOM     18  F   UNL A   1      30.539  27.149  26.620  1.00  0.00    -0.181 F 
ATOM     19  Cl  UNL A   1      30.593  26.671  24.107  1.00  0.00    -0.040 Cl
ENDBRANCH  14  16
ENDBRANCH   6   9
ENDBRANCH   4   5
ENDBRANCH   3   4
ENDBRANCH   2   3
ENDBRANCH   1   2
BRANCH   1  20
ATOM     20  C   UNL A   1      37.810  19.502  24.986  1.00  0.00     0.021 C 
BRANCH  20  21
ATOM     21  C   UNL A   1      39.032  20.133  25.645  1.00  0.00     0.116 C 
BRANCH  21  22
ATOM     22  N   UNL A   1      40.154  19.217  25.752  1.00  0.00    -0.352 N 
ATOM     23  C   UNL A   1      41.449  19.466  26.124  1.00  0.00     0.251 C 
ATOM     24  H   UNL A   1      39.955  18.280  25.525  1.00  0.00     0.163 HD
ATOM     25  O   UNL A   1      42.304  18.584  26.009  1.00  0.00    -0.269 OA
BRANCH  23  26
ATOM     26  C   UNL A   1      41.839  20.794  26.644  1.00  0.00     0.039 A 
ATOM     27  C   UNL A   1      42.392  21.728  25.764  1.00  0.00     0.014 A 
ATOM     28  C   UNL A   1      41.673  21.117  27.994  1.00  0.00     0.014 A 
ATOM     29  C   UNL A   1      42.726  23.003  26.225  1.00  0.00     0.010 A 
ATOM     30  C   UNL A   1      41.939  22.411  28.437  1.00  0.00     0.010 A 
ATOM     31  C   UNL A   1      42.472  23.366  27.558  1.00  0.00    -0.014 A 
BRANCH  31  32
ATOM     32  C   UNL A   1      42.758  24.739  28.048  1.00  0.00     0.031 A 
ATOM     33  C   UNL A   1      44.159  25.130  28.431  1.00  0.00     0.074 A 
ATOM     34  C   UNL A   1      41.746  25.615  28.207  1.00  0.00     0.049 A 
ATOM     35  N   UNL A   1      44.594  26.254  28.942  1.00  0.00    -0.248 NA
ATOM     36  C   UNL A   1      45.206  24.114  28.237  1.00  0.00     0.031 C 
ATOM     37  C   UNL A   1      40.337  25.342  27.913  1.00  0.00     0.029 A 
ATOM     38  N   UNL A   1      41.745  26.908  28.665  1.00  0.00    -0.354 N 
ATOM     39  C   UNL A   1      45.957  26.076  29.143  1.00  0.00     0.074 A 
ATOM     40  C   UNL A   1      46.268  24.720  28.748  1.00  0.00     0.031 C 
ATOM     41  C   UNL A   1      39.613  26.442  28.178  1.00  0.00     0.029 A 
ATOM     42  C   UNL A   1      40.496  27.481  28.696  1.00  0.00     0.049 A 
ATOM     43  H   UNL A   1      42.561  27.381  28.945  1.00  0.00     0.167 HD
ATOM     44  C   UNL A   1      46.871  26.969  29.592  1.00  0.00     0.037 A 
ATOM     45  C   UNL A   1      40.106  28.703  29.106  1.00  0.00     0.037 A 
ATOM     46  C   UNL A   1      46.561  28.326  29.962  1.00  0.00     0.049 A 
ATOM     47  C   UNL A   1      41.139  29.672  29.612  1.00  0.00     0.074 A 
ATOM     48  C   UNL A   1      47.425  29.325  30.375  1.00  0.00     0.029 A 
ATOM     49  N   UNL A   1      45.287  28.873  29.964  1.00  0.00    -0.354 N 
ATOM     50  N   UNL A   1      42.434  29.511  29.733  1.00  0.00    -0.248 NA
ATOM     51  C   UNL A   1      40.656  30.995  30.032  1.00  0.00     0.031 C 
ATOM     52  C   UNL A   1      46.668  30.462  30.672  1.00  0.00     0.029 A 
ATOM     53  C   UNL A   1      45.339  30.189  30.393  1.00  0.00     0.049 A 
ATOM     54  H   UNL A   1      44.467  28.397  29.699  1.00  0.00     0.167 HD
ATOM     55  C   UNL A   1      42.924  30.720  30.210  1.00  0.00     0.074 A 
ATOM     56  C   UNL A   1      41.789  31.609  30.345  1.00  0.00     0.031 C 
ATOM     57  C   UNL A   1      44.201  31.064  30.510  1.00  0.00     0.037 A 
BRANCH  44  58
ATOM     58  C   UNL A   1      48.296  26.509  29.707  1.00  0.00     0.057 A 
ATOM     59  C   UNL A   1      48.768  25.849  30.849  1.00  0.00     0.134 A 
ATOM     60  C   UNL A   1      49.194  26.688  28.647  1.00  0.00     0.134 A 
ATOM     61  F   UNL A   1      47.964  25.654  31.904  1.00  0.00    -0.206 F 
ATOM     62  C   UNL A   1      50.089  25.406  30.942  1.00  0.00     0.040 A 
ATOM     63  C   UNL A   1      50.509  26.225  28.717  1.00  0.00     0.040 A 
ATOM     64  F   UNL A   1      48.805  27.306  27.522  1.00  0.00    -0.206 F 
ATOM     65  C   UNL A   1      50.962  25.587  29.870  1.00  0.00     0.006 A 
ENDBRANCH  44  58
BRANCH  45  66
ATOM     66  C   UNL A   1      38.673  29.089  29.040  1.00  0.00     0.057 A 
ATOM     67  C   UNL A   1      38.113  29.586  27.857  1.00  0.00     0.134 A 
ATOM     68  C   UNL A   1      37.835  28.989  30.157  1.00  0.00     0.134 A 
ATOM     69  F   UNL A   1      38.869  29.723  26.757  1.00  0.00    -0.206 F 
ATOM     70  C   UNL A   1      36.779  29.990  27.792  1.00  0.00     0.040 A 
ATOM     71  C   UNL A   1      36.492  29.364  30.099  1.00  0.00     0.040 A 
ATOM     72  F   UNL A   1      38.308  28.513  31.318  1.00  0.00    -0.206 F 
ATOM     73  C   UNL A   1      35.963  29.876  28.916  1.00  0.00     0.006 A 
ENDBRANCH  45  66
BRANCH  57  74
ATOM     74  C   UNL A   1      44.444  32.472  30.971  1.00  0.00     0.057 A 
ATOM     75  C   UNL A   1      44.454  32.817  32.329  1.00  0.00     0.134 A 
ATOM     76  C   UNL A   1      44.713  33.487  30.044  1.00  0.00     0.134 A 
ATOM     77  F   UNL A   1      44.192  31.893  33.267  1.00  0.00    -0.206 F 
ATOM     78  C   UNL A   1      44.698  34.126  32.746  1.00  0.00     0.040 A 
ATOM     79  C   UNL A   1      44.987  34.793  30.450  1.00  0.00     0.040 A 
ATOM     80  F   UNL A   1      44.728  33.222  28.729  1.00  0.00    -0.206 F 
ATOM     81  C   UNL A   1      44.973  35.116  31.806  1.00  0.00     0.006 A 
ENDBRANCH  57  74
ENDBRANCH  31  32
ENDBRANCH  23  26
ENDBRANCH  21  22
ENDBRANCH  20  21
ENDBRANCH   1  20
TORSDOF 14
ENDMDL
