MODEL 1
REMARK VINA RESULT:     -11.2      0.000      0.000
REMARK SMILES CN(C)c1c(Cl)cccc1NS(=O)(=O)c1ccc(F)c(C(=O)NCCCCCCNC(=O)c2ccc(-c3c4nc(c(-c5c(F)cccc5F)c5ccc([nH]5)c(-c5c(F)cccc5F)c5nc(c(-c6c(F)cccc6F)c6ccc3[nH]6)C=C5)C=C4)cc2)c1
REMARK SMILES IDX 25 1 24 2 23 3 21 4 22 5 20 7 15 8 16 9 87 10 17 11 18 12
REMARK SMILES IDX 19 13 12 14 13 15 14 16 11 17 10 19 4 20 5 21 6 22 7 23 9 24
REMARK SMILES IDX 8 25 2 26 1 27 3 28 26 29 27 30 28 31 29 32 30 33 31 34
REMARK SMILES IDX 32 36 33 37 34 38 86 39 35 40 85 41 36 42 37 43 38 44 79 45
REMARK SMILES IDX 39 46 84 47 78 48 80 49 40 50 83 51 77 52 76 53 41 55 67 56
REMARK SMILES IDX 50 57 66 58 51 59 54 60 65 61 81 62 52 63 53 64 64 66 82 67
REMARK SMILES IDX 55 68 42 69 43 70 48 71 44 72 45 73 47 74 49 75 46 76 68 77
REMARK SMILES IDX 69 78 74 79 70 80 71 81 73 82 75 83 72 84 56 85 57 86 62 87
REMARK SMILES IDX 58 88 59 89 61 90 63 91 60 92
REMARK H PARENT 23 6 11 18 30 35 80 54 54 65
REMARK Flexibility Score: inf
ROOT
ATOM      1  C   UNL A   1      36.777  21.487  24.585  1.00  0.00     0.021 C 
ENDROOT
BRANCH   1   2
ATOM      2  C   UNL A   1      35.708  20.712  25.363  1.00  0.00     0.116 C 
BRANCH   2   3
ATOM      3  N   UNL A   1      34.460  20.744  24.630  1.00  0.00    -0.352 N 
ATOM      4  C   UNL A   1      33.596  21.737  24.268  1.00  0.00     0.254 C 
ATOM      5  O   UNL A   1      32.545  21.366  23.736  1.00  0.00    -0.269 OA
ATOM      6  H   UNL A   1      34.169  19.853  24.327  1.00  0.00     0.163 HD
BRANCH   4   7
ATOM      7  C   UNL A   1      33.838  23.201  24.395  1.00  0.00     0.076 A 
ATOM      8  C   UNL A   1      33.867  25.324  23.183  1.00  0.00     0.088 A 
ATOM      9  C   UNL A   1      34.238  26.011  24.339  1.00  0.00     0.025 A 
ATOM     10  C   UNL A   1      33.731  23.930  23.195  1.00  0.00     0.039 A 
ATOM     11  C   UNL A   1      34.312  25.303  25.537  1.00  0.00     0.041 A 
ATOM     12  C   UNL A   1      34.053  23.925  25.567  1.00  0.00     0.136 A 
ATOM     13  F   UNL A   1      33.908  23.381  26.780  1.00  0.00    -0.206 F 
BRANCH   8  14
ATOM     14  S   UNL A   1      33.203  26.213  21.786  1.00  0.00     0.261 S 
ATOM     15  O   UNL A   1      33.070  25.276  20.686  1.00  0.00    -0.201 OA
ATOM     16  O   UNL A   1      33.979  27.423  21.661  1.00  0.00    -0.201 OA
BRANCH  14  17
ATOM     17  N   UNL A   1      31.674  26.657  22.259  1.00  0.00    -0.277 N 
ATOM     18  H   UNL A   1      31.142  27.159  21.600  1.00  0.00     0.180 HD
BRANCH  17  19
ATOM     19  C   UNL A   1      31.038  26.391  23.519  1.00  0.00     0.074 A 
ATOM     20  C   UNL A   1      31.238  27.378  24.528  1.00  0.00     0.080 A 
ATOM     21  C   UNL A   1      31.012  26.984  25.866  1.00  0.00     0.066 A 
ATOM     22  Cl  UNL A   1      31.219  28.028  27.231  1.00  0.00    -0.082 Cl
ATOM     23  C   UNL A   1      30.556  25.692  26.171  1.00  0.00     0.023 A 
ATOM     24  C   UNL A   1      30.483  25.147  23.834  1.00  0.00     0.029 A 
ATOM     25  C   UNL A   1      30.257  24.791  25.158  1.00  0.00     0.004 A 
BRANCH  20  26
ATOM     26  N   UNL A   1      31.567  28.682  24.095  1.00  0.00    -0.375 N 
ATOM     27  C   UNL A   1      32.826  29.321  24.447  1.00  0.00     0.143 C 
ATOM     28  C   UNL A   1      30.395  29.562  23.983  1.00  0.00     0.143 C 
ENDBRANCH  20  26
ENDBRANCH  17  19
ENDBRANCH  14  17
ENDBRANCH   8  14
ENDBRANCH   4   7
ENDBRANCH   2   3
ENDBRANCH   1   2
BRANCH   1  29
ATOM     29  C   UNL A   1      37.496  22.538  25.445  1.00  0.00     0.002 C 
BRANCH  29  30
ATOM     30  C   UNL A   1      38.818  22.068  26.067  1.00  0.00     0.002 C 
BRANCH  30  31
ATOM     31  C   UNL A   1      39.351  20.735  25.533  1.00  0.00     0.021 C 
BRANCH  31  32
ATOM     32  C   UNL A   1      40.046  19.868  26.580  1.00  0.00     0.116 C 
BRANCH  32  33
ATOM     33  N   UNL A   1      41.256  19.256  26.056  1.00  0.00    -0.352 N 
ATOM     34  C   UNL A   1      42.459  19.848  25.766  1.00  0.00     0.251 C 
ATOM     35  H   UNL A   1      41.205  18.287  25.887  1.00  0.00     0.163 HD
ATOM     36  O   UNL A   1      43.325  19.237  25.149  1.00  0.00    -0.269 OA
BRANCH  34  37
ATOM     37  C   UNL A   1      42.705  21.242  26.193  1.00  0.00     0.039 A 
ATOM     38  C   UNL A   1      42.848  22.234  25.219  1.00  0.00     0.014 A 
ATOM     39  C   UNL A   1      42.808  21.559  27.550  1.00  0.00     0.014 A 
ATOM     40  C   UNL A   1      43.048  23.560  25.608  1.00  0.00     0.010 A 
ATOM     41  C   UNL A   1      42.967  22.887  27.937  1.00  0.00     0.010 A 
ATOM     42  C   UNL A   1      43.089  23.897  26.970  1.00  0.00    -0.014 A 
BRANCH  42  43
ATOM     43  C   UNL A   1      43.283  25.297  27.416  1.00  0.00     0.031 A 
ATOM     44  C   UNL A   1      44.673  25.842  27.575  1.00  0.00     0.074 A 
ATOM     45  C   UNL A   1      42.219  26.051  27.746  1.00  0.00     0.049 A 
ATOM     46  N   UNL A   1      45.062  26.976  28.097  1.00  0.00    -0.248 NA
ATOM     47  C   UNL A   1      45.772  24.985  27.102  1.00  0.00     0.031 C 
ATOM     48  C   UNL A   1      40.820  25.634  27.644  1.00  0.00     0.029 A 
ATOM     49  N   UNL A   1      42.153  27.325  28.252  1.00  0.00    -0.354 N 
ATOM     50  C   UNL A   1      46.449  26.959  28.042  1.00  0.00     0.074 A 
ATOM     51  C   UNL A   1      46.835  25.695  27.454  1.00  0.00     0.031 C 
ATOM     52  C   UNL A   1      40.032  26.640  28.060  1.00  0.00     0.029 A 
ATOM     53  C   UNL A   1      40.870  27.754  28.493  1.00  0.00     0.049 A 
ATOM     54  H   UNL A   1      42.948  27.880  28.423  1.00  0.00     0.167 HD
ATOM     55  C   UNL A   1      47.319  27.916  28.437  1.00  0.00     0.037 A 
ATOM     56  C   UNL A   1      40.424  28.909  29.019  1.00  0.00     0.037 A 
ATOM     57  C   UNL A   1      46.935  29.188  28.989  1.00  0.00     0.049 A 
ATOM     58  C   UNL A   1      41.408  29.958  29.449  1.00  0.00     0.074 A 
ATOM     59  C   UNL A   1      47.745  30.233  29.393  1.00  0.00     0.029 A 
ATOM     60  N   UNL A   1      45.625  29.589  29.200  1.00  0.00    -0.354 N 
ATOM     61  N   UNL A   1      42.718  29.928  29.397  1.00  0.00    -0.248 NA
ATOM     62  C   UNL A   1      40.857  31.197  30.016  1.00  0.00     0.031 C 
ATOM     63  C   UNL A   1      46.926  31.264  29.866  1.00  0.00     0.029 A 
ATOM     64  C   UNL A   1      45.605  30.866  29.732  1.00  0.00     0.049 A 
ATOM     65  H   UNL A   1      44.827  29.046  29.001  1.00  0.00     0.167 HD
ATOM     66  C   UNL A   1      43.147  31.145  29.906  1.00  0.00     0.074 A 
ATOM     67  C   UNL A   1      41.959  31.896  30.259  1.00  0.00     0.031 C 
ATOM     68  C   UNL A   1      44.412  31.600  30.065  1.00  0.00     0.037 A 
BRANCH  55  69
ATOM     69  C   UNL A   1      48.780  27.622  28.287  1.00  0.00     0.057 A 
ATOM     70  C   UNL A   1      49.457  27.944  27.106  1.00  0.00     0.134 A 
ATOM     71  C   UNL A   1      49.508  26.988  29.302  1.00  0.00     0.134 A 
ATOM     72  F   UNL A   1      48.814  28.551  26.095  1.00  0.00    -0.206 F 
ATOM     73  C   UNL A   1      50.809  27.644  26.937  1.00  0.00     0.040 A 
ATOM     74  C   UNL A   1      50.865  26.699  29.151  1.00  0.00     0.040 A 
ATOM     75  F   UNL A   1      48.917  26.667  30.462  1.00  0.00    -0.206 F 
ATOM     76  C   UNL A   1      51.517  27.022  27.963  1.00  0.00     0.006 A 
ENDBRANCH  55  69
BRANCH  56  77
ATOM     77  C   UNL A   1      38.966  29.139  29.148  1.00  0.00     0.057 A 
ATOM     78  C   UNL A   1      38.188  29.548  28.059  1.00  0.00     0.134 A 
ATOM     79  C   UNL A   1      38.324  28.976  30.381  1.00  0.00     0.134 A 
ATOM     80  F   UNL A   1      38.749  29.726  26.855  1.00  0.00    -0.206 F 
ATOM     81  C   UNL A   1      36.822  29.800  28.195  1.00  0.00     0.040 A 
ATOM     82  C   UNL A   1      36.957  29.211  30.528  1.00  0.00     0.040 A 
ATOM     83  F   UNL A   1      39.018  28.569  31.453  1.00  0.00    -0.206 F 
ATOM     84  C   UNL A   1      36.203  29.630  29.432  1.00  0.00     0.006 A 
ENDBRANCH  56  77
BRANCH  68  85
ATOM     85  C   UNL A   1      44.586  32.980  30.618  1.00  0.00     0.057 A 
ATOM     86  C   UNL A   1      44.655  34.086  29.762  1.00  0.00     0.134 A 
ATOM     87  C   UNL A   1      44.763  33.201  31.988  1.00  0.00     0.134 A 
ATOM     88  F   UNL A   1      44.499  33.934  28.439  1.00  0.00    -0.206 F 
ATOM     89  C   UNL A   1      44.909  35.368  30.251  1.00  0.00     0.040 A 
ATOM     90  C   UNL A   1      45.004  34.482  32.490  1.00  0.00     0.040 A 
ATOM     91  F   UNL A   1      44.697  32.181  32.856  1.00  0.00    -0.206 F 
ATOM     92  C   UNL A   1      45.086  35.567  31.620  1.00  0.00     0.006 A 
ENDBRANCH  68  85
ENDBRANCH  42  43
ENDBRANCH  34  37
ENDBRANCH  32  33
ENDBRANCH  31  32
ENDBRANCH  30  31
ENDBRANCH  29  30
ENDBRANCH   1  29
TORSDOF 17
ENDMDL
MODEL 2
REMARK VINA RESULT:     -11.2      5.409     10.411
REMARK SMILES CN(C)c1c(Cl)cccc1NS(=O)(=O)c1ccc(F)c(C(=O)NCCCCCCNC(=O)c2ccc(-c3c4nc(c(-c5c(F)cccc5F)c5ccc([nH]5)c(-c5c(F)cccc5F)c5nc(c(-c6c(F)cccc6F)c6ccc3[nH]6)C=C5)C=C4)cc2)c1
REMARK SMILES IDX 25 1 24 2 23 3 21 4 22 5 20 7 15 8 16 9 87 10 17 11 18 12
REMARK SMILES IDX 19 13 12 14 13 15 14 16 11 17 10 19 4 20 5 21 6 22 7 23 9 24
REMARK SMILES IDX 8 25 2 26 1 27 3 28 26 29 27 30 28 31 29 32 30 33 31 34
REMARK SMILES IDX 32 36 33 37 34 38 86 39 35 40 85 41 36 42 37 43 38 44 79 45
REMARK SMILES IDX 39 46 84 47 78 48 80 49 40 50 83 51 77 52 76 53 41 55 67 56
REMARK SMILES IDX 50 57 66 58 51 59 54 60 65 61 81 62 52 63 53 64 64 66 82 67
REMARK SMILES IDX 55 68 42 69 43 70 48 71 44 72 45 73 47 74 49 75 46 76 68 77
REMARK SMILES IDX 69 78 74 79 70 80 71 81 73 82 75 83 72 84 56 85 57 86 62 87
REMARK SMILES IDX 58 88 59 89 61 90 63 91 60 92
REMARK H PARENT 23 6 11 18 30 35 80 54 54 65
REMARK Flexibility Score: inf
ROOT
ATOM      1  C   UNL A   1      34.751  31.222  28.239  1.00  0.00     0.021 C 
ENDROOT
BRANCH   1   2
ATOM      2  C   UNL A   1      33.634  30.858  27.255  1.00  0.00     0.116 C 
BRANCH   2   3
ATOM      3  N   UNL A   1      33.071  29.575  27.618  1.00  0.00    -0.352 N 
ATOM      4  C   UNL A   1      32.396  28.605  26.934  1.00  0.00     0.254 C 
ATOM      5  O   UNL A   1      31.955  27.676  27.615  1.00  0.00    -0.269 OA
ATOM      6  H   UNL A   1      33.203  29.352  28.568  1.00  0.00     0.163 HD
BRANCH   4   7
ATOM      7  C   UNL A   1      32.210  28.541  25.457  1.00  0.00     0.076 A 
ATOM      8  C   UNL A   1      32.597  27.183  23.461  1.00  0.00     0.088 A 
ATOM      9  C   UNL A   1      31.998  28.149  22.653  1.00  0.00     0.025 A 
ATOM     10  C   UNL A   1      32.759  27.403  24.835  1.00  0.00     0.039 A 
ATOM     11  C   UNL A   1      31.421  29.261  23.264  1.00  0.00     0.041 A 
ATOM     12  C   UNL A   1      31.478  29.417  24.657  1.00  0.00     0.136 A 
ATOM     13  F   UNL A   1      30.698  30.374  25.173  1.00  0.00    -0.206 F 
BRANCH   8  14
ATOM     14  S   UNL A   1      32.827  25.522  22.852  1.00  0.00     0.261 S 
ATOM     15  O   UNL A   1      33.762  25.581  21.744  1.00  0.00    -0.201 OA
ATOM     16  O   UNL A   1      31.510  24.952  22.703  1.00  0.00    -0.201 OA
BRANCH  14  17
ATOM     17  N   UNL A   1      33.572  24.716  24.099  1.00  0.00    -0.277 N 
ATOM     18  H   UNL A   1      33.361  25.030  25.008  1.00  0.00     0.180 HD
BRANCH  17  19
ATOM     19  C   UNL A   1      34.487  23.613  24.003  1.00  0.00     0.074 A 
ATOM     20  C   UNL A   1      33.932  22.330  24.281  1.00  0.00     0.080 A 
ATOM     21  C   UNL A   1      34.838  21.298  24.616  1.00  0.00     0.066 A 
ATOM     22  Cl  UNL A   1      34.362  19.680  25.005  1.00  0.00    -0.082 Cl
ATOM     23  C   UNL A   1      36.223  21.525  24.615  1.00  0.00     0.023 A 
ATOM     24  C   UNL A   1      35.869  23.790  23.903  1.00  0.00     0.029 A 
ATOM     25  C   UNL A   1      36.738  22.753  24.224  1.00  0.00     0.004 A 
BRANCH  20  26
ATOM     26  N   UNL A   1      32.536  22.184  24.120  1.00  0.00    -0.375 N 
ATOM     27  C   UNL A   1      31.644  21.973  25.250  1.00  0.00     0.143 C 
ATOM     28  C   UNL A   1      32.170  21.517  22.863  1.00  0.00     0.143 C 
ENDBRANCH  20  26
ENDBRANCH  17  19
ENDBRANCH  14  17
ENDBRANCH   8  14
ENDBRANCH   4   7
ENDBRANCH   2   3
ENDBRANCH   1   2
BRANCH   1  29
ATOM     29  C   UNL A   1      34.398  32.429  29.123  1.00  0.00     0.002 C 
BRANCH  29  30
ATOM     30  C   UNL A   1      34.197  33.747  28.364  1.00  0.00     0.002 C 
BRANCH  30  31
ATOM     31  C   UNL A   1      33.014  34.597  28.837  1.00  0.00     0.021 C 
BRANCH  31  32
ATOM     32  C   UNL A   1      33.401  35.966  29.390  1.00  0.00     0.116 C 
BRANCH  32  33
ATOM     33  N   UNL A   1      32.567  36.347  30.518  1.00  0.00    -0.352 N 
ATOM     34  C   UNL A   1      32.641  35.920  31.820  1.00  0.00     0.251 C 
ATOM     35  H   UNL A   1      31.855  36.997  30.322  1.00  0.00     0.163 HD
ATOM     36  O   UNL A   1      31.747  36.184  32.617  1.00  0.00    -0.269 OA
BRANCH  34  37
ATOM     37  C   UNL A   1      33.806  35.123  32.259  1.00  0.00     0.039 A 
ATOM     38  C   UNL A   1      33.600  33.824  32.730  1.00  0.00     0.014 A 
ATOM     39  C   UNL A   1      35.092  35.668  32.219  1.00  0.00     0.014 A 
ATOM     40  C   UNL A   1      34.694  33.047  33.117  1.00  0.00     0.010 A 
ATOM     41  C   UNL A   1      36.185  34.879  32.567  1.00  0.00     0.010 A 
ATOM     42  C   UNL A   1      35.995  33.564  33.019  1.00  0.00    -0.014 A 
BRANCH  42  43
ATOM     43  C   UNL A   1      37.179  32.761  33.406  1.00  0.00     0.031 A 
ATOM     44  C   UNL A   1      37.870  33.034  34.711  1.00  0.00     0.074 A 
ATOM     45  C   UNL A   1      37.674  31.841  32.558  1.00  0.00     0.049 A 
ATOM     46  N   UNL A   1      39.001  32.558  35.163  1.00  0.00    -0.248 NA
ATOM     47  C   UNL A   1      37.208  33.987  35.618  1.00  0.00     0.031 C 
ATOM     48  C   UNL A   1      37.100  31.490  31.259  1.00  0.00     0.029 A 
ATOM     49  N   UNL A   1      38.787  31.045  32.659  1.00  0.00    -0.354 N 
ATOM     50  C   UNL A   1      39.202  33.172  36.392  1.00  0.00     0.074 A 
ATOM     51  C   UNL A   1      38.087  34.069  36.607  1.00  0.00     0.031 C 
ATOM     52  C   UNL A   1      37.856  30.538  30.689  1.00  0.00     0.029 A 
ATOM     53  C   UNL A   1      38.988  30.241  31.563  1.00  0.00     0.049 A 
ATOM     54  H   UNL A   1      39.384  31.048  33.441  1.00  0.00     0.167 HD
ATOM     55  C   UNL A   1      40.219  32.995  37.266  1.00  0.00     0.037 A 
ATOM     56  C   UNL A   1      39.980  29.374  31.290  1.00  0.00     0.037 A 
ATOM     57  C   UNL A   1      41.310  32.077  37.069  1.00  0.00     0.049 A 
ATOM     58  C   UNL A   1      41.098  29.192  32.276  1.00  0.00     0.074 A 
ATOM     59  C   UNL A   1      42.374  31.809  37.911  1.00  0.00     0.029 A 
ATOM     60  N   UNL A   1      41.465  31.269  35.954  1.00  0.00    -0.354 N 
ATOM     61  N   UNL A   1      41.280  29.783  33.431  1.00  0.00    -0.248 NA
ATOM     62  C   UNL A   1      42.152  28.232  31.918  1.00  0.00     0.031 C 
ATOM     63  C   UNL A   1      43.184  30.847  37.298  1.00  0.00     0.029 A 
ATOM     64  C   UNL A   1      42.610  30.502  36.085  1.00  0.00     0.049 A 
ATOM     65  H   UNL A   1      40.853  31.243  35.183  1.00  0.00     0.167 HD
ATOM     66  C   UNL A   1      42.455  29.255  33.947  1.00  0.00     0.074 A 
ATOM     67  C   UNL A   1      42.944  28.293  32.981  1.00  0.00     0.031 C 
ATOM     68  C   UNL A   1      43.072  29.542  35.118  1.00  0.00     0.037 A 
BRANCH  55  69
ATOM     69  C   UNL A   1      40.202  33.815  38.518  1.00  0.00     0.057 A 
ATOM     70  C   UNL A   1      39.434  33.421  39.620  1.00  0.00     0.134 A 
ATOM     71  C   UNL A   1      40.919  35.014  38.620  1.00  0.00     0.134 A 
ATOM     72  F   UNL A   1      38.722  32.284  39.584  1.00  0.00    -0.206 F 
ATOM     73  C   UNL A   1      39.378  34.193  40.781  1.00  0.00     0.040 A 
ATOM     74  C   UNL A   1      40.885  35.784  39.783  1.00  0.00     0.040 A 
ATOM     75  F   UNL A   1      41.684  35.435  37.602  1.00  0.00    -0.206 F 
ATOM     76  C   UNL A   1      40.108  35.377  40.865  1.00  0.00     0.006 A 
ENDBRANCH  55  69
BRANCH  56  77
ATOM     77  C   UNL A   1      39.945  28.596  30.030  1.00  0.00     0.057 A 
ATOM     78  C   UNL A   1      39.265  27.377  29.939  1.00  0.00     0.134 A 
ATOM     79  C   UNL A   1      40.620  29.051  28.891  1.00  0.00     0.134 A 
ATOM     80  F   UNL A   1      38.605  26.889  30.999  1.00  0.00    -0.206 F 
ATOM     81  C   UNL A   1      39.267  26.629  28.760  1.00  0.00     0.040 A 
ATOM     82  C   UNL A   1      40.619  28.321  27.703  1.00  0.00     0.040 A 
ATOM     83  F   UNL A   1      41.274  30.221  28.918  1.00  0.00    -0.206 F 
ATOM     84  C   UNL A   1      39.945  27.102  27.638  1.00  0.00     0.006 A 
ENDBRANCH  56  77
BRANCH  68  85
ATOM     85  C   UNL A   1      44.327  28.792  35.439  1.00  0.00     0.057 A 
ATOM     86  C   UNL A   1      45.570  29.262  34.997  1.00  0.00     0.134 A 
ATOM     87  C   UNL A   1      44.294  27.568  36.115  1.00  0.00     0.134 A 
ATOM     88  F   UNL A   1      45.662  30.427  34.339  1.00  0.00    -0.206 F 
ATOM     89  C   UNL A   1      46.739  28.532  35.206  1.00  0.00     0.040 A 
ATOM     90  C   UNL A   1      45.460  26.834  36.342  1.00  0.00     0.040 A 
ATOM     91  F   UNL A   1      43.134  27.072  36.570  1.00  0.00    -0.206 F 
ATOM     92  C   UNL A   1      46.685  27.312  35.880  1.00  0.00     0.006 A 
ENDBRANCH  68  85
ENDBRANCH  42  43
ENDBRANCH  34  37
ENDBRANCH  32  33
ENDBRANCH  31  32
ENDBRANCH  30  31
ENDBRANCH  29  30
ENDBRANCH   1  29
TORSDOF 17
ENDMDL
MODEL 3
REMARK VINA RESULT:     -11.1      0.528      6.113
REMARK SMILES CN(C)c1c(Cl)cccc1NS(=O)(=O)c1ccc(F)c(C(=O)NCCCCCCNC(=O)c2ccc(-c3c4nc(c(-c5c(F)cccc5F)c5ccc([nH]5)c(-c5c(F)cccc5F)c5nc(c(-c6c(F)cccc6F)c6ccc3[nH]6)C=C5)C=C4)cc2)c1
REMARK SMILES IDX 25 1 24 2 23 3 21 4 22 5 20 7 15 8 16 9 87 10 17 11 18 12
REMARK SMILES IDX 19 13 12 14 13 15 14 16 11 17 10 19 4 20 5 21 6 22 7 23 9 24
REMARK SMILES IDX 8 25 2 26 1 27 3 28 26 29 27 30 28 31 29 32 30 33 31 34
REMARK SMILES IDX 32 36 33 37 34 38 86 39 35 40 85 41 36 42 37 43 38 44 79 45
REMARK SMILES IDX 39 46 84 47 78 48 80 49 40 50 83 51 77 52 76 53 41 55 67 56
REMARK SMILES IDX 50 57 66 58 51 59 54 60 65 61 81 62 52 63 53 64 64 66 82 67
REMARK SMILES IDX 55 68 42 69 43 70 48 71 44 72 45 73 47 74 49 75 46 76 68 77
REMARK SMILES IDX 69 78 74 79 70 80 71 81 73 82 75 83 72 84 56 85 57 86 62 87
REMARK SMILES IDX 58 88 59 89 61 90 63 91 60 92
REMARK H PARENT 23 6 11 18 30 35 80 54 54 65
REMARK Flexibility Score: inf
ROOT
ATOM      1  C   UNL A   1      36.723  21.544  24.609  1.00  0.00     0.021 C 
ENDROOT
BRANCH   1   2
ATOM      2  C   UNL A   1      35.637  20.782  25.376  1.00  0.00     0.116 C 
BRANCH   2   3
ATOM      3  N   UNL A   1      34.397  20.829  24.631  1.00  0.00    -0.352 N 
ATOM      4  C   UNL A   1      33.550  21.832  24.257  1.00  0.00     0.254 C 
ATOM      5  O   UNL A   1      32.500  21.474  23.716  1.00  0.00    -0.269 OA
ATOM      6  H   UNL A   1      34.098  19.941  24.327  1.00  0.00     0.163 HD
BRANCH   4   7
ATOM      7  C   UNL A   1      33.810  23.293  24.384  1.00  0.00     0.076 A 
ATOM      8  C   UNL A   1      33.869  25.415  23.169  1.00  0.00     0.088 A 
ATOM      9  C   UNL A   1      34.246  26.098  24.325  1.00  0.00     0.025 A 
ATOM     10  C   UNL A   1      33.715  24.023  23.182  1.00  0.00     0.039 A 
ATOM     11  C   UNL A   1      34.307  25.391  25.525  1.00  0.00     0.041 A 
ATOM     12  C   UNL A   1      34.031  24.016  25.555  1.00  0.00     0.136 A 
ATOM     13  F   UNL A   1      33.877  23.475  26.769  1.00  0.00    -0.206 F 
BRANCH   8  14
ATOM     14  S   UNL A   1      33.219  26.310  21.770  1.00  0.00     0.261 S 
ATOM     15  O   UNL A   1      33.049  25.368  20.680  1.00  0.00    -0.201 OA
ATOM     16  O   UNL A   1      34.030  27.495  21.627  1.00  0.00    -0.201 OA
BRANCH  14  17
ATOM     17  N   UNL A   1      31.709  26.804  22.251  1.00  0.00    -0.277 N 
ATOM     18  H   UNL A   1      31.203  27.351  21.607  1.00  0.00     0.180 HD
BRANCH  17  19
ATOM     19  C   UNL A   1      31.055  26.524  23.499  1.00  0.00     0.074 A 
ATOM     20  C   UNL A   1      31.284  27.473  24.538  1.00  0.00     0.080 A 
ATOM     21  C   UNL A   1      31.034  27.047  25.863  1.00  0.00     0.066 A 
ATOM     22  Cl  UNL A   1      31.269  28.042  27.259  1.00  0.00    -0.082 Cl
ATOM     23  C   UNL A   1      30.530  25.764  26.126  1.00  0.00     0.023 A 
ATOM     24  C   UNL A   1      30.454  25.293  23.773  1.00  0.00     0.029 A 
ATOM     25  C   UNL A   1      30.205  24.905  25.085  1.00  0.00     0.004 A 
BRANCH  20  26
ATOM     26  N   UNL A   1      31.662  28.776  24.146  1.00  0.00    -0.375 N 
ATOM     27  C   UNL A   1      32.940  29.359  24.526  1.00  0.00     0.143 C 
ATOM     28  C   UNL A   1      30.523  29.700  24.052  1.00  0.00     0.143 C 
ENDBRANCH  20  26
ENDBRANCH  17  19
ENDBRANCH  14  17
ENDBRANCH   8  14
ENDBRANCH   4   7
ENDBRANCH   2   3
ENDBRANCH   1   2
BRANCH   1  29
ATOM     29  C   UNL A   1      37.463  22.569  25.483  1.00  0.00     0.002 C 
BRANCH  29  30
ATOM     30  C   UNL A   1      38.778  22.065  26.095  1.00  0.00     0.002 C 
BRANCH  30  31
ATOM     31  C   UNL A   1      39.299  20.744  25.521  1.00  0.00     0.021 C 
BRANCH  31  32
ATOM     32  C   UNL A   1      39.992  19.843  26.539  1.00  0.00     0.116 C 
BRANCH  32  33
ATOM     33  N   UNL A   1      41.185  19.222  25.986  1.00  0.00    -0.352 N 
ATOM     34  C   UNL A   1      42.413  19.785  25.751  1.00  0.00     0.251 C 
ATOM     35  H   UNL A   1      41.099  18.270  25.748  1.00  0.00     0.163 HD
ATOM     36  O   UNL A   1      43.263  19.186  25.101  1.00  0.00    -0.269 OA
BRANCH  34  37
ATOM     37  C   UNL A   1      42.707  21.135  26.277  1.00  0.00     0.039 A 
ATOM     38  C   UNL A   1      42.821  21.314  27.658  1.00  0.00     0.014 A 
ATOM     39  C   UNL A   1      42.853  22.218  25.405  1.00  0.00     0.014 A 
ATOM     40  C   UNL A   1      43.130  22.577  28.167  1.00  0.00     0.010 A 
ATOM     41  C   UNL A   1      43.201  23.467  25.912  1.00  0.00     0.010 A 
ATOM     42  C   UNL A   1      43.342  23.657  27.296  1.00  0.00    -0.014 A 
BRANCH  42  43
ATOM     43  C   UNL A   1      43.688  25.006  27.803  1.00  0.00     0.031 A 
ATOM     44  C   UNL A   1      42.594  25.960  28.187  1.00  0.00     0.074 A 
ATOM     45  C   UNL A   1      44.975  25.397  27.849  1.00  0.00     0.049 A 
ATOM     46  N   UNL A   1      42.675  27.227  28.502  1.00  0.00    -0.248 NA
ATOM     47  C   UNL A   1      41.225  25.420  28.197  1.00  0.00     0.031 C 
ATOM     48  C   UNL A   1      46.126  24.567  27.495  1.00  0.00     0.029 A 
ATOM     49  N   UNL A   1      45.526  26.603  28.199  1.00  0.00    -0.354 N 
ATOM     50  C   UNL A   1      41.369  27.644  28.721  1.00  0.00     0.074 A 
ATOM     51  C   UNL A   1      40.513  26.501  28.484  1.00  0.00     0.031 C 
ATOM     52  C   UNL A   1      47.250  25.284  27.660  1.00  0.00     0.029 A 
ATOM     53  C   UNL A   1      46.895  26.633  28.092  1.00  0.00     0.049 A 
ATOM     54  H   UNL A   1      44.992  27.374  28.500  1.00  0.00     0.167 HD
ATOM     55  C   UNL A   1      40.926  28.865  29.094  1.00  0.00     0.037 A 
ATOM     56  C   UNL A   1      47.763  27.639  28.305  1.00  0.00     0.037 A 
ATOM     57  C   UNL A   1      41.779  29.992  29.364  1.00  0.00     0.049 A 
ATOM     58  C   UNL A   1      47.249  28.986  28.722  1.00  0.00     0.074 A 
ATOM     59  C   UNL A   1      41.424  31.264  29.775  1.00  0.00     0.029 A 
ATOM     60  N   UNL A   1      43.161  29.974  29.262  1.00  0.00    -0.354 N 
ATOM     61  N   UNL A   1      46.011  29.370  28.919  1.00  0.00    -0.248 NA
ATOM     62  C   UNL A   1      48.248  30.043  28.938  1.00  0.00     0.031 C 
ATOM     63  C   UNL A   1      42.591  32.023  29.906  1.00  0.00     0.029 A 
ATOM     64  C   UNL A   1      43.674  31.214  29.599  1.00  0.00     0.049 A 
ATOM     65  H   UNL A   1      43.699  29.195  28.989  1.00  0.00     0.167 HD
ATOM     66  C   UNL A   1      46.082  30.702  29.300  1.00  0.00     0.074 A 
ATOM     67  C   UNL A   1      47.485  31.063  29.309  1.00  0.00     0.031 C 
ATOM     68  C   UNL A   1      45.073  31.550  29.614  1.00  0.00     0.037 A 
BRANCH  55  69
ATOM     69  C   UNL A   1      39.447  29.048  29.232  1.00  0.00     0.057 A 
ATOM     70  C   UNL A   1      38.809  28.818  30.456  1.00  0.00     0.134 A 
ATOM     71  C   UNL A   1      38.649  29.420  28.143  1.00  0.00     0.134 A 
ATOM     72  F   UNL A   1      39.517  28.457  31.538  1.00  0.00    -0.206 F 
ATOM     73  C   UNL A   1      37.426  28.950  30.593  1.00  0.00     0.040 A 
ATOM     74  C   UNL A   1      37.268  29.573  28.272  1.00  0.00     0.040 A 
ATOM     75  F   UNL A   1      39.205  29.668  26.948  1.00  0.00    -0.206 F 
ATOM     76  C   UNL A   1      36.652  29.331  29.498  1.00  0.00     0.006 A 
ENDBRANCH  55  69
BRANCH  56  77
ATOM     77  C   UNL A   1      49.216  27.397  28.146  1.00  0.00     0.057 A 
ATOM     78  C   UNL A   1      50.003  26.927  29.203  1.00  0.00     0.134 A 
ATOM     79  C   UNL A   1      49.854  27.660  26.928  1.00  0.00     0.134 A 
ATOM     80  F   UNL A   1      49.448  26.663  30.395  1.00  0.00    -0.206 F 
ATOM     81  C   UNL A   1      51.378  26.737  29.059  1.00  0.00     0.040 A 
ATOM     82  C   UNL A   1      51.225  27.461  26.765  1.00  0.00     0.040 A 
ATOM     83  F   UNL A   1      49.145  28.096  25.877  1.00  0.00    -0.206 F 
ATOM     84  C   UNL A   1      51.992  27.003  27.836  1.00  0.00     0.006 A 
ENDBRANCH  56  77
BRANCH  68  85
ATOM     85  C   UNL A   1      45.443  32.941  30.022  1.00  0.00     0.057 A 
ATOM     86  C   UNL A   1      45.665  33.253  31.368  1.00  0.00     0.134 A 
ATOM     87  C   UNL A   1      45.499  33.985  29.092  1.00  0.00     0.134 A 
ATOM     88  F   UNL A   1      45.618  32.295  32.306  1.00  0.00    -0.206 F 
ATOM     89  C   UNL A   1      45.920  34.562  31.779  1.00  0.00     0.040 A 
ATOM     90  C   UNL A   1      45.766  35.296  29.489  1.00  0.00     0.040 A 
ATOM     91  F   UNL A   1      45.304  33.744  27.787  1.00  0.00    -0.206 F 
ATOM     92  C   UNL A   1      45.969  35.588  30.836  1.00  0.00     0.006 A 
ENDBRANCH  68  85
ENDBRANCH  42  43
ENDBRANCH  34  37
ENDBRANCH  32  33
ENDBRANCH  31  32
ENDBRANCH  30  31
ENDBRANCH  29  30
ENDBRANCH   1  29
TORSDOF 17
ENDMDL
