MODEL 1
REMARK VINA RESULT:      -9.4      0.000      0.000
REMARK SMILES CCOC(=O)[C@@]1(C)C/C(=N/c2cccc(C(=O)NCCCCCCNC(=O)c3ccc(-c4c5nc(c(-c6c(F)cccc6F)c6ccc([nH]6)c(-c6c(F)cccc6F)c6nc(c(-c7c(F)cccc7F)c7ccc4[nH]7)C=C6)C=C5)cc3)c2)C(=O)N1c1ccccc1
REMARK SMILES IDX 20 1 19 2 18 3 16 4 17 5 15 7 11 8 12 9 82 10 13 11 14 12
REMARK SMILES IDX 10 13 6 14 7 15 8 16 85 17 9 18 83 19 84 20 4 21 5 22 3 23
REMARK SMILES IDX 2 24 1 25 86 26 87 27 91 28 88 29 90 30 89 31 21 32 22 33
REMARK SMILES IDX 23 34 24 35 25 36 26 37 27 39 28 40 29 41 81 42 30 43 80 44
REMARK SMILES IDX 31 45 32 46 33 47 74 48 34 49 79 50 73 51 75 52 35 53 78 54
REMARK SMILES IDX 72 55 71 56 36 58 62 59 45 60 61 61 46 62 49 63 60 64 76 65
REMARK SMILES IDX 47 66 48 67 59 69 77 70 50 71 37 72 38 73 43 74 39 75 40 76
REMARK SMILES IDX 42 77 44 78 41 79 63 80 64 81 69 82 65 83 66 84 68 85 70 86
REMARK SMILES IDX 67 87 51 88 52 89 57 90 53 91 54 92 56 93 58 94 55 95
REMARK H PARENT 18 6 25 38 75 57 49 68
REMARK Flexibility Score: inf
ROOT
ATOM      1  C   UNL A   1      40.109  34.213  29.559  1.00  0.00     0.021 C 
ENDROOT
BRANCH   1   2
ATOM      2  C   UNL A   1      38.667  34.700  29.631  1.00  0.00     0.116 C 
BRANCH   2   3
ATOM      3  N   UNL A   1      37.734  33.967  28.802  1.00  0.00    -0.352 N 
ATOM      4  C   UNL A   1      36.464  33.512  29.088  1.00  0.00     0.251 C 
ATOM      5  O   UNL A   1      35.871  32.858  28.230  1.00  0.00    -0.269 OA
ATOM      6  H   UNL A   1      38.055  33.762  27.894  1.00  0.00     0.163 HD
BRANCH   4   7
ATOM      7  C   UNL A   1      35.807  33.747  30.406  1.00  0.00     0.041 A 
ATOM      8  C   UNL A   1      35.638  33.429  32.823  1.00  0.00     0.064 A 
ATOM      9  C   UNL A   1      34.459  34.173  32.827  1.00  0.00     0.028 A 
ATOM     10  C   UNL A   1      36.312  33.245  31.607  1.00  0.00     0.042 A 
ATOM     11  C   UNL A   1      33.972  34.737  31.645  1.00  0.00     0.003 A 
ATOM     12  C   UNL A   1      34.641  34.520  30.438  1.00  0.00     0.014 A 
BRANCH   8  13
ATOM     13  N   UNL A   1      36.011  32.718  33.974  1.00  0.00    -0.248 NA
ATOM     14  C   UNL A   1      39.129  31.609  34.832  1.00  0.00     0.148 C 
ATOM     15  C   UNL A   1      39.031  30.574  33.687  1.00  0.00     0.048 C 
ATOM     16  C   UNL A   1      37.720  31.818  35.448  1.00  0.00     0.103 C 
ATOM     17  N   UNL A   1      39.490  32.948  34.302  1.00  0.00    -0.290 N 
ATOM     18  C   UNL A   1      37.200  32.820  34.481  1.00  0.00     0.109 C 
ATOM     19  C   UNL A   1      38.342  33.715  34.086  1.00  0.00     0.273 C 
ATOM     20  O   UNL A   1      38.178  34.838  33.667  1.00  0.00    -0.267 OA
BRANCH  14  21
ATOM     21  C   UNL A   1      39.970  31.016  35.980  1.00  0.00     0.332 C 
ATOM     22  O   UNL A   1      40.402  31.697  36.903  1.00  0.00    -0.249 OA
BRANCH  21  23
ATOM     23  O   UNL A   1      40.222  29.693  35.817  1.00  0.00    -0.464 OA
BRANCH  23  24
ATOM     24  C   UNL A   1      41.582  29.266  35.992  1.00  0.00     0.229 C 
ATOM     25  C   UNL A   1      42.004  28.480  34.768  1.00  0.00     0.049 C 
ENDBRANCH  23  24
ENDBRANCH  21  23
ENDBRANCH  14  21
BRANCH  17  26
ATOM     26  C   UNL A   1      40.808  33.367  33.940  1.00  0.00     0.045 A 
ATOM     27  C   UNL A   1      41.540  32.675  32.963  1.00  0.00     0.026 A 
ATOM     28  C   UNL A   1      41.425  34.479  34.532  1.00  0.00     0.026 A 
ATOM     29  C   UNL A   1      42.830  33.073  32.592  1.00  0.00     0.002 A 
ATOM     30  C   UNL A   1      42.719  34.875  34.170  1.00  0.00     0.002 A 
ATOM     31  C   UNL A   1      43.422  34.173  33.199  1.00  0.00     0.000 A 
ENDBRANCH  17  26
ENDBRANCH   8  13
ENDBRANCH   4   7
ENDBRANCH   2   3
ENDBRANCH   1   2
BRANCH   1  32
ATOM     32  C   UNL A   1      41.155  35.203  29.043  1.00  0.00     0.002 C 
BRANCH  32  33
ATOM     33  C   UNL A   1      42.479  35.316  29.803  1.00  0.00     0.002 C 
BRANCH  33  34
ATOM     34  C   UNL A   1      43.231  36.649  29.758  1.00  0.00     0.021 C 
BRANCH  34  35
ATOM     35  C   UNL A   1      44.208  36.954  30.890  1.00  0.00     0.116 C 
BRANCH  35  36
ATOM     36  N   UNL A   1      45.580  37.107  30.455  1.00  0.00    -0.352 N 
ATOM     37  C   UNL A   1      46.431  36.219  29.846  1.00  0.00     0.251 C 
ATOM     38  H   UNL A   1      45.967  37.997  30.623  1.00  0.00     0.163 HD
ATOM     39  O   UNL A   1      47.581  36.579  29.599  1.00  0.00    -0.269 OA
BRANCH  37  40
ATOM     40  C   UNL A   1      46.025  34.828  29.511  1.00  0.00     0.039 A 
ATOM     41  C   UNL A   1      46.005  33.892  30.554  1.00  0.00     0.014 A 
ATOM     42  C   UNL A   1      45.734  34.404  28.210  1.00  0.00     0.014 A 
ATOM     43  C   UNL A   1      45.657  32.561  30.309  1.00  0.00     0.010 A 
ATOM     44  C   UNL A   1      45.347  33.080  27.970  1.00  0.00     0.010 A 
ATOM     45  C   UNL A   1      45.308  32.147  29.017  1.00  0.00    -0.014 A 
BRANCH  45  46
ATOM     46  C   UNL A   1      44.919  30.738  28.760  1.00  0.00     0.031 A 
ATOM     47  C   UNL A   1      43.483  30.311  28.859  1.00  0.00     0.074 A 
ATOM     48  C   UNL A   1      45.862  29.830  28.446  1.00  0.00     0.049 A 
ATOM     49  N   UNL A   1      42.964  29.118  28.701  1.00  0.00    -0.248 NA
ATOM     50  C   UNL A   1      42.502  31.355  29.191  1.00  0.00     0.031 C 
ATOM     51  C   UNL A   1      47.297  30.100  28.340  1.00  0.00     0.029 A 
ATOM     52  N   UNL A   1      45.750  28.493  28.156  1.00  0.00    -0.354 N 
ATOM     53  C   UNL A   1      41.605  29.261  28.948  1.00  0.00     0.074 A 
ATOM     54  C   UNL A   1      41.376  30.656  29.260  1.00  0.00     0.031 C 
ATOM     55  C   UNL A   1      47.929  28.967  27.989  1.00  0.00     0.029 A 
ATOM     56  C   UNL A   1      46.948  27.893  27.857  1.00  0.00     0.049 A 
ATOM     57  H   UNL A   1      44.892  28.011  28.161  1.00  0.00     0.167 HD
ATOM     58  C   UNL A   1      40.635  28.317  28.918  1.00  0.00     0.037 A 
ATOM     59  C   UNL A   1      47.224  26.624  27.508  1.00  0.00     0.037 A 
ATOM     60  C   UNL A   1      40.836  26.937  28.567  1.00  0.00     0.049 A 
ATOM     61  C   UNL A   1      46.117  25.618  27.392  1.00  0.00     0.074 A 
ATOM     62  C   UNL A   1      39.901  25.917  28.498  1.00  0.00     0.029 A 
ATOM     63  N   UNL A   1      42.054  26.388  28.206  1.00  0.00    -0.354 N 
ATOM     64  N   UNL A   1      44.839  25.770  27.628  1.00  0.00    -0.248 NA
ATOM     65  C   UNL A   1      46.495  24.265  26.956  1.00  0.00     0.031 C 
ATOM     66  C   UNL A   1      40.555  24.748  28.089  1.00  0.00     0.029 A 
ATOM     67  C   UNL A   1      41.895  25.046  27.901  1.00  0.00     0.049 A 
ATOM     68  H   UNL A   1      42.907  26.878  28.170  1.00  0.00     0.167 HD
ATOM     69  C   UNL A   1      44.257  24.539  27.365  1.00  0.00     0.074 A 
ATOM     70  C   UNL A   1      45.320  23.649  26.944  1.00  0.00     0.031 C 
ATOM     71  C   UNL A   1      42.956  24.179  27.469  1.00  0.00     0.037 A 
BRANCH  58  72
ATOM     72  C   UNL A   1      39.255  28.753  29.291  1.00  0.00     0.057 A 
ATOM     73  C   UNL A   1      38.402  29.348  28.356  1.00  0.00     0.134 A 
ATOM     74  C   UNL A   1      38.771  28.555  30.589  1.00  0.00     0.134 A 
ATOM     75  F   UNL A   1      38.818  29.573  27.102  1.00  0.00    -0.206 F 
ATOM     76  C   UNL A   1      37.108  29.740  28.704  1.00  0.00     0.040 A 
ATOM     77  C   UNL A   1      37.478  28.936  30.947  1.00  0.00     0.040 A 
ATOM     78  F   UNL A   1      39.548  27.994  31.528  1.00  0.00    -0.206 F 
ATOM     79  C   UNL A   1      36.642  29.532  30.003  1.00  0.00     0.006 A 
ENDBRANCH  58  72
BRANCH  59  80
ATOM     80  C   UNL A   1      48.619  26.234  27.212  1.00  0.00     0.057 A 
ATOM     81  C   UNL A   1      49.158  26.420  25.935  1.00  0.00     0.134 A 
ATOM     82  C   UNL A   1      49.438  25.668  28.193  1.00  0.00     0.134 A 
ATOM     83  F   UNL A   1      48.408  26.945  24.955  1.00  0.00    -0.206 F 
ATOM     84  C   UNL A   1      50.470  26.050  25.642  1.00  0.00     0.040 A 
ATOM     85  C   UNL A   1      50.753  25.298  27.914  1.00  0.00     0.040 A 
ATOM     86  F   UNL A   1      48.968  25.468  29.433  1.00  0.00    -0.206 F 
ATOM     87  C   UNL A   1      51.272  25.489  26.634  1.00  0.00     0.006 A 
ENDBRANCH  59  80
BRANCH  71  88
ATOM     88  C   UNL A   1      42.612  22.770  27.108  1.00  0.00     0.057 A 
ATOM     89  C   UNL A   1      42.311  21.822  28.092  1.00  0.00     0.134 A 
ATOM     90  C   UNL A   1      42.559  22.365  25.771  1.00  0.00     0.134 A 
ATOM     91  F   UNL A   1      42.357  22.153  29.392  1.00  0.00    -0.206 F 
ATOM     92  C   UNL A   1      41.971  20.511  27.756  1.00  0.00     0.040 A 
ATOM     93  C   UNL A   1      42.217  21.058  25.422  1.00  0.00     0.040 A 
ATOM     94  F   UNL A   1      42.845  23.229  24.786  1.00  0.00    -0.206 F 
ATOM     95  C   UNL A   1      41.921  20.127  26.417  1.00  0.00     0.006 A 
ENDBRANCH  71  88
ENDBRANCH  45  46
ENDBRANCH  37  40
ENDBRANCH  35  36
ENDBRANCH  34  35
ENDBRANCH  33  34
ENDBRANCH  32  33
ENDBRANCH   1  32
TORSDOF 18
ENDMDL
MODEL 2
REMARK VINA RESULT:      -9.4      5.607     10.799
REMARK SMILES CCOC(=O)[C@@]1(C)C/C(=N/c2cccc(C(=O)NCCCCCCNC(=O)c3ccc(-c4c5nc(c(-c6c(F)cccc6F)c6ccc([nH]6)c(-c6c(F)cccc6F)c6nc(c(-c7c(F)cccc7F)c7ccc4[nH]7)C=C6)C=C5)cc3)c2)C(=O)N1c1ccccc1
REMARK SMILES IDX 20 1 19 2 18 3 16 4 17 5 15 7 11 8 12 9 82 10 13 11 14 12
REMARK SMILES IDX 10 13 6 14 7 15 8 16 85 17 9 18 83 19 84 20 4 21 5 22 3 23
REMARK SMILES IDX 2 24 1 25 86 26 87 27 91 28 88 29 90 30 89 31 21 32 22 33
REMARK SMILES IDX 23 34 24 35 25 36 26 37 27 39 28 40 29 41 81 42 30 43 80 44
REMARK SMILES IDX 31 45 32 46 33 47 74 48 34 49 79 50 73 51 75 52 35 53 78 54
REMARK SMILES IDX 72 55 71 56 36 58 62 59 45 60 61 61 46 62 49 63 60 64 76 65
REMARK SMILES IDX 47 66 48 67 59 69 77 70 50 71 37 72 38 73 43 74 39 75 40 76
REMARK SMILES IDX 42 77 44 78 41 79 63 80 64 81 69 82 65 83 66 84 68 85 70 86
REMARK SMILES IDX 67 87 51 88 52 89 57 90 53 91 54 92 56 93 58 94 55 95
REMARK H PARENT 18 6 25 38 75 57 49 68
REMARK Flexibility Score: inf
ROOT
ATOM      1  C   UNL A   1      34.588  29.019  26.960  1.00  0.00     0.021 C 
ENDROOT
BRANCH   1   2
ATOM      2  C   UNL A   1      33.489  29.314  25.946  1.00  0.00     0.116 C 
BRANCH   2   3
ATOM      3  N   UNL A   1      33.883  29.165  24.560  1.00  0.00    -0.352 N 
ATOM      4  C   UNL A   1      33.211  28.583  23.506  1.00  0.00     0.251 C 
ATOM      5  O   UNL A   1      33.775  28.528  22.414  1.00  0.00    -0.269 OA
ATOM      6  H   UNL A   1      34.767  29.537  24.336  1.00  0.00     0.163 HD
BRANCH   4   7
ATOM      7  C   UNL A   1      31.853  27.986  23.655  1.00  0.00     0.041 A 
ATOM      8  C   UNL A   1      30.333  26.249  24.458  1.00  0.00     0.064 A 
ATOM      9  C   UNL A   1      29.277  26.890  23.812  1.00  0.00     0.028 A 
ATOM     10  C   UNL A   1      31.610  26.823  24.389  1.00  0.00     0.042 A 
ATOM     11  C   UNL A   1      29.489  28.089  23.126  1.00  0.00     0.003 A 
ATOM     12  C   UNL A   1      30.773  28.632  23.043  1.00  0.00     0.014 A 
BRANCH   8  13
ATOM     13  N   UNL A   1      30.144  24.960  24.981  1.00  0.00    -0.248 NA
ATOM     14  C   UNL A   1      32.282  22.298  24.816  1.00  0.00     0.148 C 
ATOM     15  C   UNL A   1      31.986  22.208  23.301  1.00  0.00     0.048 C 
ATOM     16  C   UNL A   1      30.998  22.760  25.556  1.00  0.00     0.103 C 
ATOM     17  N   UNL A   1      33.264  23.375  25.098  1.00  0.00    -0.290 N 
ATOM     18  C   UNL A   1      31.142  24.227  25.361  1.00  0.00     0.109 C 
ATOM     19  C   UNL A   1      32.607  24.559  25.441  1.00  0.00     0.273 C 
ATOM     20  O   UNL A   1      33.010  25.661  25.736  1.00  0.00    -0.267 OA
BRANCH  14  21
ATOM     21  C   UNL A   1      32.558  20.883  25.364  1.00  0.00     0.332 C 
ATOM     22  O   UNL A   1      33.277  20.680  26.337  1.00  0.00    -0.249 OA
BRANCH  21  23
ATOM     23  O   UNL A   1      31.973  19.910  24.623  1.00  0.00    -0.464 OA
BRANCH  23  24
ATOM     24  C   UNL A   1      32.672  18.659  24.530  1.00  0.00     0.229 C 
ATOM     25  C   UNL A   1      32.529  18.127  23.119  1.00  0.00     0.049 C 
ENDBRANCH  23  24
ENDBRANCH  21  23
ENDBRANCH  14  21
BRANCH  17  26
ATOM     26  C   UNL A   1      34.679  23.271  24.926  1.00  0.00     0.045 A 
ATOM     27  C   UNL A   1      35.547  23.382  26.023  1.00  0.00     0.026 A 
ATOM     28  C   UNL A   1      35.263  23.048  23.670  1.00  0.00     0.026 A 
ATOM     29  C   UNL A   1      36.936  23.278  25.876  1.00  0.00     0.002 A 
ATOM     30  C   UNL A   1      36.652  22.952  23.517  1.00  0.00     0.002 A 
ATOM     31  C   UNL A   1      37.489  23.066  24.620  1.00  0.00     0.000 A 
ENDBRANCH  17  26
ENDBRANCH   8  13
ENDBRANCH   4   7
ENDBRANCH   2   3
ENDBRANCH   1   2
BRANCH   1  32
ATOM     32  C   UNL A   1      34.858  30.084  28.025  1.00  0.00     0.002 C 
BRANCH  32  33
ATOM     33  C   UNL A   1      34.722  31.555  27.626  1.00  0.00     0.002 C 
BRANCH  33  34
ATOM     34  C   UNL A   1      33.407  32.275  27.938  1.00  0.00     0.021 C 
BRANCH  34  35
ATOM     35  C   UNL A   1      33.357  33.786  27.732  1.00  0.00     0.116 C 
BRANCH  35  36
ATOM     36  N   UNL A   1      32.978  34.527  28.916  1.00  0.00    -0.352 N 
ATOM     37  C   UNL A   1      33.558  34.585  30.159  1.00  0.00     0.251 C 
ATOM     38  H   UNL A   1      32.171  35.081  28.813  1.00  0.00     0.163 HD
ATOM     39  O   UNL A   1      33.023  35.273  31.027  1.00  0.00    -0.269 OA
BRANCH  37  40
ATOM     40  C   UNL A   1      34.784  33.818  30.504  1.00  0.00     0.039 A 
ATOM     41  C   UNL A   1      35.983  34.209  29.894  1.00  0.00     0.014 A 
ATOM     42  C   UNL A   1      34.780  32.698  31.341  1.00  0.00     0.014 A 
ATOM     43  C   UNL A   1      37.171  33.518  30.152  1.00  0.00     0.010 A 
ATOM     44  C   UNL A   1      35.976  32.029  31.632  1.00  0.00     0.010 A 
ATOM     45  C   UNL A   1      37.181  32.433  31.037  1.00  0.00    -0.014 A 
BRANCH  45  46
ATOM     46  C   UNL A   1      38.445  31.711  31.326  1.00  0.00     0.031 A 
ATOM     47  C   UNL A   1      39.310  32.119  32.484  1.00  0.00     0.074 A 
ATOM     48  C   UNL A   1      38.829  30.691  30.537  1.00  0.00     0.049 A 
ATOM     49  N   UNL A   1      40.462  31.626  32.867  1.00  0.00    -0.248 NA
ATOM     50  C   UNL A   1      38.825  33.231  33.314  1.00  0.00     0.031 C 
ATOM     51  C   UNL A   1      38.100  30.206  29.364  1.00  0.00     0.029 A 
ATOM     52  N   UNL A   1      39.931  29.875  30.608  1.00  0.00    -0.354 N 
ATOM     53  C   UNL A   1      40.856  32.388  33.958  1.00  0.00     0.074 A 
ATOM     54  C   UNL A   1      39.818  33.374  34.182  1.00  0.00     0.031 C 
ATOM     55  C   UNL A   1      38.766  29.164  28.837  1.00  0.00     0.029 A 
ATOM     56  C   UNL A   1      39.969  28.917  29.626  1.00  0.00     0.049 A 
ATOM     57  H   UNL A   1      40.626  29.969  31.298  1.00  0.00     0.167 HD
ATOM     58  C   UNL A   1      41.979  32.280  34.706  1.00  0.00     0.037 A 
ATOM     59  C   UNL A   1      40.868  27.943  29.394  1.00  0.00     0.037 A 
ATOM     60  C   UNL A   1      42.998  31.281  34.527  1.00  0.00     0.049 A 
ATOM     61  C   UNL A   1      42.057  27.787  30.294  1.00  0.00     0.074 A 
ATOM     62  C   UNL A   1      44.162  31.093  35.253  1.00  0.00     0.029 A 
ATOM     63  N   UNL A   1      42.963  30.289  33.563  1.00  0.00    -0.354 N 
ATOM     64  N   UNL A   1      42.413  28.515  31.321  1.00  0.00    -0.248 NA
ATOM     65  C   UNL A   1      42.965  26.666  30.003  1.00  0.00     0.031 C 
ATOM     66  C   UNL A   1      44.831  29.979  34.730  1.00  0.00     0.029 A 
ATOM     67  C   UNL A   1      44.078  29.476  33.682  1.00  0.00     0.049 A 
ATOM     68  H   UNL A   1      42.250  30.175  32.893  1.00  0.00     0.167 HD
ATOM     69  C   UNL A   1      43.581  27.943  31.803  1.00  0.00     0.074 A 
ATOM     70  C   UNL A   1      43.873  26.800  30.962  1.00  0.00     0.031 C 
ATOM     71  C   UNL A   1      44.346  28.335  32.850  1.00  0.00     0.037 A 
BRANCH  58  72
ATOM     72  C   UNL A   1      42.168  33.289  35.792  1.00  0.00     0.057 A 
ATOM     73  C   UNL A   1      41.680  33.068  37.084  1.00  0.00     0.134 A 
ATOM     74  C   UNL A   1      42.864  34.479  35.548  1.00  0.00     0.134 A 
ATOM     75  F   UNL A   1      40.995  31.953  37.371  1.00  0.00    -0.206 F 
ATOM     76  C   UNL A   1      41.872  34.006  38.101  1.00  0.00     0.040 A 
ATOM     77  C   UNL A   1      43.068  35.420  36.557  1.00  0.00     0.040 A 
ATOM     78  F   UNL A   1      43.350  34.744  34.326  1.00  0.00    -0.206 F 
ATOM     79  C   UNL A   1      42.571  35.185  37.838  1.00  0.00     0.006 A 
ENDBRANCH  58  72
BRANCH  59  80
ATOM     80  C   UNL A   1      40.661  27.013  28.264  1.00  0.00     0.057 A 
ATOM     81  C   UNL A   1      39.771  25.939  28.375  1.00  0.00     0.134 A 
ATOM     82  C   UNL A   1      41.346  27.173  27.056  1.00  0.00     0.134 A 
ATOM     83  F   UNL A   1      39.101  25.733  29.518  1.00  0.00    -0.206 F 
ATOM     84  C   UNL A   1      39.573  25.050  27.319  1.00  0.00     0.040 A 
ATOM     85  C   UNL A   1      41.153  26.294  25.991  1.00  0.00     0.040 A 
ATOM     86  F   UNL A   1      42.212  28.186  26.900  1.00  0.00    -0.206 F 
ATOM     87  C   UNL A   1      40.264  25.228  26.122  1.00  0.00     0.006 A 
ENDBRANCH  59  80
BRANCH  71  88
ATOM     88  C   UNL A   1      45.558  27.514  33.148  1.00  0.00     0.057 A 
ATOM     89  C   UNL A   1      46.799  27.817  32.575  1.00  0.00     0.134 A 
ATOM     90  C   UNL A   1      45.492  26.431  34.030  1.00  0.00     0.134 A 
ATOM     91  F   UNL A   1      46.918  28.839  31.713  1.00  0.00    -0.206 F 
ATOM     92  C   UNL A   1      47.936  27.063  32.867  1.00  0.00     0.040 A 
ATOM     93  C   UNL A   1      46.623  25.672  34.333  1.00  0.00     0.040 A 
ATOM     94  F   UNL A   1      44.328  26.091  34.603  1.00  0.00    -0.206 F 
ATOM     95  C   UNL A   1      47.849  25.988  33.751  1.00  0.00     0.006 A 
ENDBRANCH  71  88
ENDBRANCH  45  46
ENDBRANCH  37  40
ENDBRANCH  35  36
ENDBRANCH  34  35
ENDBRANCH  33  34
ENDBRANCH  32  33
ENDBRANCH   1  32
TORSDOF 18
ENDMDL
MODEL 3
REMARK VINA RESULT:      -9.1      0.969      5.925
REMARK SMILES CCOC(=O)[C@@]1(C)C/C(=N/c2cccc(C(=O)NCCCCCCNC(=O)c3ccc(-c4c5nc(c(-c6c(F)cccc6F)c6ccc([nH]6)c(-c6c(F)cccc6F)c6nc(c(-c7c(F)cccc7F)c7ccc4[nH]7)C=C6)C=C5)cc3)c2)C(=O)N1c1ccccc1
REMARK SMILES IDX 20 1 19 2 18 3 16 4 17 5 15 7 11 8 12 9 82 10 13 11 14 12
REMARK SMILES IDX 10 13 6 14 7 15 8 16 85 17 9 18 83 19 84 20 4 21 5 22 3 23
REMARK SMILES IDX 2 24 1 25 86 26 87 27 91 28 88 29 90 30 89 31 21 32 22 33
REMARK SMILES IDX 23 34 24 35 25 36 26 37 27 39 28 40 29 41 81 42 30 43 80 44
REMARK SMILES IDX 31 45 32 46 33 47 74 48 34 49 79 50 73 51 75 52 35 53 78 54
REMARK SMILES IDX 72 55 71 56 36 58 62 59 45 60 61 61 46 62 49 63 60 64 76 65
REMARK SMILES IDX 47 66 48 67 59 69 77 70 50 71 37 72 38 73 43 74 39 75 40 76
REMARK SMILES IDX 42 77 44 78 41 79 63 80 64 81 69 82 65 83 66 84 68 85 70 86
REMARK SMILES IDX 67 87 51 88 52 89 57 90 53 91 54 92 56 93 58 94 55 95
REMARK H PARENT 18 6 25 38 75 57 49 68
REMARK Flexibility Score: inf
ROOT
ATOM      1  C   UNL A   1      40.579  34.252  29.687  1.00  0.00     0.021 C 
ENDROOT
BRANCH   1   2
ATOM      2  C   UNL A   1      39.144  34.756  29.777  1.00  0.00     0.116 C 
BRANCH   2   3
ATOM      3  N   UNL A   1      38.245  34.217  28.778  1.00  0.00    -0.352 N 
ATOM      4  C   UNL A   1      37.095  33.473  28.933  1.00  0.00     0.251 C 
ATOM      5  O   UNL A   1      36.516  33.076  27.922  1.00  0.00    -0.269 OA
ATOM      6  H   UNL A   1      38.493  34.412  27.846  1.00  0.00     0.163 HD
BRANCH   4   7
ATOM      7  C   UNL A   1      36.556  33.099  30.272  1.00  0.00     0.041 A 
ATOM      8  C   UNL A   1      36.794  32.130  32.503  1.00  0.00     0.064 A 
ATOM      9  C   UNL A   1      35.437  32.355  32.733  1.00  0.00     0.028 A 
ATOM     10  C   UNL A   1      37.342  32.530  31.276  1.00  0.00     0.042 A 
ATOM     11  C   UNL A   1      34.649  32.982  31.765  1.00  0.00     0.003 A 
ATOM     12  C   UNL A   1      35.205  33.348  30.537  1.00  0.00     0.014 A 
BRANCH   8  13
ATOM     13  N   UNL A   1      37.527  31.338  33.402  1.00  0.00    -0.248 NA
ATOM     14  C   UNL A   1      40.647  31.940  34.660  1.00  0.00     0.148 C 
ATOM     15  C   UNL A   1      41.224  31.659  33.253  1.00  0.00     0.048 C 
ATOM     16  C   UNL A   1      39.417  31.024  34.895  1.00  0.00     0.103 C 
ATOM     17  N   UNL A   1      40.090  33.314  34.737  1.00  0.00    -0.290 N 
ATOM     18  C   UNL A   1      38.386  31.857  34.221  1.00  0.00     0.109 C 
ATOM     19  C   UNL A   1      38.717  33.300  34.484  1.00  0.00     0.273 C 
ATOM     20  O   UNL A   1      37.886  34.179  34.442  1.00  0.00    -0.267 OA
BRANCH  14  21
ATOM     21  C   UNL A   1      41.670  31.495  35.725  1.00  0.00     0.332 C 
ATOM     22  O   UNL A   1      41.342  31.165  36.860  1.00  0.00    -0.249 OA
BRANCH  21  23
ATOM     23  O   UNL A   1      42.951  31.571  35.286  1.00  0.00    -0.464 OA
BRANCH  23  24
ATOM     24  C   UNL A   1      43.945  31.952  36.250  1.00  0.00     0.229 C 
ATOM     25  C   UNL A   1      44.309  33.405  36.024  1.00  0.00     0.049 C 
ENDBRANCH  23  24
ENDBRANCH  21  23
ENDBRANCH  14  21
BRANCH  17  26
ATOM     26  C   UNL A   1      40.855  34.508  34.918  1.00  0.00     0.045 A 
ATOM     27  C   UNL A   1      41.663  35.009  33.885  1.00  0.00     0.026 A 
ATOM     28  C   UNL A   1      40.834  35.231  36.120  1.00  0.00     0.026 A 
ATOM     29  C   UNL A   1      42.415  36.179  34.043  1.00  0.00     0.002 A 
ATOM     30  C   UNL A   1      41.593  36.397  36.284  1.00  0.00     0.002 A 
ATOM     31  C   UNL A   1      42.383  36.872  35.245  1.00  0.00     0.000 A 
ENDBRANCH  17  26
ENDBRANCH   8  13
ENDBRANCH   4   7
ENDBRANCH   2   3
ENDBRANCH   1   2
BRANCH   1  32
ATOM     32  C   UNL A   1      41.670  35.294  29.436  1.00  0.00     0.002 C 
BRANCH  32  33
ATOM     33  C   UNL A   1      42.851  35.352  30.408  1.00  0.00     0.002 C 
BRANCH  33  34
ATOM     34  C   UNL A   1      43.772  36.575  30.361  1.00  0.00     0.021 C 
BRANCH  34  35
ATOM     35  C   UNL A   1      44.833  36.708  31.450  1.00  0.00     0.116 C 
BRANCH  35  36
ATOM     36  N   UNL A   1      46.184  36.820  30.942  1.00  0.00    -0.352 N 
ATOM     37  C   UNL A   1      46.946  35.933  30.224  1.00  0.00     0.251 C 
ATOM     38  H   UNL A   1      46.630  37.674  31.145  1.00  0.00     0.163 HD
ATOM     39  O   UNL A   1      48.098  36.248  29.931  1.00  0.00    -0.269 OA
BRANCH  37  40
ATOM     40  C   UNL A   1      46.443  34.592  29.822  1.00  0.00     0.039 A 
ATOM     41  C   UNL A   1      46.405  33.595  30.806  1.00  0.00     0.014 A 
ATOM     42  C   UNL A   1      46.078  34.269  28.511  1.00  0.00     0.014 A 
ATOM     43  C   UNL A   1      45.967  32.305  30.495  1.00  0.00     0.010 A 
ATOM     44  C   UNL A   1      45.601  32.988  28.207  1.00  0.00     0.010 A 
ATOM     45  C   UNL A   1      45.544  31.995  29.196  1.00  0.00    -0.014 A 
BRANCH  45  46
ATOM     46  C   UNL A   1      45.060  30.630  28.870  1.00  0.00     0.031 A 
ATOM     47  C   UNL A   1      46.021  29.564  28.426  1.00  0.00     0.074 A 
ATOM     48  C   UNL A   1      43.748  30.345  28.960  1.00  0.00     0.049 A 
ATOM     49  N   UNL A   1      45.775  28.328  28.068  1.00  0.00    -0.248 NA
ATOM     50  C   UNL A   1      47.442  29.938  28.363  1.00  0.00     0.031 C 
ATOM     51  C   UNL A   1      42.701  31.290  29.354  1.00  0.00     0.029 A 
ATOM     52  N   UNL A   1      43.073  29.173  28.729  1.00  0.00    -0.354 N 
ATOM     53  C   UNL A   1      47.000  27.787  27.706  1.00  0.00     0.074 A 
ATOM     54  C   UNL A   1      47.993  28.826  27.892  1.00  0.00     0.031 C 
ATOM     55  C   UNL A   1      41.517  30.653  29.354  1.00  0.00     0.029 A 
ATOM     56  C   UNL A   1      41.722  29.264  28.953  1.00  0.00     0.049 A 
ATOM     57  H   UNL A   1      43.516  28.346  28.432  1.00  0.00     0.167 HD
ATOM     58  C   UNL A   1      47.277  26.540  27.258  1.00  0.00     0.037 A 
ATOM     59  C   UNL A   1      40.757  28.331  28.853  1.00  0.00     0.037 A 
ATOM     60  C   UNL A   1      46.313  25.483  27.111  1.00  0.00     0.049 A 
ATOM     61  C   UNL A   1      41.104  26.931  28.444  1.00  0.00     0.074 A 
ATOM     62  C   UNL A   1      46.515  24.183  26.676  1.00  0.00     0.029 A 
ATOM     63  N   UNL A   1      44.968  25.599  27.412  1.00  0.00    -0.354 N 
ATOM     64  N   UNL A   1      42.268  26.437  28.106  1.00  0.00    -0.248 NA
ATOM     65  C   UNL A   1      40.001  25.958  28.409  1.00  0.00     0.031 C 
ATOM     66  C   UNL A   1      45.288  23.510  26.720  1.00  0.00     0.029 A 
ATOM     67  C   UNL A   1      44.328  24.392  27.187  1.00  0.00     0.049 A 
ATOM     68  H   UNL A   1      44.531  26.418  27.740  1.00  0.00     0.167 HD
ATOM     69  C   UNL A   1      42.042  25.098  27.822  1.00  0.00     0.074 A 
ATOM     70  C   UNL A   1      40.631  24.851  28.035  1.00  0.00     0.031 C 
ATOM     71  C   UNL A   1      42.929  24.158  27.417  1.00  0.00     0.037 A 
BRANCH  58  72
ATOM     72  C   UNL A   1      48.695  26.255  26.882  1.00  0.00     0.057 A 
ATOM     73  C   UNL A   1      49.203  26.614  25.629  1.00  0.00     0.134 A 
ATOM     74  C   UNL A   1      49.564  25.638  27.790  1.00  0.00     0.134 A 
ATOM     75  F   UNL A   1      48.412  27.195  24.716  1.00  0.00    -0.206 F 
ATOM     76  C   UNL A   1      50.533  26.360  25.287  1.00  0.00     0.040 A 
ATOM     77  C   UNL A   1      50.896  25.386  27.462  1.00  0.00     0.040 A 
ATOM     78  F   UNL A   1      49.129  25.268  29.004  1.00  0.00    -0.206 F 
ATOM     79  C   UNL A   1      51.383  25.746  26.207  1.00  0.00     0.006 A 
ENDBRANCH  58  72
BRANCH  59  80
ATOM     80  C   UNL A   1      39.360  28.688  29.177  1.00  0.00     0.057 A 
ATOM     81  C   UNL A   1      38.520  29.247  28.207  1.00  0.00     0.134 A 
ATOM     82  C   UNL A   1      38.836  28.483  30.457  1.00  0.00     0.134 A 
ATOM     83  F   UNL A   1      38.980  29.478  26.969  1.00  0.00    -0.206 F 
ATOM     84  C   UNL A   1      37.203  29.595  28.503  1.00  0.00     0.040 A 
ATOM     85  C   UNL A   1      37.519  28.822  30.764  1.00  0.00     0.040 A 
ATOM     86  F   UNL A   1      39.600  27.952  31.422  1.00  0.00    -0.206 F 
ATOM     87  C   UNL A   1      36.698  29.381  29.785  1.00  0.00     0.006 A 
ENDBRANCH  59  80
BRANCH  71  88
ATOM     88  C   UNL A   1      42.398  22.779  27.193  1.00  0.00     0.057 A 
ATOM     89  C   UNL A   1      42.227  22.269  25.901  1.00  0.00     0.134 A 
ATOM     90  C   UNL A   1      42.080  21.949  28.272  1.00  0.00     0.134 A 
ATOM     91  F   UNL A   1      42.506  23.026  24.829  1.00  0.00    -0.206 F 
ATOM     92  C   UNL A   1      41.750  20.975  25.690  1.00  0.00     0.040 A 
ATOM     93  C   UNL A   1      41.606  20.651  28.074  1.00  0.00     0.040 A 
ATOM     94  F   UNL A   1      42.218  22.388  29.532  1.00  0.00    -0.206 F 
ATOM     95  C   UNL A   1      41.440  20.161  26.779  1.00  0.00     0.006 A 
ENDBRANCH  71  88
ENDBRANCH  45  46
ENDBRANCH  37  40
ENDBRANCH  35  36
ENDBRANCH  34  35
ENDBRANCH  33  34
ENDBRANCH  32  33
ENDBRANCH   1  32
TORSDOF 18
ENDMDL
