MODEL 1
REMARK VINA RESULT:     -12.2      0.000      0.000
REMARK SMILES Cc1cccc(-c2cc(C(=O)NCCCCCCNC(=O)c3ccc(-c4c5nc(c(-c6c(F)cccc6F)c6ccc([nH]6)c(-c6c(F)cccc6F)c6nc(c(-c7c(F)cccc7F)c7ccc4[nH]7)C=C6)C=C5)cc3)ccn2)c1
REMARK SMILES IDX 16 1 15 2 14 3 13 4 12 5 10 6 11 7 9 9 7 10 8 11 78 12 77 13
REMARK SMILES IDX 76 14 6 15 1 16 2 17 3 18 79 19 4 20 5 21 17 22 18 23 19 24
REMARK SMILES IDX 20 25 21 27 22 28 23 29 75 30 24 31 74 32 25 33 26 34 27 35
REMARK SMILES IDX 68 36 28 37 73 38 67 39 69 40 29 41 72 42 66 43 65 44 30 46
REMARK SMILES IDX 56 47 39 48 55 49 40 50 43 51 54 52 70 53 41 54 42 55 53 57
REMARK SMILES IDX 71 58 44 59 31 60 32 61 37 62 33 63 34 64 36 65 38 66 35 67
REMARK SMILES IDX 57 68 58 69 63 70 59 71 60 72 62 73 64 74 61 75 45 76 46 77
REMARK SMILES IDX 51 78 47 79 48 80 50 81 52 82 49 83
REMARK H PARENT 12 8 19 26 69 45 43 56
REMARK Flexibility Score: inf
ROOT
ATOM      1  C   UNL A   1      37.123  21.593  24.651  1.00  0.00     0.002 C 
ENDROOT
BRANCH   1   2
ATOM      2  C   UNL A   1      35.992  22.400  25.315  1.00  0.00     0.002 C 
BRANCH   2   3
ATOM      3  C   UNL A   1      35.381  23.535  24.477  1.00  0.00     0.021 C 
BRANCH   3   4
ATOM      4  C   UNL A   1      34.057  23.175  23.797  1.00  0.00     0.116 C 
BRANCH   4   5
ATOM      5  N   UNL A   1      33.896  23.910  22.555  1.00  0.00    -0.352 N 
ATOM      6  C   UNL A   1      33.187  25.031  22.206  1.00  0.00     0.251 C 
ATOM      7  O   UNL A   1      33.313  25.443  21.051  1.00  0.00    -0.269 OA
ATOM      8  H   UNL A   1      34.402  23.521  21.806  1.00  0.00     0.163 HD
BRANCH   6   9
ATOM      9  C   UNL A   1      32.329  25.803  23.145  1.00  0.00     0.043 A 
ATOM     10  C   UNL A   1      31.912  27.403  24.881  1.00  0.00     0.071 A 
ATOM     11  C   UNL A   1      32.812  26.629  24.152  1.00  0.00     0.042 A 
ATOM     12  N   UNL A   1      30.572  27.293  24.743  1.00  0.00    -0.256 NA
ATOM     13  C   UNL A   1      30.118  26.416  23.824  1.00  0.00     0.112 A 
ATOM     14  C   UNL A   1      30.944  25.676  22.999  1.00  0.00     0.034 A 
BRANCH  10  15
ATOM     15  C   UNL A   1      32.395  28.478  25.751  1.00  0.00     0.000 A 
ATOM     16  C   UNL A   1      31.376  32.057  26.639  1.00  0.00     0.044 C 
ATOM     17  C   UNL A   1      32.140  30.768  26.589  1.00  0.00    -0.050 A 
ATOM     18  C   UNL A   1      33.316  30.613  27.329  1.00  0.00     0.003 A 
ATOM     19  C   UNL A   1      31.690  29.697  25.808  1.00  0.00     0.013 A 
ATOM     20  C   UNL A   1      34.016  29.405  27.300  1.00  0.00     0.001 A 
ATOM     21  C   UNL A   1      33.555  28.341  26.522  1.00  0.00     0.010 A 
ENDBRANCH  10  15
ENDBRANCH   6   9
ENDBRANCH   4   5
ENDBRANCH   3   4
ENDBRANCH   2   3
ENDBRANCH   1   2
BRANCH   1  22
ATOM     22  C   UNL A   1      38.431  21.503  25.441  1.00  0.00     0.021 C 
BRANCH  22  23
ATOM     23  C   UNL A   1      38.819  22.800  26.138  1.00  0.00     0.116 C 
BRANCH  23  24
ATOM     24  N   UNL A   1      40.252  22.942  26.369  1.00  0.00    -0.352 N 
ATOM     25  C   UNL A   1      41.003  24.076  26.649  1.00  0.00     0.251 C 
ATOM     26  H   UNL A   1      40.767  22.105  26.318  1.00  0.00     0.163 HD
ATOM     27  O   UNL A   1      42.210  23.994  26.768  1.00  0.00    -0.269 OA
BRANCH  25  28
ATOM     28  C   UNL A   1      40.309  25.356  26.950  1.00  0.00     0.039 A 
ATOM     29  C   UNL A   1      40.702  26.491  26.229  1.00  0.00     0.014 A 
ATOM     30  C   UNL A   1      39.475  25.486  28.054  1.00  0.00     0.014 A 
ATOM     31  C   UNL A   1      40.490  27.754  26.777  1.00  0.00     0.010 A 
ATOM     32  C   UNL A   1      39.359  26.723  28.652  1.00  0.00     0.010 A 
ATOM     33  C   UNL A   1      39.935  27.846  28.050  1.00  0.00    -0.014 A 
BRANCH  33  34
ATOM     34  C   UNL A   1      40.024  29.038  28.887  1.00  0.00     0.031 A 
ATOM     35  C   UNL A   1      38.966  30.067  28.845  1.00  0.00     0.074 A 
ATOM     36  C   UNL A   1      41.012  29.125  29.805  1.00  0.00     0.049 A 
ATOM     37  N   UNL A   1      39.093  31.257  29.323  1.00  0.00    -0.248 NA
ATOM     38  C   UNL A   1      37.671  29.834  28.223  1.00  0.00     0.031 C 
ATOM     39  C   UNL A   1      41.100  30.051  30.931  1.00  0.00     0.029 A 
ATOM     40  N   UNL A   1      42.271  28.512  29.763  1.00  0.00    -0.354 N 
ATOM     41  C   UNL A   1      37.853  31.851  29.324  1.00  0.00     0.074 A 
ATOM     42  C   UNL A   1      37.011  30.939  28.583  1.00  0.00     0.031 C 
ATOM     43  C   UNL A   1      42.389  30.185  31.279  1.00  0.00     0.029 A 
ATOM     44  C   UNL A   1      43.177  29.461  30.298  1.00  0.00     0.049 A 
ATOM     45  H   UNL A   1      42.484  27.610  29.431  1.00  0.00     0.167 HD
ATOM     46  C   UNL A   1      37.667  32.991  30.051  1.00  0.00     0.037 A 
ATOM     47  C   UNL A   1      44.153  30.005  29.514  1.00  0.00     0.037 A 
ATOM     48  C   UNL A   1      38.930  33.486  30.602  1.00  0.00     0.049 A 
ATOM     49  C   UNL A   1      44.040  31.502  29.307  1.00  0.00     0.074 A 
ATOM     50  C   UNL A   1      39.550  33.426  31.840  1.00  0.00     0.029 A 
ATOM     51  N   UNL A   1      39.896  33.926  29.718  1.00  0.00    -0.354 N 
ATOM     52  N   UNL A   1      43.077  32.241  29.786  1.00  0.00    -0.248 NA
ATOM     53  C   UNL A   1      44.958  32.272  28.465  1.00  0.00     0.031 C 
ATOM     54  C   UNL A   1      40.912  33.814  31.674  1.00  0.00     0.029 A 
ATOM     55  C   UNL A   1      41.114  34.110  30.339  1.00  0.00     0.049 A 
ATOM     56  H   UNL A   1      39.736  34.088  28.760  1.00  0.00     0.167 HD
ATOM     57  C   UNL A   1      43.187  33.511  29.288  1.00  0.00     0.074 A 
ATOM     58  C   UNL A   1      44.390  33.491  28.479  1.00  0.00     0.031 C 
ATOM     59  C   UNL A   1      42.260  34.481  29.528  1.00  0.00     0.037 A 
BRANCH  46  60
ATOM     60  C   UNL A   1      36.315  33.546  30.439  1.00  0.00     0.057 A 
ATOM     61  C   UNL A   1      35.446  34.071  29.462  1.00  0.00     0.134 A 
ATOM     62  C   UNL A   1      35.821  33.636  31.752  1.00  0.00     0.134 A 
ATOM     63  F   UNL A   1      35.712  33.971  28.153  1.00  0.00    -0.206 F 
ATOM     64  C   UNL A   1      34.252  34.734  29.775  1.00  0.00     0.040 A 
ATOM     65  C   UNL A   1      34.657  34.346  32.086  1.00  0.00     0.040 A 
ATOM     66  F   UNL A   1      36.397  32.985  32.768  1.00  0.00    -0.206 F 
ATOM     67  C   UNL A   1      33.873  34.912  31.095  1.00  0.00     0.006 A 
ENDBRANCH  46  60
BRANCH  47  68
ATOM     68  C   UNL A   1      44.688  29.033  28.524  1.00  0.00     0.057 A 
ATOM     69  C   UNL A   1      45.564  28.031  28.979  1.00  0.00     0.134 A 
ATOM     70  C   UNL A   1      44.069  28.826  27.289  1.00  0.00     0.134 A 
ATOM     71  F   UNL A   1      46.190  28.168  30.160  1.00  0.00    -0.206 F 
ATOM     72  C   UNL A   1      45.718  26.821  28.300  1.00  0.00     0.040 A 
ATOM     73  C   UNL A   1      44.230  27.624  26.591  1.00  0.00     0.040 A 
ATOM     74  F   UNL A   1      43.204  29.725  26.798  1.00  0.00    -0.206 F 
ATOM     75  C   UNL A   1      45.019  26.602  27.117  1.00  0.00     0.006 A 
ENDBRANCH  47  68
BRANCH  59  76
ATOM     76  C   UNL A   1      42.368  35.878  28.998  1.00  0.00     0.057 A 
ATOM     77  C   UNL A   1      41.826  36.248  27.761  1.00  0.00     0.134 A 
ATOM     78  C   UNL A   1      43.148  36.852  29.649  1.00  0.00     0.134 A 
ATOM     79  F   UNL A   1      41.091  35.384  27.046  1.00  0.00    -0.206 F 
ATOM     80  C   UNL A   1      42.044  37.515  27.208  1.00  0.00     0.040 A 
ATOM     81  C   UNL A   1      43.411  38.102  29.086  1.00  0.00     0.040 A 
ATOM     82  F   UNL A   1      43.671  36.632  30.865  1.00  0.00    -0.206 F 
ATOM     83  C   UNL A   1      42.855  38.440  27.861  1.00  0.00     0.006 A 
ENDBRANCH  59  76
ENDBRANCH  33  34
ENDBRANCH  25  28
ENDBRANCH  23  24
ENDBRANCH  22  23
ENDBRANCH   1  22
TORSDOF 14
ENDMDL
MODEL 2
REMARK VINA RESULT:     -11.9      2.025      4.345
REMARK SMILES Cc1cccc(-c2cc(C(=O)NCCCCCCNC(=O)c3ccc(-c4c5nc(c(-c6c(F)cccc6F)c6ccc([nH]6)c(-c6c(F)cccc6F)c6nc(c(-c7c(F)cccc7F)c7ccc4[nH]7)C=C6)C=C5)cc3)ccn2)c1
REMARK SMILES IDX 16 1 15 2 14 3 13 4 12 5 10 6 11 7 9 9 7 10 8 11 78 12 77 13
REMARK SMILES IDX 76 14 6 15 1 16 2 17 3 18 79 19 4 20 5 21 17 22 18 23 19 24
REMARK SMILES IDX 20 25 21 27 22 28 23 29 75 30 24 31 74 32 25 33 26 34 27 35
REMARK SMILES IDX 68 36 28 37 73 38 67 39 69 40 29 41 72 42 66 43 65 44 30 46
REMARK SMILES IDX 56 47 39 48 55 49 40 50 43 51 54 52 70 53 41 54 42 55 53 57
REMARK SMILES IDX 71 58 44 59 31 60 32 61 37 62 33 63 34 64 36 65 38 66 35 67
REMARK SMILES IDX 57 68 58 69 63 70 59 71 60 72 62 73 64 74 61 75 45 76 46 77
REMARK SMILES IDX 51 78 47 79 48 80 50 81 52 82 49 83
REMARK H PARENT 12 8 19 26 69 45 43 56
REMARK Flexibility Score: inf
ROOT
ATOM      1  C   UNL A   1      37.233  21.252  25.208  1.00  0.00     0.002 C 
ENDROOT
BRANCH   1   2
ATOM      2  C   UNL A   1      36.593  22.448  24.477  1.00  0.00     0.002 C 
BRANCH   2   3
ATOM      3  C   UNL A   1      35.499  23.209  25.243  1.00  0.00     0.021 C 
BRANCH   3   4
ATOM      4  C   UNL A   1      35.064  24.521  24.584  1.00  0.00     0.116 C 
BRANCH   4   5
ATOM      5  N   UNL A   1      34.478  24.275  23.278  1.00  0.00    -0.352 N 
ATOM      6  C   UNL A   1      33.580  23.354  22.804  1.00  0.00     0.251 C 
ATOM      7  O   UNL A   1      33.234  23.455  21.625  1.00  0.00    -0.269 OA
ATOM      8  H   UNL A   1      34.793  24.902  22.587  1.00  0.00     0.163 HD
BRANCH   6   9
ATOM      9  C   UNL A   1      32.961  22.286  23.636  1.00  0.00     0.043 A 
ATOM     10  C   UNL A   1      32.771  20.065  24.519  1.00  0.00     0.071 A 
ATOM     11  C   UNL A   1      33.329  20.948  23.596  1.00  0.00     0.042 A 
ATOM     12  N   UNL A   1      31.785  20.425  25.370  1.00  0.00    -0.256 NA
ATOM     13  C   UNL A   1      31.373  21.709  25.330  1.00  0.00     0.112 A 
ATOM     14  C   UNL A   1      31.937  22.667  24.509  1.00  0.00     0.034 A 
BRANCH  10  15
ATOM     15  C   UNL A   1      33.328  18.721  24.690  1.00  0.00     0.000 A 
ATOM     16  C   UNL A   1      32.093  15.285  25.831  1.00  0.00     0.044 C 
ATOM     17  C   UNL A   1      32.994  16.387  25.359  1.00  0.00    -0.050 A 
ATOM     18  C   UNL A   1      34.351  16.142  25.128  1.00  0.00     0.003 A 
ATOM     19  C   UNL A   1      32.495  17.676  25.136  1.00  0.00     0.013 A 
ATOM     20  C   UNL A   1      35.186  17.161  24.668  1.00  0.00     0.001 A 
ATOM     21  C   UNL A   1      34.676  18.442  24.442  1.00  0.00     0.010 A 
ENDBRANCH  10  15
ENDBRANCH   6   9
ENDBRANCH   4   5
ENDBRANCH   3   4
ENDBRANCH   2   3
ENDBRANCH   1   2
BRANCH   1  22
ATOM     22  C   UNL A   1      38.704  21.417  25.596  1.00  0.00     0.021 C 
BRANCH  22  23
ATOM     23  C   UNL A   1      39.029  22.769  26.218  1.00  0.00     0.116 C 
BRANCH  23  24
ATOM     24  N   UNL A   1      40.445  22.960  26.512  1.00  0.00    -0.352 N 
ATOM     25  C   UNL A   1      41.139  24.115  26.847  1.00  0.00     0.251 C 
ATOM     26  H   UNL A   1      40.994  22.145  26.466  1.00  0.00     0.163 HD
ATOM     27  O   UNL A   1      42.342  24.077  27.016  1.00  0.00    -0.269 OA
BRANCH  25  28
ATOM     28  C   UNL A   1      40.384  25.361  27.145  1.00  0.00     0.039 A 
ATOM     29  C   UNL A   1      40.676  26.495  26.376  1.00  0.00     0.014 A 
ATOM     30  C   UNL A   1      39.592  25.475  28.281  1.00  0.00     0.014 A 
ATOM     31  C   UNL A   1      40.413  27.759  26.898  1.00  0.00     0.010 A 
ATOM     32  C   UNL A   1      39.430  26.720  28.851  1.00  0.00     0.010 A 
ATOM     33  C   UNL A   1      39.911  27.857  28.192  1.00  0.00    -0.014 A 
BRANCH  33  34
ATOM     34  C   UNL A   1      39.965  29.076  28.991  1.00  0.00     0.031 A 
ATOM     35  C   UNL A   1      38.913  30.104  28.867  1.00  0.00     0.074 A 
ATOM     36  C   UNL A   1      40.910  29.194  29.949  1.00  0.00     0.049 A 
ATOM     37  N   UNL A   1      39.022  31.311  29.309  1.00  0.00    -0.248 NA
ATOM     38  C   UNL A   1      37.646  29.853  28.195  1.00  0.00     0.031 C 
ATOM     39  C   UNL A   1      40.951  30.157  31.047  1.00  0.00     0.029 A 
ATOM     40  N   UNL A   1      42.169  28.578  29.985  1.00  0.00    -0.354 N 
ATOM     41  C   UNL A   1      37.784  31.905  29.234  1.00  0.00     0.074 A 
ATOM     42  C   UNL A   1      36.974  30.970  28.487  1.00  0.00     0.031 C 
ATOM     43  C   UNL A   1      42.222  30.301  31.447  1.00  0.00     0.029 A 
ATOM     44  C   UNL A   1      43.052  29.543  30.528  1.00  0.00     0.049 A 
ATOM     45  H   UNL A   1      42.393  27.665  29.694  1.00  0.00     0.167 HD
ATOM     46  C   UNL A   1      37.568  33.070  29.913  1.00  0.00     0.037 A 
ATOM     47  C   UNL A   1      44.064  30.059  29.771  1.00  0.00     0.037 A 
ATOM     48  C   UNL A   1      38.807  33.581  30.503  1.00  0.00     0.049 A 
ATOM     49  C   UNL A   1      43.964  31.548  29.508  1.00  0.00     0.074 A 
ATOM     50  C   UNL A   1      39.370  33.563  31.769  1.00  0.00     0.029 A 
ATOM     51  N   UNL A   1      39.814  33.990  29.649  1.00  0.00    -0.354 N 
ATOM     52  N   UNL A   1      42.983  32.305  29.918  1.00  0.00    -0.248 NA
ATOM     53  C   UNL A   1      44.922  32.288  28.683  1.00  0.00     0.031 C 
ATOM     54  C   UNL A   1      40.740  33.943  31.652  1.00  0.00     0.029 A 
ATOM     55  C   UNL A   1      41.002  34.193  30.318  1.00  0.00     0.049 A 
ATOM     56  H   UNL A   1      39.697  34.120  28.680  1.00  0.00     0.167 HD
ATOM     57  C   UNL A   1      43.119  33.557  29.382  1.00  0.00     0.074 A 
ATOM     58  C   UNL A   1      44.357  33.507  28.630  1.00  0.00     0.031 C 
ATOM     59  C   UNL A   1      42.185  34.535  29.548  1.00  0.00     0.037 A 
BRANCH  46  60
ATOM     60  C   UNL A   1      36.202  33.639  30.220  1.00  0.00     0.057 A 
ATOM     61  C   UNL A   1      35.376  34.124  29.186  1.00  0.00     0.134 A 
ATOM     62  C   UNL A   1      35.653  33.783  31.506  1.00  0.00     0.134 A 
ATOM     63  F   UNL A   1      35.697  33.970  27.895  1.00  0.00    -0.206 F 
ATOM     64  C   UNL A   1      34.170  34.798  29.421  1.00  0.00     0.040 A 
ATOM     65  C   UNL A   1      34.477  34.505  31.762  1.00  0.00     0.040 A 
ATOM     66  F   UNL A   1      36.185  33.175  32.571  1.00  0.00    -0.206 F 
ATOM     67  C   UNL A   1      33.736  35.029  30.716  1.00  0.00     0.006 A 
ENDBRANCH  46  60
BRANCH  47  68
ATOM     68  C   UNL A   1      44.640  29.053  28.840  1.00  0.00     0.057 A 
ATOM     69  C   UNL A   1      44.229  29.076  27.495  1.00  0.00     0.134 A 
ATOM     70  C   UNL A   1      45.825  28.375  29.132  1.00  0.00     0.134 A 
ATOM     71  F   UNL A   1      43.098  29.712  27.147  1.00  0.00    -0.206 F 
ATOM     72  C   UNL A   1      45.024  28.560  26.471  1.00  0.00     0.040 A 
ATOM     73  C   UNL A   1      46.623  27.839  28.115  1.00  0.00     0.040 A 
ATOM     74  F   UNL A   1      46.295  28.328  30.387  1.00  0.00    -0.206 F 
ATOM     75  C   UNL A   1      46.246  27.970  26.778  1.00  0.00     0.006 A 
ENDBRANCH  47  68
BRANCH  59  76
ATOM     76  C   UNL A   1      42.320  35.913  28.976  1.00  0.00     0.057 A 
ATOM     77  C   UNL A   1      41.752  36.268  27.746  1.00  0.00     0.134 A 
ATOM     78  C   UNL A   1      43.151  36.879  29.576  1.00  0.00     0.134 A 
ATOM     79  F   UNL A   1      40.967  35.410  27.078  1.00  0.00    -0.206 F 
ATOM     80  C   UNL A   1      41.993  37.512  27.151  1.00  0.00     0.040 A 
ATOM     81  C   UNL A   1      43.436  38.104  28.970  1.00  0.00     0.040 A 
ATOM     82  F   UNL A   1      43.705  36.674  30.780  1.00  0.00    -0.206 F 
ATOM     83  C   UNL A   1      42.853  38.426  27.754  1.00  0.00     0.006 A 
ENDBRANCH  59  76
ENDBRANCH  33  34
ENDBRANCH  25  28
ENDBRANCH  23  24
ENDBRANCH  22  23
ENDBRANCH   1  22
TORSDOF 14
ENDMDL
MODEL 3
REMARK VINA RESULT:     -11.9      3.721      9.419
REMARK SMILES Cc1cccc(-c2cc(C(=O)NCCCCCCNC(=O)c3ccc(-c4c5nc(c(-c6c(F)cccc6F)c6ccc([nH]6)c(-c6c(F)cccc6F)c6nc(c(-c7c(F)cccc7F)c7ccc4[nH]7)C=C6)C=C5)cc3)ccn2)c1
REMARK SMILES IDX 16 1 15 2 14 3 13 4 12 5 10 6 11 7 9 9 7 10 8 11 78 12 77 13
REMARK SMILES IDX 76 14 6 15 1 16 2 17 3 18 79 19 4 20 5 21 17 22 18 23 19 24
REMARK SMILES IDX 20 25 21 27 22 28 23 29 75 30 24 31 74 32 25 33 26 34 27 35
REMARK SMILES IDX 68 36 28 37 73 38 67 39 69 40 29 41 72 42 66 43 65 44 30 46
REMARK SMILES IDX 56 47 39 48 55 49 40 50 43 51 54 52 70 53 41 54 42 55 53 57
REMARK SMILES IDX 71 58 44 59 31 60 32 61 37 62 33 63 34 64 36 65 38 66 35 67
REMARK SMILES IDX 57 68 58 69 63 70 59 71 60 72 62 73 64 74 61 75 45 76 46 77
REMARK SMILES IDX 51 78 47 79 48 80 50 81 52 82 49 83
REMARK H PARENT 12 8 19 26 69 45 43 56
REMARK Flexibility Score: inf
ROOT
ATOM      1  C   UNL A   1      33.422  29.376  26.311  1.00  0.00     0.002 C 
ENDROOT
BRANCH   1   2
ATOM      2  C   UNL A   1      33.178  27.864  26.474  1.00  0.00     0.002 C 
BRANCH   2   3
ATOM      3  C   UNL A   1      31.816  27.452  27.055  1.00  0.00     0.021 C 
BRANCH   3   4
ATOM      4  C   UNL A   1      30.964  26.593  26.115  1.00  0.00     0.116 C 
BRANCH   4   5
ATOM      5  N   UNL A   1      31.128  27.015  24.736  1.00  0.00    -0.352 N 
ATOM      6  C   UNL A   1      31.661  26.419  23.622  1.00  0.00     0.251 C 
ATOM      7  O   UNL A   1      31.591  27.039  22.560  1.00  0.00    -0.269 OA
ATOM      8  H   UNL A   1      30.782  27.921  24.564  1.00  0.00     0.163 HD
BRANCH   6   9
ATOM      9  C   UNL A   1      32.263  25.058  23.611  1.00  0.00     0.043 A 
ATOM     10  C   UNL A   1      34.013  23.460  23.976  1.00  0.00     0.071 A 
ATOM     11  C   UNL A   1      33.597  24.787  23.885  1.00  0.00     0.042 A 
ATOM     12  N   UNL A   1      33.204  22.418  23.680  1.00  0.00    -0.256 NA
ATOM     13  C   UNL A   1      31.934  22.705  23.326  1.00  0.00     0.112 A 
ATOM     14  C   UNL A   1      31.420  23.988  23.298  1.00  0.00     0.034 A 
BRANCH  10  15
ATOM     15  C   UNL A   1      35.330  23.132  24.526  1.00  0.00     0.000 A 
ATOM     16  C   UNL A   1      37.573  20.046  24.816  1.00  0.00     0.044 C 
ATOM     17  C   UNL A   1      37.059  21.448  24.956  1.00  0.00    -0.050 A 
ATOM     18  C   UNL A   1      37.808  22.412  25.638  1.00  0.00     0.003 A 
ATOM     19  C   UNL A   1      35.826  21.819  24.406  1.00  0.00     0.013 A 
ATOM     20  C   UNL A   1      37.340  23.722  25.750  1.00  0.00     0.001 A 
ATOM     21  C   UNL A   1      36.112  24.083  25.191  1.00  0.00     0.010 A 
ENDBRANCH  10  15
ENDBRANCH   6   9
ENDBRANCH   4   5
ENDBRANCH   3   4
ENDBRANCH   2   3
ENDBRANCH   1   2
BRANCH   1  22
ATOM     22  C   UNL A   1      33.829  30.127  27.581  1.00  0.00     0.021 C 
BRANCH  22  23
ATOM     23  C   UNL A   1      34.923  31.164  27.361  1.00  0.00     0.116 C 
BRANCH  23  24
ATOM     24  N   UNL A   1      35.443  31.747  28.592  1.00  0.00    -0.352 N 
ATOM     25  C   UNL A   1      36.345  31.232  29.512  1.00  0.00     0.251 C 
ATOM     26  H   UNL A   1      35.100  32.645  28.804  1.00  0.00     0.163 HD
ATOM     27  O   UNL A   1      36.624  31.864  30.513  1.00  0.00    -0.269 OA
BRANCH  25  28
ATOM     28  C   UNL A   1      37.079  29.979  29.194  1.00  0.00     0.039 A 
ATOM     29  C   UNL A   1      37.228  29.037  30.220  1.00  0.00     0.014 A 
ATOM     30  C   UNL A   1      37.790  29.836  28.009  1.00  0.00     0.014 A 
ATOM     31  C   UNL A   1      38.283  28.129  30.165  1.00  0.00     0.010 A 
ATOM     32  C   UNL A   1      38.899  29.017  27.999  1.00  0.00     0.010 A 
ATOM     33  C   UNL A   1      39.188  28.219  29.111  1.00  0.00    -0.014 A 
BRANCH  33  34
ATOM     34  C   UNL A   1      40.519  27.623  29.135  1.00  0.00     0.031 A 
ATOM     35  C   UNL A   1      40.718  26.212  28.752  1.00  0.00     0.074 A 
ATOM     36  C   UNL A   1      41.589  28.413  29.375  1.00  0.00     0.049 A 
ATOM     37  N   UNL A   1      41.785  25.535  29.007  1.00  0.00    -0.248 NA
ATOM     38  C   UNL A   1      39.697  25.435  28.064  1.00  0.00     0.031 C 
ATOM     39  C   UNL A   1      42.996  28.101  29.137  1.00  0.00     0.029 A 
ATOM     40  N   UNL A   1      41.620  29.608  30.106  1.00  0.00    -0.354 N 
ATOM     41  C   UNL A   1      41.718  24.353  28.306  1.00  0.00     0.074 A 
ATOM     42  C   UNL A   1      40.375  24.320  27.774  1.00  0.00     0.031 C 
ATOM     43  C   UNL A   1      43.749  28.867  29.940  1.00  0.00     0.029 A 
ATOM     44  C   UNL A   1      42.846  29.591  30.816  1.00  0.00     0.049 A 
ATOM     45  H   UNL A   1      40.934  30.314  30.123  1.00  0.00     0.167 HD
ATOM     46  C   UNL A   1      42.849  23.600  28.170  1.00  0.00     0.037 A 
ATOM     47  C   UNL A   1      42.855  29.534  32.180  1.00  0.00     0.037 A 
ATOM     48  C   UNL A   1      43.950  24.141  28.970  1.00  0.00     0.049 A 
ATOM     49  C   UNL A   1      43.488  28.284  32.758  1.00  0.00     0.074 A 
ATOM     50  C   UNL A   1      45.067  24.916  28.703  1.00  0.00     0.029 A 
ATOM     51  N   UNL A   1      43.822  24.126  30.347  1.00  0.00    -0.354 N 
ATOM     52  N   UNL A   1      43.958  27.299  32.044  1.00  0.00    -0.248 NA
ATOM     53  C   UNL A   1      43.560  28.006  34.194  1.00  0.00     0.031 C 
ATOM     54  C   UNL A   1      45.589  25.386  29.944  1.00  0.00     0.029 A 
ATOM     55  C   UNL A   1      44.790  24.893  30.959  1.00  0.00     0.049 A 
ATOM     56  H   UNL A   1      43.123  23.630  30.830  1.00  0.00     0.167 HD
ATOM     57  C   UNL A   1      44.312  26.266  32.869  1.00  0.00     0.074 A 
ATOM     58  C   UNL A   1      44.063  26.760  34.209  1.00  0.00     0.031 C 
ATOM     59  C   UNL A   1      44.737  25.059  32.401  1.00  0.00     0.037 A 
BRANCH  46  60
ATOM     60  C   UNL A   1      43.022  22.495  27.154  1.00  0.00     0.057 A 
ATOM     61  C   UNL A   1      42.276  21.303  27.253  1.00  0.00     0.134 A 
ATOM     62  C   UNL A   1      43.931  22.514  26.081  1.00  0.00     0.134 A 
ATOM     63  F   UNL A   1      41.293  21.159  28.151  1.00  0.00    -0.206 F 
ATOM     64  C   UNL A   1      42.501  20.188  26.435  1.00  0.00     0.040 A 
ATOM     65  C   UNL A   1      44.208  21.387  25.291  1.00  0.00     0.040 A 
ATOM     66  F   UNL A   1      44.545  23.638  25.698  1.00  0.00    -0.206 F 
ATOM     67  C   UNL A   1      43.500  20.212  25.475  1.00  0.00     0.006 A 
ENDBRANCH  46  60
BRANCH  47  68
ATOM     68  C   UNL A   1      41.727  30.291  32.783  1.00  0.00     0.057 A 
ATOM     69  C   UNL A   1      40.594  29.574  33.209  1.00  0.00     0.134 A 
ATOM     70  C   UNL A   1      41.897  31.578  33.298  1.00  0.00     0.134 A 
ATOM     71  F   UNL A   1      40.373  28.330  32.752  1.00  0.00    -0.206 F 
ATOM     72  C   UNL A   1      39.741  30.062  34.199  1.00  0.00     0.040 A 
ATOM     73  C   UNL A   1      41.037  32.085  34.279  1.00  0.00     0.040 A 
ATOM     74  F   UNL A   1      42.964  32.316  32.957  1.00  0.00    -0.206 F 
ATOM     75  C   UNL A   1      39.984  31.310  34.764  1.00  0.00     0.006 A 
ENDBRANCH  47  68
BRANCH  59  76
ATOM     76  C   UNL A   1      45.137  23.921  33.289  1.00  0.00     0.057 A 
ATOM     77  C   UNL A   1      44.235  22.918  33.664  1.00  0.00     0.134 A 
ATOM     78  C   UNL A   1      46.399  23.884  33.913  1.00  0.00     0.134 A 
ATOM     79  F   UNL A   1      42.996  22.879  33.151  1.00  0.00    -0.206 F 
ATOM     80  C   UNL A   1      44.571  21.933  34.600  1.00  0.00     0.040 A 
ATOM     81  C   UNL A   1      46.729  22.935  34.881  1.00  0.00     0.040 A 
ATOM     82  F   UNL A   1      47.363  24.759  33.592  1.00  0.00    -0.206 F 
ATOM     83  C   UNL A   1      45.814  21.951  35.227  1.00  0.00     0.006 A 
ENDBRANCH  59  76
ENDBRANCH  33  34
ENDBRANCH  25  28
ENDBRANCH  23  24
ENDBRANCH  22  23
ENDBRANCH   1  22
TORSDOF 14
ENDMDL
