MODEL 1
REMARK VINA RESULT:     -10.8      0.000      0.000
REMARK SMILES O=C(Cc1ccc(S(=O)(=O)CC(=O)NCC2CC2)cc1)NCCCCCCNC(=O)c1ccc(-c2c3nc(c(-c4c(F)cccc4F)c4ccc([nH]4)c(-c4c(F)cccc4F)c4nc(c(-c5c(F)cccc5F)c5ccc2[nH]5)C=C4)C=C3)cc1
REMARK SMILES IDX 22 1 21 2 1 3 2 4 3 6 4 7 5 8 20 9 6 10 19 11 7 12 8 13 9 14
REMARK SMILES IDX 10 15 11 16 12 17 13 18 14 19 15 21 16 22 17 23 18 24 23 25
REMARK SMILES IDX 24 26 25 27 26 28 27 29 28 30 29 31 30 33 31 34 32 35 84 36
REMARK SMILES IDX 33 37 83 38 34 39 35 40 36 41 77 42 37 43 82 44 76 45 78 46
REMARK SMILES IDX 38 47 81 48 75 49 74 50 39 52 65 53 48 54 64 55 49 56 52 57
REMARK SMILES IDX 63 58 79 59 50 60 51 61 62 63 80 64 53 65 40 66 41 67 46 68
REMARK SMILES IDX 42 69 43 70 45 71 47 72 44 73 66 74 67 75 72 76 68 77 69 78
REMARK SMILES IDX 71 79 73 80 70 81 54 82 55 83 60 84 56 85 57 86 59 87 61 88
REMARK SMILES IDX 58 89
REMARK H PARENT 21 5 14 20 28 32 78 51 52 62
REMARK Flexibility Score: inf
ROOT
ATOM      1  C   UNL A   1      33.541  31.547  27.441  1.00  0.00     0.116 C 
ENDROOT
BRANCH   1   2
ATOM      2  N   UNL A   1      33.658  30.439  26.518  1.00  0.00    -0.356 N 
ATOM      3  O   UNL A   1      31.474  30.475  25.804  1.00  0.00    -0.275 OA
ATOM      4  C   UNL A   1      32.607  30.010  25.734  1.00  0.00     0.224 C 
ATOM      5  H   UNL A   1      34.522  29.972  26.447  1.00  0.00     0.163 HD
BRANCH   4   6
ATOM      6  C   UNL A   1      32.992  28.913  24.755  1.00  0.00     0.135 C 
BRANCH   6   7
ATOM      7  C   UNL A   1      32.660  27.506  25.213  1.00  0.00    -0.039 A 
ATOM      8  C   UNL A   1      31.346  27.017  25.252  1.00  0.00     0.005 A 
ATOM      9  C   UNL A   1      33.708  26.638  25.559  1.00  0.00     0.005 A 
ATOM     10  C   UNL A   1      31.086  25.704  25.649  1.00  0.00     0.020 A 
ATOM     11  C   UNL A   1      33.451  25.331  25.985  1.00  0.00     0.020 A 
ATOM     12  C   UNL A   1      32.139  24.864  26.017  1.00  0.00     0.067 A 
BRANCH  12  13
ATOM     13  S   UNL A   1      31.747  23.233  26.597  1.00  0.00     0.187 S 
ATOM     14  O   UNL A   1      32.957  22.742  27.232  1.00  0.00    -0.223 OA
ATOM     15  O   UNL A   1      30.531  23.352  27.385  1.00  0.00    -0.223 OA
BRANCH  13  16
ATOM     16  C   UNL A   1      31.384  22.156  25.261  1.00  0.00     0.241 C 
BRANCH  16  17
ATOM     17  C   UNL A   1      32.404  21.093  25.032  1.00  0.00     0.235 C 
ATOM     18  O   UNL A   1      32.212  19.944  25.439  1.00  0.00    -0.274 OA
ATOM     19  N   UNL A   1      33.526  21.315  24.305  1.00  0.00    -0.355 N 
ATOM     20  H   UNL A   1      34.100  20.523  24.192  1.00  0.00     0.163 HD
BRANCH  19  21
ATOM     21  C   UNL A   1      34.025  22.515  23.668  1.00  0.00     0.119 C 
BRANCH  21  22
ATOM     22  C   UNL A   1      35.373  22.830  24.238  1.00  0.00     0.008 C 
ATOM     23  C   UNL A   1      36.447  21.773  24.281  1.00  0.00     0.006 C 
ATOM     24  C   UNL A   1      36.586  22.943  23.350  1.00  0.00     0.006 C 
ENDBRANCH  21  22
ENDBRANCH  19  21
ENDBRANCH  16  17
ENDBRANCH  13  16
ENDBRANCH  12  13
ENDBRANCH   6   7
ENDBRANCH   4   6
ENDBRANCH   1   2
BRANCH   1  25
ATOM     25  C   UNL A   1      34.692  31.574  28.445  1.00  0.00     0.021 C 
BRANCH  25  26
ATOM     26  C   UNL A   1      34.569  32.633  29.550  1.00  0.00     0.002 C 
BRANCH  26  27
ATOM     27  C   UNL A   1      34.738  34.085  29.096  1.00  0.00     0.002 C 
BRANCH  27  28
ATOM     28  C   UNL A   1      33.446  34.902  29.023  1.00  0.00     0.021 C 
BRANCH  28  29
ATOM     29  C   UNL A   1      33.476  36.235  29.765  1.00  0.00     0.116 C 
BRANCH  29  30
ATOM     30  N   UNL A   1      32.483  36.319  30.823  1.00  0.00    -0.352 N 
ATOM     31  C   UNL A   1      32.509  35.763  32.080  1.00  0.00     0.251 C 
ATOM     32  H   UNL A   1      31.681  36.848  30.610  1.00  0.00     0.163 HD
ATOM     33  O   UNL A   1      31.524  35.833  32.807  1.00  0.00    -0.269 OA
BRANCH  31  34
ATOM     34  C   UNL A   1      33.719  35.048  32.543  1.00  0.00     0.039 A 
ATOM     35  C   UNL A   1      33.592  33.730  32.991  1.00  0.00     0.014 A 
ATOM     36  C   UNL A   1      34.969  35.671  32.536  1.00  0.00     0.014 A 
ATOM     37  C   UNL A   1      34.730  33.014  33.369  1.00  0.00     0.010 A 
ATOM     38  C   UNL A   1      36.111  34.937  32.853  1.00  0.00     0.010 A 
ATOM     39  C   UNL A   1      36.002  33.602  33.271  1.00  0.00    -0.014 A 
BRANCH  39  40
ATOM     40  C   UNL A   1      37.231  32.838  33.602  1.00  0.00     0.031 A 
ATOM     41  C   UNL A   1      37.988  33.136  34.867  1.00  0.00     0.074 A 
ATOM     42  C   UNL A   1      37.707  31.927  32.732  1.00  0.00     0.049 A 
ATOM     43  N   UNL A   1      39.126  32.644  35.285  1.00  0.00    -0.248 NA
ATOM     44  C   UNL A   1      37.400  34.140  35.766  1.00  0.00     0.031 C 
ATOM     45  C   UNL A   1      37.091  31.576  31.451  1.00  0.00     0.029 A 
ATOM     46  N   UNL A   1      38.830  31.139  32.788  1.00  0.00    -0.354 N 
ATOM     47  C   UNL A   1      39.399  33.289  36.484  1.00  0.00     0.074 A 
ATOM     48  C   UNL A   1      38.330  34.240  36.705  1.00  0.00     0.031 C 
ATOM     49  C   UNL A   1      37.835  30.632  30.850  1.00  0.00     0.029 A 
ATOM     50  C   UNL A   1      38.996  30.338  31.683  1.00  0.00     0.049 A 
ATOM     51  H   UNL A   1      39.457  31.146  33.546  1.00  0.00     0.167 HD
ATOM     52  C   UNL A   1      40.435  33.095  37.335  1.00  0.00     0.037 A 
ATOM     53  C   UNL A   1      39.978  29.470  31.374  1.00  0.00     0.037 A 
ATOM     54  C   UNL A   1      41.480  32.127  37.132  1.00  0.00     0.049 A 
ATOM     55  C   UNL A   1      41.114  29.268  32.338  1.00  0.00     0.074 A 
ATOM     56  C   UNL A   1      42.539  31.814  37.965  1.00  0.00     0.029 A 
ATOM     57  N   UNL A   1      41.597  31.315  36.014  1.00  0.00    -0.354 N 
ATOM     58  N   UNL A   1      41.327  29.843  33.496  1.00  0.00    -0.248 NA
ATOM     59  C   UNL A   1      42.144  28.292  31.952  1.00  0.00     0.031 C 
ATOM     60  C   UNL A   1      43.317  30.835  37.337  1.00  0.00     0.029 A 
ATOM     61  C   UNL A   1      42.720  30.512  36.130  1.00  0.00     0.049 A 
ATOM     62  H   UNL A   1      40.975  31.310  35.251  1.00  0.00     0.167 HD
ATOM     63  C   UNL A   1      42.496  29.280  33.991  1.00  0.00     0.074 A 
ATOM     64  C   UNL A   1      42.942  28.311  33.012  1.00  0.00     0.031 C 
ATOM     65  C   UNL A   1      43.142  29.542  35.153  1.00  0.00     0.037 A 
BRANCH  52  66
ATOM     66  C   UNL A   1      40.483  33.943  38.571  1.00  0.00     0.057 A 
ATOM     67  C   UNL A   1      41.201  35.145  38.612  1.00  0.00     0.134 A 
ATOM     68  C   UNL A   1      39.775  33.573  39.721  1.00  0.00     0.134 A 
ATOM     69  F   UNL A   1      41.910  35.550  37.548  1.00  0.00    -0.206 F 
ATOM     70  C   UNL A   1      41.234  35.936  39.762  1.00  0.00     0.040 A 
ATOM     71  C   UNL A   1      39.779  34.368  40.869  1.00  0.00     0.040 A 
ATOM     72  F   UNL A   1      39.062  32.437  39.747  1.00  0.00    -0.206 F 
ATOM     73  C   UNL A   1      40.516  35.550  40.892  1.00  0.00     0.006 A 
ENDBRANCH  52  66
BRANCH  53  74
ATOM     74  C   UNL A   1      39.922  28.707  30.103  1.00  0.00     0.057 A 
ATOM     75  C   UNL A   1      39.232  27.492  30.024  1.00  0.00     0.134 A 
ATOM     76  C   UNL A   1      40.562  29.164  28.946  1.00  0.00     0.134 A 
ATOM     77  F   UNL A   1      38.616  26.994  31.105  1.00  0.00    -0.206 F 
ATOM     78  C   UNL A   1      39.195  26.748  28.842  1.00  0.00     0.040 A 
ATOM     79  C   UNL A   1      40.514  28.441  27.751  1.00  0.00     0.040 A 
ATOM     80  F   UNL A   1      41.234  30.324  28.956  1.00  0.00    -0.206 F 
ATOM     81  C   UNL A   1      39.834  27.226  27.701  1.00  0.00     0.006 A 
ENDBRANCH  53  74
BRANCH  65  82
ATOM     82  C   UNL A   1      44.376  28.743  35.447  1.00  0.00     0.057 A 
ATOM     83  C   UNL A   1      45.649  29.179  35.060  1.00  0.00     0.134 A 
ATOM     84  C   UNL A   1      44.291  27.542  36.163  1.00  0.00     0.134 A 
ATOM     85  F   UNL A   1      45.795  30.315  34.361  1.00  0.00    -0.206 F 
ATOM     86  C   UNL A   1      46.794  28.439  35.359  1.00  0.00     0.040 A 
ATOM     87  C   UNL A   1      45.431  26.805  36.488  1.00  0.00     0.040 A 
ATOM     88  F   UNL A   1      43.102  27.073  36.569  1.00  0.00    -0.206 F 
ATOM     89  C   UNL A   1      46.687  27.252  36.081  1.00  0.00     0.006 A 
ENDBRANCH  65  82
ENDBRANCH  39  40
ENDBRANCH  31  34
ENDBRANCH  29  30
ENDBRANCH  28  29
ENDBRANCH  27  28
ENDBRANCH  26  27
ENDBRANCH  25  26
ENDBRANCH   1  25
TORSDOF 19
ENDMDL
MODEL 2
REMARK VINA RESULT:     -10.7      4.527      6.393
REMARK SMILES O=C(Cc1ccc(S(=O)(=O)CC(=O)NCC2CC2)cc1)NCCCCCCNC(=O)c1ccc(-c2c3nc(c(-c4c(F)cccc4F)c4ccc([nH]4)c(-c4c(F)cccc4F)c4nc(c(-c5c(F)cccc5F)c5ccc2[nH]5)C=C4)C=C3)cc1
REMARK SMILES IDX 22 1 21 2 1 3 2 4 3 6 4 7 5 8 20 9 6 10 19 11 7 12 8 13 9 14
REMARK SMILES IDX 10 15 11 16 12 17 13 18 14 19 15 21 16 22 17 23 18 24 23 25
REMARK SMILES IDX 24 26 25 27 26 28 27 29 28 30 29 31 30 33 31 34 32 35 84 36
REMARK SMILES IDX 33 37 83 38 34 39 35 40 36 41 77 42 37 43 82 44 76 45 78 46
REMARK SMILES IDX 38 47 81 48 75 49 74 50 39 52 65 53 48 54 64 55 49 56 52 57
REMARK SMILES IDX 63 58 79 59 50 60 51 61 62 63 80 64 53 65 40 66 41 67 46 68
REMARK SMILES IDX 42 69 43 70 45 71 47 72 44 73 66 74 67 75 72 76 68 77 69 78
REMARK SMILES IDX 71 79 73 80 70 81 54 82 55 83 60 84 56 85 57 86 59 87 61 88
REMARK SMILES IDX 58 89
REMARK H PARENT 21 5 14 20 28 32 78 51 52 62
REMARK Flexibility Score: inf
ROOT
ATOM      1  C   UNL A   1      30.872  29.026  22.366  1.00  0.00     0.116 C 
ENDROOT
BRANCH   1   2
ATOM      2  N   UNL A   1      31.748  27.890  22.173  1.00  0.00    -0.356 N 
ATOM      3  O   UNL A   1      33.702  28.991  22.676  1.00  0.00    -0.275 OA
ATOM      4  C   UNL A   1      33.110  27.957  22.384  1.00  0.00     0.224 C 
ATOM      5  H   UNL A   1      31.357  27.036  21.879  1.00  0.00     0.163 HD
BRANCH   4   6
ATOM      6  C   UNL A   1      33.810  26.616  22.236  1.00  0.00     0.135 C 
BRANCH   6   7
ATOM      7  C   UNL A   1      33.386  25.563  23.240  1.00  0.00    -0.039 A 
ATOM      8  C   UNL A   1      32.507  24.520  22.914  1.00  0.00     0.005 A 
ATOM      9  C   UNL A   1      33.934  25.596  24.533  1.00  0.00     0.005 A 
ATOM     10  C   UNL A   1      32.166  23.552  23.861  1.00  0.00     0.020 A 
ATOM     11  C   UNL A   1      33.575  24.644  25.494  1.00  0.00     0.020 A 
ATOM     12  C   UNL A   1      32.700  23.617  25.150  1.00  0.00     0.067 A 
BRANCH  12  13
ATOM     13  S   UNL A   1      32.168  22.412  26.339  1.00  0.00     0.187 S 
ATOM     14  O   UNL A   1      32.201  23.088  27.623  1.00  0.00    -0.223 OA
ATOM     15  O   UNL A   1      30.907  21.875  25.852  1.00  0.00    -0.223 OA
BRANCH  13  16
ATOM     16  C   UNL A   1      33.293  21.069  26.426  1.00  0.00     0.241 C 
BRANCH  16  17
ATOM     17  C   UNL A   1      33.787  20.592  25.102  1.00  0.00     0.235 C 
ATOM     18  O   UNL A   1      32.997  20.151  24.261  1.00  0.00    -0.274 OA
ATOM     19  N   UNL A   1      35.087  20.700  24.736  1.00  0.00    -0.355 N 
ATOM     20  H   UNL A   1      35.280  20.388  23.822  1.00  0.00     0.163 HD
BRANCH  19  21
ATOM     21  C   UNL A   1      36.240  21.196  25.457  1.00  0.00     0.119 C 
BRANCH  21  22
ATOM     22  C   UNL A   1      37.054  22.042  24.527  1.00  0.00     0.008 C 
ATOM     23  C   UNL A   1      36.396  22.748  23.369  1.00  0.00     0.006 C 
ATOM     24  C   UNL A   1      36.923  23.544  24.528  1.00  0.00     0.006 C 
ENDBRANCH  21  22
ENDBRANCH  19  21
ENDBRANCH  16  17
ENDBRANCH  13  16
ENDBRANCH  12  13
ENDBRANCH   6   7
ENDBRANCH   4   6
ENDBRANCH   1   2
BRANCH   1  25
ATOM     25  C   UNL A   1      30.140  28.958  23.704  1.00  0.00     0.021 C 
BRANCH  25  26
ATOM     26  C   UNL A   1      30.816  28.092  24.776  1.00  0.00     0.002 C 
BRANCH  26  27
ATOM     27  C   UNL A   1      31.708  28.844  25.767  1.00  0.00     0.002 C 
BRANCH  27  28
ATOM     28  C   UNL A   1      32.490  27.961  26.743  1.00  0.00     0.021 C 
BRANCH  28  29
ATOM     29  C   UNL A   1      33.840  28.516  27.186  1.00  0.00     0.116 C 
BRANCH  29  30
ATOM     30  N   UNL A   1      33.764  29.894  27.645  1.00  0.00    -0.352 N 
ATOM     31  C   UNL A   1      34.723  30.649  28.277  1.00  0.00     0.251 C 
ATOM     32  H   UNL A   1      32.908  30.349  27.478  1.00  0.00     0.163 HD
ATOM     33  O   UNL A   1      34.448  31.764  28.707  1.00  0.00    -0.269 OA
BRANCH  31  34
ATOM     34  C   UNL A   1      36.084  30.100  28.469  1.00  0.00     0.039 A 
ATOM     35  C   UNL A   1      36.990  30.160  27.406  1.00  0.00     0.014 A 
ATOM     36  C   UNL A   1      36.465  29.532  29.687  1.00  0.00     0.014 A 
ATOM     37  C   UNL A   1      38.300  29.709  27.586  1.00  0.00     0.010 A 
ATOM     38  C   UNL A   1      37.788  29.141  29.885  1.00  0.00     0.010 A 
ATOM     39  C   UNL A   1      38.718  29.227  28.837  1.00  0.00    -0.014 A 
BRANCH  39  40
ATOM     40  C   UNL A   1      40.123  28.807  29.071  1.00  0.00     0.031 A 
ATOM     41  C   UNL A   1      41.101  29.760  29.699  1.00  0.00     0.074 A 
ATOM     42  C   UNL A   1      40.536  27.595  28.654  1.00  0.00     0.049 A 
ATOM     43  N   UNL A   1      42.386  29.613  29.902  1.00  0.00    -0.248 NA
ATOM     44  C   UNL A   1      40.570  31.061  30.132  1.00  0.00     0.031 C 
ATOM     45  C   UNL A   1      39.697  26.594  27.993  1.00  0.00     0.029 A 
ATOM     46  N   UNL A   1      41.774  27.004  28.712  1.00  0.00    -0.354 N 
ATOM     47  C   UNL A   1      42.818  30.805  30.467  1.00  0.00     0.074 A 
ATOM     48  C   UNL A   1      41.668  31.682  30.535  1.00  0.00     0.031 C 
ATOM     49  C   UNL A   1      40.441  25.509  27.720  1.00  0.00     0.029 A 
ATOM     50  C   UNL A   1      41.813  25.749  28.154  1.00  0.00     0.049 A 
ATOM     51  H   UNL A   1      42.561  27.438  29.115  1.00  0.00     0.167 HD
ATOM     52  C   UNL A   1      44.056  31.134  30.908  1.00  0.00     0.037 A 
ATOM     53  C   UNL A   1      42.840  24.892  28.003  1.00  0.00     0.037 A 
ATOM     54  C   UNL A   1      45.191  30.251  30.870  1.00  0.00     0.049 A 
ATOM     55  C   UNL A   1      44.204  25.278  28.506  1.00  0.00     0.074 A 
ATOM     56  C   UNL A   1      46.471  30.471  31.348  1.00  0.00     0.029 A 
ATOM     57  N   UNL A   1      45.182  28.977  30.323  1.00  0.00    -0.354 N 
ATOM     58  N   UNL A   1      44.584  26.387  29.092  1.00  0.00    -0.248 NA
ATOM     59  C   UNL A   1      45.279  24.292  28.330  1.00  0.00     0.031 C 
ATOM     60  C   UNL A   1      47.247  29.343  31.060  1.00  0.00     0.029 A 
ATOM     61  C   UNL A   1      46.439  28.405  30.438  1.00  0.00     0.049 A 
ATOM     62  H   UNL A   1      44.399  28.543  29.914  1.00  0.00     0.167 HD
ATOM     63  C   UNL A   1      45.932  26.221  29.382  1.00  0.00     0.074 A 
ATOM     64  C   UNL A   1      46.302  24.901  28.915  1.00  0.00     0.031 C 
ATOM     65  C   UNL A   1      46.787  27.085  29.981  1.00  0.00     0.037 A 
BRANCH  52  66
ATOM     66  C   UNL A   1      44.243  32.508  31.479  1.00  0.00     0.057 A 
ATOM     67  C   UNL A   1      44.594  33.599  30.673  1.00  0.00     0.134 A 
ATOM     68  C   UNL A   1      44.037  32.751  32.842  1.00  0.00     0.134 A 
ATOM     69  F   UNL A   1      44.818  33.431  29.361  1.00  0.00    -0.206 F 
ATOM     70  C   UNL A   1      44.758  34.879  31.208  1.00  0.00     0.040 A 
ATOM     71  C   UNL A   1      44.173  34.030  33.385  1.00  0.00     0.040 A 
ATOM     72  F   UNL A   1      43.694  31.752  33.669  1.00  0.00    -0.206 F 
ATOM     73  C   UNL A   1      44.541  35.097  32.566  1.00  0.00     0.006 A 
ENDBRANCH  52  66
BRANCH  53  74
ATOM     74  C   UNL A   1      42.618  23.571  27.365  1.00  0.00     0.057 A 
ATOM     75  C   UNL A   1      42.246  22.458  28.128  1.00  0.00     0.134 A 
ATOM     76  C   UNL A   1      42.782  23.386  25.988  1.00  0.00     0.134 A 
ATOM     77  F   UNL A   1      42.093  22.569  29.455  1.00  0.00    -0.206 F 
ATOM     78  C   UNL A   1      42.062  21.202  27.546  1.00  0.00     0.040 A 
ATOM     79  C   UNL A   1      42.579  22.140  25.390  1.00  0.00     0.040 A 
ATOM     80  F   UNL A   1      43.132  24.415  25.203  1.00  0.00    -0.206 F 
ATOM     81  C   UNL A   1      42.224  21.043  26.172  1.00  0.00     0.006 A 
ENDBRANCH  53  74
BRANCH  65  82
ATOM     82  C   UNL A   1      48.194  26.616  30.201  1.00  0.00     0.057 A 
ATOM     83  C   UNL A   1      48.568  25.915  31.354  1.00  0.00     0.134 A 
ATOM     84  C   UNL A   1      49.176  26.833  29.226  1.00  0.00     0.134 A 
ATOM     85  F   UNL A   1      47.676  25.687  32.330  1.00  0.00    -0.206 F 
ATOM     86  C   UNL A   1      49.875  25.462  31.539  1.00  0.00     0.040 A 
ATOM     87  C   UNL A   1      50.481  26.365  29.389  1.00  0.00     0.040 A 
ATOM     88  F   UNL A   1      48.880  27.490  28.095  1.00  0.00    -0.206 F 
ATOM     89  C   UNL A   1      50.833  25.681  30.551  1.00  0.00     0.006 A 
ENDBRANCH  65  82
ENDBRANCH  39  40
ENDBRANCH  31  34
ENDBRANCH  29  30
ENDBRANCH  28  29
ENDBRANCH  27  28
ENDBRANCH  26  27
ENDBRANCH  25  26
ENDBRANCH   1  25
TORSDOF 19
ENDMDL
MODEL 3
REMARK VINA RESULT:     -10.6      6.709     12.215
REMARK SMILES O=C(Cc1ccc(S(=O)(=O)CC(=O)NCC2CC2)cc1)NCCCCCCNC(=O)c1ccc(-c2c3nc(c(-c4c(F)cccc4F)c4ccc([nH]4)c(-c4c(F)cccc4F)c4nc(c(-c5c(F)cccc5F)c5ccc2[nH]5)C=C4)C=C3)cc1
REMARK SMILES IDX 22 1 21 2 1 3 2 4 3 6 4 7 5 8 20 9 6 10 19 11 7 12 8 13 9 14
REMARK SMILES IDX 10 15 11 16 12 17 13 18 14 19 15 21 16 22 17 23 18 24 23 25
REMARK SMILES IDX 24 26 25 27 26 28 27 29 28 30 29 31 30 33 31 34 32 35 84 36
REMARK SMILES IDX 33 37 83 38 34 39 35 40 36 41 77 42 37 43 82 44 76 45 78 46
REMARK SMILES IDX 38 47 81 48 75 49 74 50 39 52 65 53 48 54 64 55 49 56 52 57
REMARK SMILES IDX 63 58 79 59 50 60 51 61 62 63 80 64 53 65 40 66 41 67 46 68
REMARK SMILES IDX 42 69 43 70 45 71 47 72 44 73 66 74 67 75 72 76 68 77 69 78
REMARK SMILES IDX 71 79 73 80 70 81 54 82 55 83 60 84 56 85 57 86 59 87 61 88
REMARK SMILES IDX 58 89
REMARK H PARENT 21 5 14 20 28 32 78 51 52 62
REMARK Flexibility Score: inf
ROOT
ATOM      1  C   UNL A   1      39.827  22.248  26.187  1.00  0.00     0.116 C 
ENDROOT
BRANCH   1   2
ATOM      2  N   UNL A   1      38.400  22.397  26.375  1.00  0.00    -0.356 N 
ATOM      3  O   UNL A   1      37.775  21.196  24.518  1.00  0.00    -0.275 OA
ATOM      4  C   UNL A   1      37.474  21.817  25.532  1.00  0.00     0.224 C 
ATOM      5  H   UNL A   1      38.076  22.933  27.134  1.00  0.00     0.163 HD
BRANCH   4   6
ATOM      6  C   UNL A   1      36.038  22.007  25.990  1.00  0.00     0.135 C 
BRANCH   6   7
ATOM      7  C   UNL A   1      35.222  22.969  25.150  1.00  0.00    -0.039 A 
ATOM      8  C   UNL A   1      35.144  24.340  25.436  1.00  0.00     0.005 A 
ATOM      9  C   UNL A   1      34.563  22.485  24.009  1.00  0.00     0.005 A 
ATOM     10  C   UNL A   1      34.406  25.198  24.618  1.00  0.00     0.020 A 
ATOM     11  C   UNL A   1      33.800  23.335  23.201  1.00  0.00     0.020 A 
ATOM     12  C   UNL A   1      33.734  24.693  23.502  1.00  0.00     0.067 A 
BRANCH  12  13
ATOM     13  S   UNL A   1      32.742  25.811  22.545  1.00  0.00     0.187 S 
ATOM     14  O   UNL A   1      33.628  26.350  21.530  1.00  0.00    -0.223 OA
ATOM     15  O   UNL A   1      31.560  25.070  22.134  1.00  0.00    -0.223 OA
BRANCH  13  16
ATOM     16  C   UNL A   1      32.185  27.157  23.521  1.00  0.00     0.241 C 
BRANCH  16  17
ATOM     17  C   UNL A   1      30.747  27.084  23.908  1.00  0.00     0.235 C 
ATOM     18  O   UNL A   1      29.884  27.635  23.217  1.00  0.00    -0.274 OA
ATOM     19  N   UNL A   1      30.321  26.352  24.965  1.00  0.00    -0.355 N 
ATOM     20  H   UNL A   1      29.344  26.351  25.093  1.00  0.00     0.163 HD
BRANCH  19  21
ATOM     21  C   UNL A   1      31.054  25.571  25.939  1.00  0.00     0.119 C 
BRANCH  21  22
ATOM     22  C   UNL A   1      30.803  24.119  25.669  1.00  0.00     0.008 C 
ATOM     23  C   UNL A   1      31.683  23.067  26.293  1.00  0.00     0.006 C 
ATOM     24  C   UNL A   1      30.257  23.212  26.743  1.00  0.00     0.006 C 
ENDBRANCH  21  22
ENDBRANCH  19  21
ENDBRANCH  16  17
ENDBRANCH  13  16
ENDBRANCH  12  13
ENDBRANCH   6   7
ENDBRANCH   4   6
ENDBRANCH   1   2
BRANCH   1  25
ATOM     25  C   UNL A   1      40.568  22.147  27.518  1.00  0.00     0.021 C 
BRANCH  25  26
ATOM     26  C   UNL A   1      41.892  21.371  27.471  1.00  0.00     0.002 C 
BRANCH  26  27
ATOM     27  C   UNL A   1      41.763  19.849  27.359  1.00  0.00     0.002 C 
BRANCH  27  28
ATOM     28  C   UNL A   1      42.257  19.246  26.041  1.00  0.00     0.021 C 
BRANCH  28  29
ATOM     29  C   UNL A   1      43.600  18.527  26.118  1.00  0.00     0.116 C 
BRANCH  29  30
ATOM     30  N   UNL A   1      44.262  18.421  24.828  1.00  0.00    -0.352 N 
ATOM     31  C   UNL A   1      44.794  19.418  24.044  1.00  0.00     0.251 C 
ATOM     32  H   UNL A   1      44.341  17.510  24.466  1.00  0.00     0.163 HD
ATOM     33  O   UNL A   1      45.210  19.164  22.919  1.00  0.00    -0.269 OA
BRANCH  31  34
ATOM     34  C   UNL A   1      44.834  20.808  24.549  1.00  0.00     0.039 A 
ATOM     35  C   UNL A   1      45.493  21.069  25.754  1.00  0.00     0.014 A 
ATOM     36  C   UNL A   1      44.228  21.848  23.840  1.00  0.00     0.014 A 
ATOM     37  C   UNL A   1      45.601  22.383  26.214  1.00  0.00     0.010 A 
ATOM     38  C   UNL A   1      44.390  23.165  24.267  1.00  0.00     0.010 A 
ATOM     39  C   UNL A   1      45.079  23.445  25.458  1.00  0.00    -0.014 A 
BRANCH  39  40
ATOM     40  C   UNL A   1      45.241  24.855  25.893  1.00  0.00     0.031 A 
ATOM     41  C   UNL A   1      46.592  25.513  25.832  1.00  0.00     0.074 A 
ATOM     42  C   UNL A   1      44.191  25.520  26.410  1.00  0.00     0.049 A 
ATOM     43  N   UNL A   1      46.953  26.700  26.248  1.00  0.00    -0.248 NA
ATOM     44  C   UNL A   1      47.686  24.721  25.249  1.00  0.00     0.031 C 
ATOM     45  C   UNL A   1      42.839  24.981  26.564  1.00  0.00     0.029 A 
ATOM     46  N   UNL A   1      44.101  26.793  26.916  1.00  0.00    -0.354 N 
ATOM     47  C   UNL A   1      48.316  26.790  25.995  1.00  0.00     0.074 A 
ATOM     48  C   UNL A   1      48.726  25.522  25.430  1.00  0.00     0.031 C 
ATOM     49  C   UNL A   1      42.051  25.921  27.113  1.00  0.00     0.029 A 
ATOM     50  C   UNL A   1      42.847  27.114  27.380  1.00  0.00     0.049 A 
ATOM     51  H   UNL A   1      44.861  27.418  26.944  1.00  0.00     0.167 HD
ATOM     52  C   UNL A   1      49.147  27.840  26.197  1.00  0.00     0.037 A 
ATOM     53  C   UNL A   1      42.394  28.240  27.963  1.00  0.00     0.037 A 
ATOM     54  C   UNL A   1      48.734  29.111  26.730  1.00  0.00     0.049 A 
ATOM     55  C   UNL A   1      43.336  29.394  28.171  1.00  0.00     0.074 A 
ATOM     56  C   UNL A   1      49.490  30.255  26.915  1.00  0.00     0.029 A 
ATOM     57  N   UNL A   1      47.450  29.406  27.161  1.00  0.00    -0.354 N 
ATOM     58  N   UNL A   1      44.609  29.485  27.872  1.00  0.00    -0.248 NA
ATOM     59  C   UNL A   1      42.776  30.602  28.793  1.00  0.00     0.031 C 
ATOM     60  C   UNL A   1      48.671  31.233  27.491  1.00  0.00     0.029 A 
ATOM     61  C   UNL A   1      47.396  30.709  27.627  1.00  0.00     0.049 A 
ATOM     62  H   UNL A   1      46.688  28.781  27.140  1.00  0.00     0.167 HD
ATOM     63  C   UNL A   1      44.996  30.767  28.242  1.00  0.00     0.074 A 
ATOM     64  C   UNL A   1      43.820  31.421  28.778  1.00  0.00     0.031 C 
ATOM     65  C   UNL A   1      46.215  31.350  28.145  1.00  0.00     0.037 A 
BRANCH  52  66
ATOM     66  C   UNL A   1      50.590  27.658  25.832  1.00  0.00     0.057 A 
ATOM     67  C   UNL A   1      51.554  27.310  26.787  1.00  0.00     0.134 A 
ATOM     68  C   UNL A   1      51.016  27.798  24.505  1.00  0.00     0.134 A 
ATOM     69  F   UNL A   1      51.214  27.173  28.078  1.00  0.00    -0.206 F 
ATOM     70  C   UNL A   1      52.895  27.133  26.440  1.00  0.00     0.040 A 
ATOM     71  C   UNL A   1      52.349  27.598  24.141  1.00  0.00     0.040 A 
ATOM     72  F   UNL A   1      50.143  28.124  23.540  1.00  0.00    -0.206 F 
ATOM     73  C   UNL A   1      53.294  27.271  25.112  1.00  0.00     0.006 A 
ENDBRANCH  52  66
BRANCH  53  74
ATOM     74  C   UNL A   1      40.972  28.344  28.373  1.00  0.00     0.057 A 
ATOM     75  C   UNL A   1      40.004  28.841  27.493  1.00  0.00     0.134 A 
ATOM     76  C   UNL A   1      40.549  27.962  29.651  1.00  0.00     0.134 A 
ATOM     77  F   UNL A   1      40.354  29.241  26.262  1.00  0.00    -0.206 F 
ATOM     78  C   UNL A   1      38.668  28.972  27.875  1.00  0.00     0.040 A 
ATOM     79  C   UNL A   1      39.212  28.067  30.039  1.00  0.00     0.040 A 
ATOM     80  F   UNL A   1      41.428  27.473  30.538  1.00  0.00    -0.206 F 
ATOM     81  C   UNL A   1      38.268  28.579  29.150  1.00  0.00     0.006 A 
ENDBRANCH  53  74
BRANCH  65  82
ATOM     82  C   UNL A   1      46.330  32.776  28.591  1.00  0.00     0.057 A 
ATOM     83  C   UNL A   1      46.681  33.114  29.904  1.00  0.00     0.134 A 
ATOM     84  C   UNL A   1      46.128  33.824  27.684  1.00  0.00     0.134 A 
ATOM     85  F   UNL A   1      46.875  32.156  30.824  1.00  0.00    -0.206 F 
ATOM     86  C   UNL A   1      46.808  34.445  30.305  1.00  0.00     0.040 A 
ATOM     87  C   UNL A   1      46.275  35.158  28.066  1.00  0.00     0.040 A 
ATOM     88  F   UNL A   1      45.799  33.567  26.410  1.00  0.00    -0.206 F 
ATOM     89  C   UNL A   1      46.612  35.471  29.382  1.00  0.00     0.006 A 
ENDBRANCH  65  82
ENDBRANCH  39  40
ENDBRANCH  31  34
ENDBRANCH  29  30
ENDBRANCH  28  29
ENDBRANCH  27  28
ENDBRANCH  26  27
ENDBRANCH  25  26
ENDBRANCH   1  25
TORSDOF 19
ENDMDL
