MODEL 1
REMARK VINA RESULT:     -10.0      0.000      0.000
REMARK SMILES Cc1ccc(N2C(=O)/C(=C\c3ccccc3O[C@H](C)C(=O)NCCCCCCNC(=O)c3ccc(-c4c5nc(c(-c6c(F)cccc6F)c6ccc([nH]6)c(-c6c(F)cccc6F)c6nc(c(-c7c(F)cccc7F)c7ccc4[nH]7)C=C6)C=C5)cc3)SC2=S)c(C)c1
REMARK SMILES IDX 24 1 23 2 22 3 20 4 21 5 18 7 19 8 17 9 16 10 11 11 12 12
REMARK SMILES IDX 13 13 15 14 14 15 10 16 6 17 7 18 87 19 8 20 9 21 86 22
REMARK SMILES IDX 88 23 5 24 1 25 2 26 3 27 91 28 4 29 89 30 90 31 25 32 26 33
REMARK SMILES IDX 27 34 28 35 29 36 30 37 31 39 32 40 33 41 85 42 34 43 84 44
REMARK SMILES IDX 35 45 36 46 37 47 78 48 38 49 83 50 77 51 79 52 39 53 82 54
REMARK SMILES IDX 76 55 75 56 40 58 66 59 49 60 65 61 50 62 53 63 64 64 80 65
REMARK SMILES IDX 51 66 52 67 63 69 81 70 54 71 41 72 42 73 47 74 43 75 44 76
REMARK SMILES IDX 46 77 48 78 45 79 67 80 68 81 73 82 69 83 70 84 72 85 74 86
REMARK SMILES IDX 71 87 55 88 56 89 61 90 57 91 58 92 60 93 62 94 59 95
REMARK H PARENT 22 6 29 38 79 57 53 68
REMARK Flexibility Score: inf
ROOT
ATOM      1  C   UNL A   1      44.567  23.748  32.354  1.00  0.00     0.021 C 
ENDROOT
BRANCH   1   2
ATOM      2  C   UNL A   1      43.985  23.298  31.018  1.00  0.00     0.116 C 
BRANCH   2   3
ATOM      3  N   UNL A   1      43.894  24.387  30.059  1.00  0.00    -0.353 N 
ATOM      4  C   UNL A   1      43.348  24.392  28.799  1.00  0.00     0.260 C 
ATOM      5  O   UNL A   1      43.330  25.458  28.179  1.00  0.00    -0.271 OA
ATOM      6  H   UNL A   1      44.281  25.243  30.355  1.00  0.00     0.163 HD
BRANCH   4   7
ATOM      7  C   UNL A   1      42.812  23.087  28.180  1.00  0.00     0.258 C 
ATOM      8  C   UNL A   1      41.370  22.894  28.641  1.00  0.00     0.064 C 
BRANCH   7   9
ATOM      9  O   UNL A   1      43.032  23.290  26.788  1.00  0.00    -0.480 OA
BRANCH   9  10
ATOM     10  C   UNL A   1      43.766  22.484  25.978  1.00  0.00     0.127 A 
ATOM     11  C   UNL A   1      44.491  23.169  24.976  1.00  0.00     0.018 A 
ATOM     12  C   UNL A   1      45.164  22.449  23.984  1.00  0.00     0.012 A 
ATOM     13  C   UNL A   1      45.162  21.056  24.013  1.00  0.00     0.001 A 
ATOM     14  C   UNL A   1      43.818  21.096  26.031  1.00  0.00     0.047 A 
ATOM     15  C   UNL A   1      44.509  20.384  25.045  1.00  0.00     0.004 A 
BRANCH  11  16
ATOM     16  C   UNL A   1      44.574  24.641  24.957  1.00  0.00     0.033 C 
ATOM     17  N   UNL A   1      47.111  25.929  27.272  1.00  0.00    -0.261 N 
ATOM     18  C   UNL A   1      46.485  24.863  26.630  1.00  0.00     0.270 C 
ATOM     19  C   UNL A   1      46.696  27.201  26.911  1.00  0.00     0.152 C 
ATOM     20  O   UNL A   1      46.733  23.675  26.790  1.00  0.00    -0.268 OA
ATOM     21  C   UNL A   1      45.430  25.367  25.696  1.00  0.00     0.081 C 
ATOM     22  S   UNL A   1      45.413  27.090  25.705  1.00  0.00    -0.054 SA
ATOM     23  S   UNL A   1      47.295  28.693  27.376  1.00  0.00    -0.051 S 
BRANCH  17  24
ATOM     24  C   UNL A   1      48.079  25.657  28.287  1.00  0.00     0.054 A 
ATOM     25  C   UNL A   1      51.234  25.195  31.213  1.00  0.00     0.044 C 
ATOM     26  C   UNL A   1      50.144  25.325  30.192  1.00  0.00    -0.051 A 
ATOM     27  C   UNL A   1      50.390  25.094  28.839  1.00  0.00     0.005 A 
ATOM     28  C   UNL A   1      48.856  25.703  30.590  1.00  0.00     0.009 A 
ATOM     29  C   UNL A   1      49.371  25.263  27.897  1.00  0.00     0.027 A 
ATOM     30  C   UNL A   1      47.812  25.856  29.658  1.00  0.00    -0.027 A 
ATOM     31  C   UNL A   1      46.458  26.230  30.201  1.00  0.00     0.046 C 
ENDBRANCH  17  24
ENDBRANCH  11  16
ENDBRANCH   9  10
ENDBRANCH   7   9
ENDBRANCH   4   7
ENDBRANCH   2   3
ENDBRANCH   1   2
BRANCH   1  32
ATOM     32  C   UNL A   1      43.994  23.024  33.574  1.00  0.00     0.002 C 
BRANCH  32  33
ATOM     33  C   UNL A   1      44.828  23.129  34.855  1.00  0.00     0.002 C 
BRANCH  33  34
ATOM     34  C   UNL A   1      46.341  22.968  34.677  1.00  0.00     0.021 C 
BRANCH  34  35
ATOM     35  C   UNL A   1      47.143  24.265  34.737  1.00  0.00     0.116 C 
BRANCH  35  36
ATOM     36  N   UNL A   1      47.241  24.793  36.087  1.00  0.00    -0.352 N 
ATOM     37  C   UNL A   1      46.627  25.885  36.646  1.00  0.00     0.251 C 
ATOM     38  H   UNL A   1      47.837  24.293  36.691  1.00  0.00     0.163 HD
ATOM     39  O   UNL A   1      46.962  26.275  37.760  1.00  0.00    -0.269 OA
BRANCH  37  40
ATOM     40  C   UNL A   1      45.572  26.610  35.903  1.00  0.00     0.039 A 
ATOM     41  C   UNL A   1      44.251  26.161  36.004  1.00  0.00     0.014 A 
ATOM     42  C   UNL A   1      45.880  27.702  35.086  1.00  0.00     0.014 A 
ATOM     43  C   UNL A   1      43.235  26.837  35.327  1.00  0.00     0.010 A 
ATOM     44  C   UNL A   1      44.858  28.413  34.463  1.00  0.00     0.010 A 
ATOM     45  C   UNL A   1      43.526  27.983  34.570  1.00  0.00    -0.014 A 
BRANCH  45  46
ATOM     46  C   UNL A   1      42.452  28.735  33.874  1.00  0.00     0.031 A 
ATOM     47  C   UNL A   1      41.676  29.797  34.603  1.00  0.00     0.074 A 
ATOM     48  C   UNL A   1      42.137  28.426  32.601  1.00  0.00     0.049 A 
ATOM     49  N   UNL A   1      40.666  30.517  34.185  1.00  0.00    -0.248 NA
ATOM     50  C   UNL A   1      42.072  30.065  35.995  1.00  0.00     0.031 C 
ATOM     51  C   UNL A   1      42.784  27.387  31.797  1.00  0.00     0.029 A 
ATOM     52  N   UNL A   1      41.184  28.950  31.763  1.00  0.00    -0.354 N 
ATOM     53  C   UNL A   1      40.297  31.310  35.265  1.00  0.00     0.074 A 
ATOM     54  C   UNL A   1      41.159  30.949  36.370  1.00  0.00     0.031 C 
ATOM     55  C   UNL A   1      42.223  27.364  30.577  1.00  0.00     0.029 A 
ATOM     56  C   UNL A   1      41.159  28.362  30.522  1.00  0.00     0.049 A 
ATOM     57  H   UNL A   1      40.578  29.679  32.026  1.00  0.00     0.167 HD
ATOM     58  C   UNL A   1      39.341  32.267  35.324  1.00  0.00     0.037 A 
ATOM     59  C   UNL A   1      40.365  28.599  29.461  1.00  0.00     0.037 A 
ATOM     60  C   UNL A   1      38.505  32.650  34.217  1.00  0.00     0.049 A 
ATOM     61  C   UNL A   1      39.317  29.673  29.549  1.00  0.00     0.074 A 
ATOM     62  C   UNL A   1      37.553  33.652  34.160  1.00  0.00     0.029 A 
ATOM     63  N   UNL A   1      38.525  32.045  32.969  1.00  0.00    -0.354 N 
ATOM     64  N   UNL A   1      39.022  30.458  30.555  1.00  0.00    -0.248 NA
ATOM     65  C   UNL A   1      38.496  29.897  28.351  1.00  0.00     0.031 C 
ATOM     66  C   UNL A   1      36.972  33.631  32.887  1.00  0.00     0.029 A 
ATOM     67  C   UNL A   1      37.590  32.642  32.140  1.00  0.00     0.049 A 
ATOM     68  H   UNL A   1      39.118  31.302  32.711  1.00  0.00     0.167 HD
ATOM     69  C   UNL A   1      38.001  31.285  30.106  1.00  0.00     0.074 A 
ATOM     70  C   UNL A   1      37.735  30.914  28.731  1.00  0.00     0.031 C 
ATOM     71  C   UNL A   1      37.343  32.265  30.773  1.00  0.00     0.037 A 
BRANCH  58  72
ATOM     72  C   UNL A   1      39.152  32.974  36.634  1.00  0.00     0.057 A 
ATOM     73  C   UNL A   1      39.774  34.200  36.906  1.00  0.00     0.134 A 
ATOM     74  C   UNL A   1      38.317  32.440  37.623  1.00  0.00     0.134 A 
ATOM     75  F   UNL A   1      40.596  34.760  36.005  1.00  0.00    -0.206 F 
ATOM     76  C   UNL A   1      39.592  34.856  38.125  1.00  0.00     0.040 A 
ATOM     77  C   UNL A   1      38.107  33.099  38.835  1.00  0.00     0.040 A 
ATOM     78  F   UNL A   1      37.687  31.273  37.425  1.00  0.00    -0.206 F 
ATOM     79  C   UNL A   1      38.752  34.308  39.091  1.00  0.00     0.006 A 
ENDBRANCH  58  72
BRANCH  59  80
ATOM     80  C   UNL A   1      40.549  27.823  28.209  1.00  0.00     0.057 A 
ATOM     81  C   UNL A   1      41.336  28.320  27.164  1.00  0.00     0.134 A 
ATOM     82  C   UNL A   1      39.942  26.575  28.027  1.00  0.00     0.134 A 
ATOM     83  F   UNL A   1      41.927  29.518  27.275  1.00  0.00    -0.206 F 
ATOM     84  C   UNL A   1      41.500  27.611  25.973  1.00  0.00     0.040 A 
ATOM     85  C   UNL A   1      40.116  25.846  26.850  1.00  0.00     0.040 A 
ATOM     86  F   UNL A   1      39.182  26.042  28.995  1.00  0.00    -0.206 F 
ATOM     87  C   UNL A   1      40.893  26.367  25.816  1.00  0.00     0.006 A 
ENDBRANCH  59  80
BRANCH  71  88
ATOM     88  C   UNL A   1      36.294  33.022  30.016  1.00  0.00     0.057 A 
ATOM     89  C   UNL A   1      36.627  33.945  29.017  1.00  0.00     0.134 A 
ATOM     90  C   UNL A   1      34.934  32.793  30.262  1.00  0.00     0.134 A 
ATOM     91  F   UNL A   1      37.911  34.218  28.744  1.00  0.00    -0.206 F 
ATOM     92  C   UNL A   1      35.642  34.628  28.299  1.00  0.00     0.040 A 
ATOM     93  C   UNL A   1      33.942  33.452  29.536  1.00  0.00     0.040 A 
ATOM     94  F   UNL A   1      34.549  31.916  31.200  1.00  0.00    -0.206 F 
ATOM     95  C   UNL A   1      34.295  34.376  28.554  1.00  0.00     0.006 A 
ENDBRANCH  71  88
ENDBRANCH  45  46
ENDBRANCH  37  40
ENDBRANCH  35  36
ENDBRANCH  34  35
ENDBRANCH  33  34
ENDBRANCH  32  33
ENDBRANCH   1  32
TORSDOF 17
ENDMDL
MODEL 2
REMARK VINA RESULT:      -9.9      3.826      8.557
REMARK SMILES Cc1ccc(N2C(=O)/C(=C\c3ccccc3O[C@H](C)C(=O)NCCCCCCNC(=O)c3ccc(-c4c5nc(c(-c6c(F)cccc6F)c6ccc([nH]6)c(-c6c(F)cccc6F)c6nc(c(-c7c(F)cccc7F)c7ccc4[nH]7)C=C6)C=C5)cc3)SC2=S)c(C)c1
REMARK SMILES IDX 24 1 23 2 22 3 20 4 21 5 18 7 19 8 17 9 16 10 11 11 12 12
REMARK SMILES IDX 13 13 15 14 14 15 10 16 6 17 7 18 87 19 8 20 9 21 86 22
REMARK SMILES IDX 88 23 5 24 1 25 2 26 3 27 91 28 4 29 89 30 90 31 25 32 26 33
REMARK SMILES IDX 27 34 28 35 29 36 30 37 31 39 32 40 33 41 85 42 34 43 84 44
REMARK SMILES IDX 35 45 36 46 37 47 78 48 38 49 83 50 77 51 79 52 39 53 82 54
REMARK SMILES IDX 76 55 75 56 40 58 66 59 49 60 65 61 50 62 53 63 64 64 80 65
REMARK SMILES IDX 51 66 52 67 63 69 81 70 54 71 41 72 42 73 47 74 43 75 44 76
REMARK SMILES IDX 46 77 48 78 45 79 67 80 68 81 73 82 69 83 70 84 72 85 74 86
REMARK SMILES IDX 71 87 55 88 56 89 61 90 57 91 58 92 60 93 62 94 59 95
REMARK H PARENT 22 6 29 38 79 57 53 68
REMARK Flexibility Score: inf
ROOT
ATOM      1  C   UNL A   1      45.988  24.183  25.170  1.00  0.00     0.021 C 
ENDROOT
BRANCH   1   2
ATOM      2  C   UNL A   1      47.310  24.925  25.343  1.00  0.00     0.116 C 
BRANCH   2   3
ATOM      3  N   UNL A   1      47.566  25.859  24.258  1.00  0.00    -0.353 N 
ATOM      4  C   UNL A   1      47.940  27.179  24.319  1.00  0.00     0.260 C 
ATOM      5  O   UNL A   1      48.161  27.767  23.257  1.00  0.00    -0.271 OA
ATOM      6  H   UNL A   1      47.454  25.492  23.351  1.00  0.00     0.163 HD
BRANCH   4   7
ATOM      7  C   UNL A   1      48.038  27.896  25.677  1.00  0.00     0.258 C 
ATOM      8  C   UNL A   1      49.510  28.174  25.968  1.00  0.00     0.064 C 
BRANCH   7   9
ATOM      9  O   UNL A   1      47.185  29.022  25.497  1.00  0.00    -0.480 OA
BRANCH   9  10
ATOM     10  C   UNL A   1      45.993  29.218  26.118  1.00  0.00     0.127 A 
ATOM     11  C   UNL A   1      45.841  30.498  26.700  1.00  0.00     0.018 A 
ATOM     12  C   UNL A   1      44.727  30.776  27.498  1.00  0.00     0.012 A 
ATOM     13  C   UNL A   1      43.742  29.807  27.678  1.00  0.00     0.001 A 
ATOM     14  C   UNL A   1      44.976  28.280  26.257  1.00  0.00     0.047 A 
ATOM     15  C   UNL A   1      43.857  28.572  27.042  1.00  0.00     0.004 A 
BRANCH  11  16
ATOM     16  C   UNL A   1      46.828  31.568  26.471  1.00  0.00     0.033 C 
ATOM     17  N   UNL A   1      49.513  31.555  28.969  1.00  0.00    -0.261 N 
ATOM     18  C   UNL A   1      48.386  30.970  28.399  1.00  0.00     0.270 C 
ATOM     19  C   UNL A   1      50.002  32.695  28.351  1.00  0.00     0.152 C 
ATOM     20  O   UNL A   1      47.828  29.949  28.780  1.00  0.00    -0.268 OA
ATOM     21  C   UNL A   1      47.919  31.777  27.228  1.00  0.00     0.081 C 
ATOM     22  S   UNL A   1      48.984  33.106  26.969  1.00  0.00    -0.054 SA
ATOM     23  S   UNL A   1      51.384  33.581  28.679  1.00  0.00    -0.051 S 
BRANCH  17  24
ATOM     24  C   UNL A   1      50.054  30.997  30.168  1.00  0.00     0.054 A 
ATOM     25  C   UNL A   1      51.280  29.152  33.886  1.00  0.00     0.044 C 
ATOM     26  C   UNL A   1      50.870  29.818  32.607  1.00  0.00    -0.051 A 
ATOM     27  C   UNL A   1      50.036  30.936  32.609  1.00  0.00     0.005 A 
ATOM     28  C   UNL A   1      51.310  29.305  31.381  1.00  0.00     0.009 A 
ATOM     29  C   UNL A   1      49.629  31.515  31.405  1.00  0.00     0.027 A 
ATOM     30  C   UNL A   1      50.929  29.890  30.158  1.00  0.00    -0.027 A 
ATOM     31  C   UNL A   1      51.490  29.278  28.902  1.00  0.00     0.046 C 
ENDBRANCH  17  24
ENDBRANCH  11  16
ENDBRANCH   9  10
ENDBRANCH   7   9
ENDBRANCH   4   7
ENDBRANCH   2   3
ENDBRANCH   1   2
BRANCH   1  32
ATOM     32  C   UNL A   1      46.101  22.851  24.425  1.00  0.00     0.002 C 
BRANCH  32  33
ATOM     33  C   UNL A   1      45.724  21.608  25.238  1.00  0.00     0.002 C 
BRANCH  33  34
ATOM     34  C   UNL A   1      44.890  20.558  24.497  1.00  0.00     0.021 C 
BRANCH  34  35
ATOM     35  C   UNL A   1      44.431  19.377  25.347  1.00  0.00     0.116 C 
BRANCH  35  36
ATOM     36  N   UNL A   1      43.003  19.132  25.229  1.00  0.00    -0.352 N 
ATOM     37  C   UNL A   1      41.949  19.828  25.765  1.00  0.00     0.251 C 
ATOM     38  H   UNL A   1      42.755  18.351  24.684  1.00  0.00     0.163 HD
ATOM     39  O   UNL A   1      40.812  19.373  25.693  1.00  0.00    -0.269 OA
BRANCH  37  40
ATOM     40  C   UNL A   1      42.178  21.120  26.449  1.00  0.00     0.039 A 
ATOM     41  C   UNL A   1      42.311  22.277  25.674  1.00  0.00     0.014 A 
ATOM     42  C   UNL A   1      42.296  21.194  27.841  1.00  0.00     0.014 A 
ATOM     43  C   UNL A   1      42.510  23.511  26.294  1.00  0.00     0.010 A 
ATOM     44  C   UNL A   1      42.432  22.433  28.462  1.00  0.00     0.010 A 
ATOM     45  C   UNL A   1      42.548  23.603  27.695  1.00  0.00    -0.014 A 
BRANCH  45  46
ATOM     46  C   UNL A   1      42.724  24.912  28.372  1.00  0.00     0.031 A 
ATOM     47  C   UNL A   1      44.037  25.261  29.015  1.00  0.00     0.074 A 
ATOM     48  C   UNL A   1      41.685  25.766  28.455  1.00  0.00     0.049 A 
ATOM     49  N   UNL A   1      44.365  26.326  29.703  1.00  0.00    -0.248 NA
ATOM     50  C   UNL A   1      45.118  24.269  28.892  1.00  0.00     0.031 C 
ATOM     51  C   UNL A   1      40.347  25.528  27.912  1.00  0.00     0.029 A 
ATOM     52  N   UNL A   1      41.592  27.004  29.041  1.00  0.00    -0.354 N 
ATOM     53  C   UNL A   1      45.679  26.125  30.105  1.00  0.00     0.074 A 
ATOM     54  C   UNL A   1      46.073  24.817  29.627  1.00  0.00     0.031 C 
ATOM     55  C   UNL A   1      39.572  26.593  28.172  1.00  0.00     0.029 A 
ATOM     56  C   UNL A   1      40.347  27.575  28.925  1.00  0.00     0.049 A 
ATOM     57  H   UNL A   1      42.344  27.442  29.499  1.00  0.00     0.167 HD
ATOM     58  C   UNL A   1      46.492  26.963  30.793  1.00  0.00     0.037 A 
ATOM     59  C   UNL A   1      39.883  28.754  29.378  1.00  0.00     0.037 A 
ATOM     60  C   UNL A   1      46.111  28.276  31.240  1.00  0.00     0.049 A 
ATOM     61  C   UNL A   1      40.807  29.670  30.131  1.00  0.00     0.074 A 
ATOM     62  C   UNL A   1      46.884  29.225  31.887  1.00  0.00     0.029 A 
ATOM     63  N   UNL A   1      44.848  28.827  31.084  1.00  0.00    -0.354 N 
ATOM     64  N   UNL A   1      42.066  29.494  30.450  1.00  0.00    -0.248 NA
ATOM     65  C   UNL A   1      40.246  30.952  30.583  1.00  0.00     0.031 C 
ATOM     66  C   UNL A   1      46.078  30.337  32.153  1.00  0.00     0.029 A 
ATOM     67  C   UNL A   1      44.814  30.096  31.638  1.00  0.00     0.049 A 
ATOM     68  H   UNL A   1      44.088  28.381  30.644  1.00  0.00     0.167 HD
ATOM     69  C   UNL A   1      42.455  30.649  31.115  1.00  0.00     0.074 A 
ATOM     70  C   UNL A   1      41.302  31.525  31.144  1.00  0.00     0.031 C 
ATOM     71  C   UNL A   1      43.661  30.957  31.652  1.00  0.00     0.037 A 
BRANCH  58  72
ATOM     72  C   UNL A   1      47.880  26.482  31.098  1.00  0.00     0.057 A 
ATOM     73  C   UNL A   1      48.911  26.558  30.151  1.00  0.00     0.134 A 
ATOM     74  C   UNL A   1      48.199  25.966  32.359  1.00  0.00     0.134 A 
ATOM     75  F   UNL A   1      48.668  27.031  28.919  1.00  0.00    -0.206 F 
ATOM     76  C   UNL A   1      50.202  26.114  30.441  1.00  0.00     0.040 A 
ATOM     77  C   UNL A   1      49.492  25.542  32.669  1.00  0.00     0.040 A 
ATOM     78  F   UNL A   1      47.261  25.871  33.313  1.00  0.00    -0.206 F 
ATOM     79  C   UNL A   1      50.497  25.609  31.705  1.00  0.00     0.006 A 
ENDBRANCH  58  72
BRANCH  59  80
ATOM     80  C   UNL A   1      38.479  29.152  29.108  1.00  0.00     0.057 A 
ATOM     81  C   UNL A   1      37.502  29.066  30.105  1.00  0.00     0.134 A 
ATOM     82  C   UNL A   1      38.082  29.621  27.850  1.00  0.00     0.134 A 
ATOM     83  F   UNL A   1      37.821  28.607  31.324  1.00  0.00    -0.206 F 
ATOM     84  C   UNL A   1      36.174  29.416  29.859  1.00  0.00     0.040 A 
ATOM     85  C   UNL A   1      36.761  29.996  27.596  1.00  0.00     0.040 A 
ATOM     86  F   UNL A   1      38.973  29.734  26.855  1.00  0.00    -0.206 F 
ATOM     87  C   UNL A   1      35.802  29.888  28.602  1.00  0.00     0.006 A 
ENDBRANCH  59  80
BRANCH  71  88
ATOM     88  C   UNL A   1      43.801  32.306  32.291  1.00  0.00     0.057 A 
ATOM     89  C   UNL A   1      44.140  33.443  31.547  1.00  0.00     0.134 A 
ATOM     90  C   UNL A   1      43.554  32.474  33.660  1.00  0.00     0.134 A 
ATOM     91  F   UNL A   1      44.402  33.344  30.236  1.00  0.00    -0.206 F 
ATOM     92  C   UNL A   1      44.244  34.700  32.146  1.00  0.00     0.040 A 
ATOM     93  C   UNL A   1      43.632  33.730  34.264  1.00  0.00     0.040 A 
ATOM     94  F   UNL A   1      43.218  31.427  34.426  1.00  0.00    -0.206 F 
ATOM     95  C   UNL A   1      43.983  34.846  33.507  1.00  0.00     0.006 A 
ENDBRANCH  71  88
ENDBRANCH  45  46
ENDBRANCH  37  40
ENDBRANCH  35  36
ENDBRANCH  34  35
ENDBRANCH  33  34
ENDBRANCH  32  33
ENDBRANCH   1  32
TORSDOF 17
ENDMDL
MODEL 3
REMARK VINA RESULT:      -9.9      6.045     12.601
REMARK SMILES Cc1ccc(N2C(=O)/C(=C\c3ccccc3O[C@H](C)C(=O)NCCCCCCNC(=O)c3ccc(-c4c5nc(c(-c6c(F)cccc6F)c6ccc([nH]6)c(-c6c(F)cccc6F)c6nc(c(-c7c(F)cccc7F)c7ccc4[nH]7)C=C6)C=C5)cc3)SC2=S)c(C)c1
REMARK SMILES IDX 24 1 23 2 22 3 20 4 21 5 18 7 19 8 17 9 16 10 11 11 12 12
REMARK SMILES IDX 13 13 15 14 14 15 10 16 6 17 7 18 87 19 8 20 9 21 86 22
REMARK SMILES IDX 88 23 5 24 1 25 2 26 3 27 91 28 4 29 89 30 90 31 25 32 26 33
REMARK SMILES IDX 27 34 28 35 29 36 30 37 31 39 32 40 33 41 85 42 34 43 84 44
REMARK SMILES IDX 35 45 36 46 37 47 78 48 38 49 83 50 77 51 79 52 39 53 82 54
REMARK SMILES IDX 76 55 75 56 40 58 66 59 49 60 65 61 50 62 53 63 64 64 80 65
REMARK SMILES IDX 51 66 52 67 63 69 81 70 54 71 41 72 42 73 47 74 43 75 44 76
REMARK SMILES IDX 46 77 48 78 45 79 67 80 68 81 73 82 69 83 70 84 72 85 74 86
REMARK SMILES IDX 71 87 55 88 56 89 61 90 57 91 58 92 60 93 62 94 59 95
REMARK H PARENT 22 6 29 38 79 57 53 68
REMARK Flexibility Score: inf
ROOT
ATOM      1  C   UNL A   1      39.767  23.395  26.696  1.00  0.00     0.021 C 
ENDROOT
BRANCH   1   2
ATOM      2  C   UNL A   1      38.370  23.977  26.502  1.00  0.00     0.116 C 
BRANCH   2   3
ATOM      3  N   UNL A   1      37.339  22.952  26.508  1.00  0.00    -0.353 N 
ATOM      4  C   UNL A   1      36.427  22.632  25.532  1.00  0.00     0.260 C 
ATOM      5  O   UNL A   1      35.674  21.675  25.734  1.00  0.00    -0.271 OA
ATOM      6  H   UNL A   1      37.286  22.411  27.330  1.00  0.00     0.163 HD
BRANCH   4   7
ATOM      7  C   UNL A   1      36.334  23.478  24.249  1.00  0.00     0.258 C 
ATOM      8  C   UNL A   1      36.654  22.578  23.058  1.00  0.00     0.064 C 
BRANCH   7   9
ATOM      9  O   UNL A   1      35.019  24.017  24.325  1.00  0.00    -0.480 OA
BRANCH   9  10
ATOM     10  C   UNL A   1      33.867  23.296  24.321  1.00  0.00     0.127 A 
ATOM     11  C   UNL A   1      32.941  23.670  25.322  1.00  0.00     0.018 A 
ATOM     12  C   UNL A   1      31.785  22.910  25.524  1.00  0.00     0.012 A 
ATOM     13  C   UNL A   1      31.521  21.814  24.705  1.00  0.00     0.001 A 
ATOM     14  C   UNL A   1      33.566  22.236  23.474  1.00  0.00     0.047 A 
ATOM     15  C   UNL A   1      32.399  21.492  23.671  1.00  0.00     0.004 A 
BRANCH  11  16
ATOM     16  C   UNL A   1      33.154  24.866  26.157  1.00  0.00     0.033 C 
ATOM     17  N   UNL A   1      31.384  27.808  24.866  1.00  0.00    -0.261 N 
ATOM     18  C   UNL A   1      31.657  26.443  24.825  1.00  0.00     0.270 C 
ATOM     19  C   UNL A   1      31.975  28.529  25.892  1.00  0.00     0.152 C 
ATOM     20  O   UNL A   1      31.208  25.638  24.019  1.00  0.00    -0.268 OA
ATOM     21  C   UNL A   1      32.608  26.071  25.920  1.00  0.00     0.081 C 
ATOM     22  S   UNL A   1      32.972  27.456  26.876  1.00  0.00    -0.054 SA
ATOM     23  S   UNL A   1      31.781  30.136  26.319  1.00  0.00    -0.051 S 
BRANCH  17  24
ATOM     24  C   UNL A   1      30.579  28.387  23.837  1.00  0.00     0.054 A 
ATOM     25  C   UNL A   1      28.029  30.457  21.020  1.00  0.00     0.044 C 
ATOM     26  C   UNL A   1      28.898  29.713  21.988  1.00  0.00    -0.051 A 
ATOM     27  C   UNL A   1      28.351  29.039  23.080  1.00  0.00     0.005 A 
ATOM     28  C   UNL A   1      30.287  29.703  21.814  1.00  0.00     0.009 A 
ATOM     29  C   UNL A   1      29.181  28.388  23.996  1.00  0.00     0.027 A 
ATOM     30  C   UNL A   1      31.138  29.033  22.715  1.00  0.00    -0.027 A 
ATOM     31  C   UNL A   1      32.612  29.058  22.411  1.00  0.00     0.046 C 
ENDBRANCH  17  24
ENDBRANCH  11  16
ENDBRANCH   9  10
ENDBRANCH   7   9
ENDBRANCH   4   7
ENDBRANCH   2   3
ENDBRANCH   1   2
BRANCH   1  32
ATOM     32  C   UNL A   1      39.853  21.877  26.523  1.00  0.00     0.002 C 
BRANCH  32  33
ATOM     33  C   UNL A   1      41.252  21.326  26.228  1.00  0.00     0.002 C 
BRANCH  33  34
ATOM     34  C   UNL A   1      41.331  19.818  25.971  1.00  0.00     0.021 C 
BRANCH  34  35
ATOM     35  C   UNL A   1      42.624  19.149  26.428  1.00  0.00     0.116 C 
BRANCH  35  36
ATOM     36  N   UNL A   1      43.482  18.783  25.313  1.00  0.00    -0.352 N 
ATOM     37  C   UNL A   1      44.318  19.567  24.559  1.00  0.00     0.251 C 
ATOM     38  H   UNL A   1      43.460  17.832  25.062  1.00  0.00     0.163 HD
ATOM     39  O   UNL A   1      44.841  19.111  23.548  1.00  0.00    -0.269 OA
BRANCH  37  40
ATOM     40  C   UNL A   1      44.579  20.970  24.949  1.00  0.00     0.039 A 
ATOM     41  C   UNL A   1      44.153  21.995  24.097  1.00  0.00     0.014 A 
ATOM     42  C   UNL A   1      45.267  21.280  26.127  1.00  0.00     0.014 A 
ATOM     43  C   UNL A   1      44.372  23.328  24.450  1.00  0.00     0.010 A 
ATOM     44  C   UNL A   1      45.428  22.610  26.507  1.00  0.00     0.010 A 
ATOM     45  C   UNL A   1      44.989  23.647  25.669  1.00  0.00    -0.014 A 
BRANCH  45  46
ATOM     46  C   UNL A   1      45.197  25.060  26.076  1.00  0.00     0.031 A 
ATOM     47  C   UNL A   1      46.567  25.675  26.001  1.00  0.00     0.074 A 
ATOM     48  C   UNL A   1      44.164  25.773  26.563  1.00  0.00     0.049 A 
ATOM     49  N   UNL A   1      46.959  26.869  26.366  1.00  0.00    -0.248 NA
ATOM     50  C   UNL A   1      47.645  24.824  25.471  1.00  0.00     0.031 C 
ATOM     51  C   UNL A   1      42.796  25.279  26.728  1.00  0.00     0.029 A 
ATOM     52  N   UNL A   1      44.109  27.067  27.021  1.00  0.00    -0.354 N 
ATOM     53  C   UNL A   1      48.326  26.908  26.125  1.00  0.00     0.074 A 
ATOM     54  C   UNL A   1      48.705  25.603  25.627  1.00  0.00     0.031 C 
ATOM     55  C   UNL A   1      42.032  26.263  27.231  1.00  0.00     0.029 A 
ATOM     56  C   UNL A   1      42.860  27.445  27.452  1.00  0.00     0.049 A 
ATOM     57  H   UNL A   1      44.888  27.667  27.037  1.00  0.00     0.167 HD
ATOM     58  C   UNL A   1      49.185  27.944  26.282  1.00  0.00     0.037 A 
ATOM     59  C   UNL A   1      42.433  28.612  27.970  1.00  0.00     0.037 A 
ATOM     60  C   UNL A   1      48.803  29.251  26.745  1.00  0.00     0.049 A 
ATOM     61  C   UNL A   1      43.403  29.748  28.127  1.00  0.00     0.074 A 
ATOM     62  C   UNL A   1      49.588  30.383  26.877  1.00  0.00     0.029 A 
ATOM     63  N   UNL A   1      47.523  29.601  27.152  1.00  0.00    -0.354 N 
ATOM     64  N   UNL A   1      44.680  29.791  27.835  1.00  0.00    -0.248 NA
ATOM     65  C   UNL A   1      42.871  31.002  28.681  1.00  0.00     0.031 C 
ATOM     66  C   UNL A   1      48.790  31.410  27.395  1.00  0.00     0.029 A 
ATOM     67  C   UNL A   1      47.501  30.927  27.550  1.00  0.00     0.049 A 
ATOM     68  H   UNL A   1      46.747  28.996  27.155  1.00  0.00     0.167 HD
ATOM     69  C   UNL A   1      45.099  31.078  28.144  1.00  0.00     0.074 A 
ATOM     70  C   UNL A   1      43.937  31.790  28.635  1.00  0.00     0.031 C 
ATOM     71  C   UNL A   1      46.335  31.622  28.030  1.00  0.00     0.037 A 
BRANCH  58  72
ATOM     72  C   UNL A   1      50.627  27.703  25.943  1.00  0.00     0.057 A 
ATOM     73  C   UNL A   1      51.108  27.839  24.634  1.00  0.00     0.134 A 
ATOM     74  C   UNL A   1      51.549  27.361  26.939  1.00  0.00     0.134 A 
ATOM     75  F   UNL A   1      50.273  28.152  23.632  1.00  0.00    -0.206 F 
ATOM     76  C   UNL A   1      52.451  27.618  24.324  1.00  0.00     0.040 A 
ATOM     77  C   UNL A   1      52.900  27.163  26.645  1.00  0.00     0.040 A 
ATOM     78  F   UNL A   1      51.156  27.221  28.213  1.00  0.00    -0.206 F 
ATOM     79  C   UNL A   1      53.352  27.284  25.332  1.00  0.00     0.006 A 
ENDBRANCH  58  72
BRANCH  59  80
ATOM     80  C   UNL A   1      41.008  28.775  28.354  1.00  0.00     0.057 A 
ATOM     81  C   UNL A   1      40.043  29.123  27.402  1.00  0.00     0.134 A 
ATOM     82  C   UNL A   1      40.581  28.593  29.674  1.00  0.00     0.134 A 
ATOM     83  F   UNL A   1      40.397  29.328  26.126  1.00  0.00    -0.206 F 
ATOM     84  C   UNL A   1      38.704  29.301  27.753  1.00  0.00     0.040 A 
ATOM     85  C   UNL A   1      39.241  28.747  30.034  1.00  0.00     0.040 A 
ATOM     86  F   UNL A   1      41.457  28.252  30.630  1.00  0.00    -0.206 F 
ATOM     87  C   UNL A   1      38.299  29.107  29.072  1.00  0.00     0.006 A 
ENDBRANCH  59  80
BRANCH  71  88
ATOM     88  C   UNL A   1      46.487  33.063  28.416  1.00  0.00     0.057 A 
ATOM     89  C   UNL A   1      46.840  33.444  29.716  1.00  0.00     0.134 A 
ATOM     90  C   UNL A   1      46.320  34.076  27.463  1.00  0.00     0.134 A 
ATOM     91  F   UNL A   1      47.001  32.522  30.675  1.00  0.00    -0.206 F 
ATOM     92  C   UNL A   1      47.005  34.787  30.061  1.00  0.00     0.040 A 
ATOM     93  C   UNL A   1      46.504  35.420  27.791  1.00  0.00     0.040 A 
ATOM     94  F   UNL A   1      45.990  33.776  26.199  1.00  0.00    -0.206 F 
ATOM     95  C   UNL A   1      46.844  35.779  29.094  1.00  0.00     0.006 A 
ENDBRANCH  71  88
ENDBRANCH  45  46
ENDBRANCH  37  40
ENDBRANCH  35  36
ENDBRANCH  34  35
ENDBRANCH  33  34
ENDBRANCH  32  33
ENDBRANCH   1  32
TORSDOF 17
ENDMDL
