MODEL 1
REMARK VINA RESULT:     -12.1      0.000      0.000
REMARK SMILES Cc1cc2c(c(C)c1Cl)C=C(C(=O)NCCCCCCNC(=O)c1ccc(-c3c4nc(c(-c5c(F)cccc5F)c5ccc([nH]5)c(-c5c(F)cccc5F)c5nc(c(-c6c(F)cccc6F)c6ccc3[nH]6)C=C5)C=C4)cc1)[C@@H](C(F)(F)F)O2
REMARK SMILES IDX 18 1 17 2 16 3 15 4 14 5 12 6 13 7 11 9 1 10 2 11 3 12 8 13
REMARK SMILES IDX 4 14 6 15 9 16 5 17 83 18 7 19 10 20 78 21 79 22 80 23 81 24
REMARK SMILES IDX 82 25 19 26 20 27 21 28 22 29 23 31 24 32 25 33 77 34 26 35
REMARK SMILES IDX 76 36 27 37 28 38 29 39 70 40 30 41 75 42 69 43 71 44 31 45
REMARK SMILES IDX 74 46 68 47 67 48 32 50 58 51 41 52 57 53 42 54 45 55 56 56
REMARK SMILES IDX 72 57 43 58 44 59 55 61 73 62 46 63 33 64 34 65 39 66 35 67
REMARK SMILES IDX 36 68 38 69 40 70 37 71 59 72 60 73 65 74 61 75 62 76 64 77
REMARK SMILES IDX 66 78 63 79 47 80 48 81 53 82 49 83 50 84 52 85 54 86 51 87
REMARK H PARENT 14 8 21 30 71 49 45 60
REMARK Flexibility Score: inf
ROOT
ATOM      1  C   UNL A   1      31.484  30.615  26.314  1.00  0.00     0.002 C 
ENDROOT
BRANCH   1   2
ATOM      2  C   UNL A   1      32.429  29.891  27.283  1.00  0.00     0.002 C 
BRANCH   2   3
ATOM      3  C   UNL A   1      32.946  28.528  26.812  1.00  0.00     0.021 C 
BRANCH   3   4
ATOM      4  C   UNL A   1      34.268  28.585  26.051  1.00  0.00     0.116 C 
BRANCH   4   5
ATOM      5  N   UNL A   1      34.072  28.474  24.618  1.00  0.00    -0.352 N 
ATOM      6  C   UNL A   1      33.682  27.523  23.738  1.00  0.00     0.251 C 
ATOM      7  O   UNL A   1      33.636  27.895  22.560  1.00  0.00    -0.270 OA
ATOM      8  H   UNL A   1      34.278  29.321  24.162  1.00  0.00     0.163 HD
BRANCH   6   9
ATOM      9  C   UNL A   1      33.319  26.114  24.079  1.00  0.00     0.067 C 
ATOM     10  C   UNL A   1      33.122  19.785  25.626  1.00  0.00     0.046 C 
ATOM     11  C   UNL A   1      33.514  21.191  25.258  1.00  0.00    -0.028 A 
ATOM     12  C   UNL A   1      32.517  22.169  25.230  1.00  0.00     0.052 A 
ATOM     13  C   UNL A   1      34.828  21.550  24.895  1.00  0.00     0.047 A 
ATOM     14  C   UNL A   1      32.818  23.479  24.872  1.00  0.00     0.128 A 
ATOM     15  C   UNL A   1      35.152  22.885  24.545  1.00  0.00    -0.021 A 
ATOM     16  Cl  UNL A   1      36.048  20.313  24.883  1.00  0.00    -0.084 Cl
ATOM     17  C   UNL A   1      34.122  23.858  24.546  1.00  0.00     0.022 A 
ATOM     18  O   UNL A   1      31.767  24.347  24.908  1.00  0.00    -0.475 OA
ATOM     19  C   UNL A   1      36.560  23.294  24.182  1.00  0.00     0.047 C 
ATOM     20  C   UNL A   1      34.359  25.275  24.249  1.00  0.00     0.026 C 
ATOM     21  C   UNL A   1      31.915  25.599  24.191  1.00  0.00     0.314 C 
BRANCH  21  22
ATOM     22  C   UNL A   1      31.205  25.488  22.831  1.00  0.00     0.429 C 
ATOM     23  F   UNL A   1      30.187  24.594  22.897  1.00  0.00    -0.167 F 
ATOM     24  F   UNL A   1      30.654  26.659  22.434  1.00  0.00    -0.167 F 
ATOM     25  F   UNL A   1      32.035  25.086  21.843  1.00  0.00    -0.167 F 
ENDBRANCH  21  22
ENDBRANCH   6   9
ENDBRANCH   4   5
ENDBRANCH   3   4
ENDBRANCH   2   3
ENDBRANCH   1   2
BRANCH   1  26
ATOM     26  C   UNL A   1      31.432  32.138  26.450  1.00  0.00     0.021 C 
BRANCH  26  27
ATOM     27  C   UNL A   1      32.554  32.751  27.281  1.00  0.00     0.116 C 
BRANCH  27  28
ATOM     28  N   UNL A   1      32.292  34.137  27.634  1.00  0.00    -0.352 N 
ATOM     29  C   UNL A   1      32.949  34.936  28.534  1.00  0.00     0.251 C 
ATOM     30  H   UNL A   1      31.540  34.560  27.160  1.00  0.00     0.163 HD
ATOM     31  O   UNL A   1      32.507  36.044  28.824  1.00  0.00    -0.269 OA
BRANCH  29  32
ATOM     32  C   UNL A   1      34.180  34.440  29.183  1.00  0.00     0.039 A 
ATOM     33  C   UNL A   1      34.066  33.682  30.349  1.00  0.00     0.014 A 
ATOM     34  C   UNL A   1      35.437  34.701  28.626  1.00  0.00     0.014 A 
ATOM     35  C   UNL A   1      35.211  33.127  30.922  1.00  0.00     0.010 A 
ATOM     36  C   UNL A   1      36.569  34.094  29.162  1.00  0.00     0.010 A 
ATOM     37  C   UNL A   1      36.466  33.301  30.313  1.00  0.00    -0.014 A 
BRANCH  37  38
ATOM     38  C   UNL A   1      37.669  32.638  30.873  1.00  0.00     0.031 A 
ATOM     39  C   UNL A   1      38.270  33.115  32.163  1.00  0.00     0.074 A 
ATOM     40  C   UNL A   1      38.231  31.613  30.201  1.00  0.00     0.049 A 
ATOM     41  N   UNL A   1      39.291  32.631  32.823  1.00  0.00    -0.248 NA
ATOM     42  C   UNL A   1      37.662  34.303  32.784  1.00  0.00     0.031 C 
ATOM     43  C   UNL A   1      37.769  31.096  28.912  1.00  0.00     0.029 A 
ATOM     44  N   UNL A   1      39.303  30.817  30.514  1.00  0.00    -0.354 N 
ATOM     45  C   UNL A   1      39.442  33.448  33.935  1.00  0.00     0.074 A 
ATOM     46  C   UNL A   1      38.450  34.496  33.830  1.00  0.00     0.031 C 
ATOM     47  C   UNL A   1      38.523  30.040  28.567  1.00  0.00     0.029 A 
ATOM     48  C   UNL A   1      39.533  29.819  29.598  1.00  0.00     0.049 A 
ATOM     49  H   UNL A   1      39.855  30.948  31.320  1.00  0.00     0.167 HD
ATOM     50  C   UNL A   1      40.308  33.317  34.967  1.00  0.00     0.037 A 
ATOM     51  C   UNL A   1      40.442  28.826  29.601  1.00  0.00     0.037 A 
ATOM     52  C   UNL A   1      41.276  32.260  35.080  1.00  0.00     0.049 A 
ATOM     53  C   UNL A   1      41.393  28.701  30.757  1.00  0.00     0.074 A 
ATOM     54  C   UNL A   1      42.165  32.015  36.112  1.00  0.00     0.029 A 
ATOM     55  N   UNL A   1      41.480  31.272  34.129  1.00  0.00    -0.354 N 
ATOM     56  N   UNL A   1      41.478  29.439  31.837  1.00  0.00    -0.248 NA
ATOM     57  C   UNL A   1      42.371  27.604  30.701  1.00  0.00     0.031 C 
ATOM     58  C   UNL A   1      42.928  30.895  35.772  1.00  0.00     0.029 A 
ATOM     59  C   UNL A   1      42.490  30.423  34.544  1.00  0.00     0.049 A 
ATOM     60  H   UNL A   1      40.980  31.188  33.285  1.00  0.00     0.167 HD
ATOM     61  C   UNL A   1      42.494  28.883  32.600  1.00  0.00     0.074 A 
ATOM     62  C   UNL A   1      42.997  27.742  31.862  1.00  0.00     0.031 C 
ATOM     63  C   UNL A   1      42.966  29.283  33.805  1.00  0.00     0.037 A 
BRANCH  50  64
ATOM     64  C   UNL A   1      40.228  34.326  36.072  1.00  0.00     0.057 A 
ATOM     65  C   UNL A   1      40.954  35.523  36.020  1.00  0.00     0.134 A 
ATOM     66  C   UNL A   1      39.378  34.131  37.167  1.00  0.00     0.134 A 
ATOM     67  F   UNL A   1      41.794  35.765  35.002  1.00  0.00    -0.206 F 
ATOM     68  C   UNL A   1      40.851  36.483  37.028  1.00  0.00     0.040 A 
ATOM     69  C   UNL A   1      39.249  35.093  38.169  1.00  0.00     0.040 A 
ATOM     70  F   UNL A   1      38.650  33.009  37.273  1.00  0.00    -0.206 F 
ATOM     71  C   UNL A   1      39.989  36.273  38.102  1.00  0.00     0.006 A 
ENDBRANCH  50  64
BRANCH  51  72
ATOM     72  C   UNL A   1      40.447  27.831  28.500  1.00  0.00     0.057 A 
ATOM     73  C   UNL A   1      39.709  26.647  28.603  1.00  0.00     0.134 A 
ATOM     74  C   UNL A   1      41.159  28.048  27.315  1.00  0.00     0.134 A 
ATOM     75  F   UNL A   1      39.017  26.377  29.720  1.00  0.00    -0.206 F 
ATOM     76  C   UNL A   1      39.685  25.708  27.571  1.00  0.00     0.040 A 
ATOM     77  C   UNL A   1      41.129  27.127  26.266  1.00  0.00     0.040 A 
ATOM     78  F   UNL A   1      41.877  29.169  27.152  1.00  0.00    -0.206 F 
ATOM     79  C   UNL A   1      40.391  25.951  26.394  1.00  0.00     0.006 A 
ENDBRANCH  51  72
BRANCH  63  80
ATOM     80  C   UNL A   1      44.066  28.478  34.425  1.00  0.00     0.057 A 
ATOM     81  C   UNL A   1      45.410  28.835  34.273  1.00  0.00     0.134 A 
ATOM     82  C   UNL A   1      43.770  27.400  35.269  1.00  0.00     0.134 A 
ATOM     83  F   UNL A   1      45.756  29.854  33.471  1.00  0.00    -0.206 F 
ATOM     84  C   UNL A   1      46.424  28.149  34.942  1.00  0.00     0.040 A 
ATOM     85  C   UNL A   1      44.773  26.719  35.957  1.00  0.00     0.040 A 
ATOM     86  F   UNL A   1      42.499  27.016  35.463  1.00  0.00    -0.206 F 
ATOM     87  C   UNL A   1      46.105  27.094  35.796  1.00  0.00     0.006 A 
ENDBRANCH  63  80
ENDBRANCH  37  38
ENDBRANCH  29  32
ENDBRANCH  27  28
ENDBRANCH  26  27
ENDBRANCH   1  26
TORSDOF 14
ENDMDL
MODEL 2
REMARK VINA RESULT:     -12.0      1.319      2.074
REMARK SMILES Cc1cc2c(c(C)c1Cl)C=C(C(=O)NCCCCCCNC(=O)c1ccc(-c3c4nc(c(-c5c(F)cccc5F)c5ccc([nH]5)c(-c5c(F)cccc5F)c5nc(c(-c6c(F)cccc6F)c6ccc3[nH]6)C=C5)C=C4)cc1)[C@@H](C(F)(F)F)O2
REMARK SMILES IDX 18 1 17 2 16 3 15 4 14 5 12 6 13 7 11 9 1 10 2 11 3 12 8 13
REMARK SMILES IDX 4 14 6 15 9 16 5 17 83 18 7 19 10 20 78 21 79 22 80 23 81 24
REMARK SMILES IDX 82 25 19 26 20 27 21 28 22 29 23 31 24 32 25 33 77 34 26 35
REMARK SMILES IDX 76 36 27 37 28 38 29 39 70 40 30 41 75 42 69 43 71 44 31 45
REMARK SMILES IDX 74 46 68 47 67 48 32 50 58 51 41 52 57 53 42 54 45 55 56 56
REMARK SMILES IDX 72 57 43 58 44 59 55 61 73 62 46 63 33 64 34 65 39 66 35 67
REMARK SMILES IDX 36 68 38 69 40 70 37 71 59 72 60 73 65 74 61 75 62 76 64 77
REMARK SMILES IDX 66 78 63 79 47 80 48 81 53 82 49 83 50 84 52 85 54 86 51 87
REMARK H PARENT 14 8 21 30 71 49 45 60
REMARK Flexibility Score: inf
ROOT
ATOM      1  C   UNL A   1      31.643  30.400  25.738  1.00  0.00     0.002 C 
ENDROOT
BRANCH   1   2
ATOM      2  C   UNL A   1      33.057  29.806  25.791  1.00  0.00     0.002 C 
BRANCH   2   3
ATOM      3  C   UNL A   1      33.406  28.819  24.672  1.00  0.00     0.021 C 
BRANCH   3   4
ATOM      4  C   UNL A   1      33.678  27.395  25.151  1.00  0.00     0.116 C 
BRANCH   4   5
ATOM      5  N   UNL A   1      32.531  26.828  25.835  1.00  0.00    -0.352 N 
ATOM      6  C   UNL A   1      32.064  25.595  26.141  1.00  0.00     0.251 C 
ATOM      7  O   UNL A   1      31.008  25.586  26.785  1.00  0.00    -0.270 OA
ATOM      8  H   UNL A   1      31.927  27.531  26.167  1.00  0.00     0.163 HD
BRANCH   6   9
ATOM      9  C   UNL A   1      32.712  24.300  25.771  1.00  0.00     0.067 C 
ATOM     10  C   UNL A   1      36.671  19.226  24.743  1.00  0.00     0.046 C 
ATOM     11  C   UNL A   1      36.049  20.549  25.102  1.00  0.00    -0.028 A 
ATOM     12  C   UNL A   1      34.663  20.679  24.992  1.00  0.00     0.052 A 
ATOM     13  C   UNL A   1      36.808  21.670  25.496  1.00  0.00     0.047 A 
ATOM     14  C   UNL A   1      34.038  21.886  25.286  1.00  0.00     0.128 A 
ATOM     15  C   UNL A   1      36.182  22.902  25.815  1.00  0.00    -0.021 A 
ATOM     16  Cl  UNL A   1      38.536  21.510  25.577  1.00  0.00    -0.084 Cl
ATOM     17  C   UNL A   1      34.772  22.995  25.712  1.00  0.00     0.022 A 
ATOM     18  O   UNL A   1      32.679  21.881  25.167  1.00  0.00    -0.475 OA
ATOM     19  C   UNL A   1      36.976  24.105  26.266  1.00  0.00     0.047 C 
ATOM     20  C   UNL A   1      34.022  24.205  26.067  1.00  0.00     0.026 C 
ATOM     21  C   UNL A   1      32.017  23.168  25.077  1.00  0.00     0.314 C 
BRANCH  21  22
ATOM     22  C   UNL A   1      31.703  23.471  23.601  1.00  0.00     0.429 C 
ATOM     23  F   UNL A   1      32.501  24.466  23.140  1.00  0.00    -0.167 F 
ATOM     24  F   UNL A   1      31.921  22.407  22.793  1.00  0.00    -0.167 F 
ATOM     25  F   UNL A   1      30.422  23.857  23.411  1.00  0.00    -0.167 F 
ENDBRANCH  21  22
ENDBRANCH   6   9
ENDBRANCH   4   5
ENDBRANCH   3   4
ENDBRANCH   2   3
ENDBRANCH   1   2
BRANCH   1  26
ATOM     26  C   UNL A   1      31.407  31.633  26.612  1.00  0.00     0.021 C 
BRANCH  26  27
ATOM     27  C   UNL A   1      32.670  32.362  27.055  1.00  0.00     0.116 C 
BRANCH  27  28
ATOM     28  N   UNL A   1      32.409  33.733  27.462  1.00  0.00    -0.352 N 
ATOM     29  C   UNL A   1      33.041  34.485  28.419  1.00  0.00     0.251 C 
ATOM     30  H   UNL A   1      31.677  34.184  26.983  1.00  0.00     0.163 HD
ATOM     31  O   UNL A   1      32.600  35.582  28.743  1.00  0.00    -0.269 OA
BRANCH  29  32
ATOM     32  C   UNL A   1      34.246  33.948  29.085  1.00  0.00     0.039 A 
ATOM     33  C   UNL A   1      34.086  33.041  30.133  1.00  0.00     0.014 A 
ATOM     34  C   UNL A   1      35.526  34.319  28.657  1.00  0.00     0.014 A 
ATOM     35  C   UNL A   1      35.212  32.453  30.710  1.00  0.00     0.010 A 
ATOM     36  C   UNL A   1      36.644  33.684  29.190  1.00  0.00     0.010 A 
ATOM     37  C   UNL A   1      36.496  32.744  30.220  1.00  0.00    -0.014 A 
BRANCH  37  38
ATOM     38  C   UNL A   1      37.686  32.053  30.774  1.00  0.00     0.031 A 
ATOM     39  C   UNL A   1      38.186  32.384  32.150  1.00  0.00     0.074 A 
ATOM     40  C   UNL A   1      38.327  31.137  30.022  1.00  0.00     0.049 A 
ATOM     41  N   UNL A   1      39.181  31.852  32.814  1.00  0.00    -0.248 NA
ATOM     42  C   UNL A   1      37.495  33.466  32.869  1.00  0.00     0.031 C 
ATOM     43  C   UNL A   1      37.969  30.771  28.651  1.00  0.00     0.029 A 
ATOM     44  N   UNL A   1      39.407  30.340  30.307  1.00  0.00    -0.354 N 
ATOM     45  C   UNL A   1      39.230  32.528  34.025  1.00  0.00     0.074 A 
ATOM     46  C   UNL A   1      38.207  33.551  33.982  1.00  0.00     0.031 C 
ATOM     47  C   UNL A   1      38.782  29.789  28.231  1.00  0.00     0.029 A 
ATOM     48  C   UNL A   1      39.733  29.471  29.293  1.00  0.00     0.049 A 
ATOM     49  H   UNL A   1      39.902  30.386  31.158  1.00  0.00     0.167 HD
ATOM     50  C   UNL A   1      40.032  32.296  35.089  1.00  0.00     0.037 A 
ATOM     51  C   UNL A   1      40.676  28.513  29.236  1.00  0.00     0.037 A 
ATOM     52  C   UNL A   1      41.031  31.262  35.138  1.00  0.00     0.049 A 
ATOM     53  C   UNL A   1      41.557  28.273  30.429  1.00  0.00     0.074 A 
ATOM     54  C   UNL A   1      41.861  30.917  36.190  1.00  0.00     0.029 A 
ATOM     55  N   UNL A   1      41.332  30.407  34.089  1.00  0.00    -0.354 N 
ATOM     56  N   UNL A   1      41.544  28.874  31.595  1.00  0.00    -0.248 NA
ATOM     57  C   UNL A   1      42.576  27.222  30.306  1.00  0.00     0.031 C 
ATOM     58  C   UNL A   1      42.686  29.871  35.767  1.00  0.00     0.029 A 
ATOM     59  C   UNL A   1      42.345  29.543  34.465  1.00  0.00     0.049 A 
ATOM     60  H   UNL A   1      40.890  30.413  33.210  1.00  0.00     0.167 HD
ATOM     61  C   UNL A   1      42.531  28.258  32.352  1.00  0.00     0.074 A 
ATOM     62  C   UNL A   1      43.122  27.233  31.516  1.00  0.00     0.031 C 
ATOM     63  C   UNL A   1      42.910  28.518  33.626  1.00  0.00     0.037 A 
BRANCH  50  64
ATOM     64  C   UNL A   1      39.844  33.156  36.301  1.00  0.00     0.057 A 
ATOM     65  C   UNL A   1      40.547  34.359  36.458  1.00  0.00     0.134 A 
ATOM     66  C   UNL A   1      38.916  32.815  37.291  1.00  0.00     0.134 A 
ATOM     67  F   UNL A   1      41.458  34.737  35.548  1.00  0.00    -0.206 F 
ATOM     68  C   UNL A   1      40.344  35.183  37.565  1.00  0.00     0.040 A 
ATOM     69  C   UNL A   1      38.688  33.642  38.392  1.00  0.00     0.040 A 
ATOM     70  F   UNL A   1      38.207  31.681  37.198  1.00  0.00    -0.206 F 
ATOM     71  C   UNL A   1      39.406  34.829  38.533  1.00  0.00     0.006 A 
ENDBRANCH  50  64
BRANCH  51  72
ATOM     72  C   UNL A   1      40.788  27.664  28.025  1.00  0.00     0.057 A 
ATOM     73  C   UNL A   1      41.585  28.061  26.945  1.00  0.00     0.134 A 
ATOM     74  C   UNL A   1      40.132  26.431  27.926  1.00  0.00     0.134 A 
ATOM     75  F   UNL A   1      42.227  29.238  26.976  1.00  0.00    -0.206 F 
ATOM     76  C   UNL A   1      41.720  27.267  25.805  1.00  0.00     0.040 A 
ATOM     77  C   UNL A   1      40.273  25.618  26.800  1.00  0.00     0.040 A 
ATOM     78  F   UNL A   1      39.363  25.992  28.932  1.00  0.00    -0.206 F 
ATOM     79  C   UNL A   1      41.068  26.037  25.734  1.00  0.00     0.006 A 
ENDBRANCH  51  72
BRANCH  63  80
ATOM     80  C   UNL A   1      43.998  27.675  34.216  1.00  0.00     0.057 A 
ATOM     81  C   UNL A   1      43.723  26.441  34.815  1.00  0.00     0.134 A 
ATOM     82  C   UNL A   1      45.340  28.053  34.086  1.00  0.00     0.134 A 
ATOM     83  F   UNL A   1      42.456  26.029  34.974  1.00  0.00    -0.206 F 
ATOM     84  C   UNL A   1      44.749  25.608  35.264  1.00  0.00     0.040 A 
ATOM     85  C   UNL A   1      46.374  27.221  34.514  1.00  0.00     0.040 A 
ATOM     86  F   UNL A   1      45.667  29.220  33.511  1.00  0.00    -0.206 F 
ATOM     87  C   UNL A   1      46.079  25.994  35.104  1.00  0.00     0.006 A 
ENDBRANCH  63  80
ENDBRANCH  37  38
ENDBRANCH  29  32
ENDBRANCH  27  28
ENDBRANCH  26  27
ENDBRANCH   1  26
TORSDOF 14
ENDMDL
MODEL 3
REMARK VINA RESULT:     -12.0      2.516      7.767
REMARK SMILES Cc1cc2c(c(C)c1Cl)C=C(C(=O)NCCCCCCNC(=O)c1ccc(-c3c4nc(c(-c5c(F)cccc5F)c5ccc([nH]5)c(-c5c(F)cccc5F)c5nc(c(-c6c(F)cccc6F)c6ccc3[nH]6)C=C5)C=C4)cc1)[C@@H](C(F)(F)F)O2
REMARK SMILES IDX 18 1 17 2 16 3 15 4 14 5 12 6 13 7 11 9 1 10 2 11 3 12 8 13
REMARK SMILES IDX 4 14 6 15 9 16 5 17 83 18 7 19 10 20 78 21 79 22 80 23 81 24
REMARK SMILES IDX 82 25 19 26 20 27 21 28 22 29 23 31 24 32 25 33 77 34 26 35
REMARK SMILES IDX 76 36 27 37 28 38 29 39 70 40 30 41 75 42 69 43 71 44 31 45
REMARK SMILES IDX 74 46 68 47 67 48 32 50 58 51 41 52 57 53 42 54 45 55 56 56
REMARK SMILES IDX 72 57 43 58 44 59 55 61 73 62 46 63 33 64 34 65 39 66 35 67
REMARK SMILES IDX 36 68 38 69 40 70 37 71 59 72 60 73 65 74 61 75 62 76 64 77
REMARK SMILES IDX 66 78 63 79 47 80 48 81 53 82 49 83 50 84 52 85 54 86 51 87
REMARK H PARENT 14 8 21 30 71 49 45 60
REMARK Flexibility Score: inf
ROOT
ATOM      1  C   UNL A   1      35.905  23.804  25.068  1.00  0.00     0.002 C 
ENDROOT
BRANCH   1   2
ATOM      2  C   UNL A   1      34.876  22.818  24.501  1.00  0.00     0.002 C 
BRANCH   2   3
ATOM      3  C   UNL A   1      33.543  22.743  25.253  1.00  0.00     0.021 C 
BRANCH   3   4
ATOM      4  C   UNL A   1      32.360  23.343  24.497  1.00  0.00     0.116 C 
BRANCH   4   5
ATOM      5  N   UNL A   1      32.769  23.935  23.237  1.00  0.00    -0.352 N 
ATOM      6  C   UNL A   1      32.773  25.164  22.670  1.00  0.00     0.251 C 
ATOM      7  O   UNL A   1      33.260  25.208  21.534  1.00  0.00    -0.270 OA
ATOM      8  H   UNL A   1      33.146  23.259  22.629  1.00  0.00     0.163 HD
BRANCH   6   9
ATOM      9  C   UNL A   1      32.251  26.417  23.296  1.00  0.00     0.067 C 
ATOM     10  C   UNL A   1      31.263  31.957  26.583  1.00  0.00     0.046 C 
ATOM     11  C   UNL A   1      31.803  30.685  25.986  1.00  0.00    -0.028 A 
ATOM     12  C   UNL A   1      31.051  30.050  24.995  1.00  0.00     0.052 A 
ATOM     13  C   UNL A   1      33.005  30.086  26.416  1.00  0.00     0.047 A 
ATOM     14  C   UNL A   1      31.489  28.858  24.427  1.00  0.00     0.128 A 
ATOM     15  C   UNL A   1      33.472  28.882  25.833  1.00  0.00    -0.021 A 
ATOM     16  Cl  UNL A   1      33.904  30.860  27.686  1.00  0.00    -0.084 Cl
ATOM     17  C   UNL A   1      32.695  28.272  24.817  1.00  0.00     0.022 A 
ATOM     18  O   UNL A   1      30.683  28.348  23.452  1.00  0.00    -0.475 OA
ATOM     19  C   UNL A   1      34.771  28.240  26.261  1.00  0.00     0.047 C 
ATOM     20  C   UNL A   1      33.112  27.053  24.113  1.00  0.00     0.026 C 
ATOM     21  C   UNL A   1      30.865  26.953  23.104  1.00  0.00     0.314 C 
BRANCH  21  22
ATOM     22  C   UNL A   1      29.792  26.111  23.815  1.00  0.00     0.429 C 
ATOM     23  F   UNL A   1      28.578  26.711  23.724  1.00  0.00    -0.167 F 
ATOM     24  F   UNL A   1      29.647  24.881  23.268  1.00  0.00    -0.167 F 
ATOM     25  F   UNL A   1      30.058  25.932  25.128  1.00  0.00    -0.167 F 
ENDBRANCH  21  22
ENDBRANCH   6   9
ENDBRANCH   4   5
ENDBRANCH   3   4
ENDBRANCH   2   3
ENDBRANCH   1   2
BRANCH   1  26
ATOM     26  C   UNL A   1      37.205  23.185  25.584  1.00  0.00     0.021 C 
BRANCH  26  27
ATOM     27  C   UNL A   1      38.112  24.137  26.357  1.00  0.00     0.116 C 
BRANCH  27  28
ATOM     28  N   UNL A   1      39.521  23.902  26.091  1.00  0.00    -0.352 N 
ATOM     29  C   UNL A   1      40.609  24.636  26.492  1.00  0.00     0.251 C 
ATOM     30  H   UNL A   1      39.723  23.106  25.548  1.00  0.00     0.163 HD
ATOM     31  O   UNL A   1      41.727  24.383  26.056  1.00  0.00    -0.269 OA
BRANCH  29  32
ATOM     32  C   UNL A   1      40.420  25.759  27.431  1.00  0.00     0.039 A 
ATOM     33  C   UNL A   1      39.584  25.579  28.535  1.00  0.00     0.014 A 
ATOM     34  C   UNL A   1      41.086  26.975  27.237  1.00  0.00     0.014 A 
ATOM     35  C   UNL A   1      39.468  26.597  29.482  1.00  0.00     0.010 A 
ATOM     36  C   UNL A   1      41.020  27.963  28.215  1.00  0.00     0.010 A 
ATOM     37  C   UNL A   1      40.211  27.782  29.347  1.00  0.00    -0.014 A 
BRANCH  37  38
ATOM     38  C   UNL A   1      40.156  28.827  30.398  1.00  0.00     0.031 A 
ATOM     39  C   UNL A   1      39.143  29.932  30.320  1.00  0.00     0.074 A 
ATOM     40  C   UNL A   1      41.038  28.786  31.416  1.00  0.00     0.049 A 
ATOM     41  N   UNL A   1      38.919  30.904  31.168  1.00  0.00    -0.248 NA
ATOM     42  C   UNL A   1      38.283  29.966  29.126  1.00  0.00     0.031 C 
ATOM     43  C   UNL A   1      42.103  27.794  31.571  1.00  0.00     0.029 A 
ATOM     44  N   UNL A   1      41.173  29.593  32.518  1.00  0.00    -0.354 N 
ATOM     45  C   UNL A   1      37.893  31.657  30.615  1.00  0.00     0.074 A 
ATOM     46  C   UNL A   1      37.579  31.069  29.330  1.00  0.00     0.031 C 
ATOM     47  C   UNL A   1      42.750  28.020  32.725  1.00  0.00     0.029 A 
ATOM     48  C   UNL A   1      42.163  29.186  33.380  1.00  0.00     0.049 A 
ATOM     49  H   UNL A   1      40.613  30.387  32.676  1.00  0.00     0.167 HD
ATOM     50  C   UNL A   1      37.248  32.722  31.144  1.00  0.00     0.037 A 
ATOM     51  C   UNL A   1      42.539  29.683  34.573  1.00  0.00     0.037 A 
ATOM     52  C   UNL A   1      37.545  33.288  32.432  1.00  0.00     0.049 A 
ATOM     53  C   UNL A   1      41.808  30.866  35.141  1.00  0.00     0.074 A 
ATOM     54  C   UNL A   1      36.914  34.337  33.077  1.00  0.00     0.029 A 
ATOM     55  N   UNL A   1      38.558  32.850  33.271  1.00  0.00    -0.354 N 
ATOM     56  N   UNL A   1      40.792  31.525  34.638  1.00  0.00    -0.248 NA
ATOM     57  C   UNL A   1      42.269  31.374  36.442  1.00  0.00     0.031 C 
ATOM     58  C   UNL A   1      37.565  34.554  34.294  1.00  0.00     0.029 A 
ATOM     59  C   UNL A   1      38.577  33.617  34.423  1.00  0.00     0.049 A 
ATOM     60  H   UNL A   1      39.170  32.104  33.077  1.00  0.00     0.167 HD
ATOM     61  C   UNL A   1      40.474  32.503  35.569  1.00  0.00     0.074 A 
ATOM     62  C   UNL A   1      41.403  32.352  36.671  1.00  0.00     0.031 C 
ATOM     63  C   UNL A   1      39.498  33.441  35.516  1.00  0.00     0.037 A 
BRANCH  50  64
ATOM     64  C   UNL A   1      36.135  33.327  30.344  1.00  0.00     0.057 A 
ATOM     65  C   UNL A   1      36.394  34.138  29.231  1.00  0.00     0.134 A 
ATOM     66  C   UNL A   1      34.796  33.055  30.649  1.00  0.00     0.134 A 
ATOM     67  F   UNL A   1      37.657  34.444  28.893  1.00  0.00    -0.206 F 
ATOM     68  C   UNL A   1      35.361  34.670  28.459  1.00  0.00     0.040 A 
ATOM     69  C   UNL A   1      33.754  33.563  29.872  1.00  0.00     0.040 A 
ATOM     70  F   UNL A   1      34.480  32.281  31.698  1.00  0.00    -0.206 F 
ATOM     71  C   UNL A   1      34.036  34.376  28.774  1.00  0.00     0.006 A 
ENDBRANCH  50  64
BRANCH  51  72
ATOM     72  C   UNL A   1      43.620  29.016  35.339  1.00  0.00     0.057 A 
ATOM     73  C   UNL A   1      44.955  29.400  35.172  1.00  0.00     0.134 A 
ATOM     74  C   UNL A   1      43.348  28.008  36.271  1.00  0.00     0.134 A 
ATOM     75  F   UNL A   1      45.279  30.351  34.284  1.00  0.00    -0.206 F 
ATOM     76  C   UNL A   1      45.985  28.799  35.898  1.00  0.00     0.040 A 
ATOM     77  C   UNL A   1      44.365  27.412  37.018  1.00  0.00     0.040 A 
ATOM     78  F   UNL A   1      42.087  27.604  36.482  1.00  0.00    -0.206 F 
ATOM     79  C   UNL A   1      45.690  27.806  36.831  1.00  0.00     0.006 A 
ENDBRANCH  51  72
BRANCH  63  80
ATOM     80  C   UNL A   1      39.357  34.369  36.683  1.00  0.00     0.057 A 
ATOM     81  C   UNL A   1      38.686  33.981  37.848  1.00  0.00     0.134 A 
ATOM     82  C   UNL A   1      39.989  35.618  36.679  1.00  0.00     0.134 A 
ATOM     83  F   UNL A   1      38.055  32.798  37.908  1.00  0.00    -0.206 F 
ATOM     84  C   UNL A   1      38.652  34.805  38.974  1.00  0.00     0.040 A 
ATOM     85  C   UNL A   1      39.977  36.442  37.805  1.00  0.00     0.040 A 
ATOM     86  F   UNL A   1      40.656  36.041  35.595  1.00  0.00    -0.206 F 
ATOM     87  C   UNL A   1      39.308  36.035  38.957  1.00  0.00     0.006 A 
ENDBRANCH  63  80
ENDBRANCH  37  38
ENDBRANCH  29  32
ENDBRANCH  27  28
ENDBRANCH  26  27
ENDBRANCH   1  26
TORSDOF 14
ENDMDL
