MODEL 1
REMARK VINA RESULT:     -12.6      0.000      0.000
REMARK SMILES O=C(NCCCCCCNC(=O)c1cc([C@@H]2C=NN=C2c2ccc(F)cc2)c2c(ccc3ccccc32)n1)c1ccc(-c2c3nc(c(-c4c(F)cccc4F)c4ccc([nH]4)c(-c4c(F)cccc4F)c4nc(c(-c5c(F)cccc5F)c5ccc2[nH]5)C=C4)C=C3)cc1
REMARK SMILES IDX 6 1 5 2 4 3 3 4 1 5 2 6 39 8 40 9 92 10 41 11 91 12 42 13
REMARK SMILES IDX 43 14 44 15 85 16 45 17 90 18 84 19 86 20 46 21 89 22 83 23
REMARK SMILES IDX 82 24 47 26 73 27 56 28 72 29 57 30 60 31 71 32 87 33 58 34
REMARK SMILES IDX 59 35 70 37 88 38 61 39 48 40 49 41 54 42 50 43 51 44 53 45
REMARK SMILES IDX 55 46 52 47 74 48 75 49 80 50 76 51 77 52 79 53 81 54 78 55
REMARK SMILES IDX 62 56 63 57 68 58 64 59 65 60 67 61 69 62 66 63 7 64 8 65
REMARK SMILES IDX 9 66 10 67 11 68 12 70 13 71 14 72 38 73 15 74 29 75 28 76
REMARK SMILES IDX 30 77 37 78 31 79 32 80 36 81 33 82 35 83 34 84 16 85 17 86
REMARK SMILES IDX 20 87 18 88 19 89 21 90 22 91 27 92 23 93 26 94 24 95 25 96
REMARK H PARENT 3 7 86 25 60 36 10 69
REMARK Flexibility Score: inf
ROOT
ATOM      1  C   UNL A   1      33.739  28.228  24.888  1.00  0.00     0.002 C 
ENDROOT
BRANCH   1   2
ATOM      2  C   UNL A   1      32.935  29.315  25.611  1.00  0.00     0.021 C 
BRANCH   2   3
ATOM      3  C   UNL A   1      33.162  29.392  27.121  1.00  0.00     0.116 C 
BRANCH   3   4
ATOM      4  N   UNL A   1      33.430  30.728  27.608  1.00  0.00    -0.352 N 
ATOM      5  O   UNL A   1      34.405  32.620  28.187  1.00  0.00    -0.269 OA
ATOM      6  C   UNL A   1      34.554  31.416  27.966  1.00  0.00     0.251 C 
ATOM      7  H   UNL A   1      32.611  31.267  27.702  1.00  0.00     0.163 HD
BRANCH   6   8
ATOM      8  C   UNL A   1      35.902  30.817  28.171  1.00  0.00     0.039 A 
ATOM      9  C   UNL A   1      36.244  29.477  27.985  1.00  0.00     0.014 A 
ATOM     10  C   UNL A   1      36.893  31.701  28.643  1.00  0.00     0.014 A 
ATOM     11  C   UNL A   1      37.506  29.012  28.346  1.00  0.00     0.010 A 
ATOM     12  C   UNL A   1      38.157  31.247  28.992  1.00  0.00     0.010 A 
ATOM     13  C   UNL A   1      38.448  29.891  28.880  1.00  0.00    -0.014 A 
BRANCH  13  14
ATOM     14  C   UNL A   1      39.783  29.379  29.181  1.00  0.00     0.031 A 
ATOM     15  C   UNL A   1      40.113  29.306  30.639  1.00  0.00     0.074 A 
ATOM     16  C   UNL A   1      40.588  28.849  28.237  1.00  0.00     0.049 A 
ATOM     17  N   UNL A   1      41.134  29.792  31.269  1.00  0.00    -0.248 NA
ATOM     18  C   UNL A   1      39.117  28.671  31.523  1.00  0.00     0.031 C 
ATOM     19  C   UNL A   1      40.269  28.579  26.832  1.00  0.00     0.029 A 
ATOM     20  N   UNL A   1      41.841  28.330  28.367  1.00  0.00    -0.354 N 
ATOM     21  C   UNL A   1      41.002  29.377  32.596  1.00  0.00     0.074 A 
ATOM     22  C   UNL A   1      39.688  28.807  32.719  1.00  0.00     0.031 C 
ATOM     23  C   UNL A   1      41.202  27.749  26.313  1.00  0.00     0.029 A 
ATOM     24  C   UNL A   1      42.245  27.535  27.301  1.00  0.00     0.049 A 
ATOM     25  H   UNL A   1      42.413  28.503  29.150  1.00  0.00     0.167 HD
ATOM     26  C   UNL A   1      42.058  29.345  33.454  1.00  0.00     0.037 A 
ATOM     27  C   UNL A   1      43.318  26.704  27.269  1.00  0.00     0.037 A 
ATOM     28  C   UNL A   1      43.105  30.235  33.033  1.00  0.00     0.049 A 
ATOM     29  C   UNL A   1      44.231  27.108  28.365  1.00  0.00     0.074 A 
ATOM     30  C   UNL A   1      43.201  31.598  32.831  1.00  0.00     0.029 A 
ATOM     31  N   UNL A   1      44.214  29.698  32.431  1.00  0.00    -0.354 N 
ATOM     32  N   UNL A   1      44.899  28.226  28.392  1.00  0.00    -0.248 NA
ATOM     33  C   UNL A   1      44.070  26.440  29.647  1.00  0.00     0.031 C 
ATOM     34  C   UNL A   1      44.062  31.743  31.705  1.00  0.00     0.029 A 
ATOM     35  C   UNL A   1      44.474  30.466  31.327  1.00  0.00     0.049 A 
ATOM     36  H   UNL A   1      44.726  28.913  32.734  1.00  0.00     0.167 HD
ATOM     37  C   UNL A   1      44.875  28.616  29.722  1.00  0.00     0.074 A 
ATOM     38  C   UNL A   1      44.426  27.438  30.459  1.00  0.00     0.031 C 
ATOM     39  C   UNL A   1      44.952  29.932  30.074  1.00  0.00     0.037 A 
BRANCH  26  40
ATOM     40  C   UNL A   1      42.284  28.251  34.474  1.00  0.00     0.057 A 
ATOM     41  C   UNL A   1      41.881  28.331  35.823  1.00  0.00     0.134 A 
ATOM     42  C   UNL A   1      42.643  26.961  34.039  1.00  0.00     0.134 A 
ATOM     43  F   UNL A   1      41.439  29.467  36.376  1.00  0.00    -0.206 F 
ATOM     44  C   UNL A   1      41.808  27.217  36.664  1.00  0.00     0.040 A 
ATOM     45  C   UNL A   1      42.526  25.830  34.859  1.00  0.00     0.040 A 
ATOM     46  F   UNL A   1      43.035  26.742  32.775  1.00  0.00    -0.206 F 
ATOM     47  C   UNL A   1      42.098  25.954  36.173  1.00  0.00     0.006 A 
ENDBRANCH  26  40
BRANCH  27  48
ATOM     48  C   UNL A   1      43.441  25.381  26.608  1.00  0.00     0.057 A 
ATOM     49  C   UNL A   1      44.224  25.205  25.454  1.00  0.00     0.134 A 
ATOM     50  C   UNL A   1      42.559  24.334  26.917  1.00  0.00     0.134 A 
ATOM     51  F   UNL A   1      45.048  26.169  25.021  1.00  0.00    -0.206 F 
ATOM     52  C   UNL A   1      44.119  24.070  24.643  1.00  0.00     0.040 A 
ATOM     53  C   UNL A   1      42.437  23.196  26.108  1.00  0.00     0.040 A 
ATOM     54  F   UNL A   1      41.738  24.425  27.975  1.00  0.00    -0.206 F 
ATOM     55  C   UNL A   1      43.212  23.067  24.958  1.00  0.00     0.006 A 
ENDBRANCH  27  48
BRANCH  39  56
ATOM     56  C   UNL A   1      45.302  30.933  29.008  1.00  0.00     0.057 A 
ATOM     57  C   UNL A   1      46.607  31.434  28.958  1.00  0.00     0.134 A 
ATOM     58  C   UNL A   1      44.358  31.540  28.166  1.00  0.00     0.134 A 
ATOM     59  F   UNL A   1      47.552  30.940  29.775  1.00  0.00    -0.206 F 
ATOM     60  C   UNL A   1      46.960  32.491  28.115  1.00  0.00     0.040 A 
ATOM     61  C   UNL A   1      44.706  32.575  27.292  1.00  0.00     0.040 A 
ATOM     62  F   UNL A   1      43.065  31.197  28.211  1.00  0.00    -0.206 F 
ATOM     63  C   UNL A   1      46.010  33.061  27.274  1.00  0.00     0.006 A 
ENDBRANCH  39  56
ENDBRANCH  13  14
ENDBRANCH   6   8
ENDBRANCH   3   4
ENDBRANCH   2   3
ENDBRANCH   1   2
BRANCH   1  64
ATOM     64  C   UNL A   1      33.525  26.794  25.383  1.00  0.00     0.002 C 
BRANCH  64  65
ATOM     65  C   UNL A   1      34.201  25.697  24.557  1.00  0.00     0.021 C 
BRANCH  65  66
ATOM     66  C   UNL A   1      33.577  25.435  23.189  1.00  0.00     0.116 C 
BRANCH  66  67
ATOM     67  N   UNL A   1      32.146  25.690  23.161  1.00  0.00    -0.351 N 
ATOM     68  C   UNL A   1      31.083  24.809  23.287  1.00  0.00     0.269 C 
ATOM     69  H   UNL A   1      31.894  26.633  23.032  1.00  0.00     0.163 HD
ATOM     70  O   UNL A   1      29.947  25.209  23.128  1.00  0.00    -0.268 OA
BRANCH  68  71
ATOM     71  C   UNL A   1      31.352  23.378  23.631  1.00  0.00     0.129 A 
ATOM     72  C   UNL A   1      31.609  23.011  24.932  1.00  0.00     0.039 A 
ATOM     73  N   UNL A   1      31.456  22.523  22.605  1.00  0.00    -0.243 NA
ATOM     74  C   UNL A   1      32.136  21.728  25.203  1.00  0.00    -0.021 A 
ATOM     75  C   UNL A   1      31.821  21.263  22.858  1.00  0.00     0.072 A 
ATOM     76  C   UNL A   1      32.169  20.739  24.141  1.00  0.00     0.012 A 
ATOM     77  C   UNL A   1      31.887  20.479  21.726  1.00  0.00     0.029 A 
ATOM     78  C   UNL A   1      32.524  19.310  24.185  1.00  0.00    -0.009 A 
ATOM     79  C   UNL A   1      32.292  19.155  21.768  1.00  0.00     0.011 A 
ATOM     80  C   UNL A   1      32.606  18.559  22.979  1.00  0.00    -0.018 A 
ATOM     81  C   UNL A   1      32.763  18.549  25.352  1.00  0.00     0.009 A 
ATOM     82  C   UNL A   1      32.984  17.203  22.967  1.00  0.00     0.009 A 
ATOM     83  C   UNL A   1      33.140  17.201  25.344  1.00  0.00     0.001 A 
ATOM     84  C   UNL A   1      33.266  16.528  24.146  1.00  0.00     0.001 A 
BRANCH  74  85
ATOM     85  C   UNL A   1      32.843  21.683  26.546  1.00  0.00     0.115 C 
ATOM     86  C   UNL A   1      32.233  22.534  27.607  1.00  0.00     0.123 C 
ATOM     87  C   UNL A   1      34.267  22.051  26.781  1.00  0.00     0.083 C 
ATOM     88  N   UNL A   1      33.113  23.119  28.352  1.00  0.00    -0.162 NA
ATOM     89  N   UNL A   1      34.409  22.798  27.840  1.00  0.00    -0.154 NA
BRANCH  87  90
ATOM     90  C   UNL A   1      35.413  21.524  26.026  1.00  0.00    -0.001 A 
ATOM     91  C   UNL A   1      35.330  20.203  25.561  1.00  0.00     0.013 A 
ATOM     92  C   UNL A   1      36.580  22.268  25.828  1.00  0.00     0.013 A 
ATOM     93  C   UNL A   1      36.405  19.632  24.882  1.00  0.00     0.040 A 
ATOM     94  C   UNL A   1      37.659  21.684  25.156  1.00  0.00     0.040 A 
ATOM     95  C   UNL A   1      37.561  20.377  24.687  1.00  0.00     0.123 A 
ATOM     96  F   UNL A   1      38.601  19.824  24.051  1.00  0.00    -0.207 F 
ENDBRANCH  87  90
ENDBRANCH  74  85
ENDBRANCH  68  71
ENDBRANCH  66  67
ENDBRANCH  65  66
ENDBRANCH  64  65
ENDBRANCH   1  64
TORSDOF 15
ENDMDL
MODEL 2
REMARK VINA RESULT:     -12.5      2.981      7.186
REMARK SMILES O=C(NCCCCCCNC(=O)c1cc([C@@H]2C=NN=C2c2ccc(F)cc2)c2c(ccc3ccccc32)n1)c1ccc(-c2c3nc(c(-c4c(F)cccc4F)c4ccc([nH]4)c(-c4c(F)cccc4F)c4nc(c(-c5c(F)cccc5F)c5ccc2[nH]5)C=C4)C=C3)cc1
REMARK SMILES IDX 6 1 5 2 4 3 3 4 1 5 2 6 39 8 40 9 92 10 41 11 91 12 42 13
REMARK SMILES IDX 43 14 44 15 85 16 45 17 90 18 84 19 86 20 46 21 89 22 83 23
REMARK SMILES IDX 82 24 47 26 73 27 56 28 72 29 57 30 60 31 71 32 87 33 58 34
REMARK SMILES IDX 59 35 70 37 88 38 61 39 48 40 49 41 54 42 50 43 51 44 53 45
REMARK SMILES IDX 55 46 52 47 74 48 75 49 80 50 76 51 77 52 79 53 81 54 78 55
REMARK SMILES IDX 62 56 63 57 68 58 64 59 65 60 67 61 69 62 66 63 7 64 8 65
REMARK SMILES IDX 9 66 10 67 11 68 12 70 13 71 14 72 38 73 15 74 29 75 28 76
REMARK SMILES IDX 30 77 37 78 31 79 32 80 36 81 33 82 35 83 34 84 16 85 17 86
REMARK SMILES IDX 20 87 18 88 19 89 21 90 22 91 27 92 23 93 26 94 24 95 25 96
REMARK H PARENT 3 7 86 25 60 36 10 69
REMARK Flexibility Score: inf
ROOT
ATOM      1  C   UNL A   1      33.955  20.721  24.607  1.00  0.00     0.002 C 
ENDROOT
BRANCH   1   2
ATOM      2  C   UNL A   1      35.198  19.847  24.816  1.00  0.00     0.021 C 
BRANCH   2   3
ATOM      3  C   UNL A   1      36.518  20.612  24.916  1.00  0.00     0.116 C 
BRANCH   3   4
ATOM      4  N   UNL A   1      37.691  19.765  24.906  1.00  0.00    -0.352 N 
ATOM      5  O   UNL A   1      39.617  18.801  25.384  1.00  0.00    -0.269 OA
ATOM      6  C   UNL A   1      38.916  19.809  25.508  1.00  0.00     0.251 C 
ATOM      7  H   UNL A   1      37.580  18.972  24.333  1.00  0.00     0.163 HD
BRANCH   6   8
ATOM      8  C   UNL A   1      39.480  20.983  26.228  1.00  0.00     0.039 A 
ATOM      9  C   UNL A   1      39.100  22.315  26.057  1.00  0.00     0.014 A 
ATOM     10  C   UNL A   1      40.529  20.698  27.125  1.00  0.00     0.014 A 
ATOM     11  C   UNL A   1      39.802  23.339  26.687  1.00  0.00     0.010 A 
ATOM     12  C   UNL A   1      41.225  21.713  27.768  1.00  0.00     0.010 A 
ATOM     13  C   UNL A   1      40.884  23.038  27.515  1.00  0.00    -0.014 A 
BRANCH  13  14
ATOM     14  C   UNL A   1      41.551  24.135  28.213  1.00  0.00     0.031 A 
ATOM     15  C   UNL A   1      40.769  25.410  28.268  1.00  0.00     0.074 A 
ATOM     16  C   UNL A   1      42.695  23.966  28.906  1.00  0.00     0.049 A 
ATOM     17  N   UNL A   1      41.130  26.603  27.917  1.00  0.00    -0.248 NA
ATOM     18  C   UNL A   1      39.361  25.318  28.698  1.00  0.00     0.031 C 
ATOM     19  C   UNL A   1      43.399  22.711  29.188  1.00  0.00     0.029 A 
ATOM     20  N   UNL A   1      43.421  24.883  29.606  1.00  0.00    -0.354 N 
ATOM     21  C   UNL A   1      40.062  27.441  28.245  1.00  0.00     0.074 A 
ATOM     22  C   UNL A   1      38.961  26.585  28.597  1.00  0.00     0.031 C 
ATOM     23  C   UNL A   1      44.299  22.916  30.176  1.00  0.00     0.029 A 
ATOM     24  C   UNL A   1      44.329  24.330  30.503  1.00  0.00     0.049 A 
ATOM     25  H   UNL A   1      43.312  25.854  29.487  1.00  0.00     0.167 HD
ATOM     26  C   UNL A   1      40.216  28.784  28.399  1.00  0.00     0.037 A 
ATOM     27  C   UNL A   1      44.992  24.983  31.491  1.00  0.00     0.037 A 
ATOM     28  C   UNL A   1      41.378  29.265  27.704  1.00  0.00     0.049 A 
ATOM     29  C   UNL A   1      44.943  26.432  31.182  1.00  0.00     0.074 A 
ATOM     30  C   UNL A   1      41.782  29.285  26.382  1.00  0.00     0.029 A 
ATOM     31  N   UNL A   1      42.503  29.551  28.433  1.00  0.00    -0.354 N 
ATOM     32  N   UNL A   1      45.560  26.993  30.181  1.00  0.00    -0.248 NA
ATOM     33  C   UNL A   1      43.849  27.200  31.756  1.00  0.00     0.031 C 
ATOM     34  C   UNL A   1      43.190  29.072  26.426  1.00  0.00     0.029 A 
ATOM     35  C   UNL A   1      43.560  28.988  27.768  1.00  0.00     0.049 A 
ATOM     36  H   UNL A   1      42.544  30.064  29.273  1.00  0.00     0.167 HD
ATOM     37  C   UNL A   1      44.683  27.967  29.730  1.00  0.00     0.074 A 
ATOM     38  C   UNL A   1      43.686  28.104  30.789  1.00  0.00     0.031 C 
ATOM     39  C   UNL A   1      44.685  28.372  28.427  1.00  0.00     0.037 A 
BRANCH  26  40
ATOM     40  C   UNL A   1      39.516  29.597  29.466  1.00  0.00     0.057 A 
ATOM     41  C   UNL A   1      38.434  30.466  29.216  1.00  0.00     0.134 A 
ATOM     42  C   UNL A   1      39.722  29.283  30.823  1.00  0.00     0.134 A 
ATOM     43  F   UNL A   1      38.055  30.807  27.978  1.00  0.00    -0.206 F 
ATOM     44  C   UNL A   1      37.603  30.959  30.226  1.00  0.00     0.040 A 
ATOM     45  C   UNL A   1      38.866  29.732  31.839  1.00  0.00     0.040 A 
ATOM     46  F   UNL A   1      40.710  28.458  31.199  1.00  0.00    -0.206 F 
ATOM     47  C   UNL A   1      37.796  30.565  31.541  1.00  0.00     0.006 A 
ENDBRANCH  26  40
BRANCH  27  48
ATOM     48  C   UNL A   1      45.344  24.493  32.846  1.00  0.00     0.057 A 
ATOM     49  C   UNL A   1      44.380  23.924  33.696  1.00  0.00     0.134 A 
ATOM     50  C   UNL A   1      46.562  24.845  33.448  1.00  0.00     0.134 A 
ATOM     51  F   UNL A   1      43.155  23.616  33.248  1.00  0.00    -0.206 F 
ATOM     52  C   UNL A   1      44.603  23.737  35.065  1.00  0.00     0.040 A 
ATOM     53  C   UNL A   1      46.795  24.672  34.820  1.00  0.00     0.040 A 
ATOM     54  F   UNL A   1      47.530  25.433  32.731  1.00  0.00    -0.206 F 
ATOM     55  C   UNL A   1      45.807  24.128  35.636  1.00  0.00     0.006 A 
ENDBRANCH  27  48
BRANCH  39  56
ATOM     56  C   UNL A   1      45.813  27.915  27.543  1.00  0.00     0.057 A 
ATOM     57  C   UNL A   1      46.862  28.801  27.280  1.00  0.00     0.134 A 
ATOM     58  C   UNL A   1      45.797  26.716  26.814  1.00  0.00     0.134 A 
ATOM     59  F   UNL A   1      46.912  29.992  27.900  1.00  0.00    -0.206 F 
ATOM     60  C   UNL A   1      47.849  28.515  26.334  1.00  0.00     0.040 A 
ATOM     61  C   UNL A   1      46.799  26.402  25.889  1.00  0.00     0.040 A 
ATOM     62  F   UNL A   1      44.784  25.849  26.924  1.00  0.00    -0.206 F 
ATOM     63  C   UNL A   1      47.823  27.310  25.639  1.00  0.00     0.006 A 
ENDBRANCH  39  56
ENDBRANCH  13  14
ENDBRANCH   6   8
ENDBRANCH   3   4
ENDBRANCH   2   3
ENDBRANCH   1   2
BRANCH   1  64
ATOM     64  C   UNL A   1      32.788  20.061  23.866  1.00  0.00     0.002 C 
BRANCH  64  65
ATOM     65  C   UNL A   1      32.155  20.892  22.747  1.00  0.00     0.021 C 
BRANCH  65  66
ATOM     66  C   UNL A   1      32.460  22.386  22.795  1.00  0.00     0.116 C 
BRANCH  66  67
ATOM     67  N   UNL A   1      32.791  22.938  21.491  1.00  0.00    -0.351 N 
ATOM     68  C   UNL A   1      33.059  24.248  21.122  1.00  0.00     0.269 C 
ATOM     69  H   UNL A   1      32.831  22.281  20.759  1.00  0.00     0.163 HD
ATOM     70  O   UNL A   1      33.212  24.523  19.948  1.00  0.00    -0.268 OA
BRANCH  68  71
ATOM     71  C   UNL A   1      33.169  25.300  22.179  1.00  0.00     0.129 A 
ATOM     72  C   UNL A   1      33.969  25.101  23.280  1.00  0.00     0.039 A 
ATOM     73  N   UNL A   1      32.361  26.363  22.056  1.00  0.00    -0.243 NA
ATOM     74  C   UNL A   1      33.848  25.961  24.395  1.00  0.00    -0.021 A 
ATOM     75  C   UNL A   1      32.335  27.264  23.042  1.00  0.00     0.072 A 
ATOM     76  C   UNL A   1      33.065  27.177  24.268  1.00  0.00     0.012 A 
ATOM     77  C   UNL A   1      31.473  28.310  22.798  1.00  0.00     0.029 A 
ATOM     78  C   UNL A   1      32.895  28.300  25.205  1.00  0.00    -0.009 A 
ATOM     79  C   UNL A   1      31.265  29.326  23.718  1.00  0.00     0.011 A 
ATOM     80  C   UNL A   1      31.966  29.338  24.913  1.00  0.00    -0.018 A 
ATOM     81  C   UNL A   1      33.618  28.498  26.404  1.00  0.00     0.009 A 
ATOM     82  C   UNL A   1      31.738  30.407  25.799  1.00  0.00     0.009 A 
ATOM     83  C   UNL A   1      33.393  29.559  27.288  1.00  0.00     0.001 A 
ATOM     84  C   UNL A   1      32.439  30.511  26.992  1.00  0.00     0.001 A 
BRANCH  74  85
ATOM     85  C   UNL A   1      34.369  25.312  25.665  1.00  0.00     0.115 C 
ATOM     86  C   UNL A   1      35.810  24.935  25.634  1.00  0.00     0.123 C 
ATOM     87  C   UNL A   1      33.840  24.056  26.268  1.00  0.00     0.083 C 
ATOM     88  N   UNL A   1      36.048  23.806  26.215  1.00  0.00    -0.162 NA
ATOM     89  N   UNL A   1      34.798  23.253  26.636  1.00  0.00    -0.154 NA
BRANCH  87  90
ATOM     90  C   UNL A   1      32.426  23.791  26.570  1.00  0.00    -0.001 A 
ATOM     91  C   UNL A   1      32.100  22.526  27.084  1.00  0.00     0.013 A 
ATOM     92  C   UNL A   1      31.419  24.721  26.297  1.00  0.00     0.013 A 
ATOM     93  C   UNL A   1      30.771  22.199  27.343  1.00  0.00     0.040 A 
ATOM     94  C   UNL A   1      30.086  24.381  26.549  1.00  0.00     0.040 A 
ATOM     95  C   UNL A   1      29.775  23.128  27.072  1.00  0.00     0.123 A 
ATOM     96  F   UNL A   1      28.496  22.809  27.303  1.00  0.00    -0.207 F 
ENDBRANCH  87  90
ENDBRANCH  74  85
ENDBRANCH  68  71
ENDBRANCH  66  67
ENDBRANCH  65  66
ENDBRANCH  64  65
ENDBRANCH   1  64
TORSDOF 15
ENDMDL
MODEL 3
REMARK VINA RESULT:     -12.5      2.070      3.003
REMARK SMILES O=C(NCCCCCCNC(=O)c1cc([C@@H]2C=NN=C2c2ccc(F)cc2)c2c(ccc3ccccc32)n1)c1ccc(-c2c3nc(c(-c4c(F)cccc4F)c4ccc([nH]4)c(-c4c(F)cccc4F)c4nc(c(-c5c(F)cccc5F)c5ccc2[nH]5)C=C4)C=C3)cc1
REMARK SMILES IDX 6 1 5 2 4 3 3 4 1 5 2 6 39 8 40 9 92 10 41 11 91 12 42 13
REMARK SMILES IDX 43 14 44 15 85 16 45 17 90 18 84 19 86 20 46 21 89 22 83 23
REMARK SMILES IDX 82 24 47 26 73 27 56 28 72 29 57 30 60 31 71 32 87 33 58 34
REMARK SMILES IDX 59 35 70 37 88 38 61 39 48 40 49 41 54 42 50 43 51 44 53 45
REMARK SMILES IDX 55 46 52 47 74 48 75 49 80 50 76 51 77 52 79 53 81 54 78 55
REMARK SMILES IDX 62 56 63 57 68 58 64 59 65 60 67 61 69 62 66 63 7 64 8 65
REMARK SMILES IDX 9 66 10 67 11 68 12 70 13 71 14 72 38 73 15 74 29 75 28 76
REMARK SMILES IDX 30 77 37 78 31 79 32 80 36 81 33 82 35 83 34 84 16 85 17 86
REMARK SMILES IDX 20 87 18 88 19 89 21 90 22 91 27 92 23 93 26 94 24 95 25 96
REMARK H PARENT 3 7 86 25 60 36 10 69
REMARK Flexibility Score: inf
ROOT
ATOM      1  C   UNL A   1      33.433  28.088  24.794  1.00  0.00     0.002 C 
ENDROOT
BRANCH   1   2
ATOM      2  C   UNL A   1      33.588  29.241  25.793  1.00  0.00     0.021 C 
BRANCH   2   3
ATOM      3  C   UNL A   1      34.599  28.995  26.913  1.00  0.00     0.116 C 
BRANCH   3   4
ATOM      4  N   UNL A   1      35.193  30.203  27.444  1.00  0.00    -0.352 N 
ATOM      5  O   UNL A   1      36.615  31.758  28.098  1.00  0.00    -0.269 OA
ATOM      6  C   UNL A   1      36.449  30.562  27.846  1.00  0.00     0.251 C 
ATOM      7  H   UNL A   1      34.543  30.936  27.537  1.00  0.00     0.163 HD
BRANCH   6   8
ATOM      8  C   UNL A   1      37.586  29.626  28.061  1.00  0.00     0.039 A 
ATOM      9  C   UNL A   1      37.729  28.736  29.127  1.00  0.00     0.014 A 
ATOM     10  C   UNL A   1      38.622  29.701  27.109  1.00  0.00     0.014 A 
ATOM     11  C   UNL A   1      38.907  28.013  29.292  1.00  0.00     0.010 A 
ATOM     12  C   UNL A   1      39.794  28.973  27.259  1.00  0.00     0.010 A 
ATOM     13  C   UNL A   1      39.950  28.158  28.377  1.00  0.00    -0.014 A 
BRANCH  13  14
ATOM     14  C   UNL A   1      41.143  27.330  28.545  1.00  0.00     0.031 A 
ATOM     15  C   UNL A   1      41.907  27.582  29.807  1.00  0.00     0.074 A 
ATOM     16  C   UNL A   1      41.435  26.301  27.724  1.00  0.00     0.049 A 
ATOM     17  N   UNL A   1      43.165  27.848  29.958  1.00  0.00    -0.248 NA
ATOM     18  C   UNL A   1      41.137  27.621  31.065  1.00  0.00     0.031 C 
ATOM     19  C   UNL A   1      40.614  25.756  26.639  1.00  0.00     0.029 A 
ATOM     20  N   UNL A   1      42.494  25.445  27.760  1.00  0.00    -0.354 N 
ATOM     21  C   UNL A   1      43.382  27.915  31.336  1.00  0.00     0.074 A 
ATOM     22  C   UNL A   1      42.086  27.898  31.958  1.00  0.00     0.031 C 
ATOM     23  C   UNL A   1      41.090  24.542  26.284  1.00  0.00     0.029 A 
ATOM     24  C   UNL A   1      42.316  24.282  27.018  1.00  0.00     0.049 A 
ATOM     25  H   UNL A   1      43.316  25.633  28.268  1.00  0.00     0.167 HD
ATOM     26  C   UNL A   1      44.621  27.776  31.882  1.00  0.00     0.037 A 
ATOM     27  C   UNL A   1      43.081  23.162  27.070  1.00  0.00     0.037 A 
ATOM     28  C   UNL A   1      45.654  28.083  30.930  1.00  0.00     0.049 A 
ATOM     29  C   UNL A   1      44.374  23.531  27.693  1.00  0.00     0.074 A 
ATOM     30  C   UNL A   1      46.006  29.205  30.205  1.00  0.00     0.029 A 
ATOM     31  N   UNL A   1      46.335  27.045  30.349  1.00  0.00    -0.354 N 
ATOM     32  N   UNL A   1      45.265  24.304  27.141  1.00  0.00    -0.248 NA
ATOM     33  C   UNL A   1      44.490  23.370  29.135  1.00  0.00     0.031 C 
ATOM     34  C   UNL A   1      46.454  28.705  28.949  1.00  0.00     0.029 A 
ATOM     35  C   UNL A   1      46.394  27.313  29.007  1.00  0.00     0.049 A 
ATOM     36  H   UNL A   1      46.710  26.258  30.808  1.00  0.00     0.167 HD
ATOM     37  C   UNL A   1      45.778  25.053  28.188  1.00  0.00     0.074 A 
ATOM     38  C   UNL A   1      45.325  24.376  29.401  1.00  0.00     0.031 C 
ATOM     39  C   UNL A   1      46.286  26.302  27.982  1.00  0.00     0.037 A 
BRANCH  26  40
ATOM     40  C   UNL A   1      44.899  27.024  33.165  1.00  0.00     0.057 A 
ATOM     41  C   UNL A   1      45.225  27.643  34.390  1.00  0.00     0.134 A 
ATOM     42  C   UNL A   1      44.540  25.667  33.265  1.00  0.00     0.134 A 
ATOM     43  F   UNL A   1      45.517  28.946  34.483  1.00  0.00    -0.206 F 
ATOM     44  C   UNL A   1      45.168  26.978  35.618  1.00  0.00     0.040 A 
ATOM     45  C   UNL A   1      44.432  25.004  34.495  1.00  0.00     0.040 A 
ATOM     46  F   UNL A   1      44.195  24.962  32.177  1.00  0.00    -0.206 F 
ATOM     47  C   UNL A   1      44.737  25.663  35.679  1.00  0.00     0.006 A 
ENDBRANCH  26  40
BRANCH  27  48
ATOM     48  C   UNL A   1      42.653  21.746  26.957  1.00  0.00     0.057 A 
ATOM     49  C   UNL A   1      43.277  20.858  26.064  1.00  0.00     0.134 A 
ATOM     50  C   UNL A   1      41.433  21.315  27.500  1.00  0.00     0.134 A 
ATOM     51  F   UNL A   1      44.407  21.193  25.428  1.00  0.00    -0.206 F 
ATOM     52  C   UNL A   1      42.711  19.627  25.714  1.00  0.00     0.040 A 
ATOM     53  C   UNL A   1      40.851  20.089  27.150  1.00  0.00     0.040 A 
ATOM     54  F   UNL A   1      40.739  22.109  28.330  1.00  0.00    -0.206 F 
ATOM     55  C   UNL A   1      41.486  19.245  26.243  1.00  0.00     0.006 A 
ENDBRANCH  27  48
BRANCH  39  56
ATOM     56  C   UNL A   1      46.495  26.759  26.565  1.00  0.00     0.057 A 
ATOM     57  C   UNL A   1      47.786  26.715  26.030  1.00  0.00     0.134 A 
ATOM     58  C   UNL A   1      45.512  27.400  25.797  1.00  0.00     0.134 A 
ATOM     59  F   UNL A   1      48.792  26.168  26.732  1.00  0.00    -0.206 F 
ATOM     60  C   UNL A   1      48.091  27.284  24.790  1.00  0.00     0.040 A 
ATOM     61  C   UNL A   1      45.795  27.942  24.539  1.00  0.00     0.040 A 
ATOM     62  F   UNL A   1      44.270  27.577  26.265  1.00  0.00    -0.206 F 
ATOM     63  C   UNL A   1      47.092  27.894  24.037  1.00  0.00     0.006 A 
ENDBRANCH  39  56
ENDBRANCH  13  14
ENDBRANCH   6   8
ENDBRANCH   3   4
ENDBRANCH   2   3
ENDBRANCH   1   2
BRANCH   1  64
ATOM     64  C   UNL A   1      33.350  26.683  25.399  1.00  0.00     0.002 C 
BRANCH  64  65
ATOM     65  C   UNL A   1      34.201  25.612  24.712  1.00  0.00     0.021 C 
BRANCH  65  66
ATOM     66  C   UNL A   1      33.775  25.254  23.291  1.00  0.00     0.116 C 
BRANCH  66  67
ATOM     67  N   UNL A   1      32.364  25.503  23.044  1.00  0.00    -0.351 N 
ATOM     68  C   UNL A   1      31.292  24.622  23.048  1.00  0.00     0.269 C 
ATOM     69  H   UNL A   1      32.134  26.439  22.844  1.00  0.00     0.163 HD
ATOM     70  O   UNL A   1      30.191  25.012  22.709  1.00  0.00    -0.268 OA
BRANCH  68  71
ATOM     71  C   UNL A   1      31.505  23.207  23.484  1.00  0.00     0.129 A 
ATOM     72  C   UNL A   1      31.673  22.906  24.816  1.00  0.00     0.039 A 
ATOM     73  N   UNL A   1      31.652  22.295  22.513  1.00  0.00    -0.243 NA
ATOM     74  C   UNL A   1      32.152  21.630  25.187  1.00  0.00    -0.021 A 
ATOM     75  C   UNL A   1      31.970  21.044  22.855  1.00  0.00     0.072 A 
ATOM     76  C   UNL A   1      32.226  20.584  24.184  1.00  0.00     0.012 A 
ATOM     77  C   UNL A   1      32.087  20.199  21.773  1.00  0.00     0.029 A 
ATOM     78  C   UNL A   1      32.544  19.153  24.325  1.00  0.00    -0.009 A 
ATOM     79  C   UNL A   1      32.458  18.871  21.909  1.00  0.00     0.011 A 
ATOM     80  C   UNL A   1      32.682  18.335  23.168  1.00  0.00    -0.018 A 
ATOM     81  C   UNL A   1      32.692  18.451  25.544  1.00  0.00     0.009 A 
ATOM     82  C   UNL A   1      33.028  16.974  23.252  1.00  0.00     0.009 A 
ATOM     83  C   UNL A   1      33.037  17.097  25.631  1.00  0.00     0.001 A 
ATOM     84  C   UNL A   1      33.220  16.358  24.480  1.00  0.00     0.001 A 
BRANCH  74  85
ATOM     85  C   UNL A   1      32.773  21.643  26.572  1.00  0.00     0.115 C 
ATOM     86  C   UNL A   1      32.014  22.416  27.596  1.00  0.00     0.123 C 
ATOM     87  C   UNL A   1      34.135  22.152  26.899  1.00  0.00     0.083 C 
ATOM     88  N   UNL A   1      32.780  23.080  28.397  1.00  0.00    -0.162 NA
ATOM     89  N   UNL A   1      34.132  22.899  27.967  1.00  0.00    -0.154 NA
BRANCH  87  90
ATOM     90  C   UNL A   1      35.374  21.754  26.216  1.00  0.00    -0.001 A 
ATOM     91  C   UNL A   1      36.394  22.713  26.114  1.00  0.00     0.013 A 
ATOM     92  C   UNL A   1      35.527  20.498  25.622  1.00  0.00     0.013 A 
ATOM     93  C   UNL A   1      37.572  22.410  25.435  1.00  0.00     0.040 A 
ATOM     94  C   UNL A   1      36.708  20.205  24.933  1.00  0.00     0.040 A 
ATOM     95  C   UNL A   1      37.718  21.159  24.848  1.00  0.00     0.123 A 
ATOM     96  F   UNL A   1      38.842  20.872  24.180  1.00  0.00    -0.207 F 
ENDBRANCH  87  90
ENDBRANCH  74  85
ENDBRANCH  68  71
ENDBRANCH  66  67
ENDBRANCH  65  66
ENDBRANCH  64  65
ENDBRANCH   1  64
TORSDOF 15
ENDMDL
