MODEL 1
REMARK VINA RESULT:     -12.9      0.000      0.000
REMARK SMILES Cc1ccc(-c2c(C)sc(NC(=O)[C@H]3CC=CC[C@H]3C(=O)NCCCCCCNC(=O)c3ccc(-c4c5nc(c(-c6c(F)cccc6F)c6ccc([nH]6)c(-c6c(F)cccc6F)c6nc(c(-c7c(F)cccc7F)c7ccc4[nH]7)C=C6)C=C5)cc3)c2C(N)=O)cc1
REMARK SMILES IDX 25 1 24 2 23 3 22 4 20 5 21 6 19 8 14 9 15 10 16 11 18 12
REMARK SMILES IDX 17 13 12 14 11 15 13 17 10 18 6 19 7 20 86 21 8 22 9 23 5 24
REMARK SMILES IDX 1 25 2 26 3 27 91 28 4 29 90 30 87 31 88 32 89 33 26 36
REMARK SMILES IDX 27 37 28 38 29 39 30 40 31 42 32 43 33 44 85 45 34 46 84 47
REMARK SMILES IDX 35 48 36 49 37 50 78 51 38 52 83 53 77 54 79 55 39 56 82 57
REMARK SMILES IDX 76 58 75 59 40 61 66 62 49 63 65 64 50 65 53 66 64 67 80 68
REMARK SMILES IDX 51 69 52 70 63 72 81 73 54 74 41 75 42 76 47 77 43 78 44 79
REMARK SMILES IDX 46 80 48 81 45 82 67 83 68 84 73 85 69 86 70 87 72 88 74 89
REMARK SMILES IDX 71 90 55 91 56 92 61 93 57 94 58 95 60 96 62 97 59 98
REMARK H PARENT 22 7 11 16 88 34 88 35 29 41 79 60 53 71
REMARK Flexibility Score: inf
ROOT
ATOM      1  C   UNL A   1      31.378  31.359  26.429  1.00  0.00     0.002 C 
ENDROOT
BRANCH   1   2
ATOM      2  C   UNL A   1      31.260  30.825  24.998  1.00  0.00     0.021 C 
BRANCH   2   3
ATOM      3  C   UNL A   1      29.887  31.058  24.370  1.00  0.00     0.116 C 
BRANCH   3   4
ATOM      4  N   UNL A   1      29.713  30.183  23.250  1.00  0.00    -0.356 N 
ATOM      5  C   UNL A   1      30.356  29.037  22.950  1.00  0.00     0.224 C 
ATOM      6  O   UNL A   1      30.201  28.602  21.806  1.00  0.00    -0.275 OA
ATOM      7  H   UNL A   1      29.022  30.458  22.605  1.00  0.00     0.163 HD
BRANCH   5   8
ATOM      8  C   UNL A   1      31.157  28.248  23.970  1.00  0.00     0.095 C 
ATOM      9  C   UNL A   1      30.483  27.220  24.902  1.00  0.00     0.095 C 
ATOM     10  C   UNL A   1      31.349  27.112  26.175  1.00  0.00     0.041 C 
ATOM     11  C   UNL A   1      32.841  27.244  25.926  1.00  0.00    -0.030 C 
ATOM     12  C   UNL A   1      32.547  27.826  23.509  1.00  0.00     0.041 C 
ATOM     13  C   UNL A   1      33.381  27.509  24.721  1.00  0.00    -0.030 C 
BRANCH   9  14
ATOM     14  C   UNL A   1      29.874  25.892  24.360  1.00  0.00     0.229 C 
ATOM     15  N   UNL A   1      30.416  24.645  24.225  1.00  0.00    -0.317 N 
ATOM     16  H   UNL A   1      29.936  24.082  23.576  1.00  0.00     0.170 HD
ATOM     17  O   UNL A   1      28.732  25.966  23.864  1.00  0.00    -0.274 OA
BRANCH  15  18
ATOM     18  C   UNL A   1      31.493  24.011  24.805  1.00  0.00     0.109 A 
ATOM     19  C   UNL A   1      33.530  23.032  25.406  1.00  0.00     0.010 A 
ATOM     20  C   UNL A   1      32.746  22.867  26.540  1.00  0.00     0.012 A 
ATOM     21  C   UNL A   1      32.783  23.723  24.342  1.00  0.00     0.082 A 
ATOM     22  C   UNL A   1      33.082  22.507  27.949  1.00  0.00     0.057 C 
ATOM     23  S   UNL A   1      31.119  22.941  26.067  1.00  0.00    -0.122 S 
BRANCH  19  24
ATOM     24  C   UNL A   1      34.872  22.450  25.390  1.00  0.00    -0.016 A 
ATOM     25  C   UNL A   1      38.930  20.979  25.414  1.00  0.00     0.044 C 
ATOM     26  C   UNL A   1      37.523  21.495  25.377  1.00  0.00    -0.051 A 
ATOM     27  C   UNL A   1      36.455  20.658  25.018  1.00  0.00     0.004 A 
ATOM     28  C   UNL A   1      37.255  22.814  25.745  1.00  0.00     0.004 A 
ATOM     29  C   UNL A   1      35.135  21.134  25.013  1.00  0.00     0.009 A 
ATOM     30  C   UNL A   1      35.945  23.277  25.768  1.00  0.00     0.009 A 
ENDBRANCH  19  24
BRANCH  21  31
ATOM     31  C   UNL A   1      33.347  24.036  23.021  1.00  0.00     0.252 C 
ATOM     32  N   UNL A   1      32.743  23.497  21.917  1.00  0.00    -0.365 N 
ATOM     33  O   UNL A   1      34.320  24.748  22.840  1.00  0.00    -0.269 OA
ATOM     34  H   UNL A   1      31.954  22.916  22.022  1.00  0.00     0.159 HD
ATOM     35  H   UNL A   1      33.096  23.689  21.019  1.00  0.00     0.159 HD
ENDBRANCH  21  31
ENDBRANCH  15  18
ENDBRANCH   9  14
ENDBRANCH   5   8
ENDBRANCH   3   4
ENDBRANCH   2   3
ENDBRANCH   1   2
BRANCH   1  36
ATOM     36  C   UNL A   1      32.454  30.681  27.289  1.00  0.00     0.002 C 
BRANCH  36  37
ATOM     37  C   UNL A   1      33.668  31.548  27.620  1.00  0.00     0.021 C 
BRANCH  37  38
ATOM     38  C   UNL A   1      34.985  30.815  27.467  1.00  0.00     0.116 C 
BRANCH  38  39
ATOM     39  N   UNL A   1      36.098  31.534  28.051  1.00  0.00    -0.352 N 
ATOM     40  C   UNL A   1      37.242  31.073  28.665  1.00  0.00     0.251 C 
ATOM     41  H   UNL A   1      36.026  32.515  28.001  1.00  0.00     0.163 HD
ATOM     42  O   UNL A   1      37.959  31.882  29.252  1.00  0.00    -0.269 OA
BRANCH  40  43
ATOM     43  C   UNL A   1      37.729  29.686  28.437  1.00  0.00     0.039 A 
ATOM     44  C   UNL A   1      37.753  28.861  29.572  1.00  0.00     0.014 A 
ATOM     45  C   UNL A   1      38.499  29.362  27.329  1.00  0.00     0.014 A 
ATOM     46  C   UNL A   1      38.791  27.955  29.727  1.00  0.00     0.010 A 
ATOM     47  C   UNL A   1      39.606  28.585  27.527  1.00  0.00     0.010 A 
ATOM     48  C   UNL A   1      39.779  27.949  28.754  1.00  0.00    -0.014 A 
BRANCH  48  49
ATOM     49  C   UNL A   1      41.041  27.265  28.876  1.00  0.00     0.031 A 
ATOM     50  C   UNL A   1      41.047  25.833  28.573  1.00  0.00     0.074 A 
ATOM     51  C   UNL A   1      42.147  28.017  29.054  1.00  0.00     0.049 A 
ATOM     52  N   UNL A   1      41.898  24.993  29.034  1.00  0.00    -0.248 NA
ATOM     53  C   UNL A   1      40.012  25.213  27.748  1.00  0.00     0.031 C 
ATOM     54  C   UNL A   1      43.542  27.644  28.879  1.00  0.00     0.029 A 
ATOM     55  N   UNL A   1      42.202  29.300  29.613  1.00  0.00    -0.354 N 
ATOM     56  C   UNL A   1      41.753  23.836  28.297  1.00  0.00     0.074 A 
ATOM     57  C   UNL A   1      40.479  23.970  27.637  1.00  0.00     0.031 C 
ATOM     58  C   UNL A   1      44.310  28.506  29.572  1.00  0.00     0.029 A 
ATOM     59  C   UNL A   1      43.413  29.366  30.330  1.00  0.00     0.049 A 
ATOM     60  H   UNL A   1      41.529  30.013  29.522  1.00  0.00     0.167 HD
ATOM     61  C   UNL A   1      42.832  23.011  28.184  1.00  0.00     0.037 A 
ATOM     62  C   UNL A   1      43.385  29.456  31.695  1.00  0.00     0.037 A 
ATOM     63  C   UNL A   1      43.938  23.546  28.985  1.00  0.00     0.049 A 
ATOM     64  C   UNL A   1      43.948  28.221  32.360  1.00  0.00     0.074 A 
ATOM     65  C   UNL A   1      45.025  24.335  28.639  1.00  0.00     0.029 A 
ATOM     66  N   UNL A   1      43.805  23.642  30.366  1.00  0.00    -0.354 N 
ATOM     67  N   UNL A   1      43.981  27.043  31.795  1.00  0.00    -0.248 NA
ATOM     68  C   UNL A   1      44.545  28.221  33.692  1.00  0.00     0.031 C 
ATOM     69  C   UNL A   1      45.498  24.965  29.818  1.00  0.00     0.029 A 
ATOM     70  C   UNL A   1      44.715  24.546  30.880  1.00  0.00     0.049 A 
ATOM     71  H   UNL A   1      43.153  23.136  30.902  1.00  0.00     0.167 HD
ATOM     72  C   UNL A   1      44.583  26.148  32.641  1.00  0.00     0.074 A 
ATOM     73  C   UNL A   1      44.922  26.937  33.812  1.00  0.00     0.031 C 
ATOM     74  C   UNL A   1      44.761  24.835  32.308  1.00  0.00     0.037 A 
BRANCH  61  75
ATOM     75  C   UNL A   1      43.023  21.950  27.119  1.00  0.00     0.057 A 
ATOM     76  C   UNL A   1      42.231  20.782  27.137  1.00  0.00     0.134 A 
ATOM     77  C   UNL A   1      43.976  21.971  26.083  1.00  0.00     0.134 A 
ATOM     78  F   UNL A   1      41.215  20.631  27.998  1.00  0.00    -0.206 F 
ATOM     79  C   UNL A   1      42.431  19.700  26.270  1.00  0.00     0.040 A 
ATOM     80  C   UNL A   1      44.208  20.882  25.227  1.00  0.00     0.040 A 
ATOM     81  F   UNL A   1      44.697  23.056  25.799  1.00  0.00    -0.206 F 
ATOM     82  C   UNL A   1      43.440  19.735  25.324  1.00  0.00     0.006 A 
ENDBRANCH  61  75
BRANCH  62  83
ATOM     83  C   UNL A   1      42.207  30.242  32.174  1.00  0.00     0.057 A 
ATOM     84  C   UNL A   1      41.117  29.524  32.706  1.00  0.00     0.134 A 
ATOM     85  C   UNL A   1      42.332  31.580  32.562  1.00  0.00     0.134 A 
ATOM     86  F   UNL A   1      40.924  28.242  32.357  1.00  0.00    -0.206 F 
ATOM     87  C   UNL A   1      40.305  30.051  33.714  1.00  0.00     0.040 A 
ATOM     88  C   UNL A   1      41.507  32.126  33.554  1.00  0.00     0.040 A 
ATOM     89  F   UNL A   1      43.336  32.338  32.096  1.00  0.00    -0.206 F 
ATOM     90  C   UNL A   1      40.532  31.343  34.175  1.00  0.00     0.006 A 
ENDBRANCH  62  83
BRANCH  74  91
ATOM     91  C   UNL A   1      45.100  23.717  33.267  1.00  0.00     0.057 A 
ATOM     92  C   UNL A   1      46.359  23.544  33.860  1.00  0.00     0.134 A 
ATOM     93  C   UNL A   1      44.093  22.847  33.750  1.00  0.00     0.134 A 
ATOM     94  F   UNL A   1      47.378  24.377  33.613  1.00  0.00    -0.206 F 
ATOM     95  C   UNL A   1      46.619  22.530  34.791  1.00  0.00     0.040 A 
ATOM     96  C   UNL A   1      44.325  21.881  34.732  1.00  0.00     0.040 A 
ATOM     97  F   UNL A   1      42.828  22.911  33.313  1.00  0.00    -0.206 F 
ATOM     98  C   UNL A   1      45.599  21.702  35.239  1.00  0.00     0.006 A 
ENDBRANCH  74  91
ENDBRANCH  48  49
ENDBRANCH  40  43
ENDBRANCH  38  39
ENDBRANCH  37  38
ENDBRANCH  36  37
ENDBRANCH   1  36
TORSDOF 17
ENDMDL
MODEL 2
REMARK VINA RESULT:     -12.5      2.662      5.639
REMARK SMILES Cc1ccc(-c2c(C)sc(NC(=O)[C@H]3CC=CC[C@H]3C(=O)NCCCCCCNC(=O)c3ccc(-c4c5nc(c(-c6c(F)cccc6F)c6ccc([nH]6)c(-c6c(F)cccc6F)c6nc(c(-c7c(F)cccc7F)c7ccc4[nH]7)C=C6)C=C5)cc3)c2C(N)=O)cc1
REMARK SMILES IDX 25 1 24 2 23 3 22 4 20 5 21 6 19 8 14 9 15 10 16 11 18 12
REMARK SMILES IDX 17 13 12 14 11 15 13 17 10 18 6 19 7 20 86 21 8 22 9 23 5 24
REMARK SMILES IDX 1 25 2 26 3 27 91 28 4 29 90 30 87 31 88 32 89 33 26 36
REMARK SMILES IDX 27 37 28 38 29 39 30 40 31 42 32 43 33 44 85 45 34 46 84 47
REMARK SMILES IDX 35 48 36 49 37 50 78 51 38 52 83 53 77 54 79 55 39 56 82 57
REMARK SMILES IDX 76 58 75 59 40 61 66 62 49 63 65 64 50 65 53 66 64 67 80 68
REMARK SMILES IDX 51 69 52 70 63 72 81 73 54 74 41 75 42 76 47 77 43 78 44 79
REMARK SMILES IDX 46 80 48 81 45 82 67 83 68 84 73 85 69 86 70 87 72 88 74 89
REMARK SMILES IDX 71 90 55 91 56 92 61 93 57 94 58 95 60 96 62 97 59 98
REMARK H PARENT 22 7 11 16 88 34 88 35 29 41 79 60 53 71
REMARK Flexibility Score: inf
ROOT
ATOM      1  C   UNL A   1      33.705  28.504  27.140  1.00  0.00     0.002 C 
ENDROOT
BRANCH   1   2
ATOM      2  C   UNL A   1      33.415  27.796  25.812  1.00  0.00     0.021 C 
BRANCH   2   3
ATOM      3  C   UNL A   1      34.097  26.435  25.685  1.00  0.00     0.116 C 
BRANCH   3   4
ATOM      4  N   UNL A   1      34.014  25.979  24.330  1.00  0.00    -0.356 N 
ATOM      5  C   UNL A   1      34.505  24.854  23.773  1.00  0.00     0.224 C 
ATOM      6  O   UNL A   1      34.520  24.810  22.540  1.00  0.00    -0.275 OA
ATOM      7  H   UNL A   1      33.527  26.573  23.715  1.00  0.00     0.163 HD
BRANCH   5   8
ATOM      8  C   UNL A   1      34.936  23.648  24.589  1.00  0.00     0.095 C 
ATOM      9  C   UNL A   1      34.104  23.149  25.789  1.00  0.00     0.095 C 
ATOM     10  C   UNL A   1      35.068  22.421  26.749  1.00  0.00     0.041 C 
ATOM     11  C   UNL A   1      36.177  21.652  26.053  1.00  0.00    -0.030 C 
ATOM     12  C   UNL A   1      35.574  22.521  23.785  1.00  0.00     0.041 C 
ATOM     13  C   UNL A   1      36.370  21.652  24.721  1.00  0.00    -0.030 C 
BRANCH   9  14
ATOM     14  C   UNL A   1      32.693  22.515  25.605  1.00  0.00     0.229 C 
ATOM     15  N   UNL A   1      31.506  23.065  25.212  1.00  0.00    -0.317 N 
ATOM     16  H   UNL A   1      30.723  22.533  25.482  1.00  0.00     0.170 HD
ATOM     17  O   UNL A   1      32.566  21.327  25.964  1.00  0.00    -0.274 OA
BRANCH  15  18
ATOM     18  C   UNL A   1      31.174  24.207  24.517  1.00  0.00     0.109 A 
ATOM     19  C   UNL A   1      30.454  26.290  23.732  1.00  0.00     0.010 A 
ATOM     20  C   UNL A   1      31.034  25.707  22.614  1.00  0.00     0.012 A 
ATOM     21  C   UNL A   1      30.528  25.392  24.896  1.00  0.00     0.082 A 
ATOM     22  C   UNL A   1      31.472  26.268  21.302  1.00  0.00     0.057 C 
ATOM     23  S   UNL A   1      31.028  24.026  22.837  1.00  0.00    -0.122 S 
BRANCH  19  24
ATOM     24  C   UNL A   1      29.806  27.594  23.587  1.00  0.00    -0.016 A 
ATOM     25  C   UNL A   1      27.664  31.308  23.097  1.00  0.00     0.044 C 
ATOM     26  C   UNL A   1      28.416  30.020  23.240  1.00  0.00    -0.051 A 
ATOM     27  C   UNL A   1      29.786  30.014  23.545  1.00  0.00     0.004 A 
ATOM     28  C   UNL A   1      27.745  28.804  23.112  1.00  0.00     0.004 A 
ATOM     29  C   UNL A   1      30.483  28.807  23.708  1.00  0.00     0.009 A 
ATOM     30  C   UNL A   1      28.430  27.608  23.301  1.00  0.00     0.009 A 
ENDBRANCH  19  24
BRANCH  21  31
ATOM     31  C   UNL A   1      29.993  25.730  26.223  1.00  0.00     0.252 C 
ATOM     32  N   UNL A   1      28.830  25.130  26.622  1.00  0.00    -0.365 N 
ATOM     33  O   UNL A   1      30.519  26.512  26.997  1.00  0.00    -0.269 OA
ATOM     34  H   UNL A   1      28.375  24.492  26.025  1.00  0.00     0.159 HD
ATOM     35  H   UNL A   1      28.448  25.335  27.506  1.00  0.00     0.159 HD
ENDBRANCH  21  31
ENDBRANCH  15  18
ENDBRANCH   9  14
ENDBRANCH   5   8
ENDBRANCH   3   4
ENDBRANCH   2   3
ENDBRANCH   1   2
BRANCH   1  36
ATOM     36  C   UNL A   1      35.112  29.106  27.262  1.00  0.00     0.002 C 
BRANCH  36  37
ATOM     37  C   UNL A   1      35.273  30.179  28.337  1.00  0.00     0.021 C 
BRANCH  37  38
ATOM     38  C   UNL A   1      35.486  31.567  27.769  1.00  0.00     0.116 C 
BRANCH  38  39
ATOM     39  N   UNL A   1      34.593  32.552  28.344  1.00  0.00    -0.352 N 
ATOM     40  C   UNL A   1      34.631  33.197  29.561  1.00  0.00     0.251 C 
ATOM     41  H   UNL A   1      33.833  32.802  27.770  1.00  0.00     0.163 HD
ATOM     42  O   UNL A   1      33.653  33.859  29.904  1.00  0.00    -0.269 OA
BRANCH  40  43
ATOM     43  C   UNL A   1      35.895  33.291  30.339  1.00  0.00     0.039 A 
ATOM     44  C   UNL A   1      36.939  33.989  29.715  1.00  0.00     0.014 A 
ATOM     45  C   UNL A   1      36.174  32.409  31.374  1.00  0.00     0.014 A 
ATOM     46  C   UNL A   1      38.241  33.541  29.871  1.00  0.00     0.010 A 
ATOM     47  C   UNL A   1      37.426  31.862  31.426  1.00  0.00     0.010 A 
ATOM     48  C   UNL A   1      38.430  32.386  30.615  1.00  0.00    -0.014 A 
BRANCH  48  49
ATOM     49  C   UNL A   1      39.664  31.644  30.673  1.00  0.00     0.031 A 
ATOM     50  C   UNL A   1      39.727  30.407  29.894  1.00  0.00     0.074 A 
ATOM     51  C   UNL A   1      40.723  32.237  31.263  1.00  0.00     0.049 A 
ATOM     52  N   UNL A   1      40.504  29.421  30.152  1.00  0.00    -0.248 NA
ATOM     53  C   UNL A   1      38.835  30.160  28.763  1.00  0.00     0.031 C 
ATOM     54  C   UNL A   1      42.131  31.882  31.175  1.00  0.00     0.029 A 
ATOM     55  N   UNL A   1      40.682  33.242  32.236  1.00  0.00    -0.354 N 
ATOM     56  C   UNL A   1      40.482  28.599  29.045  1.00  0.00     0.074 A 
ATOM     57  C   UNL A   1      39.324  29.011  28.294  1.00  0.00     0.031 C 
ATOM     58  C   UNL A   1      42.777  32.415  32.230  1.00  0.00     0.029 A 
ATOM     59  C   UNL A   1      41.769  33.000  33.101  1.00  0.00     0.049 A 
ATOM     60  H   UNL A   1      40.026  33.973  32.302  1.00  0.00     0.167 HD
ATOM     61  C   UNL A   1      41.573  27.814  28.810  1.00  0.00     0.037 A 
ATOM     62  C   UNL A   1      41.531  32.614  34.391  1.00  0.00     0.037 A 
ATOM     63  C   UNL A   1      42.538  27.988  29.900  1.00  0.00     0.049 A 
ATOM     64  C   UNL A   1      41.995  31.200  34.657  1.00  0.00     0.074 A 
ATOM     65  C   UNL A   1      43.659  28.796  30.014  1.00  0.00     0.029 A 
ATOM     66  N   UNL A   1      42.194  27.606  31.193  1.00  0.00    -0.354 N 
ATOM     67  N   UNL A   1      42.123  30.290  33.729  1.00  0.00    -0.248 NA
ATOM     68  C   UNL A   1      42.380  30.712  35.978  1.00  0.00     0.031 C 
ATOM     69  C   UNL A   1      43.941  28.956  31.395  1.00  0.00     0.029 A 
ATOM     70  C   UNL A   1      43.007  28.233  32.117  1.00  0.00     0.049 A 
ATOM     71  H   UNL A   1      41.472  26.976  31.417  1.00  0.00     0.167 HD
ATOM     72  C   UNL A   1      42.595  29.130  34.287  1.00  0.00     0.074 A 
ATOM     73  C   UNL A   1      42.744  29.449  35.696  1.00  0.00     0.031 C 
ATOM     74  C   UNL A   1      42.832  28.007  33.546  1.00  0.00     0.037 A 
BRANCH  61  75
ATOM     75  C   UNL A   1      41.932  27.180  27.482  1.00  0.00     0.057 A 
ATOM     76  C   UNL A   1      41.782  25.789  27.302  1.00  0.00     0.134 A 
ATOM     77  C   UNL A   1      42.468  27.841  26.361  1.00  0.00     0.134 A 
ATOM     78  F   UNL A   1      41.205  25.014  28.230  1.00  0.00    -0.206 F 
ATOM     79  C   UNL A   1      42.211  25.109  26.154  1.00  0.00     0.040 A 
ATOM     80  C   UNL A   1      42.930  27.169  25.217  1.00  0.00     0.040 A 
ATOM     81  F   UNL A   1      42.525  29.172  26.276  1.00  0.00    -0.206 F 
ATOM     82  C   UNL A   1      42.811  25.795  25.113  1.00  0.00     0.006 A 
ENDBRANCH  61  75
BRANCH  62  83
ATOM     83  C   UNL A   1      40.288  33.238  34.936  1.00  0.00     0.057 A 
ATOM     84  C   UNL A   1      39.140  32.426  35.038  1.00  0.00     0.134 A 
ATOM     85  C   UNL A   1      40.340  34.365  35.764  1.00  0.00     0.134 A 
ATOM     86  F   UNL A   1      39.013  31.342  34.256  1.00  0.00    -0.206 F 
ATOM     87  C   UNL A   1      38.186  32.618  36.041  1.00  0.00     0.040 A 
ATOM     88  C   UNL A   1      39.374  34.580  36.756  1.00  0.00     0.040 A 
ATOM     89  F   UNL A   1      41.392  35.196  35.724  1.00  0.00    -0.206 F 
ATOM     90  C   UNL A   1      38.329  33.673  36.936  1.00  0.00     0.006 A 
ENDBRANCH  62  83
BRANCH  74  91
ATOM     91  C   UNL A   1      43.028  26.612  34.094  1.00  0.00     0.057 A 
ATOM     92  C   UNL A   1      42.077  25.928  34.865  1.00  0.00     0.134 A 
ATOM     93  C   UNL A   1      44.154  25.840  33.721  1.00  0.00     0.134 A 
ATOM     94  F   UNL A   1      40.895  26.475  35.179  1.00  0.00    -0.206 F 
ATOM     95  C   UNL A   1      42.270  24.612  35.305  1.00  0.00     0.040 A 
ATOM     96  C   UNL A   1      44.321  24.504  34.094  1.00  0.00     0.040 A 
ATOM     97  F   UNL A   1      45.135  26.335  32.953  1.00  0.00    -0.206 F 
ATOM     98  C   UNL A   1      43.389  23.892  34.912  1.00  0.00     0.006 A 
ENDBRANCH  74  91
ENDBRANCH  48  49
ENDBRANCH  40  43
ENDBRANCH  38  39
ENDBRANCH  37  38
ENDBRANCH  36  37
ENDBRANCH   1  36
TORSDOF 17
ENDMDL
MODEL 3
REMARK VINA RESULT:     -12.5      2.745      4.638
REMARK SMILES Cc1ccc(-c2c(C)sc(NC(=O)[C@H]3CC=CC[C@H]3C(=O)NCCCCCCNC(=O)c3ccc(-c4c5nc(c(-c6c(F)cccc6F)c6ccc([nH]6)c(-c6c(F)cccc6F)c6nc(c(-c7c(F)cccc7F)c7ccc4[nH]7)C=C6)C=C5)cc3)c2C(N)=O)cc1
REMARK SMILES IDX 25 1 24 2 23 3 22 4 20 5 21 6 19 8 14 9 15 10 16 11 18 12
REMARK SMILES IDX 17 13 12 14 11 15 13 17 10 18 6 19 7 20 86 21 8 22 9 23 5 24
REMARK SMILES IDX 1 25 2 26 3 27 91 28 4 29 90 30 87 31 88 32 89 33 26 36
REMARK SMILES IDX 27 37 28 38 29 39 30 40 31 42 32 43 33 44 85 45 34 46 84 47
REMARK SMILES IDX 35 48 36 49 37 50 78 51 38 52 83 53 77 54 79 55 39 56 82 57
REMARK SMILES IDX 76 58 75 59 40 61 66 62 49 63 65 64 50 65 53 66 64 67 80 68
REMARK SMILES IDX 51 69 52 70 63 72 81 73 54 74 41 75 42 76 47 77 43 78 44 79
REMARK SMILES IDX 46 80 48 81 45 82 67 83 68 84 73 85 69 86 70 87 72 88 74 89
REMARK SMILES IDX 71 90 55 91 56 92 61 93 57 94 58 95 60 96 62 97 59 98
REMARK H PARENT 22 7 11 16 88 34 88 35 29 41 79 60 53 71
REMARK Flexibility Score: inf
ROOT
ATOM      1  C   UNL A   1      35.272  30.549  28.028  1.00  0.00     0.002 C 
ENDROOT
BRANCH   1   2
ATOM      2  C   UNL A   1      34.000  30.187  27.255  1.00  0.00     0.021 C 
BRANCH   2   3
ATOM      3  C   UNL A   1      34.260  29.322  26.023  1.00  0.00     0.116 C 
BRANCH   3   4
ATOM      4  N   UNL A   1      33.824  27.981  26.274  1.00  0.00    -0.356 N 
ATOM      5  C   UNL A   1      32.706  27.352  25.861  1.00  0.00     0.224 C 
ATOM      6  O   UNL A   1      32.438  26.283  26.415  1.00  0.00    -0.275 OA
ATOM      7  H   UNL A   1      34.429  27.439  26.830  1.00  0.00     0.163 HD
BRANCH   5   8
ATOM      8  C   UNL A   1      31.852  27.854  24.710  1.00  0.00     0.095 C 
ATOM      9  C   UNL A   1      31.296  26.891  23.640  1.00  0.00     0.095 C 
ATOM     10  C   UNL A   1      31.087  27.707  22.347  1.00  0.00     0.041 C 
ATOM     11  C   UNL A   1      30.633  29.137  22.580  1.00  0.00    -0.030 C 
ATOM     12  C   UNL A   1      30.893  28.983  25.065  1.00  0.00     0.041 C 
ATOM     13  C   UNL A   1      30.493  29.692  23.799  1.00  0.00    -0.030 C 
BRANCH   9  14
ATOM     14  C   UNL A   1      30.208  25.827  23.977  1.00  0.00     0.229 C 
ATOM     15  N   UNL A   1      30.317  24.509  24.319  1.00  0.00    -0.317 N 
ATOM     16  H   UNL A   1      29.489  23.999  24.168  1.00  0.00     0.170 HD
ATOM     17  O   UNL A   1      29.021  26.177  23.819  1.00  0.00    -0.274 OA
BRANCH  15  18
ATOM     18  C   UNL A   1      31.342  23.744  24.832  1.00  0.00     0.109 A 
ATOM     19  C   UNL A   1      33.251  22.473  25.289  1.00  0.00     0.010 A 
ATOM     20  C   UNL A   1      32.607  22.540  26.517  1.00  0.00     0.012 A 
ATOM     21  C   UNL A   1      32.495  23.198  24.254  1.00  0.00     0.082 A 
ATOM     22  C   UNL A   1      33.062  22.241  27.907  1.00  0.00     0.057 C 
ATOM     23  S   UNL A   1      30.967  22.862  26.231  1.00  0.00    -0.122 S 
BRANCH  19  24
ATOM     24  C   UNL A   1      34.466  21.665  25.177  1.00  0.00    -0.016 A 
ATOM     25  C   UNL A   1      38.193  19.512  24.865  1.00  0.00     0.044 C 
ATOM     26  C   UNL A   1      36.898  20.261  24.944  1.00  0.00    -0.051 A 
ATOM     27  C   UNL A   1      35.668  19.588  24.867  1.00  0.00     0.004 A 
ATOM     28  C   UNL A   1      36.902  21.642  25.142  1.00  0.00     0.004 A 
ATOM     29  C   UNL A   1      34.456  20.286  24.971  1.00  0.00     0.009 A 
ATOM     30  C   UNL A   1      35.701  22.329  25.274  1.00  0.00     0.009 A 
ENDBRANCH  19  24
BRANCH  21  31
ATOM     31  C   UNL A   1      32.924  23.299  22.852  1.00  0.00     0.252 C 
ATOM     32  N   UNL A   1      32.480  22.350  21.971  1.00  0.00    -0.365 N 
ATOM     33  O   UNL A   1      33.651  24.176  22.417  1.00  0.00    -0.269 OA
ATOM     34  H   UNL A   1      31.890  21.625  22.283  1.00  0.00     0.159 HD
ATOM     35  H   UNL A   1      32.748  22.392  21.025  1.00  0.00     0.159 HD
ENDBRANCH  21  31
ENDBRANCH  15  18
ENDBRANCH   9  14
ENDBRANCH   5   8
ENDBRANCH   3   4
ENDBRANCH   2   3
ENDBRANCH   1   2
BRANCH   1  36
ATOM     36  C   UNL A   1      35.743  32.001  27.862  1.00  0.00     0.002 C 
BRANCH  36  37
ATOM     37  C   UNL A   1      35.679  32.858  29.125  1.00  0.00     0.021 C 
BRANCH  37  38
ATOM     38  C   UNL A   1      34.867  32.224  30.237  1.00  0.00     0.116 C 
BRANCH  38  39
ATOM     39  N   UNL A   1      34.175  33.200  31.053  1.00  0.00    -0.352 N 
ATOM     40  C   UNL A   1      34.472  33.697  32.303  1.00  0.00     0.251 C 
ATOM     41  H   UNL A   1      33.357  33.569  30.648  1.00  0.00     0.163 HD
ATOM     42  O   UNL A   1      33.629  34.385  32.875  1.00  0.00    -0.269 OA
BRANCH  40  43
ATOM     43  C   UNL A   1      35.850  33.607  32.856  1.00  0.00     0.039 A 
ATOM     44  C   UNL A   1      36.829  34.334  32.161  1.00  0.00     0.014 A 
ATOM     45  C   UNL A   1      36.226  32.569  33.697  1.00  0.00     0.014 A 
ATOM     46  C   UNL A   1      38.100  33.799  32.026  1.00  0.00     0.010 A 
ATOM     47  C   UNL A   1      37.424  31.955  33.456  1.00  0.00     0.010 A 
ATOM     48  C   UNL A   1      38.318  32.539  32.563  1.00  0.00    -0.014 A 
BRANCH  48  49
ATOM     49  C   UNL A   1      39.484  31.732  32.305  1.00  0.00     0.031 A 
ATOM     50  C   UNL A   1      39.303  30.573  31.430  1.00  0.00     0.074 A 
ATOM     51  C   UNL A   1      40.679  32.210  32.710  1.00  0.00     0.049 A 
ATOM     52  N   UNL A   1      40.045  29.528  31.440  1.00  0.00    -0.248 NA
ATOM     53  C   UNL A   1      38.188  30.481  30.489  1.00  0.00     0.031 C 
ATOM     54  C   UNL A   1      42.012  31.794  32.306  1.00  0.00     0.029 A 
ATOM     55  N   UNL A   1      40.904  33.120  33.750  1.00  0.00    -0.354 N 
ATOM     56  C   UNL A   1      39.745  28.817  30.297  1.00  0.00     0.074 A 
ATOM     57  C   UNL A   1      38.491  29.358  29.837  1.00  0.00     0.031 C 
ATOM     58  C   UNL A   1      42.892  32.189  33.246  1.00  0.00     0.029 A 
ATOM     59  C   UNL A   1      42.122  32.741  34.351  1.00  0.00     0.049 A 
ATOM     60  H   UNL A   1      40.326  33.874  34.011  1.00  0.00     0.167 HD
ATOM     61  C   UNL A   1      40.709  28.003  29.779  1.00  0.00     0.037 A 
ATOM     62  C   UNL A   1      42.120  32.246  35.626  1.00  0.00     0.037 A 
ATOM     63  C   UNL A   1      41.882  28.022  30.658  1.00  0.00     0.049 A 
ATOM     64  C   UNL A   1      42.528  30.791  35.673  1.00  0.00     0.074 A 
ATOM     65  C   UNL A   1      43.057  28.757  30.605  1.00  0.00     0.029 A 
ATOM     66  N   UNL A   1      41.778  27.537  31.958  1.00  0.00    -0.354 N 
ATOM     67  N   UNL A   1      42.404  29.968  34.667  1.00  0.00    -0.248 NA
ATOM     68  C   UNL A   1      43.135  30.161  36.841  1.00  0.00     0.031 C 
ATOM     69  C   UNL A   1      43.621  28.771  31.907  1.00  0.00     0.029 A 
ATOM     70  C   UNL A   1      42.802  28.031  32.743  1.00  0.00     0.049 A 
ATOM     71  H   UNL A   1      41.073  26.927  32.273  1.00  0.00     0.167 HD
ATOM     72  C   UNL A   1      42.896  28.738  35.018  1.00  0.00     0.074 A 
ATOM     73  C   UNL A   1      43.346  28.913  36.387  1.00  0.00     0.031 C 
ATOM     74  C   UNL A   1      42.901  27.680  34.154  1.00  0.00     0.037 A 
BRANCH  61  75
ATOM     75  C   UNL A   1      40.750  27.480  28.357  1.00  0.00     0.057 A 
ATOM     76  C   UNL A   1      40.142  26.247  28.042  1.00  0.00     0.134 A 
ATOM     77  C   UNL A   1      41.394  28.089  27.264  1.00  0.00     0.134 A 
ATOM     78  F   UNL A   1      39.408  25.572  28.937  1.00  0.00    -0.206 F 
ATOM     79  C   UNL A   1      40.246  25.634  26.787  1.00  0.00     0.040 A 
ATOM     80  C   UNL A   1      41.533  27.473  26.010  1.00  0.00     0.040 A 
ATOM     81  F   UNL A   1      41.877  29.331  27.321  1.00  0.00    -0.206 F 
ATOM     82  C   UNL A   1      40.965  26.234  25.768  1.00  0.00     0.006 A 
ENDBRANCH  61  75
BRANCH  62  83
ATOM     83  C   UNL A   1      41.058  32.880  36.465  1.00  0.00     0.057 A 
ATOM     84  C   UNL A   1      41.267  34.207  36.889  1.00  0.00     0.134 A 
ATOM     85  C   UNL A   1      39.734  32.429  36.428  1.00  0.00     0.134 A 
ATOM     86  F   UNL A   1      42.515  34.697  36.971  1.00  0.00    -0.206 F 
ATOM     87  C   UNL A   1      40.207  35.097  37.084  1.00  0.00     0.040 A 
ATOM     88  C   UNL A   1      38.665  33.307  36.647  1.00  0.00     0.040 A 
ATOM     89  F   UNL A   1      39.447  31.176  36.045  1.00  0.00    -0.206 F 
ATOM     90  C   UNL A   1      38.899  34.656  36.915  1.00  0.00     0.006 A 
ENDBRANCH  62  83
BRANCH  74  91
ATOM     91  C   UNL A   1      43.105  26.230  34.533  1.00  0.00     0.057 A 
ATOM     92  C   UNL A   1      42.168  25.463  35.240  1.00  0.00     0.134 A 
ATOM     93  C   UNL A   1      44.220  25.506  34.049  1.00  0.00     0.134 A 
ATOM     94  F   UNL A   1      40.995  25.971  35.641  1.00  0.00    -0.206 F 
ATOM     95  C   UNL A   1      42.367  24.105  35.522  1.00  0.00     0.040 A 
ATOM     96  C   UNL A   1      44.391  24.136  34.261  1.00  0.00     0.040 A 
ATOM     97  F   UNL A   1      45.185  26.086  33.322  1.00  0.00    -0.206 F 
ATOM     98  C   UNL A   1      43.475  23.434  35.023  1.00  0.00     0.006 A 
ENDBRANCH  74  91
ENDBRANCH  48  49
ENDBRANCH  40  43
ENDBRANCH  38  39
ENDBRANCH  37  38
ENDBRANCH  36  37
ENDBRANCH   1  36
TORSDOF 17
ENDMDL
