MODEL 1
REMARK VINA RESULT:     -10.9      0.000      0.000
REMARK SMILES Cc1cc(NC(=O)CC2(CC(=O)NCCCCCCNC(=O)c3ccc(-c4c5nc(c(-c6c(F)cccc6F)c6ccc([nH]6)c(-c6c(F)cccc6F)c6nc(c(-c7c(F)cccc7F)c7ccc4[nH]7)C=C6)C=C5)cc3)CCCC2)ccn1
REMARK SMILES IDX 15 1 14 2 13 3 11 4 12 5 10 7 9 8 77 9 80 10 78 11 79 12
REMARK SMILES IDX 8 13 6 14 5 15 7 17 4 18 1 19 2 20 3 21 83 22 82 23 81 24
REMARK SMILES IDX 16 25 17 26 18 27 19 28 20 29 21 30 22 32 23 33 24 34 76 35
REMARK SMILES IDX 25 36 75 37 26 38 27 39 28 40 69 41 29 42 74 43 68 44 70 45
REMARK SMILES IDX 30 46 73 47 67 48 66 49 31 51 57 52 40 53 56 54 41 55 44 56
REMARK SMILES IDX 55 57 71 58 42 59 43 60 54 62 72 63 45 64 32 65 33 66 38 67
REMARK SMILES IDX 34 68 35 69 37 70 39 71 36 72 58 73 59 74 64 75 60 76 61 77
REMARK SMILES IDX 63 78 65 79 62 80 46 81 47 82 52 83 48 84 49 85 51 86 53 87
REMARK SMILES IDX 50 88
REMARK H PARENT 13 6 5 16 20 31 70 50 44 61
REMARK Flexibility Score: inf
ROOT
ATOM      1  C   UNL A   1      38.101  23.712  25.813  1.00  0.00     0.021 C 
ENDROOT
BRANCH   1   2
ATOM      2  C   UNL A   1      36.609  23.753  26.147  1.00  0.00     0.116 C 
BRANCH   2   3
ATOM      3  N   UNL A   1      35.863  24.254  25.017  1.00  0.00    -0.356 N 
ATOM      4  C   UNL A   1      34.530  24.467  24.882  1.00  0.00     0.220 C 
ATOM      5  O   UNL A   1      34.120  24.847  23.784  1.00  0.00    -0.275 OA
ATOM      6  H   UNL A   1      36.405  24.473  24.224  1.00  0.00     0.163 HD
BRANCH   4   7
ATOM      7  C   UNL A   1      33.585  24.293  26.061  1.00  0.00     0.107 C 
BRANCH   7   8
ATOM      8  C   UNL A   1      32.626  23.060  26.103  1.00  0.00    -0.012 C 
ATOM      9  C   UNL A   1      32.727  22.480  27.537  1.00  0.00     0.008 C 
ATOM     10  C   UNL A   1      33.136  21.831  25.318  1.00  0.00     0.008 C 
ATOM     11  C   UNL A   1      34.029  21.681  27.572  1.00  0.00     0.001 C 
ATOM     12  C   UNL A   1      34.242  21.187  26.147  1.00  0.00     0.001 C 
BRANCH   8  13
ATOM     13  C   UNL A   1      31.197  23.420  25.596  1.00  0.00     0.108 C 
BRANCH  13  14
ATOM     14  C   UNL A   1      30.247  24.113  26.553  1.00  0.00     0.224 C 
ATOM     15  N   UNL A   1      30.121  25.469  26.627  1.00  0.00    -0.326 N 
ATOM     16  H   UNL A   1      29.478  25.769  27.311  1.00  0.00     0.169 HD
ATOM     17  O   UNL A   1      29.502  23.442  27.274  1.00  0.00    -0.275 OA
BRANCH  15  18
ATOM     18  C   UNL A   1      30.724  26.525  25.922  1.00  0.00     0.044 A 
ATOM     19  C   UNL A   1      32.429  29.743  26.932  1.00  0.00     0.067 C 
ATOM     20  C   UNL A   1      31.843  28.643  26.100  1.00  0.00     0.039 A 
ATOM     21  C   UNL A   1      31.413  27.462  26.694  1.00  0.00     0.049 A 
ATOM     22  N   UNL A   1      31.663  28.902  24.786  1.00  0.00    -0.261 NA
ATOM     23  C   UNL A   1      31.073  27.944  24.044  1.00  0.00     0.113 A 
ATOM     24  C   UNL A   1      30.605  26.746  24.558  1.00  0.00     0.046 A 
ENDBRANCH  15  18
ENDBRANCH  13  14
ENDBRANCH   8  13
ENDBRANCH   7   8
ENDBRANCH   4   7
ENDBRANCH   2   3
ENDBRANCH   1   2
BRANCH   1  25
ATOM     25  C   UNL A   1      38.709  22.313  25.902  1.00  0.00     0.002 C 
BRANCH  25  26
ATOM     26  C   UNL A   1      37.950  21.243  25.111  1.00  0.00     0.002 C 
BRANCH  26  27
ATOM     27  C   UNL A   1      38.600  19.856  25.109  1.00  0.00     0.021 C 
BRANCH  27  28
ATOM     28  C   UNL A   1      39.512  19.585  26.302  1.00  0.00     0.116 C 
BRANCH  28  29
ATOM     29  N   UNL A   1      40.792  19.038  25.883  1.00  0.00    -0.352 N 
ATOM     30  C   UNL A   1      42.002  19.667  25.744  1.00  0.00     0.251 C 
ATOM     31  H   UNL A   1      40.790  18.078  25.669  1.00  0.00     0.163 HD
ATOM     32  O   UNL A   1      42.918  19.121  25.139  1.00  0.00    -0.269 OA
BRANCH  30  33
ATOM     33  C   UNL A   1      42.197  21.010  26.324  1.00  0.00     0.039 A 
ATOM     34  C   UNL A   1      42.111  21.169  27.708  1.00  0.00     0.014 A 
ATOM     35  C   UNL A   1      42.435  22.113  25.497  1.00  0.00     0.014 A 
ATOM     36  C   UNL A   1      42.310  22.430  28.270  1.00  0.00     0.010 A 
ATOM     37  C   UNL A   1      42.702  23.355  26.063  1.00  0.00     0.010 A 
ATOM     38  C   UNL A   1      42.630  23.527  27.454  1.00  0.00    -0.014 A 
BRANCH  38  39
ATOM     39  C   UNL A   1      42.876  24.870  28.034  1.00  0.00     0.031 A 
ATOM     40  C   UNL A   1      44.255  25.245  28.503  1.00  0.00     0.074 A 
ATOM     41  C   UNL A   1      41.850  25.726  28.191  1.00  0.00     0.049 A 
ATOM     42  N   UNL A   1      44.656  26.338  29.101  1.00  0.00    -0.248 NA
ATOM     43  C   UNL A   1      45.318  24.249  28.298  1.00  0.00     0.031 C 
ATOM     44  C   UNL A   1      40.460  25.458  27.816  1.00  0.00     0.029 A 
ATOM     45  N   UNL A   1      41.814  26.990  28.720  1.00  0.00    -0.354 N 
ATOM     46  C   UNL A   1      46.009  26.155  29.354  1.00  0.00     0.074 A 
ATOM     47  C   UNL A   1      46.350  24.826  28.894  1.00  0.00     0.031 C 
ATOM     48  C   UNL A   1      39.712  26.534  28.110  1.00  0.00     0.029 A 
ATOM     49  C   UNL A   1      40.560  27.550  28.725  1.00  0.00     0.049 A 
ATOM     50  H   UNL A   1      42.612  27.454  29.064  1.00  0.00     0.167 HD
ATOM     51  C   UNL A   1      46.893  27.024  29.896  1.00  0.00     0.037 A 
ATOM     52  C   UNL A   1      40.141  28.745  29.181  1.00  0.00     0.037 A 
ATOM     53  C   UNL A   1      46.555  28.354  30.329  1.00  0.00     0.049 A 
ATOM     54  C   UNL A   1      41.142  29.692  29.782  1.00  0.00     0.074 A 
ATOM     55  C   UNL A   1      47.388  29.332  30.845  1.00  0.00     0.029 A 
ATOM     56  N   UNL A   1      45.277  28.894  30.297  1.00  0.00    -0.354 N 
ATOM     57  N   UNL A   1      42.430  29.529  29.959  1.00  0.00    -0.248 NA
ATOM     58  C   UNL A   1      40.631  30.992  30.239  1.00  0.00     0.031 C 
ATOM     59  C   UNL A   1      46.607  30.449  31.161  1.00  0.00     0.029 A 
ATOM     60  C   UNL A   1      45.297  30.185  30.799  1.00  0.00     0.049 A 
ATOM     61  H   UNL A   1      44.476  28.428  29.965  1.00  0.00     0.167 HD
ATOM     62  C   UNL A   1      42.890  30.713  30.522  1.00  0.00     0.074 A 
ATOM     63  C   UNL A   1      41.743  31.590  30.643  1.00  0.00     0.031 C 
ATOM     64  C   UNL A   1      44.147  31.045  30.904  1.00  0.00     0.037 A 
BRANCH  51  65
ATOM     65  C   UNL A   1      48.315  26.564  30.044  1.00  0.00     0.057 A 
ATOM     66  C   UNL A   1      49.273  26.800  29.049  1.00  0.00     0.134 A 
ATOM     67  C   UNL A   1      48.738  25.906  31.205  1.00  0.00     0.134 A 
ATOM     68  F   UNL A   1      48.931  27.414  27.907  1.00  0.00    -0.206 F 
ATOM     69  C   UNL A   1      50.596  26.376  29.193  1.00  0.00     0.040 A 
ATOM     70  C   UNL A   1      50.064  25.501  31.372  1.00  0.00     0.040 A 
ATOM     71  F   UNL A   1      47.874  25.653  32.199  1.00  0.00    -0.206 F 
ATOM     72  C   UNL A   1      50.995  25.729  30.361  1.00  0.00     0.006 A 
ENDBRANCH  51  65
BRANCH  52  73
ATOM     73  C   UNL A   1      38.710  29.123  29.067  1.00  0.00     0.057 A 
ATOM     74  C   UNL A   1      38.178  29.582  27.856  1.00  0.00     0.134 A 
ATOM     75  C   UNL A   1      37.842  29.042  30.162  1.00  0.00     0.134 A 
ATOM     76  F   UNL A   1      38.965  29.698  26.776  1.00  0.00    -0.206 F 
ATOM     77  C   UNL A   1      36.842  29.967  27.742  1.00  0.00     0.040 A 
ATOM     78  C   UNL A   1      36.497  29.399  30.057  1.00  0.00     0.040 A 
ATOM     79  F   UNL A   1      38.287  28.601  31.348  1.00  0.00    -0.206 F 
ATOM     80  C   UNL A   1      35.995  29.871  28.845  1.00  0.00     0.006 A 
ENDBRANCH  52  73
BRANCH  64  81
ATOM     81  C   UNL A   1      44.354  32.425  31.455  1.00  0.00     0.057 A 
ATOM     82  C   UNL A   1      44.285  32.693  32.827  1.00  0.00     0.134 A 
ATOM     83  C   UNL A   1      44.667  33.491  30.601  1.00  0.00     0.134 A 
ATOM     84  F   UNL A   1      43.977  31.717  33.695  1.00  0.00    -0.206 F 
ATOM     85  C   UNL A   1      44.498  33.977  33.330  1.00  0.00     0.040 A 
ATOM     86  C   UNL A   1      44.908  34.774  31.095  1.00  0.00     0.040 A 
ATOM     87  F   UNL A   1      44.757  33.301  29.276  1.00  0.00    -0.206 F 
ATOM     88  C   UNL A   1      44.818  35.020  32.463  1.00  0.00     0.006 A 
ENDBRANCH  64  81
ENDBRANCH  38  39
ENDBRANCH  30  33
ENDBRANCH  28  29
ENDBRANCH  27  28
ENDBRANCH  26  27
ENDBRANCH  25  26
ENDBRANCH   1  25
TORSDOF 17
ENDMDL
MODEL 2
REMARK VINA RESULT:     -10.8      0.857      1.584
REMARK SMILES Cc1cc(NC(=O)CC2(CC(=O)NCCCCCCNC(=O)c3ccc(-c4c5nc(c(-c6c(F)cccc6F)c6ccc([nH]6)c(-c6c(F)cccc6F)c6nc(c(-c7c(F)cccc7F)c7ccc4[nH]7)C=C6)C=C5)cc3)CCCC2)ccn1
REMARK SMILES IDX 15 1 14 2 13 3 11 4 12 5 10 7 9 8 77 9 80 10 78 11 79 12
REMARK SMILES IDX 8 13 6 14 5 15 7 17 4 18 1 19 2 20 3 21 83 22 82 23 81 24
REMARK SMILES IDX 16 25 17 26 18 27 19 28 20 29 21 30 22 32 23 33 24 34 76 35
REMARK SMILES IDX 25 36 75 37 26 38 27 39 28 40 69 41 29 42 74 43 68 44 70 45
REMARK SMILES IDX 30 46 73 47 67 48 66 49 31 51 57 52 40 53 56 54 41 55 44 56
REMARK SMILES IDX 55 57 71 58 42 59 43 60 54 62 72 63 45 64 32 65 33 66 38 67
REMARK SMILES IDX 34 68 35 69 37 70 39 71 36 72 58 73 59 74 64 75 60 76 61 77
REMARK SMILES IDX 63 78 65 79 62 80 46 81 47 82 52 83 48 84 49 85 51 86 53 87
REMARK SMILES IDX 50 88
REMARK H PARENT 13 6 5 16 20 31 70 50 44 61
REMARK Flexibility Score: inf
ROOT
ATOM      1  C   UNL A   1      37.790  23.712  26.472  1.00  0.00     0.021 C 
ENDROOT
BRANCH   1   2
ATOM      2  C   UNL A   1      36.397  23.709  25.842  1.00  0.00     0.116 C 
BRANCH   2   3
ATOM      3  N   UNL A   1      35.466  23.019  26.703  1.00  0.00    -0.356 N 
ATOM      4  C   UNL A   1      34.119  23.146  26.806  1.00  0.00     0.220 C 
ATOM      5  O   UNL A   1      33.547  22.481  27.671  1.00  0.00    -0.275 OA
ATOM      6  H   UNL A   1      35.871  22.355  27.308  1.00  0.00     0.163 HD
BRANCH   4   7
ATOM      7  C   UNL A   1      33.341  24.038  25.851  1.00  0.00     0.107 C 
BRANCH   7   8
ATOM      8  C   UNL A   1      32.467  23.388  24.731  1.00  0.00    -0.012 C 
ATOM      9  C   UNL A   1      33.281  22.188  24.185  1.00  0.00     0.008 C 
ATOM     10  C   UNL A   1      32.378  24.219  23.432  1.00  0.00     0.008 C 
ATOM     11  C   UNL A   1      34.332  22.788  23.251  1.00  0.00     0.001 C 
ATOM     12  C   UNL A   1      33.704  24.059  22.696  1.00  0.00     0.001 C 
BRANCH   8  13
ATOM     13  C   UNL A   1      31.022  23.081  25.229  1.00  0.00     0.108 C 
BRANCH  13  14
ATOM     14  C   UNL A   1      30.502  23.837  26.436  1.00  0.00     0.224 C 
ATOM     15  N   UNL A   1      30.192  25.165  26.406  1.00  0.00    -0.326 N 
ATOM     16  H   UNL A   1      29.885  25.518  27.274  1.00  0.00     0.169 HD
ATOM     17  O   UNL A   1      30.290  23.237  27.494  1.00  0.00    -0.275 OA
BRANCH  15  18
ATOM     18  C   UNL A   1      30.221  26.131  25.386  1.00  0.00     0.044 A 
ATOM     19  C   UNL A   1      32.029  29.416  24.907  1.00  0.00     0.067 C 
ATOM     20  C   UNL A   1      31.127  28.241  24.679  1.00  0.00     0.039 A 
ATOM     21  C   UNL A   1      31.181  27.136  25.521  1.00  0.00     0.049 A 
ATOM     22  N   UNL A   1      30.207  28.360  23.696  1.00  0.00    -0.261 NA
ATOM     23  C   UNL A   1      29.347  27.336  23.530  1.00  0.00     0.113 A 
ATOM     24  C   UNL A   1      29.324  26.207  24.331  1.00  0.00     0.046 A 
ENDBRANCH  15  18
ENDBRANCH  13  14
ENDBRANCH   8  13
ENDBRANCH   7   8
ENDBRANCH   4   7
ENDBRANCH   2   3
ENDBRANCH   1   2
BRANCH   1  25
ATOM     25  C   UNL A   1      38.669  22.547  26.019  1.00  0.00     0.002 C 
BRANCH  25  26
ATOM     26  C   UNL A   1      37.992  21.593  25.029  1.00  0.00     0.002 C 
BRANCH  26  27
ATOM     27  C   UNL A   1      38.481  20.143  25.089  1.00  0.00     0.021 C 
BRANCH  27  28
ATOM     28  C   UNL A   1      39.350  19.820  26.301  1.00  0.00     0.116 C 
BRANCH  28  29
ATOM     29  N   UNL A   1      40.586  19.161  25.912  1.00  0.00    -0.352 N 
ATOM     30  C   UNL A   1      41.848  19.680  25.792  1.00  0.00     0.251 C 
ATOM     31  H   UNL A   1      40.504  18.202  25.705  1.00  0.00     0.163 HD
ATOM     32  O   UNL A   1      42.725  19.050  25.211  1.00  0.00    -0.269 OA
BRANCH  30  33
ATOM     33  C   UNL A   1      42.149  21.006  26.366  1.00  0.00     0.039 A 
ATOM     34  C   UNL A   1      42.483  22.056  25.509  1.00  0.00     0.014 A 
ATOM     35  C   UNL A   1      42.128  21.202  27.751  1.00  0.00     0.014 A 
ATOM     36  C   UNL A   1      42.752  23.318  26.037  1.00  0.00     0.010 A 
ATOM     37  C   UNL A   1      42.329  22.476  28.271  1.00  0.00     0.010 A 
ATOM     38  C   UNL A   1      42.654  23.543  27.420  1.00  0.00    -0.014 A 
BRANCH  38  39
ATOM     39  C   UNL A   1      42.906  24.885  27.999  1.00  0.00     0.031 A 
ATOM     40  C   UNL A   1      44.289  25.258  28.457  1.00  0.00     0.074 A 
ATOM     41  C   UNL A   1      41.882  25.742  28.166  1.00  0.00     0.049 A 
ATOM     42  N   UNL A   1      44.696  26.350  29.053  1.00  0.00    -0.248 NA
ATOM     43  C   UNL A   1      45.350  24.260  28.241  1.00  0.00     0.031 C 
ATOM     44  C   UNL A   1      40.489  25.476  27.802  1.00  0.00     0.029 A 
ATOM     45  N   UNL A   1      41.852  27.006  28.697  1.00  0.00    -0.354 N 
ATOM     46  C   UNL A   1      46.051  26.164  29.294  1.00  0.00     0.074 A 
ATOM     47  C   UNL A   1      46.387  24.836  28.829  1.00  0.00     0.031 C 
ATOM     48  C   UNL A   1      39.744  26.552  28.104  1.00  0.00     0.029 A 
ATOM     49  C   UNL A   1      40.599  27.567  28.713  1.00  0.00     0.049 A 
ATOM     50  H   UNL A   1      42.654  27.468  29.035  1.00  0.00     0.167 HD
ATOM     51  C   UNL A   1      46.942  27.033  29.830  1.00  0.00     0.037 A 
ATOM     52  C   UNL A   1      40.185  28.762  29.175  1.00  0.00     0.037 A 
ATOM     53  C   UNL A   1      46.609  28.362  30.268  1.00  0.00     0.049 A 
ATOM     54  C   UNL A   1      41.192  29.707  29.768  1.00  0.00     0.074 A 
ATOM     55  C   UNL A   1      47.447  29.339  30.777  1.00  0.00     0.029 A 
ATOM     56  N   UNL A   1      45.331  28.904  30.246  1.00  0.00    -0.354 N 
ATOM     57  N   UNL A   1      42.482  29.543  29.934  1.00  0.00    -0.248 NA
ATOM     58  C   UNL A   1      40.687  31.007  30.231  1.00  0.00     0.031 C 
ATOM     59  C   UNL A   1      46.670  30.456  31.101  1.00  0.00     0.029 A 
ATOM     60  C   UNL A   1      45.356  30.194  30.750  1.00  0.00     0.049 A 
ATOM     61  H   UNL A   1      44.526  28.438  29.921  1.00  0.00     0.167 HD
ATOM     62  C   UNL A   1      42.947  30.725  30.494  1.00  0.00     0.074 A 
ATOM     63  C   UNL A   1      41.803  31.603  30.626  1.00  0.00     0.031 C 
ATOM     64  C   UNL A   1      44.208  31.055  30.866  1.00  0.00     0.037 A 
BRANCH  51  65
ATOM     65  C   UNL A   1      48.363  26.571  29.965  1.00  0.00     0.057 A 
ATOM     66  C   UNL A   1      49.323  26.839  28.979  1.00  0.00     0.134 A 
ATOM     67  C   UNL A   1      48.787  25.877  31.105  1.00  0.00     0.134 A 
ATOM     68  F   UNL A   1      48.981  27.488  27.856  1.00  0.00    -0.206 F 
ATOM     69  C   UNL A   1      50.646  26.413  29.112  1.00  0.00     0.040 A 
ATOM     70  C   UNL A   1      50.113  25.469  31.261  1.00  0.00     0.040 A 
ATOM     71  F   UNL A   1      47.921  25.591  32.090  1.00  0.00    -0.206 F 
ATOM     72  C   UNL A   1      51.045  25.731  30.259  1.00  0.00     0.006 A 
ENDBRANCH  51  65
BRANCH  52  73
ATOM     73  C   UNL A   1      38.754  29.142  29.073  1.00  0.00     0.057 A 
ATOM     74  C   UNL A   1      37.902  29.053  30.179  1.00  0.00     0.134 A 
ATOM     75  C   UNL A   1      38.202  29.597  27.869  1.00  0.00     0.134 A 
ATOM     76  F   UNL A   1      38.369  28.608  31.355  1.00  0.00    -0.206 F 
ATOM     77  C   UNL A   1      36.549  29.382  30.090  1.00  0.00     0.040 A 
ATOM     78  C   UNL A   1      36.856  29.953  27.770  1.00  0.00     0.040 A 
ATOM     79  F   UNL A   1      38.968  29.713  26.774  1.00  0.00    -0.206 F 
ATOM     80  C   UNL A   1      36.023  29.838  28.882  1.00  0.00     0.006 A 
ENDBRANCH  52  73
BRANCH  64  81
ATOM     81  C   UNL A   1      44.422  32.434  31.416  1.00  0.00     0.057 A 
ATOM     82  C   UNL A   1      44.363  32.700  32.790  1.00  0.00     0.134 A 
ATOM     83  C   UNL A   1      44.730  33.501  30.562  1.00  0.00     0.134 A 
ATOM     84  F   UNL A   1      44.059  31.725  33.659  1.00  0.00    -0.206 F 
ATOM     85  C   UNL A   1      44.582  33.984  33.292  1.00  0.00     0.040 A 
ATOM     86  C   UNL A   1      44.977  34.782  31.055  1.00  0.00     0.040 A 
ATOM     87  F   UNL A   1      44.811  33.312  29.236  1.00  0.00    -0.206 F 
ATOM     88  C   UNL A   1      44.897  35.028  32.424  1.00  0.00     0.006 A 
ENDBRANCH  64  81
ENDBRANCH  38  39
ENDBRANCH  30  33
ENDBRANCH  28  29
ENDBRANCH  27  28
ENDBRANCH  26  27
ENDBRANCH  25  26
ENDBRANCH   1  25
TORSDOF 17
ENDMDL
MODEL 3
REMARK VINA RESULT:     -10.8      1.367      2.463
REMARK SMILES Cc1cc(NC(=O)CC2(CC(=O)NCCCCCCNC(=O)c3ccc(-c4c5nc(c(-c6c(F)cccc6F)c6ccc([nH]6)c(-c6c(F)cccc6F)c6nc(c(-c7c(F)cccc7F)c7ccc4[nH]7)C=C6)C=C5)cc3)CCCC2)ccn1
REMARK SMILES IDX 15 1 14 2 13 3 11 4 12 5 10 7 9 8 77 9 80 10 78 11 79 12
REMARK SMILES IDX 8 13 6 14 5 15 7 17 4 18 1 19 2 20 3 21 83 22 82 23 81 24
REMARK SMILES IDX 16 25 17 26 18 27 19 28 20 29 21 30 22 32 23 33 24 34 76 35
REMARK SMILES IDX 25 36 75 37 26 38 27 39 28 40 69 41 29 42 74 43 68 44 70 45
REMARK SMILES IDX 30 46 73 47 67 48 66 49 31 51 57 52 40 53 56 54 41 55 44 56
REMARK SMILES IDX 55 57 71 58 42 59 43 60 54 62 72 63 45 64 32 65 33 66 38 67
REMARK SMILES IDX 34 68 35 69 37 70 39 71 36 72 58 73 59 74 64 75 60 76 61 77
REMARK SMILES IDX 63 78 65 79 62 80 46 81 47 82 52 83 48 84 49 85 51 86 53 87
REMARK SMILES IDX 50 88
REMARK H PARENT 13 6 5 16 20 31 70 50 44 61
REMARK Flexibility Score: inf
ROOT
ATOM      1  C   UNL A   1      35.758  22.492  25.108  1.00  0.00     0.021 C 
ENDROOT
BRANCH   1   2
ATOM      2  C   UNL A   1      34.441  21.717  25.083  1.00  0.00     0.116 C 
BRANCH   2   3
ATOM      3  N   UNL A   1      33.867  21.757  23.758  1.00  0.00    -0.356 N 
ATOM      4  C   UNL A   1      32.770  22.415  23.305  1.00  0.00     0.220 C 
ATOM      5  O   UNL A   1      32.444  22.241  22.130  1.00  0.00    -0.275 OA
ATOM      6  H   UNL A   1      34.346  21.226  23.081  1.00  0.00     0.163 HD
BRANCH   4   7
ATOM      7  C   UNL A   1      32.005  23.374  24.205  1.00  0.00     0.107 C 
BRANCH   7   8
ATOM      8  C   UNL A   1      32.129  24.913  23.971  1.00  0.00    -0.012 C 
ATOM      9  C   UNL A   1      33.583  25.295  24.350  1.00  0.00     0.008 C 
ATOM     10  C   UNL A   1      31.383  25.776  25.013  1.00  0.00     0.008 C 
ATOM     11  C   UNL A   1      33.613  25.354  25.878  1.00  0.00     0.001 C 
ATOM     12  C   UNL A   1      32.205  25.754  26.297  1.00  0.00     0.001 C 
BRANCH   8  13
ATOM     13  C   UNL A   1      31.650  25.323  22.546  1.00  0.00     0.108 C 
BRANCH  13  14
ATOM     14  C   UNL A   1      32.570  26.177  21.696  1.00  0.00     0.224 C 
ATOM     15  N   UNL A   1      32.725  27.519  21.883  1.00  0.00    -0.326 N 
ATOM     16  H   UNL A   1      33.342  27.939  21.239  1.00  0.00     0.169 HD
ATOM     17  O   UNL A   1      33.263  25.651  20.820  1.00  0.00    -0.275 OA
BRANCH  15  18
ATOM     18  C   UNL A   1      32.183  28.424  22.812  1.00  0.00     0.044 A 
ATOM     19  C   UNL A   1      33.312  29.771  26.158  1.00  0.00     0.067 C 
ATOM     20  C   UNL A   1      32.488  29.506  24.935  1.00  0.00     0.039 A 
ATOM     21  C   UNL A   1      33.020  28.797  23.865  1.00  0.00     0.049 A 
ATOM     22  N   UNL A   1      31.194  29.894  24.975  1.00  0.00    -0.261 NA
ATOM     23  C   UNL A   1      30.427  29.599  23.907  1.00  0.00     0.113 A 
ATOM     24  C   UNL A   1      30.875  28.886  22.807  1.00  0.00     0.046 A 
ENDBRANCH  15  18
ENDBRANCH  13  14
ENDBRANCH   8  13
ENDBRANCH   7   8
ENDBRANCH   4   7
ENDBRANCH   2   3
ENDBRANCH   1   2
BRANCH   1  25
ATOM     25  C   UNL A   1      36.968  21.655  24.693  1.00  0.00     0.002 C 
BRANCH  25  26
ATOM     26  C   UNL A   1      36.800  20.149  24.917  1.00  0.00     0.002 C 
BRANCH  26  27
ATOM     27  C   UNL A   1      38.107  19.353  24.978  1.00  0.00     0.021 C 
BRANCH  27  28
ATOM     28  C   UNL A   1      39.240  20.058  25.719  1.00  0.00     0.116 C 
BRANCH  28  29
ATOM     29  N   UNL A   1      40.400  19.194  25.868  1.00  0.00    -0.352 N 
ATOM     30  C   UNL A   1      41.699  19.524  26.151  1.00  0.00     0.251 C 
ATOM     31  H   UNL A   1      40.227  18.233  25.747  1.00  0.00     0.163 HD
ATOM     32  O   UNL A   1      42.597  18.705  25.990  1.00  0.00    -0.269 OA
BRANCH  30  33
ATOM     33  C   UNL A   1      42.015  20.877  26.651  1.00  0.00     0.039 A 
ATOM     34  C   UNL A   1      42.327  21.883  25.734  1.00  0.00     0.014 A 
ATOM     35  C   UNL A   1      42.031  21.140  28.024  1.00  0.00     0.014 A 
ATOM     36  C   UNL A   1      42.611  23.169  26.193  1.00  0.00     0.010 A 
ATOM     37  C   UNL A   1      42.247  22.438  28.476  1.00  0.00     0.010 A 
ATOM     38  C   UNL A   1      42.550  23.461  27.565  1.00  0.00    -0.014 A 
BRANCH  38  39
ATOM     39  C   UNL A   1      42.818  24.830  28.071  1.00  0.00     0.031 A 
ATOM     40  C   UNL A   1      44.211  25.221  28.478  1.00  0.00     0.074 A 
ATOM     41  C   UNL A   1      41.800  25.697  28.219  1.00  0.00     0.049 A 
ATOM     42  N   UNL A   1      44.635  26.339  29.009  1.00  0.00    -0.248 NA
ATOM     43  C   UNL A   1      45.265  24.210  28.288  1.00  0.00     0.031 C 
ATOM     44  C   UNL A   1      40.398  25.418  27.901  1.00  0.00     0.029 A 
ATOM     45  N   UNL A   1      41.784  26.986  28.687  1.00  0.00    -0.354 N 
ATOM     46  C   UNL A   1      45.994  26.162  29.228  1.00  0.00     0.074 A 
ATOM     47  C   UNL A   1      46.317  24.812  28.822  1.00  0.00     0.031 C 
ATOM     48  C   UNL A   1      39.662  26.510  28.165  1.00  0.00     0.029 A 
ATOM     49  C   UNL A   1      40.533  27.551  28.703  1.00  0.00     0.049 A 
ATOM     50  H   UNL A   1      42.594  27.462  28.982  1.00  0.00     0.167 HD
ATOM     51  C   UNL A   1      46.899  27.053  29.699  1.00  0.00     0.037 A 
ATOM     52  C   UNL A   1      40.132  28.768  29.115  1.00  0.00     0.037 A 
ATOM     53  C   UNL A   1      46.578  28.404  30.078  1.00  0.00     0.049 A 
ATOM     54  C   UNL A   1      41.155  29.739  29.637  1.00  0.00     0.074 A 
ATOM     55  C   UNL A   1      47.430  29.402  30.519  1.00  0.00     0.029 A 
ATOM     56  N   UNL A   1      45.302  28.948  30.059  1.00  0.00    -0.354 N 
ATOM     57  N   UNL A   1      42.447  29.579  29.781  1.00  0.00    -0.248 NA
ATOM     58  C   UNL A   1      40.663  31.062  30.046  1.00  0.00     0.031 C 
ATOM     59  C   UNL A   1      46.663  30.537  30.805  1.00  0.00     0.029 A 
ATOM     60  C   UNL A   1      45.341  30.261  30.497  1.00  0.00     0.049 A 
ATOM     61  H   UNL A   1      44.488  28.469  29.776  1.00  0.00     0.167 HD
ATOM     62  C   UNL A   1      42.928  30.787  30.271  1.00  0.00     0.074 A 
ATOM     63  C   UNL A   1      41.789  31.674  30.385  1.00  0.00     0.031 C 
ATOM     64  C   UNL A   1      44.197  31.131  30.596  1.00  0.00     0.037 A 
BRANCH  51  65
ATOM     65  C   UNL A   1      48.322  26.594  29.824  1.00  0.00     0.057 A 
ATOM     66  C   UNL A   1      48.798  25.974  30.987  1.00  0.00     0.134 A 
ATOM     67  C   UNL A   1      49.220  26.744  28.760  1.00  0.00     0.134 A 
ATOM     68  F   UNL A   1      47.993  25.811  32.049  1.00  0.00    -0.206 F 
ATOM     69  C   UNL A   1      50.121  25.543  31.097  1.00  0.00     0.040 A 
ATOM     70  C   UNL A   1      50.538  26.293  28.848  1.00  0.00     0.040 A 
ATOM     71  F   UNL A   1      48.829  27.324  27.615  1.00  0.00    -0.206 F 
ATOM     72  C   UNL A   1      50.994  25.697  30.022  1.00  0.00     0.006 A 
ENDBRANCH  51  65
BRANCH  52  73
ATOM     73  C   UNL A   1      38.699  29.148  29.027  1.00  0.00     0.057 A 
ATOM     74  C   UNL A   1      37.860  29.064  30.143  1.00  0.00     0.134 A 
ATOM     75  C   UNL A   1      38.134  29.596  27.827  1.00  0.00     0.134 A 
ATOM     76  F   UNL A   1      38.341  28.625  31.316  1.00  0.00    -0.206 F 
ATOM     77  C   UNL A   1      36.506  29.392  30.067  1.00  0.00     0.040 A 
ATOM     78  C   UNL A   1      36.787  29.951  27.742  1.00  0.00     0.040 A 
ATOM     79  F   UNL A   1      38.887  29.707  26.723  1.00  0.00    -0.206 F 
ATOM     80  C   UNL A   1      35.967  29.842  28.864  1.00  0.00     0.006 A 
ENDBRANCH  52  73
BRANCH  64  81
ATOM     81  C   UNL A   1      44.427  32.535  31.073  1.00  0.00     0.057 A 
ATOM     82  C   UNL A   1      44.406  32.868  32.433  1.00  0.00     0.134 A 
ATOM     83  C   UNL A   1      44.712  33.558  30.159  1.00  0.00     0.134 A 
ATOM     84  F   UNL A   1      44.126  31.936  33.356  1.00  0.00    -0.206 F 
ATOM     85  C   UNL A   1      44.639  34.174  32.865  1.00  0.00     0.040 A 
ATOM     86  C   UNL A   1      44.972  34.862  30.582  1.00  0.00     0.040 A 
ATOM     87  F   UNL A   1      44.755  33.304  28.842  1.00  0.00    -0.206 F 
ATOM     88  C   UNL A   1      44.930  35.174  31.939  1.00  0.00     0.006 A 
ENDBRANCH  64  81
ENDBRANCH  38  39
ENDBRANCH  30  33
ENDBRANCH  28  29
ENDBRANCH  27  28
ENDBRANCH  26  27
ENDBRANCH  25  26
ENDBRANCH   1  25
TORSDOF 17
ENDMDL
