MODEL 1
REMARK VINA RESULT:     -12.6      0.000      0.000
REMARK SMILES Cc1cc(C(=O)N[C@H]2C=C[C@H](C(=O)NCCCCCCNC(=O)c3ccc(-c4c5nc(c(-c6c(F)cccc6F)c6ccc([nH]6)c(-c6c(F)cccc6F)c6nc(c(-c7c(F)cccc7F)c7ccc4[nH]7)C=C6)C=C5)cc3)C2)ccc1F
REMARK SMILES IDX 17 1 16 2 15 3 14 4 12 5 13 6 11 8 8 9 9 10 78 11 10 12 7 13
REMARK SMILES IDX 5 14 6 15 4 17 1 18 2 19 3 20 81 21 80 22 82 23 79 24 18 25
REMARK SMILES IDX 19 26 20 27 21 28 22 29 23 31 24 32 25 33 77 34 26 35 76 36
REMARK SMILES IDX 27 37 28 38 29 39 70 40 30 41 75 42 69 43 71 44 31 45 74 46
REMARK SMILES IDX 68 47 67 48 32 50 58 51 41 52 57 53 42 54 45 55 56 56 72 57
REMARK SMILES IDX 43 58 44 59 55 61 73 62 46 63 33 64 34 65 39 66 35 67 36 68
REMARK SMILES IDX 38 69 40 70 37 71 59 72 60 73 65 74 61 75 62 76 64 77 66 78
REMARK SMILES IDX 63 79 47 80 48 81 53 82 49 83 50 84 52 85 54 86 51 87
REMARK H PARENT 14 7 7 16 21 30 71 49 45 60
REMARK Flexibility Score: inf
ROOT
ATOM      1  C   UNL A   1      33.000  28.526  27.001  1.00  0.00     0.002 C 
ENDROOT
BRANCH   1   2
ATOM      2  C   UNL A   1      31.820  27.550  27.099  1.00  0.00     0.021 C 
BRANCH   2   3
ATOM      3  C   UNL A   1      31.777  26.379  26.124  1.00  0.00     0.116 C 
BRANCH   3   4
ATOM      4  N   UNL A   1      30.864  25.345  26.536  1.00  0.00    -0.356 N 
ATOM      5  C   UNL A   1      31.007  23.999  26.582  1.00  0.00     0.227 C 
ATOM      6  O   UNL A   1      30.066  23.387  27.101  1.00  0.00    -0.274 OA
ATOM      7  H   UNL A   1      29.985  25.673  26.836  1.00  0.00     0.163 HD
BRANCH   5   8
ATOM      8  C   UNL A   1      32.208  23.242  25.964  1.00  0.00     0.103 C 
ATOM      9  C   UNL A   1      31.980  23.728  23.625  1.00  0.00     0.106 C 
ATOM     10  C   UNL A   1      31.881  22.255  23.840  1.00  0.00    -0.006 C 
ATOM     11  C   UNL A   1      32.802  24.131  24.851  1.00  0.00     0.047 C 
ATOM     12  C   UNL A   1      31.964  21.991  25.152  1.00  0.00    -0.016 C 
BRANCH   9  13
ATOM     13  N   UNL A   1      32.573  24.067  22.365  1.00  0.00    -0.346 N 
ATOM     14  C   UNL A   1      32.605  25.281  21.716  1.00  0.00     0.251 C 
ATOM     15  O   UNL A   1      33.221  25.356  20.653  1.00  0.00    -0.269 OA
ATOM     16  H   UNL A   1      33.023  23.326  21.897  1.00  0.00     0.164 HD
BRANCH  14  17
ATOM     17  C   UNL A   1      31.991  26.520  22.285  1.00  0.00     0.040 A 
ATOM     18  C   UNL A   1      28.644  27.969  23.397  1.00  0.00     0.047 C 
ATOM     19  C   UNL A   1      30.108  27.848  23.099  1.00  0.00    -0.015 A 
ATOM     20  C   UNL A   1      30.613  26.727  22.423  1.00  0.00     0.020 A 
ATOM     21  C   UNL A   1      31.000  28.837  23.509  1.00  0.00     0.126 A 
ATOM     22  C   UNL A   1      32.367  28.703  23.291  1.00  0.00     0.040 A 
ATOM     23  F   UNL A   1      30.541  29.937  24.121  1.00  0.00    -0.207 F 
ATOM     24  C   UNL A   1      32.863  27.540  22.696  1.00  0.00     0.017 A 
ENDBRANCH  14  17
ENDBRANCH   9  13
ENDBRANCH   5   8
ENDBRANCH   3   4
ENDBRANCH   2   3
ENDBRANCH   1   2
BRANCH   1  25
ATOM     25  C   UNL A   1      32.731  30.007  26.692  1.00  0.00     0.002 C 
BRANCH  25  26
ATOM     26  C   UNL A   1      33.555  31.063  27.424  1.00  0.00     0.021 C 
BRANCH  26  27
ATOM     27  C   UNL A   1      35.011  30.713  27.628  1.00  0.00     0.116 C 
BRANCH  27  28
ATOM     28  N   UNL A   1      35.716  31.449  28.646  1.00  0.00    -0.352 N 
ATOM     29  C   UNL A   1      36.830  31.074  29.382  1.00  0.00     0.251 C 
ATOM     30  H   UNL A   1      35.355  32.343  28.849  1.00  0.00     0.163 HD
ATOM     31  O   UNL A   1      37.196  31.805  30.284  1.00  0.00    -0.269 OA
BRANCH  29  32
ATOM     32  C   UNL A   1      37.661  29.877  29.017  1.00  0.00     0.039 A 
ATOM     33  C   UNL A   1      37.799  28.866  29.985  1.00  0.00     0.014 A 
ATOM     34  C   UNL A   1      38.436  29.794  27.863  1.00  0.00     0.014 A 
ATOM     35  C   UNL A   1      38.842  27.943  29.893  1.00  0.00     0.010 A 
ATOM     36  C   UNL A   1      39.500  28.933  27.788  1.00  0.00     0.010 A 
ATOM     37  C   UNL A   1      39.734  28.055  28.831  1.00  0.00    -0.014 A 
BRANCH  37  38
ATOM     38  C   UNL A   1      40.977  27.332  28.706  1.00  0.00     0.031 A 
ATOM     39  C   UNL A   1      40.941  25.900  28.432  1.00  0.00     0.074 A 
ATOM     40  C   UNL A   1      42.134  28.024  28.720  1.00  0.00     0.049 A 
ATOM     41  N   UNL A   1      41.736  25.049  28.972  1.00  0.00    -0.248 NA
ATOM     42  C   UNL A   1      39.973  25.315  27.511  1.00  0.00     0.031 C 
ATOM     43  C   UNL A   1      43.481  27.540  28.462  1.00  0.00     0.029 A 
ATOM     44  N   UNL A   1      42.311  29.329  29.170  1.00  0.00    -0.354 N 
ATOM     45  C   UNL A   1      41.605  23.886  28.253  1.00  0.00     0.074 A 
ATOM     46  C   UNL A   1      40.421  24.059  27.440  1.00  0.00     0.031 C 
ATOM     47  C   UNL A   1      44.354  28.396  29.025  1.00  0.00     0.029 A 
ATOM     48  C   UNL A   1      43.589  29.402  29.748  1.00  0.00     0.049 A 
ATOM     49  H   UNL A   1      41.661  30.063  29.098  1.00  0.00     0.167 HD
ATOM     50  C   UNL A   1      42.621  22.978  28.257  1.00  0.00     0.037 A 
ATOM     51  C   UNL A   1      43.686  29.668  31.084  1.00  0.00     0.037 A 
ATOM     52  C   UNL A   1      43.768  23.490  29.008  1.00  0.00     0.049 A 
ATOM     53  C   UNL A   1      44.142  28.471  31.887  1.00  0.00     0.074 A 
ATOM     54  C   UNL A   1      44.917  24.143  28.587  1.00  0.00     0.029 A 
ATOM     55  N   UNL A   1      43.656  23.747  30.373  1.00  0.00    -0.354 N 
ATOM     56  N   UNL A   1      44.182  27.253  31.420  1.00  0.00    -0.248 NA
ATOM     57  C   UNL A   1      44.601  28.550  33.271  1.00  0.00     0.031 C 
ATOM     58  C   UNL A   1      45.453  24.855  29.688  1.00  0.00     0.029 A 
ATOM     59  C   UNL A   1      44.648  24.620  30.789  1.00  0.00     0.049 A 
ATOM     60  H   UNL A   1      42.967  23.361  30.961  1.00  0.00     0.167 HD
ATOM     61  C   UNL A   1      44.633  26.398  32.391  1.00  0.00     0.074 A 
ATOM     62  C   UNL A   1      44.908  27.265  33.522  1.00  0.00     0.031 C 
ATOM     63  C   UNL A   1      44.739  25.050  32.179  1.00  0.00     0.037 A 
BRANCH  50  64
ATOM     64  C   UNL A   1      42.662  21.847  27.262  1.00  0.00     0.057 A 
ATOM     65  C   UNL A   1      41.833  20.719  27.389  1.00  0.00     0.134 A 
ATOM     66  C   UNL A   1      43.550  21.806  26.171  1.00  0.00     0.134 A 
ATOM     67  F   UNL A   1      40.871  20.651  28.317  1.00  0.00    -0.206 F 
ATOM     68  C   UNL A   1      41.959  19.590  26.570  1.00  0.00     0.040 A 
ATOM     69  C   UNL A   1      43.719  20.665  25.372  1.00  0.00     0.040 A 
ATOM     70  F   UNL A   1      44.282  22.879  25.833  1.00  0.00    -0.206 F 
ATOM     71  C   UNL A   1      42.929  19.544  25.581  1.00  0.00     0.006 A 
ENDBRANCH  50  64
BRANCH  51  72
ATOM     72  C   UNL A   1      42.690  30.704  31.501  1.00  0.00     0.057 A 
ATOM     73  C   UNL A   1      42.953  32.028  31.094  1.00  0.00     0.134 A 
ATOM     74  C   UNL A   1      41.354  30.375  31.760  1.00  0.00     0.134 A 
ATOM     75  F   UNL A   1      44.216  32.417  30.857  1.00  0.00    -0.206 F 
ATOM     76  C   UNL A   1      41.928  32.918  30.764  1.00  0.00     0.040 A 
ATOM     77  C   UNL A   1      40.321  31.273  31.455  1.00  0.00     0.040 A 
ATOM     78  F   UNL A   1      41.021  29.142  32.164  1.00  0.00    -0.206 F 
ATOM     79  C   UNL A   1      40.602  32.520  30.898  1.00  0.00     0.006 A 
ENDBRANCH  51  72
BRANCH  63  80
ATOM     80  C   UNL A   1      45.036  24.006  33.230  1.00  0.00     0.057 A 
ATOM     81  C   UNL A   1      44.135  23.013  33.640  1.00  0.00     0.134 A 
ATOM     82  C   UNL A   1      46.337  23.891  33.774  1.00  0.00     0.134 A 
ATOM     83  F   UNL A   1      42.903  22.922  33.122  1.00  0.00    -0.206 F 
ATOM     84  C   UNL A   1      44.482  22.021  34.567  1.00  0.00     0.040 A 
ATOM     85  C   UNL A   1      46.713  22.868  34.646  1.00  0.00     0.040 A 
ATOM     86  F   UNL A   1      47.313  24.757  33.463  1.00  0.00    -0.206 F 
ATOM     87  C   UNL A   1      45.778  21.937  35.062  1.00  0.00     0.006 A 
ENDBRANCH  63  80
ENDBRANCH  37  38
ENDBRANCH  29  32
ENDBRANCH  27  28
ENDBRANCH  26  27
ENDBRANCH  25  26
ENDBRANCH   1  25
TORSDOF 15
ENDMDL
MODEL 2
REMARK VINA RESULT:     -12.6      3.197      8.684
REMARK SMILES Cc1cc(C(=O)N[C@H]2C=C[C@H](C(=O)NCCCCCCNC(=O)c3ccc(-c4c5nc(c(-c6c(F)cccc6F)c6ccc([nH]6)c(-c6c(F)cccc6F)c6nc(c(-c7c(F)cccc7F)c7ccc4[nH]7)C=C6)C=C5)cc3)C2)ccc1F
REMARK SMILES IDX 17 1 16 2 15 3 14 4 12 5 13 6 11 8 8 9 9 10 78 11 10 12 7 13
REMARK SMILES IDX 5 14 6 15 4 17 1 18 2 19 3 20 81 21 80 22 82 23 79 24 18 25
REMARK SMILES IDX 19 26 20 27 21 28 22 29 23 31 24 32 25 33 77 34 26 35 76 36
REMARK SMILES IDX 27 37 28 38 29 39 70 40 30 41 75 42 69 43 71 44 31 45 74 46
REMARK SMILES IDX 68 47 67 48 32 50 58 51 41 52 57 53 42 54 45 55 56 56 72 57
REMARK SMILES IDX 43 58 44 59 55 61 73 62 46 63 33 64 34 65 39 66 35 67 36 68
REMARK SMILES IDX 38 69 40 70 37 71 59 72 60 73 65 74 61 75 62 76 64 77 66 78
REMARK SMILES IDX 63 79 47 80 48 81 53 82 49 83 50 84 52 85 54 86 51 87
REMARK H PARENT 14 7 7 16 21 30 71 49 45 60
REMARK Flexibility Score: inf
ROOT
ATOM      1  C   UNL A   1      35.141  23.282  23.220  1.00  0.00     0.002 C 
ENDROOT
BRANCH   1   2
ATOM      2  C   UNL A   1      34.482  24.486  23.907  1.00  0.00     0.021 C 
BRANCH   2   3
ATOM      3  C   UNL A   1      33.715  25.475  23.038  1.00  0.00     0.116 C 
BRANCH   3   4
ATOM      4  N   UNL A   1      33.693  26.804  23.591  1.00  0.00    -0.356 N 
ATOM      5  C   UNL A   1      32.666  27.565  24.037  1.00  0.00     0.227 C 
ATOM      6  O   UNL A   1      32.994  28.633  24.568  1.00  0.00    -0.274 OA
ATOM      7  H   UNL A   1      34.577  27.232  23.657  1.00  0.00     0.163 HD
BRANCH   5   8
ATOM      8  C   UNL A   1      31.175  27.197  23.837  1.00  0.00     0.103 C 
ATOM      9  C   UNL A   1      30.904  25.318  25.305  1.00  0.00     0.106 C 
ATOM     10  C   UNL A   1      30.615  24.900  23.902  1.00  0.00    -0.006 C 
ATOM     11  C   UNL A   1      30.597  26.815  25.216  1.00  0.00     0.047 C 
ATOM     12  C   UNL A   1      30.811  25.941  23.080  1.00  0.00    -0.016 C 
BRANCH   9  13
ATOM     13  N   UNL A   1      30.124  24.601  26.270  1.00  0.00    -0.346 N 
ATOM     14  C   UNL A   1      30.363  23.373  26.846  1.00  0.00     0.251 C 
ATOM     15  O   UNL A   1      29.575  22.966  27.698  1.00  0.00    -0.269 OA
ATOM     16  H   UNL A   1      29.298  25.051  26.564  1.00  0.00     0.164 HD
BRANCH  14  17
ATOM     17  C   UNL A   1      31.576  22.556  26.533  1.00  0.00     0.040 A 
ATOM     18  C   UNL A   1      32.952  20.089  23.971  1.00  0.00     0.047 C 
ATOM     19  C   UNL A   1      32.854  20.974  25.177  1.00  0.00    -0.015 A 
ATOM     20  C   UNL A   1      31.643  21.599  25.512  1.00  0.00     0.020 A 
ATOM     21  C   UNL A   1      33.970  21.211  25.975  1.00  0.00     0.126 A 
ATOM     22  C   UNL A   1      33.903  22.078  27.060  1.00  0.00     0.040 A 
ATOM     23  F   UNL A   1      35.128  20.595  25.703  1.00  0.00    -0.207 F 
ATOM     24  C   UNL A   1      32.714  22.763  27.328  1.00  0.00     0.017 A 
ENDBRANCH  14  17
ENDBRANCH   9  13
ENDBRANCH   5   8
ENDBRANCH   3   4
ENDBRANCH   2   3
ENDBRANCH   1   2
BRANCH   1  25
ATOM     25  C   UNL A   1      36.561  22.862  23.632  1.00  0.00     0.002 C 
BRANCH  25  26
ATOM     26  C   UNL A   1      37.210  23.565  24.820  1.00  0.00     0.021 C 
BRANCH  26  27
ATOM     27  C   UNL A   1      37.730  22.648  25.903  1.00  0.00     0.116 C 
BRANCH  27  28
ATOM     28  N   UNL A   1      39.158  22.470  25.969  1.00  0.00    -0.352 N 
ATOM     29  C   UNL A   1      40.137  23.387  26.322  1.00  0.00     0.251 C 
ATOM     30  H   UNL A   1      39.485  21.573  25.728  1.00  0.00     0.163 HD
ATOM     31  O   UNL A   1      41.303  23.060  26.194  1.00  0.00    -0.269 OA
BRANCH  29  32
ATOM     32  C   UNL A   1      39.803  24.700  26.971  1.00  0.00     0.039 A 
ATOM     33  C   UNL A   1      40.306  25.867  26.367  1.00  0.00     0.014 A 
ATOM     34  C   UNL A   1      39.187  24.816  28.215  1.00  0.00     0.014 A 
ATOM     35  C   UNL A   1      40.388  27.055  27.094  1.00  0.00     0.010 A 
ATOM     36  C   UNL A   1      39.315  25.958  28.961  1.00  0.00     0.010 A 
ATOM     37  C   UNL A   1      39.969  27.050  28.421  1.00  0.00    -0.014 A 
BRANCH  37  38
ATOM     38  C   UNL A   1      40.186  28.117  29.368  1.00  0.00     0.031 A 
ATOM     39  C   UNL A   1      39.194  29.182  29.477  1.00  0.00     0.074 A 
ATOM     40  C   UNL A   1      41.233  28.033  30.212  1.00  0.00     0.049 A 
ATOM     41  N   UNL A   1      39.491  30.420  29.635  1.00  0.00    -0.248 NA
ATOM     42  C   UNL A   1      37.763  28.913  29.405  1.00  0.00     0.031 C 
ATOM     43  C   UNL A   1      41.563  28.895  31.335  1.00  0.00     0.029 A 
ATOM     44  N   UNL A   1      42.339  27.199  30.075  1.00  0.00    -0.354 N 
ATOM     45  C   UNL A   1      38.328  31.054  29.997  1.00  0.00     0.074 A 
ATOM     46  C   UNL A   1      37.266  30.110  29.726  1.00  0.00     0.031 C 
ATOM     47  C   UNL A   1      42.876  28.765  31.600  1.00  0.00     0.029 A 
ATOM     48  C   UNL A   1      43.450  27.890  30.588  1.00  0.00     0.049 A 
ATOM     49  H   UNL A   1      42.343  26.294  29.690  1.00  0.00     0.167 HD
ATOM     50  C   UNL A   1      38.391  32.230  30.684  1.00  0.00     0.037 A 
ATOM     51  C   UNL A   1      44.465  28.217  29.734  1.00  0.00     0.037 A 
ATOM     52  C   UNL A   1      39.779  32.568  31.000  1.00  0.00     0.049 A 
ATOM     53  C   UNL A   1      44.536  29.701  29.452  1.00  0.00     0.074 A 
ATOM     54  C   UNL A   1      40.537  32.348  32.140  1.00  0.00     0.029 A 
ATOM     55  N   UNL A   1      40.689  32.828  29.977  1.00  0.00    -0.354 N 
ATOM     56  N   UNL A   1      43.590  30.547  29.759  1.00  0.00    -0.248 NA
ATOM     57  C   UNL A   1      45.677  30.351  28.816  1.00  0.00     0.031 C 
ATOM     58  C   UNL A   1      41.907  32.400  31.782  1.00  0.00     0.029 A 
ATOM     59  C   UNL A   1      41.990  32.677  30.430  1.00  0.00     0.049 A 
ATOM     60  H   UNL A   1      40.442  33.082  29.058  1.00  0.00     0.167 HD
ATOM     61  C   UNL A   1      43.952  31.810  29.369  1.00  0.00     0.074 A 
ATOM     62  C   UNL A   1      45.281  31.637  28.810  1.00  0.00     0.031 C 
ATOM     63  C   UNL A   1      43.126  32.887  29.540  1.00  0.00     0.037 A 
BRANCH  50  64
ATOM     64  C   UNL A   1      37.175  32.803  31.365  1.00  0.00     0.057 A 
ATOM     65  C   UNL A   1      36.822  32.441  32.676  1.00  0.00     0.134 A 
ATOM     66  C   UNL A   1      36.284  33.695  30.739  1.00  0.00     0.134 A 
ATOM     67  F   UNL A   1      37.616  31.678  33.436  1.00  0.00    -0.206 F 
ATOM     68  C   UNL A   1      35.619  32.838  33.273  1.00  0.00     0.040 A 
ATOM     69  C   UNL A   1      35.056  34.064  31.306  1.00  0.00     0.040 A 
ATOM     70  F   UNL A   1      36.580  34.252  29.554  1.00  0.00    -0.206 F 
ATOM     71  C   UNL A   1      34.713  33.622  32.576  1.00  0.00     0.006 A 
ENDBRANCH  50  64
BRANCH  51  72
ATOM     72  C   UNL A   1      44.739  27.105  28.772  1.00  0.00     0.057 A 
ATOM     73  C   UNL A   1      45.265  25.917  29.319  1.00  0.00     0.134 A 
ATOM     74  C   UNL A   1      44.041  26.990  27.563  1.00  0.00     0.134 A 
ATOM     75  F   UNL A   1      45.969  25.959  30.461  1.00  0.00    -0.206 F 
ATOM     76  C   UNL A   1      44.941  24.658  28.804  1.00  0.00     0.040 A 
ATOM     77  C   UNL A   1      43.735  25.732  27.027  1.00  0.00     0.040 A 
ATOM     78  F   UNL A   1      43.523  28.074  26.970  1.00  0.00    -0.206 F 
ATOM     79  C   UNL A   1      44.129  24.564  27.680  1.00  0.00     0.006 A 
ENDBRANCH  51  72
BRANCH  63  80
ATOM     80  C   UNL A   1      43.344  34.272  28.977  1.00  0.00     0.057 A 
ATOM     81  C   UNL A   1      43.526  34.557  27.617  1.00  0.00     0.134 A 
ATOM     82  C   UNL A   1      43.234  35.407  29.815  1.00  0.00     0.134 A 
ATOM     83  F   UNL A   1      43.532  33.591  26.689  1.00  0.00    -0.206 F 
ATOM     84  C   UNL A   1      43.652  35.867  27.135  1.00  0.00     0.040 A 
ATOM     85  C   UNL A   1      43.290  36.718  29.336  1.00  0.00     0.040 A 
ATOM     86  F   UNL A   1      43.041  35.296  31.137  1.00  0.00    -0.206 F 
ATOM     87  C   UNL A   1      43.520  36.953  27.992  1.00  0.00     0.006 A 
ENDBRANCH  63  80
ENDBRANCH  37  38
ENDBRANCH  29  32
ENDBRANCH  27  28
ENDBRANCH  26  27
ENDBRANCH  25  26
ENDBRANCH   1  25
TORSDOF 15
ENDMDL
MODEL 3
REMARK VINA RESULT:     -12.4      2.495      3.788
REMARK SMILES Cc1cc(C(=O)N[C@H]2C=C[C@H](C(=O)NCCCCCCNC(=O)c3ccc(-c4c5nc(c(-c6c(F)cccc6F)c6ccc([nH]6)c(-c6c(F)cccc6F)c6nc(c(-c7c(F)cccc7F)c7ccc4[nH]7)C=C6)C=C5)cc3)C2)ccc1F
REMARK SMILES IDX 17 1 16 2 15 3 14 4 12 5 13 6 11 8 8 9 9 10 78 11 10 12 7 13
REMARK SMILES IDX 5 14 6 15 4 17 1 18 2 19 3 20 81 21 80 22 82 23 79 24 18 25
REMARK SMILES IDX 19 26 20 27 21 28 22 29 23 31 24 32 25 33 77 34 26 35 76 36
REMARK SMILES IDX 27 37 28 38 29 39 70 40 30 41 75 42 69 43 71 44 31 45 74 46
REMARK SMILES IDX 68 47 67 48 32 50 58 51 41 52 57 53 42 54 45 55 56 56 72 57
REMARK SMILES IDX 43 58 44 59 55 61 73 62 46 63 33 64 34 65 39 66 35 67 36 68
REMARK SMILES IDX 38 69 40 70 37 71 59 72 60 73 65 74 61 75 62 76 64 77 66 78
REMARK SMILES IDX 63 79 47 80 48 81 53 82 49 83 50 84 52 85 54 86 51 87
REMARK H PARENT 14 7 7 16 21 30 71 49 45 60
REMARK Flexibility Score: inf
ROOT
ATOM      1  C   UNL A   1      31.968  25.838  26.393  1.00  0.00     0.002 C 
ENDROOT
BRANCH   1   2
ATOM      2  C   UNL A   1      31.255  24.483  26.494  1.00  0.00     0.021 C 
BRANCH   2   3
ATOM      3  C   UNL A   1      32.114  23.224  26.538  1.00  0.00     0.116 C 
BRANCH   3   4
ATOM      4  N   UNL A   1      33.524  23.512  26.556  1.00  0.00    -0.356 N 
ATOM      5  C   UNL A   1      34.509  23.188  25.686  1.00  0.00     0.227 C 
ATOM      6  O   UNL A   1      35.613  23.690  25.928  1.00  0.00    -0.274 OA
ATOM      7  H   UNL A   1      33.824  24.034  27.335  1.00  0.00     0.163 HD
BRANCH   5   8
ATOM      8  C   UNL A   1      34.324  22.196  24.510  1.00  0.00     0.103 C 
ATOM      9  C   UNL A   1      33.324  23.576  22.821  1.00  0.00     0.106 C 
ATOM     10  C   UNL A   1      32.394  22.464  23.171  1.00  0.00    -0.006 C 
ATOM     11  C   UNL A   1      34.665  22.946  23.205  1.00  0.00     0.047 C 
ATOM     12  C   UNL A   1      32.937  21.721  24.146  1.00  0.00    -0.016 C 
BRANCH   9  13
ATOM     13  N   UNL A   1      33.220  23.977  21.449  1.00  0.00    -0.346 N 
ATOM     14  C   UNL A   1      32.879  25.204  20.923  1.00  0.00     0.251 C 
ATOM     15  O   UNL A   1      32.901  25.339  19.700  1.00  0.00    -0.269 OA
ATOM     16  H   UNL A   1      33.420  23.276  20.788  1.00  0.00     0.164 HD
BRANCH  14  17
ATOM     17  C   UNL A   1      32.561  26.390  21.776  1.00  0.00     0.040 A 
ATOM     18  C   UNL A   1      29.641  28.191  23.440  1.00  0.00     0.047 C 
ATOM     19  C   UNL A   1      31.033  27.855  22.997  1.00  0.00    -0.015 A 
ATOM     20  C   UNL A   1      31.263  26.826  22.072  1.00  0.00     0.020 A 
ATOM     21  C   UNL A   1      32.127  28.544  23.515  1.00  0.00     0.126 A 
ATOM     22  C   UNL A   1      33.425  28.199  23.156  1.00  0.00     0.040 A 
ATOM     23  F   UNL A   1      31.934  29.559  24.368  1.00  0.00    -0.207 F 
ATOM     24  C   UNL A   1      33.643  27.113  22.303  1.00  0.00     0.017 A 
ENDBRANCH  14  17
ENDBRANCH   9  13
ENDBRANCH   5   8
ENDBRANCH   3   4
ENDBRANCH   2   3
ENDBRANCH   1   2
BRANCH   1  25
ATOM     25  C   UNL A   1      31.168  27.131  26.621  1.00  0.00     0.002 C 
BRANCH  25  26
ATOM     26  C   UNL A   1      31.731  28.172  27.584  1.00  0.00     0.021 C 
BRANCH  26  27
ATOM     27  C   UNL A   1      33.121  28.665  27.256  1.00  0.00     0.116 C 
BRANCH  27  28
ATOM     28  N   UNL A   1      33.365  30.074  27.432  1.00  0.00    -0.352 N 
ATOM     29  C   UNL A   1      34.492  30.709  27.932  1.00  0.00     0.251 C 
ATOM     30  H   UNL A   1      32.629  30.669  27.160  1.00  0.00     0.163 HD
ATOM     31  O   UNL A   1      34.442  31.913  28.108  1.00  0.00    -0.269 OA
BRANCH  29  32
ATOM     32  C   UNL A   1      35.793  29.985  28.135  1.00  0.00     0.039 A 
ATOM     33  C   UNL A   1      35.983  29.329  29.365  1.00  0.00     0.014 A 
ATOM     34  C   UNL A   1      36.875  30.075  27.263  1.00  0.00     0.014 A 
ATOM     35  C   UNL A   1      37.268  28.986  29.788  1.00  0.00     0.010 A 
ATOM     36  C   UNL A   1      38.148  29.800  27.688  1.00  0.00     0.010 A 
ATOM     37  C   UNL A   1      38.344  29.316  28.969  1.00  0.00    -0.014 A 
BRANCH  37  38
ATOM     38  C   UNL A   1      39.734  29.235  29.347  1.00  0.00     0.031 A 
ATOM     39  C   UNL A   1      40.482  28.018  29.047  1.00  0.00     0.074 A 
ATOM     40  C   UNL A   1      40.335  30.332  29.850  1.00  0.00     0.049 A 
ATOM     41  N   UNL A   1      41.339  27.492  29.844  1.00  0.00    -0.248 NA
ATOM     42  C   UNL A   1      40.300  27.291  27.796  1.00  0.00     0.031 C 
ATOM     43  C   UNL A   1      41.742  30.534  30.156  1.00  0.00     0.029 A 
ATOM     44  N   UNL A   1      39.700  31.458  30.366  1.00  0.00    -0.354 N 
ATOM     45  C   UNL A   1      42.037  26.568  29.107  1.00  0.00     0.074 A 
ATOM     46  C   UNL A   1      41.284  26.391  27.884  1.00  0.00     0.031 C 
ATOM     47  C   UNL A   1      41.844  31.536  31.048  1.00  0.00     0.029 A 
ATOM     48  C   UNL A   1      40.495  31.941  31.418  1.00  0.00     0.049 A 
ATOM     49  H   UNL A   1      38.851  31.843  30.052  1.00  0.00     0.167 HD
ATOM     50  C   UNL A   1      43.287  26.199  29.505  1.00  0.00     0.037 A 
ATOM     51  C   UNL A   1      39.978  31.930  32.683  1.00  0.00     0.037 A 
ATOM     52  C   UNL A   1      43.707  26.976  30.671  1.00  0.00     0.049 A 
ATOM     53  C   UNL A   1      40.635  30.898  33.572  1.00  0.00     0.074 A 
ATOM     54  C   UNL A   1      44.472  28.128  30.775  1.00  0.00     0.029 A 
ATOM     55  N   UNL A   1      43.017  26.861  31.877  1.00  0.00    -0.354 N 
ATOM     56  N   UNL A   1      41.409  29.944  33.133  1.00  0.00    -0.248 NA
ATOM     57  C   UNL A   1      40.483  30.866  35.024  1.00  0.00     0.031 C 
ATOM     58  C   UNL A   1      44.181  28.746  32.016  1.00  0.00     0.029 A 
ATOM     59  C   UNL A   1      43.258  27.961  32.684  1.00  0.00     0.049 A 
ATOM     60  H   UNL A   1      42.438  26.103  32.121  1.00  0.00     0.167 HD
ATOM     61  C   UNL A   1      41.840  29.175  34.183  1.00  0.00     0.074 A 
ATOM     62  C   UNL A   1      41.254  29.812  35.348  1.00  0.00     0.031 C 
ATOM     63  C   UNL A   1      42.639  28.080  33.999  1.00  0.00     0.037 A 
BRANCH  50  64
ATOM     64  C   UNL A   1      44.206  25.436  28.586  1.00  0.00     0.057 A 
ATOM     65  C   UNL A   1      44.935  26.076  27.569  1.00  0.00     0.134 A 
ATOM     66  C   UNL A   1      44.372  24.039  28.639  1.00  0.00     0.134 A 
ATOM     67  F   UNL A   1      44.959  27.409  27.450  1.00  0.00    -0.206 F 
ATOM     68  C   UNL A   1      45.673  25.374  26.608  1.00  0.00     0.040 A 
ATOM     69  C   UNL A   1      45.069  23.319  27.658  1.00  0.00     0.040 A 
ATOM     70  F   UNL A   1      43.869  23.320  29.655  1.00  0.00    -0.206 F 
ATOM     71  C   UNL A   1      45.713  23.988  26.627  1.00  0.00     0.006 A 
ENDBRANCH  50  64
BRANCH  51  72
ATOM     72  C   UNL A   1      38.537  32.328  32.680  1.00  0.00     0.057 A 
ATOM     73  C   UNL A   1      38.242  33.617  32.192  1.00  0.00     0.134 A 
ATOM     74  C   UNL A   1      37.512  31.376  32.611  1.00  0.00     0.134 A 
ATOM     75  F   UNL A   1      39.171  34.585  32.254  1.00  0.00    -0.206 F 
ATOM     76  C   UNL A   1      37.067  33.892  31.487  1.00  0.00     0.040 A 
ATOM     77  C   UNL A   1      36.320  31.653  31.927  1.00  0.00     0.040 A 
ATOM     78  F   UNL A   1      37.706  30.131  33.067  1.00  0.00    -0.206 F 
ATOM     79  C   UNL A   1      36.122  32.888  31.310  1.00  0.00     0.006 A 
ENDBRANCH  51  72
BRANCH  63  80
ATOM     80  C   UNL A   1      43.007  27.062  35.053  1.00  0.00     0.057 A 
ATOM     81  C   UNL A   1      44.194  27.084  35.799  1.00  0.00     0.134 A 
ATOM     82  C   UNL A   1      42.073  26.075  35.449  1.00  0.00     0.134 A 
ATOM     83  F   UNL A   1      45.122  28.033  35.619  1.00  0.00    -0.206 F 
ATOM     84  C   UNL A   1      44.458  26.158  36.818  1.00  0.00     0.040 A 
ATOM     85  C   UNL A   1      42.297  25.191  36.506  1.00  0.00     0.040 A 
ATOM     86  F   UNL A   1      40.885  25.940  34.841  1.00  0.00    -0.206 F 
ATOM     87  C   UNL A   1      43.504  25.217  37.184  1.00  0.00     0.006 A 
ENDBRANCH  63  80
ENDBRANCH  37  38
ENDBRANCH  29  32
ENDBRANCH  27  28
ENDBRANCH  26  27
ENDBRANCH  25  26
ENDBRANCH   1  25
TORSDOF 15
ENDMDL
