MODEL 1
REMARK VINA RESULT:     -10.4      0.000      0.000
REMARK SMILES C=C(C)CN(CC)C(=O)C[N@H+]1CC[C@@H](C(=O)NCCCCCCNC(=O)c2ccc(-c3c4nc(c(-c5c(F)cccc5F)c5ccc([nH]5)c(-c5c(F)cccc5F)c5nc(c(-c6c(F)cccc6F)c6ccc3[nH]6)C=C5)C=C4)cc2)[C@@H]1C
REMARK SMILES IDX 19 1 18 2 17 3 15 4 16 5 14 7 11 8 12 9 81 10 13 12 82 13
REMARK SMILES IDX 10 14 8 15 9 16 5 17 4 18 2 19 1 20 3 21 6 22 7 23 20 24
REMARK SMILES IDX 21 25 22 26 23 27 24 28 25 29 26 31 27 32 28 33 80 34 29 35
REMARK SMILES IDX 79 36 30 37 31 38 32 39 73 40 33 41 78 42 72 43 74 44 34 45
REMARK SMILES IDX 77 46 71 47 70 48 35 50 61 51 44 52 60 53 45 54 48 55 59 56
REMARK SMILES IDX 75 57 46 58 47 59 58 61 76 62 49 63 36 64 37 65 42 66 38 67
REMARK SMILES IDX 39 68 41 69 43 70 40 71 62 72 63 73 68 74 64 75 65 76 67 77
REMARK SMILES IDX 69 78 66 79 50 80 51 81 56 82 52 83 53 84 55 85 57 86 54 87
REMARK H PARENT 17 6 11 11 24 30 74 49 48 60
REMARK Flexibility Score: inf
ROOT
ATOM      1  C   UNL A   1      35.005  21.237  26.070  1.00  0.00     0.021 C 
ENDROOT
BRANCH   1   2
ATOM      2  C   UNL A   1      33.545  20.819  26.217  1.00  0.00     0.116 C 
BRANCH   2   3
ATOM      3  N   UNL A   1      32.768  21.787  26.962  1.00  0.00    -0.356 N 
ATOM      4  C   UNL A   1      32.469  23.084  26.685  1.00  0.00     0.229 C 
ATOM      5  O   UNL A   1      31.776  23.688  27.510  1.00  0.00    -0.275 OA
ATOM      6  H   UNL A   1      32.394  21.449  27.808  1.00  0.00     0.163 HD
BRANCH   4   7
ATOM      7  C   UNL A   1      32.943  23.800  25.426  1.00  0.00     0.142 C 
ATOM      8  N   UNL A   1      32.014  25.222  23.692  1.00  0.00    -0.324 N 
ATOM      9  C   UNL A   1      33.174  25.892  24.294  1.00  0.00     0.263 C 
ATOM     10  C   UNL A   1      31.892  23.885  24.311  1.00  0.00     0.194 C 
ATOM     11  H   UNL A   1      32.145  25.092  22.689  1.00  0.00     0.348 HD
ATOM     12  C   UNL A   1      33.459  25.213  25.622  1.00  0.00     0.081 C 
ATOM     13  C   UNL A   1      32.193  22.841  23.231  1.00  0.00     0.076 C 
BRANCH   8  14
ATOM     14  C   UNL A   1      30.800  26.055  23.779  1.00  0.00     0.364 C 
BRANCH  14  15
ATOM     15  C   UNL A   1      30.806  27.283  22.856  1.00  0.00     0.278 C 
ATOM     16  O   UNL A   1      30.846  27.101  21.633  1.00  0.00    -0.268 OA
BRANCH  15  17
ATOM     17  N   UNL A   1      30.693  28.557  23.402  1.00  0.00    -0.334 N 
BRANCH  17  18
ATOM     18  C   UNL A   1      30.111  29.611  22.570  1.00  0.00     0.149 C 
BRANCH  18  19
ATOM     19  C   UNL A   1      28.718  29.980  23.040  1.00  0.00    -0.061 C 
ATOM     20  C   UNL A   1      27.654  29.167  22.928  1.00  0.00     0.009 C 
ATOM     21  C   UNL A   1      28.582  31.349  23.649  1.00  0.00     0.041 C 
ENDBRANCH  18  19
ENDBRANCH  17  18
BRANCH  17  22
ATOM     22  C   UNL A   1      31.022  28.901  24.787  1.00  0.00     0.116 C 
ATOM     23  C   UNL A   1      32.345  29.644  24.911  1.00  0.00     0.027 C 
ENDBRANCH  17  22
ENDBRANCH  15  17
ENDBRANCH  14  15
ENDBRANCH   8  14
ENDBRANCH   4   7
ENDBRANCH   2   3
ENDBRANCH   1   2
BRANCH   1  24
ATOM     24  C   UNL A   1      35.450  21.434  24.620  1.00  0.00     0.002 C 
BRANCH  24  25
ATOM     25  C   UNL A   1      36.970  21.485  24.414  1.00  0.00     0.002 C 
BRANCH  25  26
ATOM     26  C   UNL A   1      37.742  20.243  24.876  1.00  0.00     0.021 C 
BRANCH  26  27
ATOM     27  C   UNL A   1      38.803  20.507  25.944  1.00  0.00     0.116 C 
BRANCH  27  28
ATOM     28  N   UNL A   1      39.877  19.521  25.891  1.00  0.00    -0.352 N 
ATOM     29  C   UNL A   1      41.226  19.681  26.050  1.00  0.00     0.251 C 
ATOM     30  H   UNL A   1      39.586  18.597  25.712  1.00  0.00     0.163 HD
ATOM     31  O   UNL A   1      41.997  18.772  25.734  1.00  0.00    -0.269 OA
BRANCH  29  32
ATOM     32  C   UNL A   1      41.774  20.942  26.588  1.00  0.00     0.039 A 
ATOM     33  C   UNL A   1      42.202  21.931  25.698  1.00  0.00     0.014 A 
ATOM     34  C   UNL A   1      41.893  21.140  27.967  1.00  0.00     0.014 A 
ATOM     35  C   UNL A   1      42.678  23.149  26.189  1.00  0.00     0.010 A 
ATOM     36  C   UNL A   1      42.312  22.374  28.456  1.00  0.00     0.010 A 
ATOM     37  C   UNL A   1      42.699  23.393  27.572  1.00  0.00    -0.014 A 
BRANCH  37  38
ATOM     38  C   UNL A   1      43.068  24.725  28.112  1.00  0.00     0.031 A 
ATOM     39  C   UNL A   1      42.017  25.766  28.366  1.00  0.00     0.074 A 
ATOM     40  C   UNL A   1      44.370  25.024  28.283  1.00  0.00     0.049 A 
ATOM     41  N   UNL A   1      42.163  27.012  28.737  1.00  0.00    -0.248 NA
ATOM     42  C   UNL A   1      40.620  25.360  28.150  1.00  0.00     0.031 C 
ATOM     43  C   UNL A   1      45.487  24.113  28.023  1.00  0.00     0.029 A 
ATOM     44  N   UNL A   1      44.975  26.186  28.691  1.00  0.00    -0.354 N 
ATOM     45  C   UNL A   1      40.881  27.545  28.784  1.00  0.00     0.074 A 
ATOM     46  C   UNL A   1      39.974  26.496  28.367  1.00  0.00     0.031 C 
ATOM     47  C   UNL A   1      46.640  24.749  28.282  1.00  0.00     0.029 A 
ATOM     48  C   UNL A   1      46.348  26.121  28.685  1.00  0.00     0.049 A 
ATOM     49  H   UNL A   1      44.475  26.990  28.962  1.00  0.00     0.167 HD
ATOM     50  C   UNL A   1      40.497  28.790  29.155  1.00  0.00     0.037 A 
ATOM     51  C   UNL A   1      47.270  27.064  28.952  1.00  0.00     0.037 A 
ATOM     52  C   UNL A   1      41.403  29.823  29.587  1.00  0.00     0.049 A 
ATOM     53  C   UNL A   1      46.820  28.443  29.345  1.00  0.00     0.074 A 
ATOM     54  C   UNL A   1      41.105  31.085  30.070  1.00  0.00     0.029 A 
ATOM     55  N   UNL A   1      42.786  29.717  29.574  1.00  0.00    -0.354 N 
ATOM     56  N   UNL A   1      45.601  28.909  29.466  1.00  0.00    -0.248 NA
ATOM     57  C   UNL A   1      47.872  29.425  29.634  1.00  0.00     0.031 C 
ATOM     58  C   UNL A   1      42.307  31.763  30.297  1.00  0.00     0.029 A 
ATOM     59  C   UNL A   1      43.355  30.907  30.001  1.00  0.00     0.049 A 
ATOM     60  H   UNL A   1      43.289  28.916  29.301  1.00  0.00     0.167 HD
ATOM     61  C   UNL A   1      45.737  30.234  29.854  1.00  0.00     0.074 A 
ATOM     62  C   UNL A   1      47.158  30.491  29.970  1.00  0.00     0.031 C 
ATOM     63  C   UNL A   1      44.772  31.156  30.091  1.00  0.00     0.037 A 
BRANCH  50  64
ATOM     64  C   UNL A   1      39.030  29.107  29.100  1.00  0.00     0.057 A 
ATOM     65  C   UNL A   1      38.399  29.492  27.911  1.00  0.00     0.134 A 
ATOM     66  C   UNL A   1      38.234  28.994  30.247  1.00  0.00     0.134 A 
ATOM     67  F   UNL A   1      39.107  29.628  26.779  1.00  0.00    -0.206 F 
ATOM     68  C   UNL A   1      37.034  29.781  27.869  1.00  0.00     0.040 A 
ATOM     69  C   UNL A   1      36.863  29.255  30.212  1.00  0.00     0.040 A 
ATOM     70  F   UNL A   1      38.772  28.622  31.418  1.00  0.00    -0.206 F 
ATOM     71  C   UNL A   1      36.261  29.658  29.022  1.00  0.00     0.006 A 
ENDBRANCH  50  64
BRANCH  51  72
ATOM     72  C   UNL A   1      48.711  26.731  28.851  1.00  0.00     0.057 A 
ATOM     73  C   UNL A   1      49.424  26.961  27.670  1.00  0.00     0.134 A 
ATOM     74  C   UNL A   1      49.414  26.194  29.937  1.00  0.00     0.134 A 
ATOM     75  F   UNL A   1      48.801  27.456  26.591  1.00  0.00    -0.206 F 
ATOM     76  C   UNL A   1      50.784  26.664  27.569  1.00  0.00     0.040 A 
ATOM     77  C   UNL A   1      50.779  25.913  29.857  1.00  0.00     0.040 A 
ATOM     78  F   UNL A   1      48.788  25.957  31.100  1.00  0.00    -0.206 F 
ATOM     79  C   UNL A   1      51.466  26.144  28.668  1.00  0.00     0.006 A 
ENDBRANCH  51  72
BRANCH  63  80
ATOM     80  C   UNL A   1      45.222  32.529  30.492  1.00  0.00     0.057 A 
ATOM     81  C   UNL A   1      45.466  32.859  31.831  1.00  0.00     0.134 A 
ATOM     82  C   UNL A   1      45.448  33.521  29.529  1.00  0.00     0.134 A 
ATOM     83  F   UNL A   1      45.254  31.958  32.803  1.00  0.00    -0.206 F 
ATOM     84  C   UNL A   1      45.904  34.132  32.201  1.00  0.00     0.040 A 
ATOM     85  C   UNL A   1      45.909  34.790  29.884  1.00  0.00     0.040 A 
ATOM     86  F   UNL A   1      45.238  33.268  28.229  1.00  0.00    -0.206 F 
ATOM     87  C   UNL A   1      46.135  35.099  31.224  1.00  0.00     0.006 A 
ENDBRANCH  63  80
ENDBRANCH  37  38
ENDBRANCH  29  32
ENDBRANCH  27  28
ENDBRANCH  26  27
ENDBRANCH  25  26
ENDBRANCH  24  25
ENDBRANCH   1  24
TORSDOF 19
ENDMDL
MODEL 2
REMARK VINA RESULT:     -10.2      1.400      2.138
REMARK SMILES C=C(C)CN(CC)C(=O)C[N@H+]1CC[C@@H](C(=O)NCCCCCCNC(=O)c2ccc(-c3c4nc(c(-c5c(F)cccc5F)c5ccc([nH]5)c(-c5c(F)cccc5F)c5nc(c(-c6c(F)cccc6F)c6ccc3[nH]6)C=C5)C=C4)cc2)[C@@H]1C
REMARK SMILES IDX 19 1 18 2 17 3 15 4 16 5 14 7 11 8 12 9 81 10 13 12 82 13
REMARK SMILES IDX 10 14 8 15 9 16 5 17 4 18 2 19 1 20 3 21 6 22 7 23 20 24
REMARK SMILES IDX 21 25 22 26 23 27 24 28 25 29 26 31 27 32 28 33 80 34 29 35
REMARK SMILES IDX 79 36 30 37 31 38 32 39 73 40 33 41 78 42 72 43 74 44 34 45
REMARK SMILES IDX 77 46 71 47 70 48 35 50 61 51 44 52 60 53 45 54 48 55 59 56
REMARK SMILES IDX 75 57 46 58 47 59 58 61 76 62 49 63 36 64 37 65 42 66 38 67
REMARK SMILES IDX 39 68 41 69 43 70 40 71 62 72 63 73 68 74 64 75 65 76 67 77
REMARK SMILES IDX 69 78 66 79 50 80 51 81 56 82 52 83 53 84 55 85 57 86 54 87
REMARK H PARENT 17 6 11 11 24 30 74 49 48 60
REMARK Flexibility Score: inf
ROOT
ATOM      1  C   UNL A   1      35.423  22.051  26.136  1.00  0.00     0.021 C 
ENDROOT
BRANCH   1   2
ATOM      2  C   UNL A   1      34.194  21.612  26.927  1.00  0.00     0.116 C 
BRANCH   2   3
ATOM      3  N   UNL A   1      33.616  20.389  26.412  1.00  0.00    -0.356 N 
ATOM      4  C   UNL A   1      32.589  20.192  25.542  1.00  0.00     0.229 C 
ATOM      5  O   UNL A   1      32.299  19.023  25.272  1.00  0.00    -0.275 OA
ATOM      6  H   UNL A   1      34.037  19.564  26.745  1.00  0.00     0.163 HD
BRANCH   4   7
ATOM      7  C   UNL A   1      31.806  21.334  24.904  1.00  0.00     0.142 C 
ATOM      8  N   UNL A   1      31.812  23.761  24.912  1.00  0.00    -0.324 N 
ATOM      9  C   UNL A   1      31.899  23.284  23.526  1.00  0.00     0.263 C 
ATOM     10  C   UNL A   1      31.667  22.579  25.789  1.00  0.00     0.194 C 
ATOM     11  H   UNL A   1      30.992  24.353  25.045  1.00  0.00     0.348 HD
ATOM     12  C   UNL A   1      32.326  21.828  23.567  1.00  0.00     0.081 C 
ATOM     13  C   UNL A   1      30.266  22.625  26.407  1.00  0.00     0.076 C 
BRANCH   8  14
ATOM     14  C   UNL A   1      32.940  24.648  25.253  1.00  0.00     0.364 C 
BRANCH  14  15
ATOM     15  C   UNL A   1      32.560  26.129  25.403  1.00  0.00     0.278 C 
ATOM     16  O   UNL A   1      32.141  26.522  26.499  1.00  0.00    -0.268 OA
BRANCH  15  17
ATOM     17  N   UNL A   1      32.761  27.004  24.341  1.00  0.00    -0.334 N 
BRANCH  17  18
ATOM     18  C   UNL A   1      31.835  26.934  23.210  1.00  0.00     0.149 C 
BRANCH  18  19
ATOM     19  C   UNL A   1      30.483  27.520  23.567  1.00  0.00    -0.061 C 
ATOM     20  C   UNL A   1      30.231  28.839  23.609  1.00  0.00     0.009 C 
ATOM     21  C   UNL A   1      29.408  26.518  23.890  1.00  0.00     0.041 C 
ENDBRANCH  18  19
ENDBRANCH  17  18
BRANCH  17  22
ATOM     22  C   UNL A   1      33.773  28.063  24.315  1.00  0.00     0.116 C 
ATOM     23  C   UNL A   1      33.989  28.636  22.922  1.00  0.00     0.027 C 
ENDBRANCH  17  22
ENDBRANCH  15  17
ENDBRANCH  14  15
ENDBRANCH   8  14
ENDBRANCH   4   7
ENDBRANCH   2   3
ENDBRANCH   1   2
BRANCH   1  24
ATOM     24  C   UNL A   1      35.806  21.097  25.005  1.00  0.00     0.002 C 
BRANCH  24  25
ATOM     25  C   UNL A   1      37.270  21.186  24.554  1.00  0.00     0.002 C 
BRANCH  25  26
ATOM     26  C   UNL A   1      38.145  19.976  24.903  1.00  0.00     0.021 C 
BRANCH  26  27
ATOM     27  C   UNL A   1      39.184  20.228  25.995  1.00  0.00     0.116 C 
BRANCH  27  28
ATOM     28  N   UNL A   1      40.227  19.208  25.991  1.00  0.00    -0.352 N 
ATOM     29  C   UNL A   1      41.584  19.338  26.092  1.00  0.00     0.251 C 
ATOM     30  H   UNL A   1      39.903  18.282  25.904  1.00  0.00     0.163 HD
ATOM     31  O   UNL A   1      42.317  18.381  25.830  1.00  0.00    -0.269 OA
BRANCH  29  32
ATOM     32  C   UNL A   1      42.187  20.622  26.501  1.00  0.00     0.039 A 
ATOM     33  C   UNL A   1      42.700  21.475  25.518  1.00  0.00     0.014 A 
ATOM     34  C   UNL A   1      42.274  20.975  27.851  1.00  0.00     0.014 A 
ATOM     35  C   UNL A   1      43.230  22.714  25.884  1.00  0.00     0.010 A 
ATOM     36  C   UNL A   1      42.749  22.234  28.209  1.00  0.00     0.010 A 
ATOM     37  C   UNL A   1      43.221  23.119  27.228  1.00  0.00    -0.014 A 
BRANCH  37  38
ATOM     38  C   UNL A   1      43.650  24.483  27.624  1.00  0.00     0.031 A 
ATOM     39  C   UNL A   1      42.636  25.528  27.989  1.00  0.00     0.074 A 
ATOM     40  C   UNL A   1      44.957  24.803  27.560  1.00  0.00     0.049 A 
ATOM     41  N   UNL A   1      42.818  26.795  28.260  1.00  0.00    -0.248 NA
ATOM     42  C   UNL A   1      41.230  25.098  28.029  1.00  0.00     0.031 C 
ATOM     43  C   UNL A   1      46.032  23.888  27.172  1.00  0.00     0.029 A 
ATOM     44  N   UNL A   1      45.599  25.992  27.797  1.00  0.00    -0.354 N 
ATOM     45  C   UNL A   1      41.551  27.319  28.487  1.00  0.00     0.074 A 
ATOM     46  C   UNL A   1      40.608  26.240  28.285  1.00  0.00     0.031 C 
ATOM     47  C   UNL A   1      47.200  24.548  27.201  1.00  0.00     0.029 A 
ATOM     48  C   UNL A   1      46.953  25.939  27.569  1.00  0.00     0.049 A 
ATOM     49  H   UNL A   1      45.136  26.806  28.101  1.00  0.00     0.167 HD
ATOM     50  C   UNL A   1      41.210  28.580  28.845  1.00  0.00     0.037 A 
ATOM     51  C   UNL A   1      47.889  26.904  27.627  1.00  0.00     0.037 A 
ATOM     52  C   UNL A   1      42.157  29.645  29.063  1.00  0.00     0.049 A 
ATOM     53  C   UNL A   1      47.484  28.299  28.010  1.00  0.00     0.074 A 
ATOM     54  C   UNL A   1      41.918  30.930  29.516  1.00  0.00     0.029 A 
ATOM     55  N   UNL A   1      43.521  29.550  28.828  1.00  0.00    -0.354 N 
ATOM     56  N   UNL A   1      46.294  28.761  28.304  1.00  0.00    -0.248 NA
ATOM     57  C   UNL A   1      48.552  29.306  28.066  1.00  0.00     0.031 C 
ATOM     58  C   UNL A   1      43.129  31.630  29.504  1.00  0.00     0.029 A 
ATOM     59  C   UNL A   1      44.130  30.768  29.088  1.00  0.00     0.049 A 
ATOM     60  H   UNL A   1      43.986  28.739  28.522  1.00  0.00     0.167 HD
ATOM     61  C   UNL A   1      46.468  30.108  28.589  1.00  0.00     0.074 A 
ATOM     62  C   UNL A   1      47.884  30.384  28.454  1.00  0.00     0.031 C 
ATOM     63  C   UNL A   1      45.538  31.034  28.929  1.00  0.00     0.037 A 
BRANCH  50  64
ATOM     64  C   UNL A   1      39.750  28.881  29.016  1.00  0.00     0.057 A 
ATOM     65  C   UNL A   1      38.945  29.280  27.941  1.00  0.00     0.134 A 
ATOM     66  C   UNL A   1      39.134  28.737  30.265  1.00  0.00     0.134 A 
ATOM     67  F   UNL A   1      39.475  29.445  26.719  1.00  0.00    -0.206 F 
ATOM     68  C   UNL A   1      37.587  29.553  28.108  1.00  0.00     0.040 A 
ATOM     69  C   UNL A   1      37.770  28.983  30.440  1.00  0.00     0.040 A 
ATOM     70  F   UNL A   1      39.843  28.350  31.336  1.00  0.00    -0.206 F 
ATOM     71  C   UNL A   1      36.994  29.400  29.360  1.00  0.00     0.006 A 
ENDBRANCH  50  64
BRANCH  51  72
ATOM     72  C   UNL A   1      49.300  26.578  27.308  1.00  0.00     0.057 A 
ATOM     73  C   UNL A   1      49.813  26.769  26.021  1.00  0.00     0.134 A 
ATOM     74  C   UNL A   1      50.174  26.087  28.286  1.00  0.00     0.134 A 
ATOM     75  F   UNL A   1      49.018  27.219  25.039  1.00  0.00    -0.206 F 
ATOM     76  C   UNL A   1      51.143  26.478  25.714  1.00  0.00     0.040 A 
ATOM     77  C   UNL A   1      51.512  25.813  27.999  1.00  0.00     0.040 A 
ATOM     78  F   UNL A   1      49.745  25.888  29.542  1.00  0.00    -0.206 F 
ATOM     79  C   UNL A   1      51.998  26.005  26.708  1.00  0.00     0.006 A 
ENDBRANCH  51  72
BRANCH  63  80
ATOM     80  C   UNL A   1      46.023  32.432  29.172  1.00  0.00     0.057 A 
ATOM     81  C   UNL A   1      46.051  33.387  28.149  1.00  0.00     0.134 A 
ATOM     82  C   UNL A   1      46.431  32.839  30.449  1.00  0.00     0.134 A 
ATOM     83  F   UNL A   1      45.687  33.056  26.900  1.00  0.00    -0.206 F 
ATOM     84  C   UNL A   1      46.484  34.693  28.382  1.00  0.00     0.040 A 
ATOM     85  C   UNL A   1      46.843  34.149  30.700  1.00  0.00     0.040 A 
ATOM     86  F   UNL A   1      46.423  31.974  31.475  1.00  0.00    -0.206 F 
ATOM     87  C   UNL A   1      46.873  35.079  29.663  1.00  0.00     0.006 A 
ENDBRANCH  63  80
ENDBRANCH  37  38
ENDBRANCH  29  32
ENDBRANCH  27  28
ENDBRANCH  26  27
ENDBRANCH  25  26
ENDBRANCH  24  25
ENDBRANCH   1  24
TORSDOF 19
ENDMDL
MODEL 3
REMARK VINA RESULT:     -10.2      1.401      2.390
REMARK SMILES C=C(C)CN(CC)C(=O)C[N@H+]1CC[C@@H](C(=O)NCCCCCCNC(=O)c2ccc(-c3c4nc(c(-c5c(F)cccc5F)c5ccc([nH]5)c(-c5c(F)cccc5F)c5nc(c(-c6c(F)cccc6F)c6ccc3[nH]6)C=C5)C=C4)cc2)[C@@H]1C
REMARK SMILES IDX 19 1 18 2 17 3 15 4 16 5 14 7 11 8 12 9 81 10 13 12 82 13
REMARK SMILES IDX 10 14 8 15 9 16 5 17 4 18 2 19 1 20 3 21 6 22 7 23 20 24
REMARK SMILES IDX 21 25 22 26 23 27 24 28 25 29 26 31 27 32 28 33 80 34 29 35
REMARK SMILES IDX 79 36 30 37 31 38 32 39 73 40 33 41 78 42 72 43 74 44 34 45
REMARK SMILES IDX 77 46 71 47 70 48 35 50 61 51 44 52 60 53 45 54 48 55 59 56
REMARK SMILES IDX 75 57 46 58 47 59 58 61 76 62 49 63 36 64 37 65 42 66 38 67
REMARK SMILES IDX 39 68 41 69 43 70 40 71 62 72 63 73 68 74 64 75 65 76 67 77
REMARK SMILES IDX 69 78 66 79 50 80 51 81 56 82 52 83 53 84 55 85 57 86 54 87
REMARK H PARENT 17 6 11 11 24 30 74 49 48 60
REMARK Flexibility Score: inf
ROOT
ATOM      1  C   UNL A   1      36.638  22.735  23.394  1.00  0.00     0.021 C 
ENDROOT
BRANCH   1   2
ATOM      2  C   UNL A   1      35.311  23.488  23.442  1.00  0.00     0.116 C 
BRANCH   2   3
ATOM      3  N   UNL A   1      34.186  22.644  23.100  1.00  0.00    -0.356 N 
ATOM      4  C   UNL A   1      33.022  22.408  23.762  1.00  0.00     0.229 C 
ATOM      5  O   UNL A   1      32.223  21.628  23.233  1.00  0.00    -0.275 OA
ATOM      6  H   UNL A   1      34.279  22.163  22.246  1.00  0.00     0.163 HD
BRANCH   4   7
ATOM      7  C   UNL A   1      32.676  23.056  25.097  1.00  0.00     0.142 C 
ATOM      8  N   UNL A   1      31.339  24.907  25.920  1.00  0.00    -0.324 N 
ATOM      9  C   UNL A   1      30.938  23.678  26.615  1.00  0.00     0.263 C 
ATOM     10  C   UNL A   1      32.473  24.575  25.032  1.00  0.00     0.194 C 
ATOM     11  H   UNL A   1      31.656  25.616  26.581  1.00  0.00     0.348 HD
ATOM     12  C   UNL A   1      31.452  22.502  25.805  1.00  0.00     0.081 C 
ATOM     13  C   UNL A   1      33.716  25.290  25.573  1.00  0.00     0.076 C 
BRANCH   8  14
ATOM     14  C   UNL A   1      30.194  25.548  25.246  1.00  0.00     0.364 C 
BRANCH  14  15
ATOM     15  C   UNL A   1      30.454  26.991  24.788  1.00  0.00     0.278 C 
ATOM     16  O   UNL A   1      31.008  27.769  25.575  1.00  0.00    -0.268 OA
BRANCH  15  17
ATOM     17  N   UNL A   1      30.134  27.371  23.489  1.00  0.00    -0.334 N 
BRANCH  17  18
ATOM     18  C   UNL A   1      28.856  28.047  23.267  1.00  0.00     0.149 C 
BRANCH  18  19
ATOM     19  C   UNL A   1      29.057  29.514  22.941  1.00  0.00    -0.061 C 
ATOM     20  C   UNL A   1      29.646  30.389  23.774  1.00  0.00     0.009 C 
ATOM     21  C   UNL A   1      28.537  29.956  21.599  1.00  0.00     0.041 C 
ENDBRANCH  18  19
ENDBRANCH  17  18
BRANCH  17  22
ATOM     22  C   UNL A   1      31.030  27.234  22.337  1.00  0.00     0.116 C 
ATOM     23  C   UNL A   1      32.479  27.552  22.679  1.00  0.00     0.027 C 
ENDBRANCH  17  22
ENDBRANCH  15  17
ENDBRANCH  14  15
ENDBRANCH   8  14
ENDBRANCH   4   7
ENDBRANCH   2   3
ENDBRANCH   1   2
BRANCH   1  24
ATOM     24  C   UNL A   1      37.076  22.165  24.743  1.00  0.00     0.002 C 
BRANCH  24  25
ATOM     25  C   UNL A   1      36.705  20.693  24.971  1.00  0.00     0.002 C 
BRANCH  25  26
ATOM     26  C   UNL A   1      37.882  19.712  25.006  1.00  0.00     0.021 C 
BRANCH  26  27
ATOM     27  C   UNL A   1      39.126  20.226  25.730  1.00  0.00     0.116 C 
BRANCH  27  28
ATOM     28  N   UNL A   1      40.141  19.187  25.860  1.00  0.00    -0.352 N 
ATOM     29  C   UNL A   1      41.487  19.294  26.082  1.00  0.00     0.251 C 
ATOM     30  H   UNL A   1      39.806  18.264  25.775  1.00  0.00     0.163 HD
ATOM     31  O   UNL A   1      42.218  18.314  25.923  1.00  0.00    -0.269 OA
BRANCH  29  32
ATOM     32  C   UNL A   1      42.078  20.581  26.499  1.00  0.00     0.039 A 
ATOM     33  C   UNL A   1      42.593  21.439  25.523  1.00  0.00     0.014 A 
ATOM     34  C   UNL A   1      42.151  20.930  27.850  1.00  0.00     0.014 A 
ATOM     35  C   UNL A   1      43.112  22.681  25.895  1.00  0.00     0.010 A 
ATOM     36  C   UNL A   1      42.616  22.191  28.215  1.00  0.00     0.010 A 
ATOM     37  C   UNL A   1      43.090  23.082  27.241  1.00  0.00    -0.014 A 
BRANCH  37  38
ATOM     38  C   UNL A   1      43.507  24.448  27.644  1.00  0.00     0.031 A 
ATOM     39  C   UNL A   1      42.483  25.485  28.004  1.00  0.00     0.074 A 
ATOM     40  C   UNL A   1      44.812  24.777  27.590  1.00  0.00     0.049 A 
ATOM     41  N   UNL A   1      42.655  26.753  28.280  1.00  0.00    -0.248 NA
ATOM     42  C   UNL A   1      41.081  25.046  28.033  1.00  0.00     0.031 C 
ATOM     43  C   UNL A   1      45.896  23.870  27.208  1.00  0.00     0.029 A 
ATOM     44  N   UNL A   1      45.445  25.969  27.835  1.00  0.00    -0.354 N 
ATOM     45  C   UNL A   1      41.384  27.267  28.499  1.00  0.00     0.074 A 
ATOM     46  C   UNL A   1      40.449  26.183  28.287  1.00  0.00     0.031 C 
ATOM     47  C   UNL A   1      47.060  24.537  27.247  1.00  0.00     0.029 A 
ATOM     48  C   UNL A   1      46.801  25.926  27.616  1.00  0.00     0.049 A 
ATOM     49  H   UNL A   1      44.974  26.779  28.138  1.00  0.00     0.167 HD
ATOM     50  C   UNL A   1      41.032  28.525  28.859  1.00  0.00     0.037 A 
ATOM     51  C   UNL A   1      47.730  26.896  27.684  1.00  0.00     0.037 A 
ATOM     52  C   UNL A   1      41.970  29.596  29.086  1.00  0.00     0.049 A 
ATOM     53  C   UNL A   1      47.313  28.288  28.068  1.00  0.00     0.074 A 
ATOM     54  C   UNL A   1      41.720  30.878  29.542  1.00  0.00     0.029 A 
ATOM     55  N   UNL A   1      43.336  29.510  28.861  1.00  0.00    -0.354 N 
ATOM     56  N   UNL A   1      46.118  28.741  28.355  1.00  0.00    -0.248 NA
ATOM     57  C   UNL A   1      48.374  29.302  28.135  1.00  0.00     0.031 C 
ATOM     58  C   UNL A   1      42.926  31.586  29.540  1.00  0.00     0.029 A 
ATOM     59  C   UNL A   1      43.935  30.732  29.128  1.00  0.00     0.049 A 
ATOM     60  H   UNL A   1      43.809  28.703  28.556  1.00  0.00     0.167 HD
ATOM     61  C   UNL A   1      46.281  30.089  28.645  1.00  0.00     0.074 A 
ATOM     62  C   UNL A   1      47.696  30.374  28.521  1.00  0.00     0.031 C 
ATOM     63  C   UNL A   1      45.343  31.007  28.981  1.00  0.00     0.037 A 
BRANCH  50  64
ATOM     64  C   UNL A   1      39.568  28.816  29.019  1.00  0.00     0.057 A 
ATOM     65  C   UNL A   1      38.913  28.668  30.249  1.00  0.00     0.134 A 
ATOM     66  C   UNL A   1      38.811  29.281  27.936  1.00  0.00     0.134 A 
ATOM     67  F   UNL A   1      39.579  28.218  31.324  1.00  0.00    -0.206 F 
ATOM     68  C   UNL A   1      37.553  28.945  30.389  1.00  0.00     0.040 A 
ATOM     69  C   UNL A   1      37.455  29.586  28.071  1.00  0.00     0.040 A 
ATOM     70  F   UNL A   1      39.377  29.453  26.732  1.00  0.00    -0.206 F 
ATOM     71  C   UNL A   1      36.821  29.411  29.299  1.00  0.00     0.006 A 
ENDBRANCH  50  64
BRANCH  51  72
ATOM     72  C   UNL A   1      49.146  26.580  27.375  1.00  0.00     0.057 A 
ATOM     73  C   UNL A   1      50.005  26.082  28.359  1.00  0.00     0.134 A 
ATOM     74  C   UNL A   1      49.667  26.750  26.086  1.00  0.00     0.134 A 
ATOM     75  F   UNL A   1      49.568  25.916  29.616  1.00  0.00    -0.206 F 
ATOM     76  C   UNL A   1      51.335  25.768  28.076  1.00  0.00     0.040 A 
ATOM     77  C   UNL A   1      50.988  26.419  25.784  1.00  0.00     0.040 A 
ATOM     78  F   UNL A   1      48.891  27.218  25.097  1.00  0.00    -0.206 F 
ATOM     79  C   UNL A   1      51.828  25.930  26.782  1.00  0.00     0.006 A 
ENDBRANCH  51  72
BRANCH  63  80
ATOM     80  C   UNL A   1      45.816  32.408  29.232  1.00  0.00     0.057 A 
ATOM     81  C   UNL A   1      45.829  33.370  28.216  1.00  0.00     0.134 A 
ATOM     82  C   UNL A   1      46.229  32.809  30.509  1.00  0.00     0.134 A 
ATOM     83  F   UNL A   1      45.460  33.046  26.966  1.00  0.00    -0.206 F 
ATOM     84  C   UNL A   1      46.252  34.679  28.455  1.00  0.00     0.040 A 
ATOM     85  C   UNL A   1      46.631  34.120  30.767  1.00  0.00     0.040 A 
ATOM     86  F   UNL A   1      46.236  31.936  31.528  1.00  0.00    -0.206 F 
ATOM     87  C   UNL A   1      46.646  35.059  29.737  1.00  0.00     0.006 A 
ENDBRANCH  63  80
ENDBRANCH  37  38
ENDBRANCH  29  32
ENDBRANCH  27  28
ENDBRANCH  26  27
ENDBRANCH  25  26
ENDBRANCH  24  25
ENDBRANCH   1  24
TORSDOF 19
ENDMDL
