MODEL 1
REMARK VINA RESULT:     -11.1      0.000      0.000
REMARK SMILES CC[C@H](C)[C@H](NS(=O)(=O)c1ccc(C)cc1)C(=O)NCCCCCCNC(=O)c1ccc(-c2c3nc(c(-c4c(F)cccc4F)c4ccc([nH]4)c(-c4c(F)cccc4F)c4nc(c(-c5c(F)cccc5F)c5ccc2[nH]5)C=C4)C=C3)cc1
REMARK SMILES IDX 22 1 21 2 20 3 19 4 17 5 18 6 5 8 3 9 4 10 2 11 1 12 6 13
REMARK SMILES IDX 7 15 8 16 9 17 10 18 11 19 16 20 12 21 15 22 13 23 14 24
REMARK SMILES IDX 23 25 24 26 25 27 26 28 27 29 28 31 29 32 30 33 82 34 31 35
REMARK SMILES IDX 81 36 32 37 33 38 34 39 75 40 35 41 80 42 74 43 76 44 36 45
REMARK SMILES IDX 79 46 73 47 72 48 37 50 63 51 46 52 62 53 47 54 50 55 61 56
REMARK SMILES IDX 77 57 48 58 49 59 60 61 78 62 51 63 38 64 39 65 44 66 40 67
REMARK SMILES IDX 41 68 43 69 45 70 42 71 64 72 65 73 70 74 66 75 67 76 69 77
REMARK SMILES IDX 71 78 68 79 52 80 53 81 58 82 54 83 55 84 57 85 59 86 56 87
REMARK H PARENT 19 7 6 14 26 30 76 49 50 60
REMARK Flexibility Score: inf
ROOT
ATOM      1  C   UNL A   1      31.816  29.510  26.952  1.00  0.00     0.002 C 
ENDROOT
BRANCH   1   2
ATOM      2  C   UNL A   1      31.388  30.092  25.587  1.00  0.00     0.021 C 
BRANCH   2   3
ATOM      3  C   UNL A   1      32.111  29.573  24.325  1.00  0.00     0.116 C 
BRANCH   3   4
ATOM      4  N   UNL A   1      31.335  29.670  23.108  1.00  0.00    -0.355 N 
ATOM      5  C   UNL A   1      30.570  28.808  22.392  1.00  0.00     0.238 C 
ATOM      6  O   UNL A   1      29.787  29.395  21.620  1.00  0.00    -0.273 OA
ATOM      7  H   UNL A   1      31.370  30.568  22.706  1.00  0.00     0.163 HD
BRANCH   5   8
ATOM      8  C   UNL A   1      30.542  27.255  22.411  1.00  0.00     0.161 C 
BRANCH   8   9
ATOM      9  C   UNL A   1      30.003  26.418  23.619  1.00  0.00     0.013 C 
ATOM     10  C   UNL A   1      29.908  24.924  23.368  1.00  0.00     0.010 C 
BRANCH   9  11
ATOM     11  C   UNL A   1      30.526  26.658  25.055  1.00  0.00     0.002 C 
ATOM     12  C   UNL A   1      30.625  25.463  25.982  1.00  0.00     0.004 C 
ENDBRANCH   9  11
ENDBRANCH   8   9
BRANCH   8  13
ATOM     13  N   UNL A   1      31.460  26.393  21.609  1.00  0.00    -0.198 NA
ATOM     14  H   UNL A   1      31.314  26.725  20.656  1.00  0.00     0.142 HD
BRANCH  13  15
ATOM     15  S   UNL A   1      33.093  26.097  21.658  1.00  0.00     0.241 S 
ATOM     16  O   UNL A   1      33.336  25.223  20.537  1.00  0.00    -0.207 OA
ATOM     17  O   UNL A   1      33.776  27.373  21.739  1.00  0.00    -0.207 OA
BRANCH  15  18
ATOM     18  C   UNL A   1      33.476  25.144  23.121  1.00  0.00     0.082 A 
ATOM     19  C   UNL A   1      33.978  25.815  24.222  1.00  0.00     0.022 A 
ATOM     20  C   UNL A   1      33.431  23.755  23.188  1.00  0.00     0.022 A 
ATOM     21  C   UNL A   1      34.202  25.197  25.446  1.00  0.00     0.005 A 
ATOM     22  C   UNL A   1      33.793  23.098  24.392  1.00  0.00     0.005 A 
ATOM     23  C   UNL A   1      34.155  23.820  25.539  1.00  0.00    -0.051 A 
ATOM     24  C   UNL A   1      34.537  23.185  26.844  1.00  0.00     0.044 C 
ENDBRANCH  15  18
ENDBRANCH  13  15
ENDBRANCH   8  13
ENDBRANCH   5   8
ENDBRANCH   3   4
ENDBRANCH   2   3
ENDBRANCH   1   2
BRANCH   1  25
ATOM     25  C   UNL A   1      33.130  28.722  27.048  1.00  0.00     0.002 C 
BRANCH  25  26
ATOM     26  C   UNL A   1      34.310  29.460  27.654  1.00  0.00     0.021 C 
BRANCH  26  27
ATOM     27  C   UNL A   1      34.391  30.969  27.508  1.00  0.00     0.116 C 
BRANCH  27  28
ATOM     28  N   UNL A   1      35.279  31.574  28.501  1.00  0.00    -0.352 N 
ATOM     29  C   UNL A   1      36.419  31.108  29.136  1.00  0.00     0.251 C 
ATOM     30  H   UNL A   1      35.015  32.484  28.769  1.00  0.00     0.163 HD
ATOM     31  O   UNL A   1      36.988  31.820  29.959  1.00  0.00    -0.269 OA
BRANCH  29  32
ATOM     32  C   UNL A   1      37.081  29.862  28.676  1.00  0.00     0.039 A 
ATOM     33  C   UNL A   1      37.138  28.870  29.665  1.00  0.00     0.014 A 
ATOM     34  C   UNL A   1      38.063  29.947  27.703  1.00  0.00     0.014 A 
ATOM     35  C   UNL A   1      38.365  28.307  29.960  1.00  0.00     0.010 A 
ATOM     36  C   UNL A   1      39.313  29.514  28.072  1.00  0.00     0.010 A 
ATOM     37  C   UNL A   1      39.462  28.777  29.252  1.00  0.00    -0.014 A 
BRANCH  37  38
ATOM     38  C   UNL A   1      40.827  28.478  29.606  1.00  0.00     0.031 A 
ATOM     39  C   UNL A   1      41.408  27.304  28.950  1.00  0.00     0.074 A 
ATOM     40  C   UNL A   1      41.525  29.300  30.419  1.00  0.00     0.049 A 
ATOM     41  N   UNL A   1      42.369  26.616  29.445  1.00  0.00    -0.248 NA
ATOM     42  C   UNL A   1      40.865  26.730  27.720  1.00  0.00     0.031 C 
ATOM     43  C   UNL A   1      42.968  29.336  30.625  1.00  0.00     0.029 A 
ATOM     44  N   UNL A   1      41.021  30.187  31.380  1.00  0.00    -0.354 N 
ATOM     45  C   UNL A   1      42.799  25.766  28.453  1.00  0.00     0.074 A 
ATOM     46  C   UNL A   1      41.720  25.728  27.503  1.00  0.00     0.031 C 
ATOM     47  C   UNL A   1      43.231  29.962  31.785  1.00  0.00     0.029 A 
ATOM     48  C   UNL A   1      41.957  30.193  32.443  1.00  0.00     0.049 A 
ATOM     49  H   UNL A   1      40.185  30.702  31.326  1.00  0.00     0.167 HD
ATOM     50  C   UNL A   1      44.097  25.363  28.489  1.00  0.00     0.037 A 
ATOM     51  C   UNL A   1      41.617  29.722  33.682  1.00  0.00     0.037 A 
ATOM     52  C   UNL A   1      44.740  25.879  29.700  1.00  0.00     0.049 A 
ATOM     53  C   UNL A   1      42.411  28.503  34.115  1.00  0.00     0.074 A 
ATOM     54  C   UNL A   1      45.599  26.933  29.964  1.00  0.00     0.029 A 
ATOM     55  N   UNL A   1      44.246  25.478  30.924  1.00  0.00    -0.354 N 
ATOM     56  N   UNL A   1      43.183  27.813  33.319  1.00  0.00    -0.248 NA
ATOM     57  C   UNL A   1      42.354  27.922  35.453  1.00  0.00     0.031 C 
ATOM     58  C   UNL A   1      45.644  27.116  31.377  1.00  0.00     0.029 A 
ATOM     59  C   UNL A   1      44.837  26.157  31.963  1.00  0.00     0.049 A 
ATOM     60  H   UNL A   1      43.552  24.790  31.040  1.00  0.00     0.167 HD
ATOM     61  C   UNL A   1      43.673  26.707  33.969  1.00  0.00     0.074 A 
ATOM     62  C   UNL A   1      43.106  26.814  35.302  1.00  0.00     0.031 C 
ATOM     63  C   UNL A   1      44.466  25.794  33.323  1.00  0.00     0.037 A 
BRANCH  50  64
ATOM     64  C   UNL A   1      44.887  24.719  27.374  1.00  0.00     0.057 A 
ATOM     65  C   UNL A   1      45.287  25.505  26.272  1.00  0.00     0.134 A 
ATOM     66  C   UNL A   1      45.232  23.360  27.257  1.00  0.00     0.134 A 
ATOM     67  F   UNL A   1      45.110  26.834  26.254  1.00  0.00    -0.206 F 
ATOM     68  C   UNL A   1      45.891  24.974  25.128  1.00  0.00     0.040 A 
ATOM     69  C   UNL A   1      45.848  22.816  26.120  1.00  0.00     0.040 A 
ATOM     70  F   UNL A   1      45.011  22.468  28.222  1.00  0.00    -0.206 F 
ATOM     71  C   UNL A   1      46.163  23.620  25.040  1.00  0.00     0.006 A 
ENDBRANCH  50  64
BRANCH  51  72
ATOM     72  C   UNL A   1      40.177  29.976  33.984  1.00  0.00     0.057 A 
ATOM     73  C   UNL A   1      39.811  31.281  34.369  1.00  0.00     0.134 A 
ATOM     74  C   UNL A   1      39.183  29.178  33.411  1.00  0.00     0.134 A 
ATOM     75  F   UNL A   1      40.709  32.089  34.952  1.00  0.00    -0.206 F 
ATOM     76  C   UNL A   1      38.574  31.830  34.015  1.00  0.00     0.040 A 
ATOM     77  C   UNL A   1      37.935  29.715  33.072  1.00  0.00     0.040 A 
ATOM     78  F   UNL A   1      39.451  27.921  33.030  1.00  0.00    -0.206 F 
ATOM     79  C   UNL A   1      37.652  31.059  33.315  1.00  0.00     0.006 A 
ENDBRANCH  51  72
BRANCH  63  80
ATOM     80  C   UNL A   1      44.945  24.453  33.858  1.00  0.00     0.057 A 
ATOM     81  C   UNL A   1      46.290  24.100  34.004  1.00  0.00     0.134 A 
ATOM     82  C   UNL A   1      44.036  23.410  34.184  1.00  0.00     0.134 A 
ATOM     83  F   UNL A   1      47.273  24.916  33.598  1.00  0.00    -0.206 F 
ATOM     84  C   UNL A   1      46.694  22.859  34.528  1.00  0.00     0.040 A 
ATOM     85  C   UNL A   1      44.425  22.155  34.658  1.00  0.00     0.040 A 
ATOM     86  F   UNL A   1      42.708  23.541  34.082  1.00  0.00    -0.206 F 
ATOM     87  C   UNL A   1      45.761  21.884  34.860  1.00  0.00     0.006 A 
ENDBRANCH  63  80
ENDBRANCH  37  38
ENDBRANCH  29  32
ENDBRANCH  27  28
ENDBRANCH  26  27
ENDBRANCH  25  26
ENDBRANCH   1  25
TORSDOF 18
ENDMDL
MODEL 2
REMARK VINA RESULT:     -11.1      2.531      4.143
REMARK SMILES CC[C@H](C)[C@H](NS(=O)(=O)c1ccc(C)cc1)C(=O)NCCCCCCNC(=O)c1ccc(-c2c3nc(c(-c4c(F)cccc4F)c4ccc([nH]4)c(-c4c(F)cccc4F)c4nc(c(-c5c(F)cccc5F)c5ccc2[nH]5)C=C4)C=C3)cc1
REMARK SMILES IDX 22 1 21 2 20 3 19 4 17 5 18 6 5 8 3 9 4 10 2 11 1 12 6 13
REMARK SMILES IDX 7 15 8 16 9 17 10 18 11 19 16 20 12 21 15 22 13 23 14 24
REMARK SMILES IDX 23 25 24 26 25 27 26 28 27 29 28 31 29 32 30 33 82 34 31 35
REMARK SMILES IDX 81 36 32 37 33 38 34 39 75 40 35 41 80 42 74 43 76 44 36 45
REMARK SMILES IDX 79 46 73 47 72 48 37 50 63 51 46 52 62 53 47 54 50 55 61 56
REMARK SMILES IDX 77 57 48 58 49 59 60 61 78 62 51 63 38 64 39 65 44 66 40 67
REMARK SMILES IDX 41 68 43 69 45 70 42 71 64 72 65 73 70 74 66 75 67 76 69 77
REMARK SMILES IDX 71 78 68 79 52 80 53 81 58 82 54 83 55 84 57 85 59 86 56 87
REMARK H PARENT 19 7 6 14 26 30 76 49 50 60
REMARK Flexibility Score: inf
ROOT
ATOM      1  C   UNL A   1      34.799  29.657  27.705  1.00  0.00     0.002 C 
ENDROOT
BRANCH   1   2
ATOM      2  C   UNL A   1      33.779  29.365  26.584  1.00  0.00     0.021 C 
BRANCH   2   3
ATOM      3  C   UNL A   1      32.447  30.147  26.602  1.00  0.00     0.116 C 
BRANCH   3   4
ATOM      4  N   UNL A   1      31.755  30.182  25.332  1.00  0.00    -0.355 N 
ATOM      5  C   UNL A   1      31.241  29.243  24.499  1.00  0.00     0.238 C 
ATOM      6  O   UNL A   1      30.408  29.718  23.703  1.00  0.00    -0.273 OA
ATOM      7  H   UNL A   1      31.630  31.098  24.994  1.00  0.00     0.163 HD
BRANCH   5   8
ATOM      8  C   UNL A   1      31.537  27.720  24.415  1.00  0.00     0.161 C 
BRANCH   8   9
ATOM      9  C   UNL A   1      31.127  26.700  25.529  1.00  0.00     0.013 C 
ATOM     10  C   UNL A   1      29.933  25.828  25.187  1.00  0.00     0.010 C 
BRANCH   9  11
ATOM     11  C   UNL A   1      32.187  25.843  26.258  1.00  0.00     0.002 C 
ATOM     12  C   UNL A   1      31.869  24.383  26.508  1.00  0.00     0.004 C 
ENDBRANCH   9  11
ENDBRANCH   8   9
BRANCH   8  13
ATOM     13  N   UNL A   1      32.653  27.130  23.619  1.00  0.00    -0.198 NA
ATOM     14  H   UNL A   1      33.260  26.729  24.334  1.00  0.00     0.142 HD
BRANCH  13  15
ATOM     15  S   UNL A   1      32.724  26.009  22.395  1.00  0.00     0.241 S 
ATOM     16  O   UNL A   1      31.358  25.865  21.956  1.00  0.00    -0.207 OA
ATOM     17  O   UNL A   1      33.742  26.438  21.456  1.00  0.00    -0.207 OA
BRANCH  15  18
ATOM     18  C   UNL A   1      33.197  24.425  23.074  1.00  0.00     0.082 A 
ATOM     19  C   UNL A   1      34.430  24.323  23.693  1.00  0.00     0.022 A 
ATOM     20  C   UNL A   1      32.471  23.250  22.906  1.00  0.00     0.022 A 
ATOM     21  C   UNL A   1      34.851  23.176  24.355  1.00  0.00     0.005 A 
ATOM     22  C   UNL A   1      32.959  22.038  23.456  1.00  0.00     0.005 A 
ATOM     23  C   UNL A   1      34.142  22.000  24.209  1.00  0.00    -0.051 A 
ATOM     24  C   UNL A   1      34.705  20.753  24.826  1.00  0.00     0.044 C 
ENDBRANCH  15  18
ENDBRANCH  13  15
ENDBRANCH   8  13
ENDBRANCH   5   8
ENDBRANCH   3   4
ENDBRANCH   2   3
ENDBRANCH   1   2
BRANCH   1  25
ATOM     25  C   UNL A   1      35.613  30.957  27.654  1.00  0.00     0.002 C 
BRANCH  25  26
ATOM     26  C   UNL A   1      35.150  32.074  28.571  1.00  0.00     0.021 C 
BRANCH  26  27
ATOM     27  C   UNL A   1      35.338  31.924  30.070  1.00  0.00     0.116 C 
BRANCH  27  28
ATOM     28  N   UNL A   1      34.320  32.647  30.831  1.00  0.00    -0.352 N 
ATOM     29  C   UNL A   1      34.379  33.370  32.011  1.00  0.00     0.251 C 
ATOM     30  H   UNL A   1      33.422  32.613  30.428  1.00  0.00     0.163 HD
ATOM     31  O   UNL A   1      33.357  33.882  32.461  1.00  0.00    -0.269 OA
BRANCH  29  32
ATOM     32  C   UNL A   1      35.689  33.718  32.618  1.00  0.00     0.039 A 
ATOM     33  C   UNL A   1      36.555  34.367  31.727  1.00  0.00     0.014 A 
ATOM     34  C   UNL A   1      36.188  32.918  33.632  1.00  0.00     0.014 A 
ATOM     35  C   UNL A   1      37.825  33.852  31.554  1.00  0.00     0.010 A 
ATOM     36  C   UNL A   1      37.386  32.300  33.374  1.00  0.00     0.010 A 
ATOM     37  C   UNL A   1      38.148  32.712  32.276  1.00  0.00    -0.014 A 
BRANCH  37  38
ATOM     38  C   UNL A   1      39.325  31.917  32.027  1.00  0.00     0.031 A 
ATOM     39  C   UNL A   1      39.109  30.691  31.256  1.00  0.00     0.074 A 
ATOM     40  C   UNL A   1      40.544  32.350  32.414  1.00  0.00     0.049 A 
ATOM     41  N   UNL A   1      39.866  29.661  31.331  1.00  0.00    -0.248 NA
ATOM     42  C   UNL A   1      37.933  30.478  30.412  1.00  0.00     0.031 C 
ATOM     43  C   UNL A   1      41.845  31.854  31.980  1.00  0.00     0.029 A 
ATOM     44  N   UNL A   1      40.848  33.250  33.445  1.00  0.00    -0.354 N 
ATOM     45  C   UNL A   1      39.501  28.825  30.302  1.00  0.00     0.074 A 
ATOM     46  C   UNL A   1      38.191  29.270  29.909  1.00  0.00     0.031 C 
ATOM     47  C   UNL A   1      42.776  32.221  32.877  1.00  0.00     0.029 A 
ATOM     48  C   UNL A   1      42.075  32.813  34.003  1.00  0.00     0.049 A 
ATOM     49  H   UNL A   1      40.316  34.029  33.724  1.00  0.00     0.167 HD
ATOM     50  C   UNL A   1      40.452  27.991  29.802  1.00  0.00     0.037 A 
ATOM     51  C   UNL A   1      42.139  32.362  35.292  1.00  0.00     0.037 A 
ATOM     52  C   UNL A   1      41.681  28.116  30.588  1.00  0.00     0.049 A 
ATOM     53  C   UNL A   1      42.541  30.903  35.414  1.00  0.00     0.074 A 
ATOM     54  C   UNL A   1      42.888  28.766  30.397  1.00  0.00     0.029 A 
ATOM     55  N   UNL A   1      41.636  27.786  31.927  1.00  0.00    -0.354 N 
ATOM     56  N   UNL A   1      42.600  30.076  34.406  1.00  0.00    -0.248 NA
ATOM     57  C   UNL A   1      42.843  30.240  36.679  1.00  0.00     0.031 C 
ATOM     58  C   UNL A   1      43.584  28.770  31.642  1.00  0.00     0.029 A 
ATOM     59  C   UNL A   1      42.809  28.099  32.571  1.00  0.00     0.049 A 
ATOM     60  H   UNL A   1      40.858  27.377  32.369  1.00  0.00     0.167 HD
ATOM     61  C   UNL A   1      42.880  28.805  34.847  1.00  0.00     0.074 A 
ATOM     62  C   UNL A   1      43.004  28.962  36.286  1.00  0.00     0.031 C 
ATOM     63  C   UNL A   1      42.938  27.746  33.978  1.00  0.00     0.037 A 
BRANCH  50  64
ATOM     64  C   UNL A   1      40.409  27.233  28.495  1.00  0.00     0.057 A 
ATOM     65  C   UNL A   1      39.688  26.021  28.428  1.00  0.00     0.134 A 
ATOM     66  C   UNL A   1      41.082  27.560  27.304  1.00  0.00     0.134 A 
ATOM     67  F   UNL A   1      38.924  25.598  29.445  1.00  0.00    -0.206 F 
ATOM     68  C   UNL A   1      39.708  25.176  27.313  1.00  0.00     0.040 A 
ATOM     69  C   UNL A   1      41.101  26.728  26.176  1.00  0.00     0.040 A 
ATOM     70  F   UNL A   1      41.756  28.698  27.139  1.00  0.00    -0.206 F 
ATOM     71  C   UNL A   1      40.428  25.520  26.183  1.00  0.00     0.006 A 
ENDBRANCH  50  64
BRANCH  51  72
ATOM     72  C   UNL A   1      41.159  33.072  36.167  1.00  0.00     0.057 A 
ATOM     73  C   UNL A   1      39.977  32.388  36.513  1.00  0.00     0.134 A 
ATOM     74  C   UNL A   1      41.587  34.082  37.033  1.00  0.00     0.134 A 
ATOM     75  F   UNL A   1      39.495  31.426  35.710  1.00  0.00    -0.206 F 
ATOM     76  C   UNL A   1      39.366  32.563  37.759  1.00  0.00     0.040 A 
ATOM     77  C   UNL A   1      40.968  34.278  38.274  1.00  0.00     0.040 A 
ATOM     78  F   UNL A   1      42.696  34.787  36.766  1.00  0.00    -0.206 F 
ATOM     79  C   UNL A   1      39.897  33.475  38.665  1.00  0.00     0.006 A 
ENDBRANCH  51  72
BRANCH  63  80
ATOM     80  C   UNL A   1      43.076  26.273  34.333  1.00  0.00     0.057 A 
ATOM     81  C   UNL A   1      42.183  25.576  35.152  1.00  0.00     0.134 A 
ATOM     82  C   UNL A   1      44.193  25.503  33.909  1.00  0.00     0.134 A 
ATOM     83  F   UNL A   1      41.161  26.196  35.757  1.00  0.00    -0.206 F 
ATOM     84  C   UNL A   1      42.330  24.206  35.436  1.00  0.00     0.040 A 
ATOM     85  C   UNL A   1      44.376  24.155  34.225  1.00  0.00     0.040 A 
ATOM     86  F   UNL A   1      45.172  25.999  33.143  1.00  0.00    -0.206 F 
ATOM     87  C   UNL A   1      43.427  23.491  34.970  1.00  0.00     0.006 A 
ENDBRANCH  63  80
ENDBRANCH  37  38
ENDBRANCH  29  32
ENDBRANCH  27  28
ENDBRANCH  26  27
ENDBRANCH  25  26
ENDBRANCH   1  25
TORSDOF 18
ENDMDL
MODEL 3
REMARK VINA RESULT:     -10.8      1.658      3.395
REMARK SMILES CC[C@H](C)[C@H](NS(=O)(=O)c1ccc(C)cc1)C(=O)NCCCCCCNC(=O)c1ccc(-c2c3nc(c(-c4c(F)cccc4F)c4ccc([nH]4)c(-c4c(F)cccc4F)c4nc(c(-c5c(F)cccc5F)c5ccc2[nH]5)C=C4)C=C3)cc1
REMARK SMILES IDX 22 1 21 2 20 3 19 4 17 5 18 6 5 8 3 9 4 10 2 11 1 12 6 13
REMARK SMILES IDX 7 15 8 16 9 17 10 18 11 19 16 20 12 21 15 22 13 23 14 24
REMARK SMILES IDX 23 25 24 26 25 27 26 28 27 29 28 31 29 32 30 33 82 34 31 35
REMARK SMILES IDX 81 36 32 37 33 38 34 39 75 40 35 41 80 42 74 43 76 44 36 45
REMARK SMILES IDX 79 46 73 47 72 48 37 50 63 51 46 52 62 53 47 54 50 55 61 56
REMARK SMILES IDX 77 57 48 58 49 59 60 61 78 62 51 63 38 64 39 65 44 66 40 67
REMARK SMILES IDX 41 68 43 69 45 70 42 71 64 72 65 73 70 74 66 75 67 76 69 77
REMARK SMILES IDX 71 78 68 79 52 80 53 81 58 82 54 83 55 84 57 85 59 86 56 87
REMARK H PARENT 19 7 6 14 26 30 76 49 50 60
REMARK Flexibility Score: inf
ROOT
ATOM      1  C   UNL A   1      33.066  29.406  25.399  1.00  0.00     0.002 C 
ENDROOT
BRANCH   1   2
ATOM      2  C   UNL A   1      33.686  28.377  24.429  1.00  0.00     0.021 C 
BRANCH   2   3
ATOM      3  C   UNL A   1      33.768  28.756  22.935  1.00  0.00     0.116 C 
BRANCH   3   4
ATOM      4  N   UNL A   1      33.833  27.627  22.032  1.00  0.00    -0.355 N 
ATOM      5  C   UNL A   1      33.147  26.464  21.908  1.00  0.00     0.238 C 
ATOM      6  O   UNL A   1      33.277  25.953  20.778  1.00  0.00    -0.273 OA
ATOM      7  H   UNL A   1      34.539  27.725  21.353  1.00  0.00     0.163 HD
BRANCH   5   8
ATOM      8  C   UNL A   1      32.257  25.721  22.942  1.00  0.00     0.161 C 
BRANCH   8   9
ATOM      9  C   UNL A   1      32.660  24.363  23.609  1.00  0.00     0.013 C 
ATOM     10  C   UNL A   1      32.425  23.136  22.750  1.00  0.00     0.010 C 
BRANCH   9  11
ATOM     11  C   UNL A   1      34.005  24.209  24.356  1.00  0.00     0.002 C 
ATOM     12  C   UNL A   1      34.260  25.106  25.551  1.00  0.00     0.004 C 
ENDBRANCH   9  11
ENDBRANCH   8   9
BRANCH   8  13
ATOM     13  N   UNL A   1      30.774  25.866  23.024  1.00  0.00    -0.198 NA
ATOM     14  H   UNL A   1      30.455  24.909  23.172  1.00  0.00     0.142 HD
BRANCH  13  15
ATOM     15  S   UNL A   1      29.758  26.755  23.991  1.00  0.00     0.241 S 
ATOM     16  O   UNL A   1      28.580  25.934  24.130  1.00  0.00    -0.207 OA
ATOM     17  O   UNL A   1      30.501  27.156  25.170  1.00  0.00    -0.207 OA
BRANCH  15  18
ATOM     18  C   UNL A   1      29.239  28.222  23.111  1.00  0.00     0.082 A 
ATOM     19  C   UNL A   1      30.210  28.981  22.483  1.00  0.00     0.022 A 
ATOM     20  C   UNL A   1      27.944  28.730  23.125  1.00  0.00     0.022 A 
ATOM     21  C   UNL A   1      29.911  30.074  21.677  1.00  0.00     0.005 A 
ATOM     22  C   UNL A   1      27.651  29.925  22.421  1.00  0.00     0.005 A 
ATOM     23  C   UNL A   1      28.631  30.590  21.668  1.00  0.00    -0.051 A 
ATOM     24  C   UNL A   1      28.381  31.851  20.894  1.00  0.00     0.044 C 
ENDBRANCH  15  18
ENDBRANCH  13  15
ENDBRANCH   8  13
ENDBRANCH   5   8
ENDBRANCH   3   4
ENDBRANCH   2   3
ENDBRANCH   1   2
BRANCH   1  25
ATOM     25  C   UNL A   1      33.556  29.451  26.853  1.00  0.00     0.002 C 
BRANCH  25  26
ATOM     26  C   UNL A   1      33.243  30.719  27.626  1.00  0.00     0.021 C 
BRANCH  26  27
ATOM     27  C   UNL A   1      34.083  31.960  27.380  1.00  0.00     0.116 C 
BRANCH  27  28
ATOM     28  N   UNL A   1      34.896  32.318  28.541  1.00  0.00    -0.352 N 
ATOM     29  C   UNL A   1      35.810  31.599  29.294  1.00  0.00     0.251 C 
ATOM     30  H   UNL A   1      34.768  33.245  28.847  1.00  0.00     0.163 HD
ATOM     31  O   UNL A   1      36.362  32.134  30.252  1.00  0.00    -0.269 OA
BRANCH  29  32
ATOM     32  C   UNL A   1      36.292  30.273  28.830  1.00  0.00     0.039 A 
ATOM     33  C   UNL A   1      36.452  29.348  29.871  1.00  0.00     0.014 A 
ATOM     34  C   UNL A   1      37.090  30.211  27.701  1.00  0.00     0.014 A 
ATOM     35  C   UNL A   1      37.668  28.706  29.997  1.00  0.00     0.010 A 
ATOM     36  C   UNL A   1      38.351  29.701  27.885  1.00  0.00     0.010 A 
ATOM     37  C   UNL A   1      38.653  29.035  29.078  1.00  0.00    -0.014 A 
BRANCH  37  38
ATOM     38  C   UNL A   1      40.035  28.647  29.216  1.00  0.00     0.031 A 
ATOM     39  C   UNL A   1      40.363  27.295  28.757  1.00  0.00     0.074 A 
ATOM     40  C   UNL A   1      40.959  29.529  29.656  1.00  0.00     0.049 A 
ATOM     41  N   UNL A   1      41.351  26.613  29.202  1.00  0.00    -0.248 NA
ATOM     42  C   UNL A   1      39.517  26.543  27.831  1.00  0.00     0.031 C 
ATOM     43  C   UNL A   1      42.410  29.423  29.560  1.00  0.00     0.029 A 
ATOM     44  N   UNL A   1      40.751  30.659  30.458  1.00  0.00    -0.354 N 
ATOM     45  C   UNL A   1      41.483  25.521  28.376  1.00  0.00     0.074 A 
ATOM     46  C   UNL A   1      40.221  25.417  27.695  1.00  0.00     0.031 C 
ATOM     47  C   UNL A   1      42.971  30.246  30.463  1.00  0.00     0.029 A 
ATOM     48  C   UNL A   1      41.896  30.775  31.284  1.00  0.00     0.049 A 
ATOM     49  H   UNL A   1      39.967  31.253  30.449  1.00  0.00     0.167 HD
ATOM     50  C   UNL A   1      42.721  24.973  28.251  1.00  0.00     0.037 A 
ATOM     51  C   UNL A   1      41.802  30.629  32.641  1.00  0.00     0.037 A 
ATOM     52  C   UNL A   1      43.654  25.651  29.153  1.00  0.00     0.049 A 
ATOM     53  C   UNL A   1      42.574  29.441  33.186  1.00  0.00     0.074 A 
ATOM     54  C   UNL A   1      44.631  26.618  28.984  1.00  0.00     0.029 A 
ATOM     55  N   UNL A   1      43.412  25.591  30.510  1.00  0.00    -0.354 N 
ATOM     56  N   UNL A   1      43.094  28.503  32.442  1.00  0.00    -0.248 NA
ATOM     57  C   UNL A   1      42.769  29.175  34.609  1.00  0.00     0.031 C 
ATOM     58  C   UNL A   1      45.002  27.095  30.276  1.00  0.00     0.029 A 
ATOM     59  C   UNL A   1      44.270  26.396  31.220  1.00  0.00     0.049 A 
ATOM     60  H   UNL A   1      42.709  25.038  30.921  1.00  0.00     0.167 HD
ATOM     61  C   UNL A   1      43.626  27.510  33.227  1.00  0.00     0.074 A 
ATOM     62  C   UNL A   1      43.378  27.974  34.581  1.00  0.00     0.031 C 
ATOM     63  C   UNL A   1      44.182  26.385  32.673  1.00  0.00     0.037 A 
BRANCH  50  64
ATOM     64  C   UNL A   1      43.192  24.008  27.188  1.00  0.00     0.057 A 
ATOM     65  C   UNL A   1      43.737  24.517  25.991  1.00  0.00     0.134 A 
ATOM     66  C   UNL A   1      43.088  22.605  27.213  1.00  0.00     0.134 A 
ATOM     67  F   UNL A   1      43.981  25.825  25.828  1.00  0.00    -0.206 F 
ATOM     68  C   UNL A   1      44.065  23.715  24.893  1.00  0.00     0.040 A 
ATOM     69  C   UNL A   1      43.423  21.787  26.124  1.00  0.00     0.040 A 
ATOM     70  F   UNL A   1      42.669  21.925  28.281  1.00  0.00    -0.206 F 
ATOM     71  C   UNL A   1      43.896  22.342  24.949  1.00  0.00     0.006 A 
ENDBRANCH  50  64
BRANCH  51  72
ATOM     72  C   UNL A   1      40.490  31.124  33.152  1.00  0.00     0.057 A 
ATOM     73  C   UNL A   1      39.506  30.166  33.463  1.00  0.00     0.134 A 
ATOM     74  C   UNL A   1      40.405  32.358  33.804  1.00  0.00     0.134 A 
ATOM     75  F   UNL A   1      39.511  28.971  32.851  1.00  0.00    -0.206 F 
ATOM     76  C   UNL A   1      38.606  30.353  34.517  1.00  0.00     0.040 A 
ATOM     77  C   UNL A   1      39.493  32.561  34.846  1.00  0.00     0.040 A 
ATOM     78  F   UNL A   1      41.298  33.326  33.552  1.00  0.00    -0.206 F 
ATOM     79  C   UNL A   1      38.636  31.536  35.247  1.00  0.00     0.006 A 
ENDBRANCH  51  72
BRANCH  63  80
ATOM     80  C   UNL A   1      44.660  25.141  33.407  1.00  0.00     0.057 A 
ATOM     81  C   UNL A   1      43.834  24.314  34.173  1.00  0.00     0.134 A 
ATOM     82  C   UNL A   1      46.031  24.767  33.428  1.00  0.00     0.134 A 
ATOM     83  F   UNL A   1      42.545  24.615  34.380  1.00  0.00    -0.206 F 
ATOM     84  C   UNL A   1      44.309  23.157  34.815  1.00  0.00     0.040 A 
ATOM     85  C   UNL A   1      46.524  23.648  34.102  1.00  0.00     0.040 A 
ATOM     86  F   UNL A   1      46.984  25.449  32.781  1.00  0.00    -0.206 F 
ATOM     87  C   UNL A   1      45.656  22.819  34.779  1.00  0.00     0.006 A 
ENDBRANCH  63  80
ENDBRANCH  37  38
ENDBRANCH  29  32
ENDBRANCH  27  28
ENDBRANCH  26  27
ENDBRANCH  25  26
ENDBRANCH   1  25
TORSDOF 18
ENDMDL
