MODEL 1
REMARK VINA RESULT:     -12.3      0.000      0.000
REMARK SMILES COc1cc2c(cc1OC)[C@H](C(=O)NCCCCCCNC(=O)c1ccc(-c3c4nc(c(-c5c(F)cccc5F)c5ccc([nH]5)c(-c5c(F)cccc5F)c5nc(c(-c6c(F)cccc6F)c6ccc3[nH]6)C=C5)C=C4)cc1)[C@H](c1cccc(Cl)c1)N(C)C2=O
REMARK SMILES IDX 18 1 17 2 16 3 15 4 14 5 12 6 13 7 11 9 3 10 4 11 8 12 5 13
REMARK SMILES IDX 7 14 6 15 88 16 86 17 89 18 78 19 87 20 2 21 1 22 9 23 10 24
REMARK SMILES IDX 79 25 80 26 85 27 81 28 83 29 82 30 84 31 19 32 20 33 21 34
REMARK SMILES IDX 22 35 23 37 24 38 25 39 77 40 26 41 76 42 27 43 28 44 29 45
REMARK SMILES IDX 70 46 30 47 75 48 69 49 71 50 31 51 74 52 68 53 67 54 32 56
REMARK SMILES IDX 58 57 41 58 57 59 42 60 45 61 56 62 72 63 43 64 44 65 55 67
REMARK SMILES IDX 73 68 46 69 33 70 34 71 39 72 35 73 36 74 38 75 40 76 37 77
REMARK SMILES IDX 59 78 60 79 65 80 61 81 62 82 64 83 66 84 63 85 47 86 48 87
REMARK SMILES IDX 53 88 49 89 50 90 52 91 54 92 51 93
REMARK H PARENT 14 8 21 36 71 55 45 66
REMARK Flexibility Score: inf
ROOT
ATOM      1  C   UNL A   1      34.522  33.844  28.597  1.00  0.00     0.002 C 
ENDROOT
BRANCH   1   2
ATOM      2  C   UNL A   1      34.441  32.320  28.721  1.00  0.00     0.002 C 
BRANCH   2   3
ATOM      3  C   UNL A   1      33.474  31.649  27.744  1.00  0.00     0.021 C 
BRANCH   3   4
ATOM      4  C   UNL A   1      33.920  30.266  27.248  1.00  0.00     0.116 C 
BRANCH   4   5
ATOM      5  N   UNL A   1      32.889  29.294  27.564  1.00  0.00    -0.355 N 
ATOM      6  C   UNL A   1      32.383  28.211  26.931  1.00  0.00     0.230 C 
ATOM      7  O   UNL A   1      31.368  27.743  27.476  1.00  0.00    -0.274 OA
ATOM      8  H   UNL A   1      32.462  29.462  28.435  1.00  0.00     0.163 HD
BRANCH   6   9
ATOM      9  C   UNL A   1      32.973  27.438  25.756  1.00  0.00     0.136 C 
ATOM     10  C   UNL A   1      32.311  23.229  25.048  1.00  0.00     0.161 A 
ATOM     11  C   UNL A   1      32.666  24.077  24.002  1.00  0.00     0.064 A 
ATOM     12  C   UNL A   1      32.388  23.684  26.367  1.00  0.00     0.161 A 
ATOM     13  C   UNL A   1      32.982  25.412  24.271  1.00  0.00     0.048 A 
ATOM     14  C   UNL A   1      32.755  25.017  26.612  1.00  0.00     0.056 A 
ATOM     15  C   UNL A   1      32.863  25.938  25.571  1.00  0.00    -0.016 A 
ATOM     16  C   UNL A   1      33.527  26.264  23.174  1.00  0.00     0.254 C 
ATOM     17  N   UNL A   1      33.435  27.638  23.354  1.00  0.00    -0.333 N 
ATOM     18  O   UNL A   1      34.028  25.741  22.180  1.00  0.00    -0.269 OA
ATOM     19  C   UNL A   1      32.587  28.182  24.429  1.00  0.00     0.132 C 
ATOM     20  C   UNL A   1      34.000  28.532  22.361  1.00  0.00     0.147 C 
BRANCH  10  21
ATOM     21  O   UNL A   1      31.837  21.987  24.730  1.00  0.00    -0.493 OA
ATOM     22  C   UNL A   1      32.776  21.263  23.938  1.00  0.00     0.278 C 
ENDBRANCH  10  21
BRANCH  12  23
ATOM     23  O   UNL A   1      32.146  22.952  27.499  1.00  0.00    -0.493 OA
ATOM     24  C   UNL A   1      33.249  22.203  28.001  1.00  0.00     0.278 C 
ENDBRANCH  12  23
BRANCH  19  25
ATOM     25  C   UNL A   1      31.094  28.179  24.035  1.00  0.00    -0.023 A 
ATOM     26  C   UNL A   1      30.309  27.032  24.249  1.00  0.00     0.006 A 
ATOM     27  C   UNL A   1      30.440  29.308  23.500  1.00  0.00     0.026 A 
ATOM     28  C   UNL A   1      28.960  26.991  23.873  1.00  0.00     0.002 A 
ATOM     29  C   UNL A   1      29.093  29.268  23.136  1.00  0.00     0.041 A 
ATOM     30  C   UNL A   1      28.352  28.107  23.307  1.00  0.00     0.020 A 
ATOM     31  Cl  UNL A   1      28.345  30.672  22.478  1.00  0.00    -0.084 Cl
ENDBRANCH  19  25
ENDBRANCH   6   9
ENDBRANCH   4   5
ENDBRANCH   3   4
ENDBRANCH   2   3
ENDBRANCH   1   2
BRANCH   1  32
ATOM     32  C   UNL A   1      33.196  34.595  28.753  1.00  0.00     0.021 C 
BRANCH  32  33
ATOM     33  C   UNL A   1      33.318  36.044  29.222  1.00  0.00     0.116 C 
BRANCH  33  34
ATOM     34  N   UNL A   1      32.528  36.302  30.411  1.00  0.00    -0.352 N 
ATOM     35  C   UNL A   1      32.661  35.781  31.674  1.00  0.00     0.251 C 
ATOM     36  H   UNL A   1      31.790  36.943  30.295  1.00  0.00     0.163 HD
ATOM     37  O   UNL A   1      31.766  35.937  32.498  1.00  0.00    -0.269 OA
BRANCH  35  38
ATOM     38  C   UNL A   1      33.876  35.023  32.051  1.00  0.00     0.039 A 
ATOM     39  C   UNL A   1      33.746  33.674  32.394  1.00  0.00     0.014 A 
ATOM     40  C   UNL A   1      35.128  35.644  32.124  1.00  0.00     0.014 A 
ATOM     41  C   UNL A   1      34.873  32.938  32.772  1.00  0.00     0.010 A 
ATOM     42  C   UNL A   1      36.260  34.896  32.448  1.00  0.00     0.010 A 
ATOM     43  C   UNL A   1      36.143  33.539  32.785  1.00  0.00    -0.014 A 
BRANCH  43  44
ATOM     44  C   UNL A   1      37.352  32.761  33.163  1.00  0.00     0.031 A 
ATOM     45  C   UNL A   1      38.065  33.047  34.455  1.00  0.00     0.074 A 
ATOM     46  C   UNL A   1      37.837  31.828  32.322  1.00  0.00     0.049 A 
ATOM     47  N   UNL A   1      39.164  32.515  34.929  1.00  0.00    -0.248 NA
ATOM     48  C   UNL A   1      37.479  34.083  35.320  1.00  0.00     0.031 C 
ATOM     49  C   UNL A   1      37.259  31.476  31.024  1.00  0.00     0.029 A 
ATOM     50  N   UNL A   1      38.935  31.011  32.430  1.00  0.00    -0.354 N 
ATOM     51  C   UNL A   1      39.406  33.158  36.137  1.00  0.00     0.074 A 
ATOM     52  C   UNL A   1      38.366  34.151  36.301  1.00  0.00     0.031 C 
ATOM     53  C   UNL A   1      37.998  30.506  30.464  1.00  0.00     0.029 A 
ATOM     54  C   UNL A   1      39.120  30.190  31.344  1.00  0.00     0.049 A 
ATOM     55  H   UNL A   1      39.534  31.013  33.211  1.00  0.00     0.167 HD
ATOM     56  C   UNL A   1      40.394  32.930  37.036  1.00  0.00     0.037 A 
ATOM     57  C   UNL A   1      40.088  29.292  31.081  1.00  0.00     0.037 A 
ATOM     58  C   UNL A   1      41.416  31.926  36.885  1.00  0.00     0.049 A 
ATOM     59  C   UNL A   1      41.180  29.065  32.089  1.00  0.00     0.074 A 
ATOM     60  C   UNL A   1      42.422  31.582  37.771  1.00  0.00     0.029 A 
ATOM     61  N   UNL A   1      41.563  31.111  35.775  1.00  0.00    -0.354 N 
ATOM     62  N   UNL A   1      41.361  29.638  33.254  1.00  0.00    -0.248 NA
ATOM     63  C   UNL A   1      42.200  28.064  31.748  1.00  0.00     0.031 C 
ATOM     64  C   UNL A   1      43.205  30.586  37.176  1.00  0.00     0.029 A 
ATOM     65  C   UNL A   1      42.658  30.278  35.942  1.00  0.00     0.049 A 
ATOM     66  H   UNL A   1      40.976  31.120  34.984  1.00  0.00     0.167 HD
ATOM     67  C   UNL A   1      42.497  29.049  33.796  1.00  0.00     0.074 A 
ATOM     68  C   UNL A   1      42.957  28.066  32.836  1.00  0.00     0.031 C 
ATOM     69  C   UNL A   1      43.103  29.300  34.982  1.00  0.00     0.037 A 
BRANCH  56  70
ATOM     70  C   UNL A   1      40.418  33.786  38.270  1.00  0.00     0.057 A 
ATOM     71  C   UNL A   1      39.650  33.475  39.400  1.00  0.00     0.134 A 
ATOM     72  C   UNL A   1      41.248  34.912  38.343  1.00  0.00     0.134 A 
ATOM     73  F   UNL A   1      38.828  32.416  39.392  1.00  0.00    -0.206 F 
ATOM     74  C   UNL A   1      39.686  34.270  40.547  1.00  0.00     0.040 A 
ATOM     75  C   UNL A   1      41.311  35.699  39.495  1.00  0.00     0.040 A 
ATOM     76  F   UNL A   1      42.015  35.262  37.299  1.00  0.00    -0.206 F 
ATOM     77  C   UNL A   1      40.523  35.382  40.599  1.00  0.00     0.006 A 
ENDBRANCH  56  70
BRANCH  57  78
ATOM     78  C   UNL A   1      40.059  28.524  29.812  1.00  0.00     0.057 A 
ATOM     79  C   UNL A   1      40.785  28.951  28.693  1.00  0.00     0.134 A 
ATOM     80  C   UNL A   1      39.304  27.353  29.683  1.00  0.00     0.134 A 
ATOM     81  F   UNL A   1      41.511  30.077  28.750  1.00  0.00    -0.206 F 
ATOM     82  C   UNL A   1      40.751  28.248  27.488  1.00  0.00     0.040 A 
ATOM     83  C   UNL A   1      39.278  26.626  28.491  1.00  0.00     0.040 A 
ATOM     84  F   UNL A   1      38.591  26.890  30.721  1.00  0.00    -0.206 F 
ATOM     85  C   UNL A   1      39.999  27.078  27.388  1.00  0.00     0.006 A 
ENDBRANCH  57  78
BRANCH  69  86
ATOM     86  C   UNL A   1      44.311  28.479  35.325  1.00  0.00     0.057 A 
ATOM     87  C   UNL A   1      44.207  27.261  36.010  1.00  0.00     0.134 A 
ATOM     88  C   UNL A   1      45.589  28.893  34.931  1.00  0.00     0.134 A 
ATOM     89  F   UNL A   1      43.012  26.815  36.427  1.00  0.00    -0.206 F 
ATOM     90  C   UNL A   1      45.334  26.493  36.305  1.00  0.00     0.040 A 
ATOM     91  C   UNL A   1      46.721  28.122  35.199  1.00  0.00     0.040 A 
ATOM     92  F   UNL A   1      45.758  30.046  34.266  1.00  0.00    -0.206 F 
ATOM     93  C   UNL A   1      46.595  26.921  35.893  1.00  0.00     0.006 A 
ENDBRANCH  69  86
ENDBRANCH  43  44
ENDBRANCH  35  38
ENDBRANCH  33  34
ENDBRANCH  32  33
ENDBRANCH   1  32
TORSDOF 16
ENDMDL
MODEL 2
REMARK VINA RESULT:     -12.1      6.352     11.625
REMARK SMILES COc1cc2c(cc1OC)[C@H](C(=O)NCCCCCCNC(=O)c1ccc(-c3c4nc(c(-c5c(F)cccc5F)c5ccc([nH]5)c(-c5c(F)cccc5F)c5nc(c(-c6c(F)cccc6F)c6ccc3[nH]6)C=C5)C=C4)cc1)[C@H](c1cccc(Cl)c1)N(C)C2=O
REMARK SMILES IDX 18 1 17 2 16 3 15 4 14 5 12 6 13 7 11 9 3 10 4 11 8 12 5 13
REMARK SMILES IDX 7 14 6 15 88 16 86 17 89 18 78 19 87 20 2 21 1 22 9 23 10 24
REMARK SMILES IDX 79 25 80 26 85 27 81 28 83 29 82 30 84 31 19 32 20 33 21 34
REMARK SMILES IDX 22 35 23 37 24 38 25 39 77 40 26 41 76 42 27 43 28 44 29 45
REMARK SMILES IDX 70 46 30 47 75 48 69 49 71 50 31 51 74 52 68 53 67 54 32 56
REMARK SMILES IDX 58 57 41 58 57 59 42 60 45 61 56 62 72 63 43 64 44 65 55 67
REMARK SMILES IDX 73 68 46 69 33 70 34 71 39 72 35 73 36 74 38 75 40 76 37 77
REMARK SMILES IDX 59 78 60 79 65 80 61 81 62 82 64 83 66 84 63 85 47 86 48 87
REMARK SMILES IDX 53 88 49 89 50 90 52 91 54 92 51 93
REMARK H PARENT 14 8 21 36 71 55 45 66
REMARK Flexibility Score: inf
ROOT
ATOM      1  C   UNL A   1      41.219  21.022  27.002  1.00  0.00     0.002 C 
ENDROOT
BRANCH   1   2
ATOM      2  C   UNL A   1      40.470  22.171  26.323  1.00  0.00     0.002 C 
BRANCH   2   3
ATOM      3  C   UNL A   1      39.095  21.798  25.765  1.00  0.00     0.021 C 
BRANCH   3   4
ATOM      4  C   UNL A   1      38.031  22.899  25.891  1.00  0.00     0.116 C 
BRANCH   4   5
ATOM      5  N   UNL A   1      37.379  23.075  24.607  1.00  0.00    -0.355 N 
ATOM      6  C   UNL A   1      36.102  23.289  24.214  1.00  0.00     0.230 C 
ATOM      7  O   UNL A   1      35.937  23.209  22.985  1.00  0.00    -0.274 OA
ATOM      8  H   UNL A   1      38.008  23.029  23.850  1.00  0.00     0.163 HD
BRANCH   6   9
ATOM      9  C   UNL A   1      34.915  23.743  25.058  1.00  0.00     0.136 C 
ATOM     10  C   UNL A   1      31.717  26.247  23.589  1.00  0.00     0.161 A 
ATOM     11  C   UNL A   1      31.518  25.413  24.686  1.00  0.00     0.064 A 
ATOM     12  C   UNL A   1      33.009  26.450  23.097  1.00  0.00     0.161 A 
ATOM     13  C   UNL A   1      32.595  24.694  25.212  1.00  0.00     0.048 A 
ATOM     14  C   UNL A   1      34.081  25.752  23.675  1.00  0.00     0.056 A 
ATOM     15  C   UNL A   1      33.861  24.731  24.598  1.00  0.00    -0.016 A 
ATOM     16  C   UNL A   1      32.412  23.942  26.488  1.00  0.00     0.254 C 
ATOM     17  N   UNL A   1      33.332  22.936  26.751  1.00  0.00    -0.333 N 
ATOM     18  O   UNL A   1      31.485  24.230  27.244  1.00  0.00    -0.269 OA
ATOM     19  C   UNL A   1      34.238  22.473  25.685  1.00  0.00     0.132 C 
ATOM     20  C   UNL A   1      33.258  22.204  28.001  1.00  0.00     0.147 C 
BRANCH  10  21
ATOM     21  O   UNL A   1      30.614  26.792  22.993  1.00  0.00    -0.493 OA
ATOM     22  C   UNL A   1      30.258  28.032  23.601  1.00  0.00     0.278 C 
ENDBRANCH  10  21
BRANCH  12  23
ATOM     23  O   UNL A   1      33.372  27.293  22.080  1.00  0.00    -0.493 OA
ATOM     24  C   UNL A   1      34.027  28.495  22.474  1.00  0.00     0.278 C 
ENDBRANCH  12  23
BRANCH  19  25
ATOM     25  C   UNL A   1      33.528  21.507  24.713  1.00  0.00    -0.023 A 
ATOM     26  C   UNL A   1      32.832  22.010  23.599  1.00  0.00     0.006 A 
ATOM     27  C   UNL A   1      33.576  20.104  24.853  1.00  0.00     0.026 A 
ATOM     28  C   UNL A   1      32.153  21.159  22.717  1.00  0.00     0.002 A 
ATOM     29  C   UNL A   1      32.908  19.258  23.967  1.00  0.00     0.041 A 
ATOM     30  C   UNL A   1      32.182  19.781  22.906  1.00  0.00     0.020 A 
ATOM     31  Cl  UNL A   1      32.991  17.553  24.190  1.00  0.00    -0.084 Cl
ENDBRANCH  19  25
ENDBRANCH   6   9
ENDBRANCH   4   5
ENDBRANCH   3   4
ENDBRANCH   2   3
ENDBRANCH   1   2
BRANCH   1  32
ATOM     32  C   UNL A   1      41.403  19.758  26.157  1.00  0.00     0.021 C 
BRANCH  32  33
ATOM     33  C   UNL A   1      42.628  18.912  26.505  1.00  0.00     0.116 C 
BRANCH  33  34
ATOM     34  N   UNL A   1      43.450  18.638  25.342  1.00  0.00    -0.352 N 
ATOM     35  C   UNL A   1      44.151  19.509  24.546  1.00  0.00     0.251 C 
ATOM     36  H   UNL A   1      43.514  17.689  25.086  1.00  0.00     0.163 HD
ATOM     37  O   UNL A   1      44.606  19.127  23.472  1.00  0.00    -0.269 OA
BRANCH  35  38
ATOM     38  C   UNL A   1      44.358  20.913  24.969  1.00  0.00     0.039 A 
ATOM     39  C   UNL A   1      43.867  21.938  24.155  1.00  0.00     0.014 A 
ATOM     40  C   UNL A   1      45.080  21.225  26.125  1.00  0.00     0.014 A 
ATOM     41  C   UNL A   1      44.064  23.273  24.519  1.00  0.00     0.010 A 
ATOM     42  C   UNL A   1      45.228  22.556  26.517  1.00  0.00     0.010 A 
ATOM     43  C   UNL A   1      44.732  23.594  25.713  1.00  0.00    -0.014 A 
BRANCH  43  44
ATOM     44  C   UNL A   1      44.928  25.009  26.122  1.00  0.00     0.031 A 
ATOM     45  C   UNL A   1      46.287  25.645  26.029  1.00  0.00     0.074 A 
ATOM     46  C   UNL A   1      43.893  25.710  26.623  1.00  0.00     0.049 A 
ATOM     47  N   UNL A   1      46.665  26.846  26.390  1.00  0.00    -0.248 NA
ATOM     48  C   UNL A   1      47.369  24.816  25.476  1.00  0.00     0.031 C 
ATOM     49  C   UNL A   1      42.531  25.201  26.797  1.00  0.00     0.029 A 
ATOM     50  N   UNL A   1      43.827  27.000  27.088  1.00  0.00    -0.354 N 
ATOM     51  C   UNL A   1      48.027  26.911  26.121  1.00  0.00     0.074 A 
ATOM     52  C   UNL A   1      48.418  25.615  25.609  1.00  0.00     0.031 C 
ATOM     53  C   UNL A   1      41.763  26.172  27.315  1.00  0.00     0.029 A 
ATOM     54  C   UNL A   1      42.582  27.359  27.543  1.00  0.00     0.049 A 
ATOM     55  H   UNL A   1      44.600  27.610  27.095  1.00  0.00     0.167 HD
ATOM     56  C   UNL A   1      48.871  27.961  26.269  1.00  0.00     0.037 A 
ATOM     57  C   UNL A   1      42.150  28.511  28.091  1.00  0.00     0.037 A 
ATOM     58  C   UNL A   1      48.479  29.258  26.756  1.00  0.00     0.049 A 
ATOM     59  C   UNL A   1      43.108  29.657  28.256  1.00  0.00     0.074 A 
ATOM     60  C   UNL A   1      49.251  30.400  26.884  1.00  0.00     0.029 A 
ATOM     61  N   UNL A   1      47.206  29.584  27.199  1.00  0.00    -0.354 N 
ATOM     62  N   UNL A   1      44.379  29.724  27.940  1.00  0.00    -0.248 NA
ATOM     63  C   UNL A   1      42.572  30.890  28.849  1.00  0.00     0.031 C 
ATOM     64  C   UNL A   1      48.455  31.405  27.446  1.00  0.00     0.029 A 
ATOM     65  C   UNL A   1      47.176  30.902  27.622  1.00  0.00     0.049 A 
ATOM     66  H   UNL A   1      46.436  28.969  27.210  1.00  0.00     0.167 HD
ATOM     67  C   UNL A   1      44.786  31.011  28.270  1.00  0.00     0.074 A 
ATOM     68  C   UNL A   1      43.625  31.694  28.801  1.00  0.00     0.031 C 
ATOM     69  C   UNL A   1      46.013  31.574  28.144  1.00  0.00     0.037 A 
BRANCH  56  70
ATOM     70  C   UNL A   1      50.311  27.749  25.899  1.00  0.00     0.057 A 
ATOM     71  C   UNL A   1      51.290  27.480  26.865  1.00  0.00     0.134 A 
ATOM     72  C   UNL A   1      50.716  27.777  24.559  1.00  0.00     0.134 A 
ATOM     73  F   UNL A   1      50.970  27.449  28.167  1.00  0.00    -0.206 F 
ATOM     74  C   UNL A   1      52.625  27.274  26.512  1.00  0.00     0.040 A 
ATOM     75  C   UNL A   1      52.044  27.546  24.192  1.00  0.00     0.040 A 
ATOM     76  F   UNL A   1      49.828  28.021  23.583  1.00  0.00    -0.206 F 
ATOM     77  C   UNL A   1      53.004  27.300  25.172  1.00  0.00     0.006 A 
ENDBRANCH  56  70
BRANCH  57  78
ATOM     78  C   UNL A   1      40.732  28.644  28.508  1.00  0.00     0.057 A 
ATOM     79  C   UNL A   1      40.338  28.367  29.823  1.00  0.00     0.134 A 
ATOM     80  C   UNL A   1      39.739  29.045  27.607  1.00  0.00     0.134 A 
ATOM     81  F   UNL A   1      41.242  27.960  30.726  1.00  0.00    -0.206 F 
ATOM     82  C   UNL A   1      39.005  28.471  30.223  1.00  0.00     0.040 A 
ATOM     83  C   UNL A   1      38.406  29.176  27.999  1.00  0.00     0.040 A 
ATOM     84  F   UNL A   1      40.055  29.330  26.335  1.00  0.00    -0.206 F 
ATOM     85  C   UNL A   1      38.035  28.882  29.310  1.00  0.00     0.006 A 
ENDBRANCH  57  78
BRANCH  69  86
ATOM     86  C   UNL A   1      46.157  33.009  28.557  1.00  0.00     0.057 A 
ATOM     87  C   UNL A   1      46.550  33.370  29.852  1.00  0.00     0.134 A 
ATOM     88  C   UNL A   1      45.941  34.041  27.634  1.00  0.00     0.134 A 
ATOM     89  F   UNL A   1      46.759  32.430  30.786  1.00  0.00    -0.206 F 
ATOM     90  C   UNL A   1      46.704  34.708  30.220  1.00  0.00     0.040 A 
ATOM     91  C   UNL A   1      46.115  35.381  27.985  1.00  0.00     0.040 A 
ATOM     92  F   UNL A   1      45.570  33.763  26.376  1.00  0.00    -0.206 F 
ATOM     93  C   UNL A   1      46.493  35.716  29.282  1.00  0.00     0.006 A 
ENDBRANCH  69  86
ENDBRANCH  43  44
ENDBRANCH  35  38
ENDBRANCH  33  34
ENDBRANCH  32  33
ENDBRANCH   1  32
TORSDOF 16
ENDMDL
MODEL 3
REMARK VINA RESULT:     -12.0      3.013      8.709
REMARK SMILES COc1cc2c(cc1OC)[C@H](C(=O)NCCCCCCNC(=O)c1ccc(-c3c4nc(c(-c5c(F)cccc5F)c5ccc([nH]5)c(-c5c(F)cccc5F)c5nc(c(-c6c(F)cccc6F)c6ccc3[nH]6)C=C5)C=C4)cc1)[C@H](c1cccc(Cl)c1)N(C)C2=O
REMARK SMILES IDX 18 1 17 2 16 3 15 4 14 5 12 6 13 7 11 9 3 10 4 11 8 12 5 13
REMARK SMILES IDX 7 14 6 15 88 16 86 17 89 18 78 19 87 20 2 21 1 22 9 23 10 24
REMARK SMILES IDX 79 25 80 26 85 27 81 28 83 29 82 30 84 31 19 32 20 33 21 34
REMARK SMILES IDX 22 35 23 37 24 38 25 39 77 40 26 41 76 42 27 43 28 44 29 45
REMARK SMILES IDX 70 46 30 47 75 48 69 49 71 50 31 51 74 52 68 53 67 54 32 56
REMARK SMILES IDX 58 57 41 58 57 59 42 60 45 61 56 62 72 63 43 64 44 65 55 67
REMARK SMILES IDX 73 68 46 69 33 70 34 71 39 72 35 73 36 74 38 75 40 76 37 77
REMARK SMILES IDX 59 78 60 79 65 80 61 81 62 82 64 83 66 84 63 85 47 86 48 87
REMARK SMILES IDX 53 88 49 89 50 90 52 91 54 92 51 93
REMARK H PARENT 14 8 21 36 71 55 45 66
REMARK Flexibility Score: inf
ROOT
ATOM      1  C   UNL A   1      40.353  22.250  27.263  1.00  0.00     0.002 C 
ENDROOT
BRANCH   1   2
ATOM      2  C   UNL A   1      39.904  21.187  26.257  1.00  0.00     0.002 C 
BRANCH   2   3
ATOM      3  C   UNL A   1      38.470  21.350  25.751  1.00  0.00     0.021 C 
BRANCH   3   4
ATOM      4  C   UNL A   1      37.950  22.795  25.751  1.00  0.00     0.116 C 
BRANCH   4   5
ATOM      5  N   UNL A   1      37.300  23.065  24.482  1.00  0.00    -0.355 N 
ATOM      6  C   UNL A   1      36.029  23.334  24.107  1.00  0.00     0.230 C 
ATOM      7  O   UNL A   1      35.860  23.333  22.875  1.00  0.00    -0.274 OA
ATOM      8  H   UNL A   1      37.927  23.049  23.722  1.00  0.00     0.163 HD
BRANCH   6   9
ATOM      9  C   UNL A   1      34.855  23.766  24.979  1.00  0.00     0.136 C 
ATOM     10  C   UNL A   1      31.568  26.198  23.587  1.00  0.00     0.161 A 
ATOM     11  C   UNL A   1      31.415  25.364  24.691  1.00  0.00     0.064 A 
ATOM     12  C   UNL A   1      32.843  26.427  23.061  1.00  0.00     0.161 A 
ATOM     13  C   UNL A   1      32.521  24.669  25.191  1.00  0.00     0.048 A 
ATOM     14  C   UNL A   1      33.944  25.753  23.613  1.00  0.00     0.056 A 
ATOM     15  C   UNL A   1      33.769  24.730  24.544  1.00  0.00    -0.016 A 
ATOM     16  C   UNL A   1      32.386  23.917  26.474  1.00  0.00     0.254 C 
ATOM     17  N   UNL A   1      33.334  22.932  26.715  1.00  0.00    -0.333 N 
ATOM     18  O   UNL A   1      31.473  24.189  27.252  1.00  0.00    -0.269 OA
ATOM     19  C   UNL A   1      34.221  22.485  25.628  1.00  0.00     0.132 C 
ATOM     20  C   UNL A   1      33.307  22.203  27.969  1.00  0.00     0.147 C 
BRANCH  10  21
ATOM     21  O   UNL A   1      30.439  26.718  23.018  1.00  0.00    -0.493 OA
ATOM     22  C   UNL A   1      29.514  27.154  24.011  1.00  0.00     0.278 C 
ENDBRANCH  10  21
BRANCH  12  23
ATOM     23  O   UNL A   1      33.162  27.273  22.032  1.00  0.00    -0.493 OA
ATOM     24  C   UNL A   1      33.994  28.378  22.374  1.00  0.00     0.278 C 
ENDBRANCH  12  23
BRANCH  19  25
ATOM     25  C   UNL A   1      33.506  21.501  24.676  1.00  0.00    -0.023 A 
ATOM     26  C   UNL A   1      32.837  21.980  23.536  1.00  0.00     0.006 A 
ATOM     27  C   UNL A   1      33.524  20.103  24.864  1.00  0.00     0.026 A 
ATOM     28  C   UNL A   1      32.155  21.114  22.672  1.00  0.00     0.002 A 
ATOM     29  C   UNL A   1      32.852  19.240  23.996  1.00  0.00     0.041 A 
ATOM     30  C   UNL A   1      32.154  19.742  22.907  1.00  0.00     0.020 A 
ATOM     31  Cl  UNL A   1      32.897  17.543  24.277  1.00  0.00    -0.084 Cl
ENDBRANCH  19  25
ENDBRANCH   6   9
ENDBRANCH   4   5
ENDBRANCH   3   4
ENDBRANCH   2   3
ENDBRANCH   1   2
BRANCH   1  32
ATOM     32  C   UNL A   1      41.816  22.166  27.711  1.00  0.00     0.021 C 
BRANCH  32  33
ATOM     33  C   UNL A   1      42.622  23.455  27.555  1.00  0.00     0.116 C 
BRANCH  33  34
ATOM     34  N   UNL A   1      42.295  24.158  26.329  1.00  0.00    -0.352 N 
ATOM     35  C   UNL A   1      41.635  25.350  26.158  1.00  0.00     0.251 C 
ATOM     36  H   UNL A   1      42.590  23.718  25.499  1.00  0.00     0.163 HD
ATOM     37  O   UNL A   1      41.248  25.681  25.043  1.00  0.00    -0.269 OA
BRANCH  35  38
ATOM     38  C   UNL A   1      41.379  26.240  27.315  1.00  0.00     0.039 A 
ATOM     39  C   UNL A   1      42.199  27.357  27.497  1.00  0.00     0.014 A 
ATOM     40  C   UNL A   1      40.378  25.949  28.248  1.00  0.00     0.014 A 
ATOM     41  C   UNL A   1      41.993  28.203  28.590  1.00  0.00     0.010 A 
ATOM     42  C   UNL A   1      40.137  26.824  29.307  1.00  0.00     0.010 A 
ATOM     43  C   UNL A   1      40.949  27.954  29.495  1.00  0.00    -0.014 A 
BRANCH  43  44
ATOM     44  C   UNL A   1      40.704  28.859  30.648  1.00  0.00     0.031 A 
ATOM     45  C   UNL A   1      39.620  29.899  30.581  1.00  0.00     0.074 A 
ATOM     46  C   UNL A   1      41.488  28.779  31.740  1.00  0.00     0.049 A 
ATOM     47  N   UNL A   1      39.294  30.813  31.460  1.00  0.00    -0.248 NA
ATOM     48  C   UNL A   1      38.808  29.929  29.354  1.00  0.00     0.031 C 
ATOM     49  C   UNL A   1      42.594  27.837  31.920  1.00  0.00     0.029 A 
ATOM     50  N   UNL A   1      41.480  29.509  32.903  1.00  0.00    -0.354 N 
ATOM     51  C   UNL A   1      38.251  31.533  30.889  1.00  0.00     0.074 A 
ATOM     52  C   UNL A   1      38.030  30.979  29.571  1.00  0.00     0.031 C 
ATOM     53  C   UNL A   1      43.148  28.037  33.127  1.00  0.00     0.029 A 
ATOM     54  C   UNL A   1      42.461  29.141  33.791  1.00  0.00     0.049 A 
ATOM     55  H   UNL A   1      40.833  30.228  33.083  1.00  0.00     0.167 HD
ATOM     56  C   UNL A   1      37.532  32.550  31.422  1.00  0.00     0.037 A 
ATOM     57  C   UNL A   1      42.778  29.641  35.001  1.00  0.00     0.037 A 
ATOM     58  C   UNL A   1      37.736  33.087  32.743  1.00  0.00     0.049 A 
ATOM     59  C   UNL A   1      41.973  30.777  35.565  1.00  0.00     0.074 A 
ATOM     60  C   UNL A   1      37.018  34.077  33.392  1.00  0.00     0.029 A 
ATOM     61  N   UNL A   1      38.735  32.681  33.614  1.00  0.00    -0.354 N 
ATOM     62  N   UNL A   1      40.950  31.407  35.040  1.00  0.00    -0.248 NA
ATOM     63  C   UNL A   1      42.362  31.270  36.894  1.00  0.00     0.031 C 
ATOM     64  C   UNL A   1      37.610  34.300  34.640  1.00  0.00     0.029 A 
ATOM     65  C   UNL A   1      38.666  33.416  34.787  1.00  0.00     0.049 A 
ATOM     66  H   UNL A   1      39.395  31.973  33.429  1.00  0.00     0.167 HD
ATOM     67  C   UNL A   1      40.558  32.350  35.982  1.00  0.00     0.074 A 
ATOM     68  C   UNL A   1      41.446  32.202  37.117  1.00  0.00     0.031 C 
ATOM     69  C   UNL A   1      39.552  33.256  35.912  1.00  0.00     0.037 A 
BRANCH  56  70
ATOM     70  C   UNL A   1      36.452  33.154  30.572  1.00  0.00     0.057 A 
ATOM     71  C   UNL A   1      36.741  34.058  29.540  1.00  0.00     0.134 A 
ATOM     72  C   UNL A   1      35.110  32.799  30.762  1.00  0.00     0.134 A 
ATOM     73  F   UNL A   1      38.004  34.446  29.312  1.00  0.00    -0.206 F 
ATOM     74  C   UNL A   1      35.732  34.607  28.747  1.00  0.00     0.040 A 
ATOM     75  C   UNL A   1      34.095  33.322  29.957  1.00  0.00     0.040 A 
ATOM     76  F   UNL A   1      34.764  31.933  31.726  1.00  0.00    -0.206 F 
ATOM     77  C   UNL A   1      34.405  34.234  28.951  1.00  0.00     0.006 A 
ENDBRANCH  56  70
BRANCH  57  78
ATOM     78  C   UNL A   1      43.904  29.055  35.770  1.00  0.00     0.057 A 
ATOM     79  C   UNL A   1      45.208  29.543  35.624  1.00  0.00     0.134 A 
ATOM     80  C   UNL A   1      43.707  27.996  36.663  1.00  0.00     0.134 A 
ATOM     81  F   UNL A   1      45.462  30.544  34.768  1.00  0.00    -0.206 F 
ATOM     82  C   UNL A   1      46.278  28.989  36.328  1.00  0.00     0.040 A 
ATOM     83  C   UNL A   1      44.764  27.448  37.391  1.00  0.00     0.040 A 
ATOM     84  F   UNL A   1      42.479  27.489  36.851  1.00  0.00    -0.206 F 
ATOM     85  C   UNL A   1      46.055  27.941  37.219  1.00  0.00     0.006 A 
ENDBRANCH  57  78
BRANCH  69  86
ATOM     86  C   UNL A   1      39.335  34.137  37.107  1.00  0.00     0.057 A 
ATOM     87  C   UNL A   1      38.697  33.672  38.263  1.00  0.00     0.134 A 
ATOM     88  C   UNL A   1      39.807  35.456  37.114  1.00  0.00     0.134 A 
ATOM     89  F   UNL A   1      38.210  32.422  38.315  1.00  0.00    -0.206 F 
ATOM     90  C   UNL A   1      38.519  34.492  39.378  1.00  0.00     0.040 A 
ATOM     91  C   UNL A   1      39.656  36.279  38.232  1.00  0.00     0.040 A 
ATOM     92  F   UNL A   1      40.433  35.962  36.041  1.00  0.00    -0.206 F 
ATOM     93  C   UNL A   1      39.006  35.798  39.365  1.00  0.00     0.006 A 
ENDBRANCH  69  86
ENDBRANCH  43  44
ENDBRANCH  35  38
ENDBRANCH  33  34
ENDBRANCH  32  33
ENDBRANCH   1  32
TORSDOF 16
ENDMDL
