MODEL 1
REMARK VINA RESULT:     -10.6      0.000      0.000
REMARK SMILES CC[C@H](C(=O)NCCCCCCNC(=O)c1ccc(-c2c3nc(c(-c4c(F)cccc4F)c4ccc([nH]4)c(-c4c(F)cccc4F)c4nc(c(-c5c(F)cccc5F)c5ccc2[nH]5)C=C4)C=C3)cc1)[N@H+](C)Cc1cncn1C(C)C
REMARK SMILES IDX 8 1 7 2 6 3 4 4 5 5 3 7 2 8 1 9 70 10 71 11 72 13 73 14
REMARK SMILES IDX 74 15 77 16 75 17 76 18 78 19 79 20 80 21 9 22 10 23 11 24
REMARK SMILES IDX 12 25 13 26 14 27 15 29 16 30 17 31 69 32 18 33 68 34 19 35
REMARK SMILES IDX 20 36 21 37 62 38 22 39 67 40 61 41 63 42 23 43 66 44 60 45
REMARK SMILES IDX 59 46 24 48 50 49 33 50 49 51 34 52 37 53 48 54 64 55 35 56
REMARK SMILES IDX 36 57 47 59 65 60 38 61 25 62 26 63 31 64 27 65 28 66 30 67
REMARK SMILES IDX 32 68 29 69 51 70 52 71 57 72 53 73 54 74 56 75 58 76 55 77
REMARK SMILES IDX 39 78 40 79 45 80 41 81 42 82 44 83 46 84 43 85
REMARK H PARENT 6 6 70 12 13 28 63 47 37 58
REMARK Flexibility Score: inf
ROOT
ATOM      1  C   UNL A   1      32.999  28.353  27.150  1.00  0.00     0.021 C 
ENDROOT
BRANCH   1   2
ATOM      2  C   UNL A   1      32.763  27.104  26.319  1.00  0.00     0.116 C 
BRANCH   2   3
ATOM      3  N   UNL A   1      31.882  26.114  26.899  1.00  0.00    -0.351 N 
ATOM      4  C   UNL A   1      31.825  24.770  26.586  1.00  0.00     0.278 C 
ATOM      5  O   UNL A   1      31.079  24.061  27.263  1.00  0.00    -0.268 OA
ATOM      6  H   UNL A   1      31.257  26.432  27.590  1.00  0.00     0.163 HD
BRANCH   4   7
ATOM      7  C   UNL A   1      32.650  24.255  25.367  1.00  0.00     0.273 C 
BRANCH   7   8
ATOM      8  C   UNL A   1      34.003  23.596  25.715  1.00  0.00     0.072 C 
ATOM      9  C   UNL A   1      35.232  24.005  24.914  1.00  0.00     0.011 C 
ENDBRANCH   7   8
BRANCH   7  10
ATOM     10  N   UNL A   1      31.869  23.466  24.395  1.00  0.00    -0.322 N 
ATOM     11  C   UNL A   1      31.957  22.026  24.486  1.00  0.00     0.333 C 
ATOM     12  H   UNL A   1      31.039  23.829  24.864  1.00  0.00     0.348 HD
BRANCH  10  13
ATOM     13  C   UNL A   1      31.228  24.040  23.231  1.00  0.00     0.319 C 
BRANCH  13  14
ATOM     14  C   UNL A   1      32.019  25.153  22.631  1.00  0.00     0.093 A 
ATOM     15  C   UNL A   1      33.280  25.097  22.065  1.00  0.00     0.140 A 
ATOM     16  N   UNL A   1      31.666  26.487  22.536  1.00  0.00    -0.327 N 
ATOM     17  N   UNL A   1      33.748  26.344  21.761  1.00  0.00    -0.245 NA
ATOM     18  C   UNL A   1      32.777  27.160  22.092  1.00  0.00     0.200 A 
BRANCH  16  19
ATOM     19  C   UNL A   1      30.372  27.114  22.798  1.00  0.00     0.082 C 
ATOM     20  C   UNL A   1      29.912  26.992  24.255  1.00  0.00     0.031 C 
ATOM     21  C   UNL A   1      30.377  28.592  22.393  1.00  0.00     0.031 C 
ENDBRANCH  16  19
ENDBRANCH  13  14
ENDBRANCH  10  13
ENDBRANCH   7  10
ENDBRANCH   4   7
ENDBRANCH   2   3
ENDBRANCH   1   2
BRANCH   1  22
ATOM     22  C   UNL A   1      31.833  29.337  27.219  1.00  0.00     0.002 C 
BRANCH  22  23
ATOM     23  C   UNL A   1      31.805  30.459  26.175  1.00  0.00     0.002 C 
BRANCH  23  24
ATOM     24  C   UNL A   1      31.505  31.872  26.682  1.00  0.00     0.021 C 
BRANCH  24  25
ATOM     25  C   UNL A   1      32.680  32.633  27.286  1.00  0.00     0.116 C 
BRANCH  25  26
ATOM     26  N   UNL A   1      32.363  34.016  27.597  1.00  0.00    -0.352 N 
ATOM     27  C   UNL A   1      32.957  34.872  28.488  1.00  0.00     0.251 C 
ATOM     28  H   UNL A   1      31.608  34.397  27.092  1.00  0.00     0.163 HD
ATOM     29  O   UNL A   1      32.468  35.981  28.698  1.00  0.00    -0.269 OA
BRANCH  27  30
ATOM     30  C   UNL A   1      34.165  34.452  29.226  1.00  0.00     0.039 A 
ATOM     31  C   UNL A   1      34.012  33.932  30.514  1.00  0.00     0.014 A 
ATOM     32  C   UNL A   1      35.438  34.556  28.656  1.00  0.00     0.014 A 
ATOM     33  C   UNL A   1      35.126  33.445  31.200  1.00  0.00     0.010 A 
ATOM     34  C   UNL A   1      36.536  34.007  29.313  1.00  0.00     0.010 A 
ATOM     35  C   UNL A   1      36.389  33.435  30.586  1.00  0.00    -0.014 A 
BRANCH  35  36
ATOM     36  C   UNL A   1      37.551  32.788  31.246  1.00  0.00     0.031 A 
ATOM     37  C   UNL A   1      38.199  31.575  30.642  1.00  0.00     0.074 A 
ATOM     38  C   UNL A   1      37.981  33.266  32.432  1.00  0.00     0.049 A 
ATOM     39  N   UNL A   1      39.183  30.849  31.107  1.00  0.00    -0.248 NA
ATOM     40  C   UNL A   1      37.658  31.103  29.358  1.00  0.00     0.031 C 
ATOM     41  C   UNL A   1      37.403  34.408  33.144  1.00  0.00     0.029 A 
ATOM     42  N   UNL A   1      38.995  32.844  33.255  1.00  0.00    -0.354 N 
ATOM     43  C   UNL A   1      39.374  29.832  30.180  1.00  0.00     0.074 A 
ATOM     44  C   UNL A   1      38.372  30.007  29.149  1.00  0.00     0.031 C 
ATOM     45  C   UNL A   1      38.082  34.607  34.283  1.00  0.00     0.029 A 
ATOM     46  C   UNL A   1      39.113  33.582  34.407  1.00  0.00     0.049 A 
ATOM     47  H   UNL A   1      39.583  32.083  33.040  1.00  0.00     0.167 HD
ATOM     48  C   UNL A   1      40.312  28.855  30.179  1.00  0.00     0.037 A 
ATOM     49  C   UNL A   1      39.947  33.441  35.455  1.00  0.00     0.037 A 
ATOM     50  C   UNL A   1      41.316  28.696  31.200  1.00  0.00     0.049 A 
ATOM     51  C   UNL A   1      40.962  32.331  35.439  1.00  0.00     0.074 A 
ATOM     52  C   UNL A   1      42.350  27.777  31.253  1.00  0.00     0.029 A 
ATOM     53  N   UNL A   1      41.406  29.466  32.349  1.00  0.00    -0.354 N 
ATOM     54  N   UNL A   1      41.182  31.427  34.516  1.00  0.00    -0.248 NA
ATOM     55  C   UNL A   1      41.845  32.224  36.608  1.00  0.00     0.031 C 
ATOM     56  C   UNL A   1      43.028  27.951  32.463  1.00  0.00     0.029 A 
ATOM     57  C   UNL A   1      42.455  29.018  33.136  1.00  0.00     0.049 A 
ATOM     58  H   UNL A   1      40.812  30.218  32.573  1.00  0.00     0.167 HD
ATOM     59  C   UNL A   1      42.242  30.659  34.981  1.00  0.00     0.074 A 
ATOM     60  C   UNL A   1      42.635  31.219  36.257  1.00  0.00     0.031 C 
ATOM     61  C   UNL A   1      42.834  29.585  34.405  1.00  0.00     0.037 A 
BRANCH  48  62
ATOM     62  C   UNL A   1      40.301  27.875  29.041  1.00  0.00     0.057 A 
ATOM     63  C   UNL A   1      39.536  26.702  29.080  1.00  0.00     0.134 A 
ATOM     64  C   UNL A   1      41.017  28.139  27.865  1.00  0.00     0.134 A 
ATOM     65  F   UNL A   1      38.835  26.385  30.179  1.00  0.00    -0.206 F 
ATOM     66  C   UNL A   1      39.498  25.818  28.000  1.00  0.00     0.040 A 
ATOM     67  C   UNL A   1      40.963  27.277  26.768  1.00  0.00     0.040 A 
ATOM     68  F   UNL A   1      41.765  29.247  27.757  1.00  0.00    -0.206 F 
ATOM     69  C   UNL A   1      40.205  26.110  26.836  1.00  0.00     0.006 A 
ENDBRANCH  48  62
BRANCH  49  70
ATOM     70  C   UNL A   1      39.858  34.370  36.612  1.00  0.00     0.057 A 
ATOM     71  C   UNL A   1      39.092  34.051  37.740  1.00  0.00     0.134 A 
ATOM     72  C   UNL A   1      40.516  35.606  36.609  1.00  0.00     0.134 A 
ATOM     73  F   UNL A   1      38.422  32.890  37.795  1.00  0.00    -0.206 F 
ATOM     74  C   UNL A   1      38.962  34.937  38.811  1.00  0.00     0.040 A 
ATOM     75  C   UNL A   1      40.420  36.489  37.686  1.00  0.00     0.040 A 
ATOM     76  F   UNL A   1      41.272  35.969  35.562  1.00  0.00    -0.206 F 
ATOM     77  C   UNL A   1      39.632  36.159  38.787  1.00  0.00     0.006 A 
ENDBRANCH  49  70
BRANCH  61  78
ATOM     78  C   UNL A   1      43.985  28.959  35.140  1.00  0.00     0.057 A 
ATOM     79  C   UNL A   1      43.794  27.947  36.088  1.00  0.00     0.134 A 
ATOM     80  C   UNL A   1      45.303  29.350  34.869  1.00  0.00     0.134 A 
ATOM     81  F   UNL A   1      42.557  27.535  36.405  1.00  0.00    -0.206 F 
ATOM     82  C   UNL A   1      44.870  27.362  36.758  1.00  0.00     0.040 A 
ATOM     83  C   UNL A   1      46.388  28.752  35.509  1.00  0.00     0.040 A 
ATOM     84  F   UNL A   1      45.557  30.307  33.964  1.00  0.00    -0.206 F 
ATOM     85  C   UNL A   1      46.173  27.759  36.463  1.00  0.00     0.006 A 
ENDBRANCH  61  78
ENDBRANCH  35  36
ENDBRANCH  27  30
ENDBRANCH  25  26
ENDBRANCH  24  25
ENDBRANCH  23  24
ENDBRANCH  22  23
ENDBRANCH   1  22
TORSDOF 18
ENDMDL
MODEL 2
REMARK VINA RESULT:     -10.5      1.005      2.520
REMARK SMILES CC[C@H](C(=O)NCCCCCCNC(=O)c1ccc(-c2c3nc(c(-c4c(F)cccc4F)c4ccc([nH]4)c(-c4c(F)cccc4F)c4nc(c(-c5c(F)cccc5F)c5ccc2[nH]5)C=C4)C=C3)cc1)[N@H+](C)Cc1cncn1C(C)C
REMARK SMILES IDX 8 1 7 2 6 3 4 4 5 5 3 7 2 8 1 9 70 10 71 11 72 13 73 14
REMARK SMILES IDX 74 15 77 16 75 17 76 18 78 19 79 20 80 21 9 22 10 23 11 24
REMARK SMILES IDX 12 25 13 26 14 27 15 29 16 30 17 31 69 32 18 33 68 34 19 35
REMARK SMILES IDX 20 36 21 37 62 38 22 39 67 40 61 41 63 42 23 43 66 44 60 45
REMARK SMILES IDX 59 46 24 48 50 49 33 50 49 51 34 52 37 53 48 54 64 55 35 56
REMARK SMILES IDX 36 57 47 59 65 60 38 61 25 62 26 63 31 64 27 65 28 66 30 67
REMARK SMILES IDX 32 68 29 69 51 70 52 71 57 72 53 73 54 74 56 75 58 76 55 77
REMARK SMILES IDX 39 78 40 79 45 80 41 81 42 82 44 83 46 84 43 85
REMARK H PARENT 6 6 70 12 13 28 63 47 37 58
REMARK Flexibility Score: inf
ROOT
ATOM      1  C   UNL A   1      33.066  28.704  27.196  1.00  0.00     0.021 C 
ENDROOT
BRANCH   1   2
ATOM      2  C   UNL A   1      33.085  27.384  26.447  1.00  0.00     0.116 C 
BRANCH   2   3
ATOM      3  N   UNL A   1      33.847  27.362  25.218  1.00  0.00    -0.351 N 
ATOM      4  C   UNL A   1      33.347  27.312  23.932  1.00  0.00     0.278 C 
ATOM      5  O   UNL A   1      34.154  27.407  23.005  1.00  0.00    -0.268 OA
ATOM      6  H   UNL A   1      34.828  27.385  25.309  1.00  0.00     0.163 HD
BRANCH   4   7
ATOM      7  C   UNL A   1      31.818  27.076  23.738  1.00  0.00     0.273 C 
BRANCH   7   8
ATOM      8  C   UNL A   1      31.008  28.317  23.299  1.00  0.00     0.072 C 
ATOM      9  C   UNL A   1      29.490  28.260  23.402  1.00  0.00     0.011 C 
ENDBRANCH   7   8
BRANCH   7  10
ATOM     10  N   UNL A   1      31.484  25.874  22.951  1.00  0.00    -0.322 N 
ATOM     11  C   UNL A   1      31.701  25.934  21.523  1.00  0.00     0.333 C 
ATOM     12  H   UNL A   1      32.257  25.419  23.437  1.00  0.00     0.348 HD
BRANCH  10  13
ATOM     13  C   UNL A   1      30.741  24.752  23.483  1.00  0.00     0.319 C 
BRANCH  13  14
ATOM     14  C   UNL A   1      31.203  24.351  24.844  1.00  0.00     0.093 A 
ATOM     15  C   UNL A   1      30.585  24.587  26.059  1.00  0.00     0.140 A 
ATOM     16  N   UNL A   1      32.363  23.678  25.180  1.00  0.00    -0.327 N 
ATOM     17  N   UNL A   1      31.379  24.209  27.105  1.00  0.00    -0.245 NA
ATOM     18  C   UNL A   1      32.455  23.706  26.549  1.00  0.00     0.200 A 
BRANCH  16  19
ATOM     19  C   UNL A   1      33.322  23.008  24.303  1.00  0.00     0.082 C 
ATOM     20  C   UNL A   1      34.520  23.884  23.918  1.00  0.00     0.031 C 
ATOM     21  C   UNL A   1      33.830  21.703  24.926  1.00  0.00     0.031 C 
ENDBRANCH  16  19
ENDBRANCH  13  14
ENDBRANCH  10  13
ENDBRANCH   7  10
ENDBRANCH   4   7
ENDBRANCH   2   3
ENDBRANCH   1   2
BRANCH   1  22
ATOM     22  C   UNL A   1      31.764  29.499  27.112  1.00  0.00     0.002 C 
BRANCH  22  23
ATOM     23  C   UNL A   1      31.709  30.638  26.088  1.00  0.00     0.002 C 
BRANCH  23  24
ATOM     24  C   UNL A   1      31.415  32.041  26.627  1.00  0.00     0.021 C 
BRANCH  24  25
ATOM     25  C   UNL A   1      32.575  32.754  27.312  1.00  0.00     0.116 C 
BRANCH  25  26
ATOM     26  N   UNL A   1      32.279  34.138  27.642  1.00  0.00    -0.352 N 
ATOM     27  C   UNL A   1      32.903  34.981  28.525  1.00  0.00     0.251 C 
ATOM     28  H   UNL A   1      31.516  34.529  27.158  1.00  0.00     0.163 HD
ATOM     29  O   UNL A   1      32.429  36.092  28.755  1.00  0.00    -0.269 OA
BRANCH  27  30
ATOM     30  C   UNL A   1      34.124  34.544  29.230  1.00  0.00     0.039 A 
ATOM     31  C   UNL A   1      34.007  34.082  30.543  1.00  0.00     0.014 A 
ATOM     32  C   UNL A   1      35.375  34.576  28.605  1.00  0.00     0.014 A 
ATOM     33  C   UNL A   1      35.130  33.580  31.203  1.00  0.00     0.010 A 
ATOM     34  C   UNL A   1      36.479  34.011  29.238  1.00  0.00     0.010 A 
ATOM     35  C   UNL A   1      36.364  33.497  30.539  1.00  0.00    -0.014 A 
BRANCH  35  36
ATOM     36  C   UNL A   1      37.528  32.832  31.177  1.00  0.00     0.031 A 
ATOM     37  C   UNL A   1      38.158  31.621  30.552  1.00  0.00     0.074 A 
ATOM     38  C   UNL A   1      37.977  33.292  32.364  1.00  0.00     0.049 A 
ATOM     39  N   UNL A   1      39.141  30.880  30.996  1.00  0.00    -0.248 NA
ATOM     40  C   UNL A   1      37.597  31.167  29.269  1.00  0.00     0.031 C 
ATOM     41  C   UNL A   1      37.418  34.432  33.095  1.00  0.00     0.029 A 
ATOM     42  N   UNL A   1      38.997  32.852  33.169  1.00  0.00    -0.354 N 
ATOM     43  C   UNL A   1      39.312  29.873  30.056  1.00  0.00     0.074 A 
ATOM     44  C   UNL A   1      38.299  30.067  29.040  1.00  0.00     0.031 C 
ATOM     45  C   UNL A   1      38.113  34.611  34.228  1.00  0.00     0.029 A 
ATOM     46  C   UNL A   1      39.136  33.576  34.328  1.00  0.00     0.049 A 
ATOM     47  H   UNL A   1      39.575  32.088  32.938  1.00  0.00     0.167 HD
ATOM     48  C   UNL A   1      40.241  28.887  30.033  1.00  0.00     0.037 A 
ATOM     49  C   UNL A   1      39.981  33.416  35.364  1.00  0.00     0.037 A 
ATOM     50  C   UNL A   1      41.255  28.707  31.039  1.00  0.00     0.049 A 
ATOM     51  C   UNL A   1      40.985  32.298  35.323  1.00  0.00     0.074 A 
ATOM     52  C   UNL A   1      42.282  27.779  31.070  1.00  0.00     0.029 A 
ATOM     53  N   UNL A   1      41.366  29.464  32.196  1.00  0.00    -0.354 N 
ATOM     54  N   UNL A   1      41.186  31.402  34.387  1.00  0.00    -0.248 NA
ATOM     55  C   UNL A   1      41.882  32.169  36.480  1.00  0.00     0.031 C 
ATOM     56  C   UNL A   1      42.976  27.933  32.273  1.00  0.00     0.029 A 
ATOM     57  C   UNL A   1      42.421  28.997  32.965  1.00  0.00     0.049 A 
ATOM     58  H   UNL A   1      40.782  30.218  32.436  1.00  0.00     0.167 HD
ATOM     59  C   UNL A   1      42.245  30.619  34.831  1.00  0.00     0.074 A 
ATOM     60  C   UNL A   1      42.658  31.161  36.109  1.00  0.00     0.031 C 
ATOM     61  C   UNL A   1      42.820  29.546  34.236  1.00  0.00     0.037 A 
BRANCH  48  62
ATOM     62  C   UNL A   1      40.207  27.920  28.884  1.00  0.00     0.057 A 
ATOM     63  C   UNL A   1      40.901  28.162  27.691  1.00  0.00     0.134 A 
ATOM     64  C   UNL A   1      39.522  26.703  28.995  1.00  0.00     0.134 A 
ATOM     65  F   UNL A   1      41.569  29.312  27.515  1.00  0.00    -0.206 F 
ATOM     66  C   UNL A   1      40.899  27.238  26.644  1.00  0.00     0.040 A 
ATOM     67  C   UNL A   1      39.537  25.759  27.966  1.00  0.00     0.040 A 
ATOM     68  F   UNL A   1      38.842  26.403  30.112  1.00  0.00    -0.206 F 
ATOM     69  C   UNL A   1      40.224  26.028  26.785  1.00  0.00     0.006 A 
ENDBRANCH  48  62
BRANCH  49  70
ATOM     70  C   UNL A   1      39.914  34.332  36.532  1.00  0.00     0.057 A 
ATOM     71  C   UNL A   1      39.162  34.006  37.667  1.00  0.00     0.134 A 
ATOM     72  C   UNL A   1      40.581  35.564  36.534  1.00  0.00     0.134 A 
ATOM     73  F   UNL A   1      38.485  32.849  37.719  1.00  0.00    -0.206 F 
ATOM     74  C   UNL A   1      39.053  34.881  38.749  1.00  0.00     0.040 A 
ATOM     75  C   UNL A   1      40.506  36.435  37.622  1.00  0.00     0.040 A 
ATOM     76  F   UNL A   1      41.325  35.933  35.481  1.00  0.00    -0.206 F 
ATOM     77  C   UNL A   1      39.731  36.099  38.730  1.00  0.00     0.006 A 
ENDBRANCH  49  70
BRANCH  61  78
ATOM     78  C   UNL A   1      43.974  28.902  34.949  1.00  0.00     0.057 A 
ATOM     79  C   UNL A   1      43.791  27.837  35.840  1.00  0.00     0.134 A 
ATOM     80  C   UNL A   1      45.288  29.330  34.715  1.00  0.00     0.134 A 
ATOM     81  F   UNL A   1      42.558  27.387  36.119  1.00  0.00    -0.206 F 
ATOM     82  C   UNL A   1      44.870  27.236  36.490  1.00  0.00     0.040 A 
ATOM     83  C   UNL A   1      46.377  28.717  35.335  1.00  0.00     0.040 A 
ATOM     84  F   UNL A   1      45.534  30.339  33.866  1.00  0.00    -0.206 F 
ATOM     85  C   UNL A   1      46.169  27.671  36.232  1.00  0.00     0.006 A 
ENDBRANCH  61  78
ENDBRANCH  35  36
ENDBRANCH  27  30
ENDBRANCH  25  26
ENDBRANCH  24  25
ENDBRANCH  23  24
ENDBRANCH  22  23
ENDBRANCH   1  22
TORSDOF 18
ENDMDL
MODEL 3
REMARK VINA RESULT:     -10.4      4.424      8.948
REMARK SMILES CC[C@H](C(=O)NCCCCCCNC(=O)c1ccc(-c2c3nc(c(-c4c(F)cccc4F)c4ccc([nH]4)c(-c4c(F)cccc4F)c4nc(c(-c5c(F)cccc5F)c5ccc2[nH]5)C=C4)C=C3)cc1)[N@H+](C)Cc1cncn1C(C)C
REMARK SMILES IDX 8 1 7 2 6 3 4 4 5 5 3 7 2 8 1 9 70 10 71 11 72 13 73 14
REMARK SMILES IDX 74 15 77 16 75 17 76 18 78 19 79 20 80 21 9 22 10 23 11 24
REMARK SMILES IDX 12 25 13 26 14 27 15 29 16 30 17 31 69 32 18 33 68 34 19 35
REMARK SMILES IDX 20 36 21 37 62 38 22 39 67 40 61 41 63 42 23 43 66 44 60 45
REMARK SMILES IDX 59 46 24 48 50 49 33 50 49 51 34 52 37 53 48 54 64 55 35 56
REMARK SMILES IDX 36 57 47 59 65 60 38 61 25 62 26 63 31 64 27 65 28 66 30 67
REMARK SMILES IDX 32 68 29 69 51 70 52 71 57 72 53 73 54 74 56 75 58 76 55 77
REMARK SMILES IDX 39 78 40 79 45 80 41 81 42 82 44 83 46 84 43 85
REMARK H PARENT 6 6 70 12 13 28 63 47 37 58
REMARK Flexibility Score: inf
ROOT
ATOM      1  C   UNL A   1      33.686  20.769  25.511  1.00  0.00     0.021 C 
ENDROOT
BRANCH   1   2
ATOM      2  C   UNL A   1      32.603  21.520  24.757  1.00  0.00     0.116 C 
BRANCH   2   3
ATOM      3  N   UNL A   1      32.920  21.897  23.398  1.00  0.00    -0.351 N 
ATOM      4  C   UNL A   1      33.237  23.160  22.939  1.00  0.00     0.278 C 
ATOM      5  O   UNL A   1      33.581  23.267  21.761  1.00  0.00    -0.268 OA
ATOM      6  H   UNL A   1      32.909  21.175  22.727  1.00  0.00     0.163 HD
BRANCH   4   7
ATOM      7  C   UNL A   1      33.077  24.366  23.915  1.00  0.00     0.273 C 
BRANCH   7   8
ATOM      8  C   UNL A   1      34.398  24.994  24.413  1.00  0.00     0.072 C 
ATOM      9  C   UNL A   1      35.072  24.384  25.634  1.00  0.00     0.011 C 
ENDBRANCH   7   8
BRANCH   7  10
ATOM     10  N   UNL A   1      32.100  25.379  23.473  1.00  0.00    -0.322 N 
ATOM     11  C   UNL A   1      30.701  25.027  23.541  1.00  0.00     0.333 C 
ATOM     12  H   UNL A   1      32.397  25.925  24.281  1.00  0.00     0.348 HD
BRANCH  10  13
ATOM     13  C   UNL A   1      32.468  26.586  22.764  1.00  0.00     0.319 C 
BRANCH  13  14
ATOM     14  C   UNL A   1      32.193  27.822  23.554  1.00  0.00     0.093 A 
ATOM     15  C   UNL A   1      32.992  28.416  24.515  1.00  0.00     0.140 A 
ATOM     16  N   UNL A   1      31.067  28.624  23.507  1.00  0.00    -0.327 N 
ATOM     17  N   UNL A   1      32.344  29.446  25.135  1.00  0.00    -0.245 NA
ATOM     18  C   UNL A   1      31.178  29.522  24.540  1.00  0.00     0.200 A 
BRANCH  16  19
ATOM     19  C   UNL A   1      29.963  28.601  22.549  1.00  0.00     0.082 C 
ATOM     20  C   UNL A   1      28.630  28.153  23.158  1.00  0.00     0.031 C 
ATOM     21  C   UNL A   1      29.779  29.966  21.878  1.00  0.00     0.031 C 
ENDBRANCH  16  19
ENDBRANCH  13  14
ENDBRANCH  10  13
ENDBRANCH   7  10
ENDBRANCH   4   7
ENDBRANCH   2   3
ENDBRANCH   1   2
BRANCH   1  22
ATOM     22  C   UNL A   1      34.922  20.388  24.696  1.00  0.00     0.002 C 
BRANCH  22  23
ATOM     23  C   UNL A   1      36.263  20.973  25.152  1.00  0.00     0.002 C 
BRANCH  23  24
ATOM     24  C   UNL A   1      37.505  20.100  24.950  1.00  0.00     0.021 C 
BRANCH  24  25
ATOM     25  C   UNL A   1      38.771  20.557  25.666  1.00  0.00     0.116 C 
BRANCH  25  26
ATOM     26  N   UNL A   1      39.802  19.534  25.709  1.00  0.00    -0.352 N 
ATOM     27  C   UNL A   1      41.117  19.631  26.084  1.00  0.00     0.251 C 
ATOM     28  H   UNL A   1      39.513  18.636  25.426  1.00  0.00     0.163 HD
ATOM     29  O   UNL A   1      41.871  18.670  25.940  1.00  0.00    -0.269 OA
BRANCH  27  30
ATOM     30  C   UNL A   1      41.640  20.899  26.629  1.00  0.00     0.039 A 
ATOM     31  C   UNL A   1      42.188  21.830  25.742  1.00  0.00     0.014 A 
ATOM     32  C   UNL A   1      41.586  21.179  27.998  1.00  0.00     0.014 A 
ATOM     33  C   UNL A   1      42.610  23.073  26.217  1.00  0.00     0.010 A 
ATOM     34  C   UNL A   1      41.942  22.444  28.459  1.00  0.00     0.010 A 
ATOM     35  C   UNL A   1      42.446  23.407  27.571  1.00  0.00    -0.014 A 
BRANCH  35  36
ATOM     36  C   UNL A   1      42.754  24.775  28.060  1.00  0.00     0.031 A 
ATOM     37  C   UNL A   1      44.151  25.147  28.468  1.00  0.00     0.074 A 
ATOM     38  C   UNL A   1      41.750  25.665  28.194  1.00  0.00     0.049 A 
ATOM     39  N   UNL A   1      44.591  26.273  28.970  1.00  0.00    -0.248 NA
ATOM     40  C   UNL A   1      45.187  24.113  28.313  1.00  0.00     0.031 C 
ATOM     41  C   UNL A   1      40.344  25.408  27.877  1.00  0.00     0.029 A 
ATOM     42  N   UNL A   1      41.755  26.962  28.643  1.00  0.00    -0.354 N 
ATOM     43  C   UNL A   1      45.948  26.081  29.196  1.00  0.00     0.074 A 
ATOM     44  C   UNL A   1      46.250  24.716  28.823  1.00  0.00     0.031 C 
ATOM     45  C   UNL A   1      39.627  26.515  28.122  1.00  0.00     0.029 A 
ATOM     46  C   UNL A   1      40.511  27.545  28.656  1.00  0.00     0.049 A 
ATOM     47  H   UNL A   1      42.572  27.431  28.930  1.00  0.00     0.167 HD
ATOM     48  C   UNL A   1      46.861  26.970  29.656  1.00  0.00     0.037 A 
ATOM     49  C   UNL A   1      40.121  28.767  29.066  1.00  0.00     0.037 A 
ATOM     50  C   UNL A   1      46.557  28.332  30.012  1.00  0.00     0.049 A 
ATOM     51  C   UNL A   1      41.153  29.724  29.596  1.00  0.00     0.074 A 
ATOM     52  C   UNL A   1      47.426  29.328  30.424  1.00  0.00     0.029 A 
ATOM     53  N   UNL A   1      45.286  28.887  30.007  1.00  0.00    -0.354 N 
ATOM     54  N   UNL A   1      42.446  29.555  29.728  1.00  0.00    -0.248 NA
ATOM     55  C   UNL A   1      40.673  31.043  30.031  1.00  0.00     0.031 C 
ATOM     56  C   UNL A   1      46.674  30.467  30.727  1.00  0.00     0.029 A 
ATOM     57  C   UNL A   1      45.344  30.201  30.446  1.00  0.00     0.049 A 
ATOM     58  H   UNL A   1      44.466  28.418  29.734  1.00  0.00     0.167 HD
ATOM     59  C   UNL A   1      42.936  30.751  30.238  1.00  0.00     0.074 A 
ATOM     60  C   UNL A   1      41.804  31.644  30.369  1.00  0.00     0.031 C 
ATOM     61  C   UNL A   1      44.208  31.078  30.572  1.00  0.00     0.037 A 
BRANCH  48  62
ATOM     62  C   UNL A   1      48.281  26.502  29.804  1.00  0.00     0.057 A 
ATOM     63  C   UNL A   1      48.733  25.864  30.967  1.00  0.00     0.134 A 
ATOM     64  C   UNL A   1      49.190  26.636  28.747  1.00  0.00     0.134 A 
ATOM     65  F   UNL A   1      47.916  25.712  32.020  1.00  0.00    -0.206 F 
ATOM     66  C   UNL A   1      50.042  25.393  31.080  1.00  0.00     0.040 A 
ATOM     67  C   UNL A   1      50.494  26.143  28.838  1.00  0.00     0.040 A 
ATOM     68  F   UNL A   1      48.822  27.231  27.603  1.00  0.00    -0.206 F 
ATOM     69  C   UNL A   1      50.924  25.524  30.009  1.00  0.00     0.006 A 
ENDBRANCH  48  62
BRANCH  49  70
ATOM     70  C   UNL A   1      38.689  29.157  29.000  1.00  0.00     0.057 A 
ATOM     71  C   UNL A   1      37.856  29.052  30.121  1.00  0.00     0.134 A 
ATOM     72  C   UNL A   1      38.112  29.622  27.812  1.00  0.00     0.134 A 
ATOM     73  F   UNL A   1      38.344  28.594  31.284  1.00  0.00    -0.206 F 
ATOM     74  C   UNL A   1      36.498  29.369  30.056  1.00  0.00     0.040 A 
ATOM     75  C   UNL A   1      36.763  29.972  27.740  1.00  0.00     0.040 A 
ATOM     76  F   UNL A   1      38.857  29.754  26.704  1.00  0.00    -0.206 F 
ATOM     77  C   UNL A   1      35.950  29.836  28.863  1.00  0.00     0.006 A 
ENDBRANCH  49  70
BRANCH  61  78
ATOM     78  C   UNL A   1      44.447  32.468  31.088  1.00  0.00     0.057 A 
ATOM     79  C   UNL A   1      44.647  33.553  30.226  1.00  0.00     0.134 A 
ATOM     80  C   UNL A   1      44.441  32.730  32.465  1.00  0.00     0.134 A 
ATOM     81  F   UNL A   1      44.677  33.370  28.897  1.00  0.00    -0.206 F 
ATOM     82  C   UNL A   1      44.856  34.844  30.714  1.00  0.00     0.040 A 
ATOM     83  C   UNL A   1      44.618  34.020  32.964  1.00  0.00     0.040 A 
ATOM     84  F   UNL A   1      44.246  31.737  33.346  1.00  0.00    -0.206 F 
ATOM     85  C   UNL A   1      44.834  35.081  32.087  1.00  0.00     0.006 A 
ENDBRANCH  61  78
ENDBRANCH  35  36
ENDBRANCH  27  30
ENDBRANCH  25  26
ENDBRANCH  24  25
ENDBRANCH  23  24
ENDBRANCH  22  23
ENDBRANCH   1  22
TORSDOF 18
ENDMDL
