MODEL 1
REMARK VINA RESULT:     -11.2      0.000      0.000
REMARK SMILES COCC[C@]1(C(=O)NCCCCCCNC(=O)c2ccc(-c3c4nc(c(-c5c(F)cccc5F)c5ccc([nH]5)c(-c5c(F)cccc5F)c5nc(c(-c6c(F)cccc6F)c6ccc3[nH]6)C=C5)C=C4)cc2)CCCN(C(=O)Cc2c(C)nc(C)[nH]c2=O)C1
REMARK SMILES IDX 11 1 10 2 9 3 8 4 6 5 7 6 5 8 72 9 88 10 73 11 75 12 74 13
REMARK SMILES IDX 4 14 3 15 2 16 1 17 76 18 77 19 78 20 79 21 80 22 86 23
REMARK SMILES IDX 81 24 82 25 85 26 87 27 83 28 84 30 12 31 13 32 14 33 15 34
REMARK SMILES IDX 16 35 17 37 18 38 19 39 71 40 20 41 70 42 21 43 22 44 23 45
REMARK SMILES IDX 64 46 24 47 69 48 63 49 65 50 25 51 68 52 62 53 61 54 26 56
REMARK SMILES IDX 52 57 35 58 51 59 36 60 39 61 50 62 66 63 37 64 38 65 49 67
REMARK SMILES IDX 67 68 40 69 27 70 28 71 33 72 29 73 30 74 32 75 34 76 31 77
REMARK SMILES IDX 53 78 54 79 59 80 55 81 56 82 58 83 60 84 57 85 41 86 42 87
REMARK SMILES IDX 47 88 43 89 44 90 46 91 48 92 45 93
REMARK H PARENT 8 7 85 29 15 36 65 55 39 66
REMARK Flexibility Score: inf
ROOT
ATOM      1  C   UNL A   1      37.034  21.887  24.213  1.00  0.00     0.002 C 
ENDROOT
BRANCH   1   2
ATOM      2  C   UNL A   1      37.380  23.079  25.111  1.00  0.00     0.021 C 
BRANCH   2   3
ATOM      3  C   UNL A   1      36.180  23.765  25.769  1.00  0.00     0.116 C 
BRANCH   3   4
ATOM      4  N   UNL A   1      35.516  22.906  26.732  1.00  0.00    -0.356 N 
ATOM      5  C   UNL A   1      34.217  22.525  26.909  1.00  0.00     0.228 C 
ATOM      6  O   UNL A   1      34.020  21.783  27.873  1.00  0.00    -0.274 OA
ATOM      7  H   UNL A   1      36.130  22.516  27.396  1.00  0.00     0.163 HD
BRANCH   5   8
ATOM      8  C   UNL A   1      33.069  22.997  25.979  1.00  0.00     0.069 C 
ATOM      9  C   UNL A   1      31.764  22.236  26.409  1.00  0.00     0.021 C 
ATOM     10  C   UNL A   1      32.928  24.540  26.087  1.00  0.00     0.136 C 
ATOM     11  C   UNL A   1      30.464  22.938  26.004  1.00  0.00     0.023 C 
ATOM     12  N   UNL A   1      31.627  25.022  25.613  1.00  0.00    -0.341 N 
ATOM     13  C   UNL A   1      30.509  24.426  26.322  1.00  0.00     0.119 C 
BRANCH   8  14
ATOM     14  C   UNL A   1      33.348  22.539  24.497  1.00  0.00     0.047 C 
BRANCH  14  15
ATOM     15  C   UNL A   1      32.865  21.174  23.993  1.00  0.00     0.161 C 
BRANCH  15  16
ATOM     16  O   UNL A   1      33.632  20.078  24.465  1.00  0.00    -0.385 OA
ATOM     17  C   UNL A   1      32.860  18.991  24.949  1.00  0.00     0.194 C 
ENDBRANCH  15  16
ENDBRANCH  14  15
ENDBRANCH   8  14
BRANCH  12  18
ATOM     18  C   UNL A   1      31.553  25.952  24.581  1.00  0.00     0.227 C 
ATOM     19  O   UNL A   1      32.032  25.708  23.469  1.00  0.00    -0.275 OA
BRANCH  18  20
ATOM     20  C   UNL A   1      30.855  27.302  24.795  1.00  0.00     0.143 C 
BRANCH  20  21
ATOM     21  C   UNL A   1      31.762  28.290  25.480  1.00  0.00     0.048 A 
ATOM     22  C   UNL A   1      32.763  29.024  24.946  1.00  0.00     0.049 A 
ATOM     23  C   UNL A   1      31.618  28.407  26.953  1.00  0.00     0.254 A 
ATOM     24  C   UNL A   1      33.220  28.905  23.514  1.00  0.00     0.067 C 
ATOM     25  N   UNL A   1      33.468  29.984  25.646  1.00  0.00    -0.240 NA
ATOM     26  N   UNL A   1      32.198  29.486  27.530  1.00  0.00    -0.311 N 
ATOM     27  O   UNL A   1      31.037  27.571  27.636  1.00  0.00    -0.269 OA
ATOM     28  C   UNL A   1      33.135  30.213  26.871  1.00  0.00     0.105 A 
ATOM     29  H   UNL A   1      31.935  29.747  28.443  1.00  0.00     0.171 HD
ATOM     30  C   UNL A   1      33.806  31.284  27.679  1.00  0.00     0.087 C 
ENDBRANCH  20  21
ENDBRANCH  18  20
ENDBRANCH  12  18
ENDBRANCH   5   8
ENDBRANCH   3   4
ENDBRANCH   2   3
ENDBRANCH   1   2
BRANCH   1  31
ATOM     31  C   UNL A   1      36.968  20.527  24.913  1.00  0.00     0.002 C 
BRANCH  31  32
ATOM     32  C   UNL A   1      38.247  19.687  24.853  1.00  0.00     0.021 C 
BRANCH  32  33
ATOM     33  C   UNL A   1      39.263  19.967  25.955  1.00  0.00     0.116 C 
BRANCH  33  34
ATOM     34  N   UNL A   1      40.408  19.078  25.896  1.00  0.00    -0.352 N 
ATOM     35  C   UNL A   1      41.742  19.366  26.054  1.00  0.00     0.251 C 
ATOM     36  H   UNL A   1      40.199  18.133  25.717  1.00  0.00     0.163 HD
ATOM     37  O   UNL A   1      42.589  18.516  25.820  1.00  0.00    -0.269 OA
BRANCH  35  38
ATOM     38  C   UNL A   1      42.155  20.720  26.487  1.00  0.00     0.039 A 
ATOM     39  C   UNL A   1      42.541  21.645  25.515  1.00  0.00     0.014 A 
ATOM     40  C   UNL A   1      42.175  21.071  27.840  1.00  0.00     0.014 A 
ATOM     41  C   UNL A   1      42.895  22.942  25.894  1.00  0.00     0.010 A 
ATOM     42  C   UNL A   1      42.466  22.381  28.212  1.00  0.00     0.010 A 
ATOM     43  C   UNL A   1      42.833  23.327  27.243  1.00  0.00    -0.014 A 
BRANCH  43  44
ATOM     44  C   UNL A   1      43.153  24.716  27.658  1.00  0.00     0.031 A 
ATOM     45  C   UNL A   1      44.585  25.156  27.781  1.00  0.00     0.074 A 
ATOM     46  C   UNL A   1      42.157  25.562  27.985  1.00  0.00     0.049 A 
ATOM     47  N   UNL A   1      45.065  26.302  28.192  1.00  0.00    -0.248 NA
ATOM     48  C   UNL A   1      45.614  24.168  27.419  1.00  0.00     0.031 C 
ATOM     49  C   UNL A   1      40.728  25.240  27.952  1.00  0.00     0.029 A 
ATOM     50  N   UNL A   1      42.195  26.863  28.418  1.00  0.00    -0.354 N 
ATOM     51  C   UNL A   1      46.447  26.167  28.156  1.00  0.00     0.074 A 
ATOM     52  C   UNL A   1      46.729  24.815  27.726  1.00  0.00     0.031 C 
ATOM     53  C   UNL A   1      40.027  26.321  28.330  1.00  0.00     0.029 A 
ATOM     54  C   UNL A   1      40.954  27.398  28.663  1.00  0.00     0.049 A 
ATOM     55  H   UNL A   1      43.032  27.365  28.543  1.00  0.00     0.167 HD
ATOM     56  C   UNL A   1      47.395  27.092  28.437  1.00  0.00     0.037 A 
ATOM     57  C   UNL A   1      40.602  28.619  29.107  1.00  0.00     0.037 A 
ATOM     58  C   UNL A   1      47.113  28.447  28.830  1.00  0.00     0.049 A 
ATOM     59  C   UNL A   1      41.673  29.633  29.398  1.00  0.00     0.074 A 
ATOM     60  C   UNL A   1      48.005  29.479  29.069  1.00  0.00     0.029 A 
ATOM     61  N   UNL A   1      45.843  28.959  29.043  1.00  0.00    -0.354 N 
ATOM     62  N   UNL A   1      42.975  29.512  29.299  1.00  0.00    -0.248 NA
ATOM     63  C   UNL A   1      41.226  30.956  29.857  1.00  0.00     0.031 C 
ATOM     64  C   UNL A   1      47.274  30.606  29.460  1.00  0.00     0.029 A 
ATOM     65  C   UNL A   1      45.927  30.287  29.427  1.00  0.00     0.049 A 
ATOM     66  H   UNL A   1      45.004  28.454  28.936  1.00  0.00     0.167 HD
ATOM     67  C   UNL A   1      43.501  30.746  29.658  1.00  0.00     0.074 A 
ATOM     68  C   UNL A   1      42.377  31.606  29.966  1.00  0.00     0.031 C 
ATOM     69  C   UNL A   1      44.797  31.131  29.725  1.00  0.00     0.037 A 
BRANCH  56  70
ATOM     70  C   UNL A   1      48.830  26.669  28.322  1.00  0.00     0.057 A 
ATOM     71  C   UNL A   1      49.534  26.764  27.115  1.00  0.00     0.134 A 
ATOM     72  C   UNL A   1      49.526  26.192  29.440  1.00  0.00     0.134 A 
ATOM     73  F   UNL A   1      48.921  27.201  26.004  1.00  0.00    -0.206 F 
ATOM     74  C   UNL A   1      50.872  26.377  27.017  1.00  0.00     0.040 A 
ATOM     75  C   UNL A   1      50.870  25.826  29.361  1.00  0.00     0.040 A 
ATOM     76  F   UNL A   1      48.912  26.081  30.629  1.00  0.00    -0.206 F 
ATOM     77  C   UNL A   1      51.545  25.912  28.145  1.00  0.00     0.006 A 
ENDBRANCH  56  70
BRANCH  57  78
ATOM     78  C   UNL A   1      39.169  28.959  29.280  1.00  0.00     0.057 A 
ATOM     79  C   UNL A   1      38.420  29.481  28.219  1.00  0.00     0.134 A 
ATOM     80  C   UNL A   1      38.513  28.769  30.502  1.00  0.00     0.134 A 
ATOM     81  F   UNL A   1      39.000  29.701  27.029  1.00  0.00    -0.206 F 
ATOM     82  C   UNL A   1      37.074  29.816  28.369  1.00  0.00     0.040 A 
ATOM     83  C   UNL A   1      37.162  29.079  30.660  1.00  0.00     0.040 A 
ATOM     84  F   UNL A   1      39.175  28.266  31.554  1.00  0.00    -0.206 F 
ATOM     85  C   UNL A   1      36.440  29.610  29.593  1.00  0.00     0.006 A 
ENDBRANCH  57  78
BRANCH  69  86
ATOM     86  C   UNL A   1      45.070  32.552  30.121  1.00  0.00     0.057 A 
ATOM     87  C   UNL A   1      45.311  32.913  31.452  1.00  0.00     0.134 A 
ATOM     88  C   UNL A   1      45.135  33.561  29.152  1.00  0.00     0.134 A 
ATOM     89  F   UNL A   1      45.250  31.994  32.427  1.00  0.00    -0.206 F 
ATOM     90  C   UNL A   1      45.585  34.234  31.808  1.00  0.00     0.040 A 
ATOM     91  C   UNL A   1      45.432  34.881  29.493  1.00  0.00     0.040 A 
ATOM     92  F   UNL A   1      44.923  33.278  27.858  1.00  0.00    -0.206 F 
ATOM     93  C   UNL A   1      45.655  35.221  30.826  1.00  0.00     0.006 A 
ENDBRANCH  69  86
ENDBRANCH  43  44
ENDBRANCH  35  38
ENDBRANCH  33  34
ENDBRANCH  32  33
ENDBRANCH  31  32
ENDBRANCH   1  31
TORSDOF 19
ENDMDL
MODEL 2
REMARK VINA RESULT:     -11.2      1.070      1.959
REMARK SMILES COCC[C@]1(C(=O)NCCCCCCNC(=O)c2ccc(-c3c4nc(c(-c5c(F)cccc5F)c5ccc([nH]5)c(-c5c(F)cccc5F)c5nc(c(-c6c(F)cccc6F)c6ccc3[nH]6)C=C5)C=C4)cc2)CCCN(C(=O)Cc2c(C)nc(C)[nH]c2=O)C1
REMARK SMILES IDX 11 1 10 2 9 3 8 4 6 5 7 6 5 8 72 9 88 10 73 11 75 12 74 13
REMARK SMILES IDX 4 14 3 15 2 16 1 17 76 18 77 19 78 20 79 21 80 22 86 23
REMARK SMILES IDX 81 24 82 25 85 26 87 27 83 28 84 30 12 31 13 32 14 33 15 34
REMARK SMILES IDX 16 35 17 37 18 38 19 39 71 40 20 41 70 42 21 43 22 44 23 45
REMARK SMILES IDX 64 46 24 47 69 48 63 49 65 50 25 51 68 52 62 53 61 54 26 56
REMARK SMILES IDX 52 57 35 58 51 59 36 60 39 61 50 62 66 63 37 64 38 65 49 67
REMARK SMILES IDX 67 68 40 69 27 70 28 71 33 72 29 73 30 74 32 75 34 76 31 77
REMARK SMILES IDX 53 78 54 79 59 80 55 81 56 82 58 83 60 84 57 85 41 86 42 87
REMARK SMILES IDX 47 88 43 89 44 90 46 91 48 92 45 93
REMARK H PARENT 8 7 85 29 15 36 65 55 39 66
REMARK Flexibility Score: inf
ROOT
ATOM      1  C   UNL A   1      36.625  21.808  24.264  1.00  0.00     0.002 C 
ENDROOT
BRANCH   1   2
ATOM      2  C   UNL A   1      37.090  22.998  25.110  1.00  0.00     0.021 C 
BRANCH   2   3
ATOM      3  C   UNL A   1      35.965  23.802  25.767  1.00  0.00     0.116 C 
BRANCH   3   4
ATOM      4  N   UNL A   1      35.271  23.041  26.790  1.00  0.00    -0.356 N 
ATOM      5  C   UNL A   1      33.954  22.760  27.016  1.00  0.00     0.228 C 
ATOM      6  O   UNL A   1      33.733  22.084  28.023  1.00  0.00    -0.274 OA
ATOM      7  H   UNL A   1      35.874  22.645  27.459  1.00  0.00     0.163 HD
BRANCH   5   8
ATOM      8  C   UNL A   1      32.816  23.262  26.090  1.00  0.00     0.069 C 
ATOM      9  C   UNL A   1      31.458  23.067  26.853  1.00  0.00     0.021 C 
ATOM     10  C   UNL A   1      33.084  24.744  25.709  1.00  0.00     0.136 C 
ATOM     11  C   UNL A   1      30.323  23.972  26.361  1.00  0.00     0.023 C 
ATOM     12  N   UNL A   1      31.883  25.428  25.222  1.00  0.00    -0.341 N 
ATOM     13  C   UNL A   1      30.792  25.408  26.181  1.00  0.00     0.119 C 
BRANCH   8  14
ATOM     14  C   UNL A   1      32.711  22.343  24.813  1.00  0.00     0.047 C 
BRANCH  14  15
ATOM     15  C   UNL A   1      32.341  20.861  24.942  1.00  0.00     0.161 C 
BRANCH  15  16
ATOM     16  O   UNL A   1      33.232  19.981  24.275  1.00  0.00    -0.385 OA
ATOM     17  C   UNL A   1      32.979  18.605  24.509  1.00  0.00     0.194 C 
ENDBRANCH  15  16
ENDBRANCH  14  15
ENDBRANCH   8  14
BRANCH  12  18
ATOM     18  C   UNL A   1      31.865  26.007  23.958  1.00  0.00     0.227 C 
ATOM     19  O   UNL A   1      31.152  25.550  23.058  1.00  0.00    -0.275 OA
BRANCH  18  20
ATOM     20  C   UNL A   1      32.720  27.246  23.654  1.00  0.00     0.143 C 
BRANCH  20  21
ATOM     21  C   UNL A   1      32.345  28.405  24.540  1.00  0.00     0.048 A 
ATOM     22  C   UNL A   1      32.914  28.793  25.702  1.00  0.00     0.049 A 
ATOM     23  C   UNL A   1      31.133  29.167  24.152  1.00  0.00     0.254 A 
ATOM     24  C   UNL A   1      34.023  28.037  26.388  1.00  0.00     0.067 C 
ATOM     25  N   UNL A   1      32.558  29.941  26.384  1.00  0.00    -0.240 NA
ATOM     26  N   UNL A   1      30.962  30.371  24.748  1.00  0.00    -0.311 N 
ATOM     27  O   UNL A   1      30.300  28.739  23.360  1.00  0.00    -0.269 OA
ATOM     28  C   UNL A   1      31.651  30.700  25.870  1.00  0.00     0.105 A 
ATOM     29  H   UNL A   1      30.328  31.017  24.361  1.00  0.00     0.171 HD
ATOM     30  C   UNL A   1      31.255  31.995  26.513  1.00  0.00     0.087 C 
ENDBRANCH  20  21
ENDBRANCH  18  20
ENDBRANCH  12  18
ENDBRANCH   5   8
ENDBRANCH   3   4
ENDBRANCH   2   3
ENDBRANCH   1   2
BRANCH   1  31
ATOM     31  C   UNL A   1      36.631  20.450  24.971  1.00  0.00     0.002 C 
BRANCH  31  32
ATOM     32  C   UNL A   1      37.937  19.657  24.876  1.00  0.00     0.021 C 
BRANCH  32  33
ATOM     33  C   UNL A   1      39.043  20.106  25.824  1.00  0.00     0.116 C 
BRANCH  33  34
ATOM     34  N   UNL A   1      40.191  19.219  25.801  1.00  0.00    -0.352 N 
ATOM     35  C   UNL A   1      41.511  19.498  26.062  1.00  0.00     0.251 C 
ATOM     36  H   UNL A   1      39.996  18.284  25.565  1.00  0.00     0.163 HD
ATOM     37  O   UNL A   1      42.374  18.658  25.846  1.00  0.00    -0.269 OA
BRANCH  35  38
ATOM     38  C   UNL A   1      41.892  20.830  26.584  1.00  0.00     0.039 A 
ATOM     39  C   UNL A   1      42.222  21.836  25.674  1.00  0.00     0.014 A 
ATOM     40  C   UNL A   1      41.937  21.081  27.958  1.00  0.00     0.014 A 
ATOM     41  C   UNL A   1      42.543  23.114  26.140  1.00  0.00     0.010 A 
ATOM     42  C   UNL A   1      42.195  22.370  28.419  1.00  0.00     0.010 A 
ATOM     43  C   UNL A   1      42.505  23.396  27.514  1.00  0.00    -0.014 A 
BRANCH  43  44
ATOM     44  C   UNL A   1      42.791  24.761  28.023  1.00  0.00     0.031 A 
ATOM     45  C   UNL A   1      44.192  25.144  28.412  1.00  0.00     0.074 A 
ATOM     46  C   UNL A   1      41.781  25.635  28.194  1.00  0.00     0.049 A 
ATOM     47  N   UNL A   1      44.628  26.260  28.937  1.00  0.00    -0.248 NA
ATOM     48  C   UNL A   1      45.236  24.126  28.208  1.00  0.00     0.031 C 
ATOM     49  C   UNL A   1      40.372  25.369  27.898  1.00  0.00     0.029 A 
ATOM     50  N   UNL A   1      41.784  26.923  28.669  1.00  0.00    -0.354 N 
ATOM     51  C   UNL A   1      45.990  26.073  29.143  1.00  0.00     0.074 A 
ATOM     52  C   UNL A   1      46.299  24.723  28.728  1.00  0.00     0.031 C 
ATOM     53  C   UNL A   1      39.650  26.465  28.179  1.00  0.00     0.029 A 
ATOM     54  C   UNL A   1      40.538  27.498  28.705  1.00  0.00     0.049 A 
ATOM     55  H   UNL A   1      42.601  27.390  28.955  1.00  0.00     0.167 HD
ATOM     56  C   UNL A   1      46.902  26.954  29.616  1.00  0.00     0.037 A 
ATOM     57  C   UNL A   1      40.152  28.720  29.119  1.00  0.00     0.037 A 
ATOM     58  C   UNL A   1      46.599  28.309  29.996  1.00  0.00     0.049 A 
ATOM     59  C   UNL A   1      41.187  29.685  29.627  1.00  0.00     0.074 A 
ATOM     60  C   UNL A   1      47.467  29.300  30.421  1.00  0.00     0.029 A 
ATOM     61  N   UNL A   1      45.328  28.863  29.996  1.00  0.00    -0.354 N 
ATOM     62  N   UNL A   1      42.480  29.517  29.756  1.00  0.00    -0.248 NA
ATOM     63  C   UNL A   1      40.709  31.012  30.040  1.00  0.00     0.031 C 
ATOM     64  C   UNL A   1      46.715  30.444  30.712  1.00  0.00     0.029 A 
ATOM     65  C   UNL A   1      45.386  30.177  30.430  1.00  0.00     0.049 A 
ATOM     66  H   UNL A   1      44.506  28.393  29.726  1.00  0.00     0.167 HD
ATOM     67  C   UNL A   1      42.974  30.721  30.242  1.00  0.00     0.074 A 
ATOM     68  C   UNL A   1      41.842  31.615  30.372  1.00  0.00     0.031 C 
ATOM     69  C   UNL A   1      44.250  31.056  30.550  1.00  0.00     0.037 A 
BRANCH  56  70
ATOM     70  C   UNL A   1      48.319  26.480  29.745  1.00  0.00     0.057 A 
ATOM     71  C   UNL A   1      48.777  25.826  30.896  1.00  0.00     0.134 A 
ATOM     72  C   UNL A   1      49.229  26.651  28.694  1.00  0.00     0.134 A 
ATOM     73  F   UNL A   1      47.960  25.642  31.944  1.00  0.00    -0.206 F 
ATOM     74  C   UNL A   1      50.095  25.378  31.006  1.00  0.00     0.040 A 
ATOM     75  C   UNL A   1      50.542  26.186  28.782  1.00  0.00     0.040 A 
ATOM     76  F   UNL A   1      48.853  27.265  27.561  1.00  0.00    -0.206 F 
ATOM     77  C   UNL A   1      50.979  25.553  29.944  1.00  0.00     0.006 A 
ENDBRANCH  56  70
BRANCH  57  78
ATOM     78  C   UNL A   1      38.723  29.110  29.045  1.00  0.00     0.057 A 
ATOM     79  C   UNL A   1      37.889  28.999  30.164  1.00  0.00     0.134 A 
ATOM     80  C   UNL A   1      38.157  29.602  27.863  1.00  0.00     0.134 A 
ATOM     81  F   UNL A   1      38.370  28.517  31.320  1.00  0.00    -0.206 F 
ATOM     82  C   UNL A   1      36.540  29.352  30.107  1.00  0.00     0.040 A 
ATOM     83  C   UNL A   1      36.815  29.979  27.799  1.00  0.00     0.040 A 
ATOM     84  F   UNL A   1      38.907  29.738  26.760  1.00  0.00    -0.206 F 
ATOM     85  C   UNL A   1      36.001  29.848  28.922  1.00  0.00     0.006 A 
ENDBRANCH  57  78
BRANCH  69  86
ATOM     86  C   UNL A   1      44.494  32.454  31.032  1.00  0.00     0.057 A 
ATOM     87  C   UNL A   1      44.740  33.508  30.143  1.00  0.00     0.134 A 
ATOM     88  C   UNL A   1      44.441  32.757  32.398  1.00  0.00     0.134 A 
ATOM     89  F   UNL A   1      44.817  33.279  28.823  1.00  0.00    -0.206 F 
ATOM     90  C   UNL A   1      44.946  34.811  30.599  1.00  0.00     0.040 A 
ATOM     91  C   UNL A   1      44.621  34.059  32.864  1.00  0.00     0.040 A 
ATOM     92  F   UNL A   1      44.200  31.793  33.300  1.00  0.00    -0.206 F 
ATOM     93  C   UNL A   1      44.878  35.090  31.963  1.00  0.00     0.006 A 
ENDBRANCH  69  86
ENDBRANCH  43  44
ENDBRANCH  35  38
ENDBRANCH  33  34
ENDBRANCH  32  33
ENDBRANCH  31  32
ENDBRANCH   1  31
TORSDOF 19
ENDMDL
MODEL 3
REMARK VINA RESULT:     -11.1      1.052      6.015
REMARK SMILES COCC[C@]1(C(=O)NCCCCCCNC(=O)c2ccc(-c3c4nc(c(-c5c(F)cccc5F)c5ccc([nH]5)c(-c5c(F)cccc5F)c5nc(c(-c6c(F)cccc6F)c6ccc3[nH]6)C=C5)C=C4)cc2)CCCN(C(=O)Cc2c(C)nc(C)[nH]c2=O)C1
REMARK SMILES IDX 11 1 10 2 9 3 8 4 6 5 7 6 5 8 72 9 88 10 73 11 75 12 74 13
REMARK SMILES IDX 4 14 3 15 2 16 1 17 76 18 77 19 78 20 79 21 80 22 86 23
REMARK SMILES IDX 81 24 82 25 85 26 87 27 83 28 84 30 12 31 13 32 14 33 15 34
REMARK SMILES IDX 16 35 17 37 18 38 19 39 71 40 20 41 70 42 21 43 22 44 23 45
REMARK SMILES IDX 64 46 24 47 69 48 63 49 65 50 25 51 68 52 62 53 61 54 26 56
REMARK SMILES IDX 52 57 35 58 51 59 36 60 39 61 50 62 66 63 37 64 38 65 49 67
REMARK SMILES IDX 67 68 40 69 27 70 28 71 33 72 29 73 30 74 32 75 34 76 31 77
REMARK SMILES IDX 53 78 54 79 59 80 55 81 56 82 58 83 60 84 57 85 41 86 42 87
REMARK SMILES IDX 47 88 43 89 44 90 46 91 48 92 45 93
REMARK H PARENT 8 7 85 29 15 36 65 55 39 66
REMARK Flexibility Score: inf
ROOT
ATOM      1  C   UNL A   1      36.655  21.813  24.327  1.00  0.00     0.002 C 
ENDROOT
BRANCH   1   2
ATOM      2  C   UNL A   1      37.093  22.993  25.200  1.00  0.00     0.021 C 
BRANCH   2   3
ATOM      3  C   UNL A   1      35.949  23.835  25.771  1.00  0.00     0.116 C 
BRANCH   3   4
ATOM      4  N   UNL A   1      35.206  23.128  26.799  1.00  0.00    -0.356 N 
ATOM      5  C   UNL A   1      33.875  22.916  27.014  1.00  0.00     0.228 C 
ATOM      6  O   UNL A   1      33.609  22.272  28.031  1.00  0.00    -0.274 OA
ATOM      7  H   UNL A   1      35.782  22.716  27.483  1.00  0.00     0.163 HD
BRANCH   5   8
ATOM      8  C   UNL A   1      32.773  23.455  26.065  1.00  0.00     0.069 C 
ATOM      9  C   UNL A   1      31.392  23.292  26.795  1.00  0.00     0.021 C 
ATOM     10  C   UNL A   1      33.090  24.932  25.702  1.00  0.00     0.136 C 
ATOM     11  C   UNL A   1      30.295  24.231  26.283  1.00  0.00     0.023 C 
ATOM     12  N   UNL A   1      31.920  25.652  25.193  1.00  0.00    -0.341 N 
ATOM     13  C   UNL A   1      30.806  25.655  26.125  1.00  0.00     0.119 C 
BRANCH   8  14
ATOM     14  C   UNL A   1      32.673  22.548  24.780  1.00  0.00     0.047 C 
BRANCH  14  15
ATOM     15  C   UNL A   1      32.332  21.058  24.895  1.00  0.00     0.161 C 
BRANCH  15  16
ATOM     16  O   UNL A   1      33.210  20.205  24.178  1.00  0.00    -0.385 OA
ATOM     17  C   UNL A   1      32.976  18.821  24.383  1.00  0.00     0.194 C 
ENDBRANCH  15  16
ENDBRANCH  14  15
ENDBRANCH   8  14
BRANCH  12  18
ATOM     18  C   UNL A   1      31.947  26.240  23.933  1.00  0.00     0.227 C 
ATOM     19  O   UNL A   1      31.277  25.783  23.002  1.00  0.00    -0.275 OA
BRANCH  18  20
ATOM     20  C   UNL A   1      32.801  27.489  23.673  1.00  0.00     0.143 C 
BRANCH  20  21
ATOM     21  C   UNL A   1      32.454  28.603  24.626  1.00  0.00     0.048 A 
ATOM     22  C   UNL A   1      33.090  28.968  25.760  1.00  0.00     0.049 A 
ATOM     23  C   UNL A   1      31.194  29.337  24.351  1.00  0.00     0.254 A 
ATOM     24  C   UNL A   1      34.268  28.225  26.340  1.00  0.00     0.067 C 
ATOM     25  N   UNL A   1      32.747  30.078  26.509  1.00  0.00    -0.240 NA
ATOM     26  N   UNL A   1      31.028  30.513  25.003  1.00  0.00    -0.311 N 
ATOM     27  O   UNL A   1      30.322  28.911  23.603  1.00  0.00    -0.269 OA
ATOM     28  C   UNL A   1      31.783  30.824  26.087  1.00  0.00     0.105 A 
ATOM     29  H   UNL A   1      30.349  31.151  24.686  1.00  0.00     0.171 HD
ATOM     30  C   UNL A   1      31.393  32.081  26.805  1.00  0.00     0.087 C 
ENDBRANCH  20  21
ENDBRANCH  18  20
ENDBRANCH  12  18
ENDBRANCH   5   8
ENDBRANCH   3   4
ENDBRANCH   2   3
ENDBRANCH   1   2
BRANCH   1  31
ATOM     31  C   UNL A   1      36.680  20.441  25.005  1.00  0.00     0.002 C 
BRANCH  31  32
ATOM     32  C   UNL A   1      37.967  19.633  24.825  1.00  0.00     0.021 C 
BRANCH  32  33
ATOM     33  C   UNL A   1      39.124  20.039  25.731  1.00  0.00     0.116 C 
BRANCH  33  34
ATOM     34  N   UNL A   1      40.156  19.022  25.807  1.00  0.00    -0.352 N 
ATOM     35  C   UNL A   1      41.504  19.165  26.032  1.00  0.00     0.251 C 
ATOM     36  H   UNL A   1      39.846  18.096  25.679  1.00  0.00     0.163 HD
ATOM     37  O   UNL A   1      42.255  18.208  25.911  1.00  0.00    -0.269 OA
BRANCH  35  38
ATOM     38  C   UNL A   1      42.051  20.491  26.398  1.00  0.00     0.039 A 
ATOM     39  C   UNL A   1      42.415  21.371  25.376  1.00  0.00     0.014 A 
ATOM     40  C   UNL A   1      42.217  20.860  27.736  1.00  0.00     0.014 A 
ATOM     41  C   UNL A   1      42.893  22.644  25.695  1.00  0.00     0.010 A 
ATOM     42  C   UNL A   1      42.634  22.151  28.053  1.00  0.00     0.010 A 
ATOM     43  C   UNL A   1      42.980  23.053  27.035  1.00  0.00    -0.014 A 
BRANCH  43  44
ATOM     44  C   UNL A   1      43.436  24.420  27.390  1.00  0.00     0.031 A 
ATOM     45  C   UNL A   1      42.439  25.460  27.820  1.00  0.00     0.074 A 
ATOM     46  C   UNL A   1      44.737  24.743  27.267  1.00  0.00     0.049 A 
ATOM     47  N   UNL A   1      42.633  26.722  28.105  1.00  0.00    -0.248 NA
ATOM     48  C   UNL A   1      41.035  25.030  27.917  1.00  0.00     0.031 C 
ATOM     49  C   UNL A   1      45.795  23.837  26.815  1.00  0.00     0.029 A 
ATOM     50  N   UNL A   1      45.390  25.927  27.500  1.00  0.00    -0.354 N 
ATOM     51  C   UNL A   1      41.377  27.240  28.396  1.00  0.00     0.074 A 
ATOM     52  C   UNL A   1      40.423  26.169  28.210  1.00  0.00     0.031 C 
ATOM     53  C   UNL A   1      46.967  24.493  26.823  1.00  0.00     0.029 A 
ATOM     54  C   UNL A   1      46.739  25.870  27.248  1.00  0.00     0.049 A 
ATOM     55  H   UNL A   1      44.936  26.740  27.819  1.00  0.00     0.167 HD
ATOM     56  C   UNL A   1      41.051  28.491  28.800  1.00  0.00     0.037 A 
ATOM     57  C   UNL A   1      47.686  26.823  27.344  1.00  0.00     0.037 A 
ATOM     58  C   UNL A   1      42.005  29.546  29.018  1.00  0.00     0.049 A 
ATOM     59  C   UNL A   1      47.300  28.199  27.810  1.00  0.00     0.074 A 
ATOM     60  C   UNL A   1      41.780  30.827  29.495  1.00  0.00     0.029 A 
ATOM     61  N   UNL A   1      43.365  29.443  28.775  1.00  0.00    -0.354 N 
ATOM     62  N   UNL A   1      46.118  28.658  28.142  1.00  0.00    -0.248 NA
ATOM     63  C   UNL A   1      48.381  29.188  27.919  1.00  0.00     0.031 C 
ATOM     64  C   UNL A   1      43.001  31.510  29.506  1.00  0.00     0.029 A 
ATOM     65  C   UNL A   1      43.991  30.642  29.075  1.00  0.00     0.049 A 
ATOM     66  H   UNL A   1      43.821  28.637  28.441  1.00  0.00     0.167 HD
ATOM     67  C   UNL A   1      46.316  29.979  28.522  1.00  0.00     0.074 A 
ATOM     68  C   UNL A   1      47.733  30.244  28.391  1.00  0.00     0.031 C 
ATOM     69  C   UNL A   1      45.405  30.889  28.943  1.00  0.00     0.037 A 
BRANCH  56  70
ATOM     70  C   UNL A   1      39.599  28.784  29.038  1.00  0.00     0.057 A 
ATOM     71  C   UNL A   1      39.013  28.636  30.302  1.00  0.00     0.134 A 
ATOM     72  C   UNL A   1      38.785  29.252  27.999  1.00  0.00     0.134 A 
ATOM     73  F   UNL A   1      39.736  28.180  31.337  1.00  0.00    -0.206 F 
ATOM     74  C   UNL A   1      37.663  28.919  30.519  1.00  0.00     0.040 A 
ATOM     75  C   UNL A   1      37.440  29.563  28.209  1.00  0.00     0.040 A 
ATOM     76  F   UNL A   1      39.284  29.422  26.765  1.00  0.00    -0.206 F 
ATOM     77  C   UNL A   1      36.875  29.390  29.471  1.00  0.00     0.006 A 
ENDBRANCH  56  70
BRANCH  57  78
ATOM     78  C   UNL A   1      49.096  26.500  27.018  1.00  0.00     0.057 A 
ATOM     79  C   UNL A   1      49.583  26.638  25.713  1.00  0.00     0.134 A 
ATOM     80  C   UNL A   1      49.990  26.049  27.997  1.00  0.00     0.134 A 
ATOM     81  F   UNL A   1      48.768  27.049  24.729  1.00  0.00    -0.206 F 
ATOM     82  C   UNL A   1      50.904  26.328  25.389  1.00  0.00     0.040 A 
ATOM     83  C   UNL A   1      51.320  25.756  27.691  1.00  0.00     0.040 A 
ATOM     84  F   UNL A   1      49.585  25.903  29.267  1.00  0.00    -0.206 F 
ATOM     85  C   UNL A   1      51.778  25.890  26.382  1.00  0.00     0.006 A 
ENDBRANCH  57  78
BRANCH  69  86
ATOM     86  C   UNL A   1      45.916  32.247  29.319  1.00  0.00     0.057 A 
ATOM     87  C   UNL A   1      46.369  32.532  30.614  1.00  0.00     0.134 A 
ATOM     88  C   UNL A   1      45.996  33.268  28.365  1.00  0.00     0.134 A 
ATOM     89  F   UNL A   1      46.307  31.599  31.576  1.00  0.00    -0.206 F 
ATOM     90  C   UNL A   1      46.863  33.793  30.949  1.00  0.00     0.040 A 
ATOM     91  C   UNL A   1      46.510  34.525  28.682  1.00  0.00     0.040 A 
ATOM     92  F   UNL A   1      45.586  33.056  27.105  1.00  0.00    -0.206 F 
ATOM     93  C   UNL A   1      46.942  34.791  29.980  1.00  0.00     0.006 A 
ENDBRANCH  69  86
ENDBRANCH  43  44
ENDBRANCH  35  38
ENDBRANCH  33  34
ENDBRANCH  32  33
ENDBRANCH  31  32
ENDBRANCH   1  31
TORSDOF 19
ENDMDL
