MODEL 1
REMARK VINA RESULT:     -10.8      0.000      0.000
REMARK SMILES C/C(=N\O)[C@@H]1C[C@@H](CC(=O)NCCCCCCNC(=O)c2ccc(-c3c4nc(c(-c5c(F)cccc5F)c5ccc([nH]5)c(-c5c(F)cccc5F)c5nc(c(-c6c(F)cccc6F)c6ccc3[nH]6)C=C5)C=C4)cc2)C1(C)C
REMARK SMILES IDX 14 1 13 2 12 3 11 4 9 5 10 6 8 8 7 9 5 10 6 11 75 12 76 13
REMARK SMILES IDX 77 14 2 15 1 16 3 17 4 18 15 20 16 21 17 22 18 23 19 24
REMARK SMILES IDX 20 26 21 27 22 28 74 29 23 30 73 31 24 32 25 33 26 34 67 35
REMARK SMILES IDX 27 36 72 37 66 38 68 39 28 40 71 41 65 42 64 43 29 45 55 46
REMARK SMILES IDX 38 47 54 48 39 49 42 50 53 51 69 52 40 53 41 54 52 56 70 57
REMARK SMILES IDX 43 58 30 59 31 60 36 61 32 62 33 63 35 64 37 65 34 66 56 67
REMARK SMILES IDX 57 68 62 69 58 70 59 71 61 72 63 73 60 74 44 75 45 76 50 77
REMARK SMILES IDX 46 78 47 79 49 80 51 81 48 82
REMARK H PARENT 11 7 4 19 18 25 68 44 42 55
REMARK Flexibility Score: inf
ROOT
ATOM      1  C   UNL A   1      34.919  32.573  28.248  1.00  0.00     0.002 C 
ENDROOT
BRANCH   1   2
ATOM      2  C   UNL A   1      33.659  31.747  28.006  1.00  0.00     0.021 C 
BRANCH   2   3
ATOM      3  C   UNL A   1      33.871  30.469  27.188  1.00  0.00     0.116 C 
BRANCH   3   4
ATOM      4  N   UNL A   1      33.044  29.391  27.693  1.00  0.00    -0.356 N 
ATOM      5  C   UNL A   1      32.037  28.692  27.104  1.00  0.00     0.220 C 
ATOM      6  O   UNL A   1      31.431  27.867  27.792  1.00  0.00    -0.275 OA
ATOM      7  H   UNL A   1      33.246  29.119  28.617  1.00  0.00     0.163 HD
BRANCH   5   8
ATOM      8  C   UNL A   1      31.655  28.914  25.650  1.00  0.00     0.104 C 
BRANCH   8   9
ATOM      9  C   UNL A   1      32.151  27.821  24.701  1.00  0.00     0.005 C 
ATOM     10  C   UNL A   1      32.988  27.428  22.714  1.00  0.00     0.043 C 
ATOM     11  C   UNL A   1      33.533  28.010  24.037  1.00  0.00     0.015 C 
ATOM     12  C   UNL A   1      31.533  27.671  23.263  1.00  0.00    -0.024 C 
ATOM     13  C   UNL A   1      30.956  28.868  22.504  1.00  0.00     0.012 C 
ATOM     14  C   UNL A   1      30.581  26.471  23.263  1.00  0.00     0.012 C 
BRANCH  10  15
ATOM     15  C   UNL A   1      33.277  25.974  22.217  1.00  0.00     0.058 C 
ATOM     16  C   UNL A   1      33.716  24.917  23.194  1.00  0.00     0.066 C 
ATOM     17  N   UNL A   1      33.038  25.774  20.951  1.00  0.00    -0.099 NA
BRANCH  17  18
ATOM     18  O   UNL A   1      33.184  24.439  20.578  1.00  0.00    -0.411 OA
ATOM     19  H   UNL A   1      32.850  23.760  21.128  1.00  0.00     0.330 HD
ENDBRANCH  17  18
ENDBRANCH  10  15
ENDBRANCH   8   9
ENDBRANCH   5   8
ENDBRANCH   3   4
ENDBRANCH   2   3
ENDBRANCH   1   2
BRANCH   1  20
ATOM     20  C   UNL A   1      34.757  33.714  29.253  1.00  0.00     0.002 C 
BRANCH  20  21
ATOM     21  C   UNL A   1      33.425  34.468  29.189  1.00  0.00     0.021 C 
BRANCH  21  22
ATOM     22  C   UNL A   1      33.508  35.961  29.496  1.00  0.00     0.116 C 
BRANCH  22  23
ATOM     23  N   UNL A   1      32.606  36.353  30.569  1.00  0.00    -0.352 N 
ATOM     24  C   UNL A   1      32.573  35.939  31.878  1.00  0.00     0.251 C 
ATOM     25  H   UNL A   1      31.918  37.012  30.318  1.00  0.00     0.163 HD
ATOM     26  O   UNL A   1      31.619  36.205  32.596  1.00  0.00    -0.269 OA
BRANCH  24  27
ATOM     27  C   UNL A   1      33.703  35.152  32.409  1.00  0.00     0.039 A 
ATOM     28  C   UNL A   1      33.474  33.864  32.894  1.00  0.00     0.014 A 
ATOM     29  C   UNL A   1      34.992  35.692  32.407  1.00  0.00     0.014 A 
ATOM     30  C   UNL A   1      34.554  33.083  33.312  1.00  0.00     0.010 A 
ATOM     31  C   UNL A   1      36.072  34.889  32.755  1.00  0.00     0.010 A 
ATOM     32  C   UNL A   1      35.864  33.576  33.209  1.00  0.00    -0.014 A 
BRANCH  32  33
ATOM     33  C   UNL A   1      37.045  32.753  33.574  1.00  0.00     0.031 A 
ATOM     34  C   UNL A   1      37.792  33.054  34.845  1.00  0.00     0.074 A 
ATOM     35  C   UNL A   1      37.507  31.819  32.720  1.00  0.00     0.049 A 
ATOM     36  N   UNL A   1      38.939  32.582  35.261  1.00  0.00    -0.248 NA
ATOM     37  C   UNL A   1      37.183  34.040  35.752  1.00  0.00     0.031 C 
ATOM     38  C   UNL A   1      36.889  31.459  31.442  1.00  0.00     0.029 A 
ATOM     39  N   UNL A   1      38.623  31.022  32.783  1.00  0.00    -0.354 N 
ATOM     40  C   UNL A   1      39.202  33.236  36.458  1.00  0.00     0.074 A 
ATOM     41  C   UNL A   1      38.116  34.162  36.686  1.00  0.00     0.031 C 
ATOM     42  C   UNL A   1      37.636  30.518  30.842  1.00  0.00     0.029 A 
ATOM     43  C   UNL A   1      38.809  30.243  31.666  1.00  0.00     0.049 A 
ATOM     44  H   UNL A   1      39.233  31.011  33.556  1.00  0.00     0.167 HD
ATOM     45  C   UNL A   1      40.251  33.068  37.297  1.00  0.00     0.037 A 
ATOM     46  C   UNL A   1      39.826  29.425  31.329  1.00  0.00     0.037 A 
ATOM     47  C   UNL A   1      41.308  32.116  37.084  1.00  0.00     0.049 A 
ATOM     48  C   UNL A   1      40.984  29.265  32.280  1.00  0.00     0.074 A 
ATOM     49  C   UNL A   1      42.373  31.816  37.916  1.00  0.00     0.029 A 
ATOM     50  N   UNL A   1      41.436  31.314  35.961  1.00  0.00    -0.354 N 
ATOM     51  N   UNL A   1      41.184  29.836  33.442  1.00  0.00    -0.248 NA
ATOM     52  C   UNL A   1      42.057  28.344  31.873  1.00  0.00     0.031 C 
ATOM     53  C   UNL A   1      43.177  30.875  37.269  1.00  0.00     0.029 A 
ATOM     54  C   UNL A   1      42.579  30.540  36.066  1.00  0.00     0.049 A 
ATOM     55  H   UNL A   1      40.809  31.298  35.203  1.00  0.00     0.167 HD
ATOM     56  C   UNL A   1      42.380  29.316  33.921  1.00  0.00     0.074 A 
ATOM     57  C   UNL A   1      42.858  28.379  32.928  1.00  0.00     0.031 C 
ATOM     58  C   UNL A   1      43.025  29.589  35.081  1.00  0.00     0.037 A 
BRANCH  45  59
ATOM     59  C   UNL A   1      40.319  33.928  38.524  1.00  0.00     0.057 A 
ATOM     60  C   UNL A   1      39.708  33.554  39.727  1.00  0.00     0.134 A 
ATOM     61  C   UNL A   1      41.074  35.108  38.521  1.00  0.00     0.134 A 
ATOM     62  F   UNL A   1      38.963  32.441  39.795  1.00  0.00    -0.206 F 
ATOM     63  C   UNL A   1      39.835  34.331  40.881  1.00  0.00     0.040 A 
ATOM     64  C   UNL A   1      41.231  35.877  39.675  1.00  0.00     0.040 A 
ATOM     65  F   UNL A   1      41.690  35.520  37.403  1.00  0.00    -0.206 F 
ATOM     66  C   UNL A   1      40.608  35.489  40.859  1.00  0.00     0.006 A 
ENDBRANCH  45  59
BRANCH  46  67
ATOM     67  C   UNL A   1      39.816  28.703  30.029  1.00  0.00     0.057 A 
ATOM     68  C   UNL A   1      39.209  27.448  29.900  1.00  0.00     0.134 A 
ATOM     69  C   UNL A   1      40.451  29.228  28.896  1.00  0.00     0.134 A 
ATOM     70  F   UNL A   1      38.600  26.882  30.952  1.00  0.00    -0.206 F 
ATOM     71  C   UNL A   1      39.267  26.725  28.707  1.00  0.00     0.040 A 
ATOM     72  C   UNL A   1      40.488  28.531  27.688  1.00  0.00     0.040 A 
ATOM     73  F   UNL A   1      41.043  30.431  28.947  1.00  0.00    -0.206 F 
ATOM     74  C   UNL A   1      39.907  27.269  27.595  1.00  0.00     0.006 A 
ENDBRANCH  46  67
BRANCH  58  75
ATOM     75  C   UNL A   1      44.280  28.824  35.381  1.00  0.00     0.057 A 
ATOM     76  C   UNL A   1      45.541  29.275  34.972  1.00  0.00     0.134 A 
ATOM     77  C   UNL A   1      44.230  27.661  36.161  1.00  0.00     0.134 A 
ATOM     78  F   UNL A   1      45.657  30.375  34.213  1.00  0.00    -0.206 F 
ATOM     79  C   UNL A   1      46.707  28.589  35.318  1.00  0.00     0.040 A 
ATOM     80  C   UNL A   1      45.388  26.984  36.538  1.00  0.00     0.040 A 
ATOM     81  F   UNL A   1      43.054  27.182  36.593  1.00  0.00    -0.206 F 
ATOM     82  C   UNL A   1      46.633  27.446  36.114  1.00  0.00     0.006 A 
ENDBRANCH  58  75
ENDBRANCH  32  33
ENDBRANCH  24  27
ENDBRANCH  22  23
ENDBRANCH  21  22
ENDBRANCH  20  21
ENDBRANCH   1  20
TORSDOF 16
ENDMDL
MODEL 2
REMARK VINA RESULT:     -10.6      4.905      7.119
REMARK SMILES C/C(=N\O)[C@@H]1C[C@@H](CC(=O)NCCCCCCNC(=O)c2ccc(-c3c4nc(c(-c5c(F)cccc5F)c5ccc([nH]5)c(-c5c(F)cccc5F)c5nc(c(-c6c(F)cccc6F)c6ccc3[nH]6)C=C5)C=C4)cc2)C1(C)C
REMARK SMILES IDX 14 1 13 2 12 3 11 4 9 5 10 6 8 8 7 9 5 10 6 11 75 12 76 13
REMARK SMILES IDX 77 14 2 15 1 16 3 17 4 18 15 20 16 21 17 22 18 23 19 24
REMARK SMILES IDX 20 26 21 27 22 28 74 29 23 30 73 31 24 32 25 33 26 34 67 35
REMARK SMILES IDX 27 36 72 37 66 38 68 39 28 40 71 41 65 42 64 43 29 45 55 46
REMARK SMILES IDX 38 47 54 48 39 49 42 50 53 51 69 52 40 53 41 54 52 56 70 57
REMARK SMILES IDX 43 58 30 59 31 60 36 61 32 62 33 63 35 64 37 65 34 66 56 67
REMARK SMILES IDX 57 68 62 69 58 70 59 71 61 72 63 73 60 74 44 75 45 76 50 77
REMARK SMILES IDX 46 78 47 79 49 80 51 81 48 82
REMARK H PARENT 11 7 4 19 18 25 68 44 42 55
REMARK Flexibility Score: inf
ROOT
ATOM      1  C   UNL A   1      31.646  29.289  24.190  1.00  0.00     0.002 C 
ENDROOT
BRANCH   1   2
ATOM      2  C   UNL A   1      31.448  28.694  22.799  1.00  0.00     0.021 C 
BRANCH   2   3
ATOM      3  C   UNL A   1      30.967  27.240  22.780  1.00  0.00     0.116 C 
BRANCH   3   4
ATOM      4  N   UNL A   1      31.665  26.478  21.763  1.00  0.00    -0.356 N 
ATOM      5  C   UNL A   1      32.908  25.928  21.761  1.00  0.00     0.220 C 
ATOM      6  O   UNL A   1      33.299  25.393  20.721  1.00  0.00    -0.275 OA
ATOM      7  H   UNL A   1      31.152  26.336  20.934  1.00  0.00     0.163 HD
BRANCH   5   8
ATOM      8  C   UNL A   1      33.802  25.968  22.991  1.00  0.00     0.104 C 
BRANCH   8   9
ATOM      9  C   UNL A   1      33.527  24.849  23.998  1.00  0.00     0.005 C 
ATOM     10  C   UNL A   1      34.459  23.404  25.356  1.00  0.00     0.043 C 
ATOM     11  C   UNL A   1      34.217  24.929  25.377  1.00  0.00     0.015 C 
ATOM     12  C   UNL A   1      34.176  23.429  23.809  1.00  0.00    -0.024 C 
ATOM     13  C   UNL A   1      35.519  23.244  23.099  1.00  0.00     0.012 C 
ATOM     14  C   UNL A   1      33.105  22.469  23.282  1.00  0.00     0.012 C 
BRANCH  10  15
ATOM     15  C   UNL A   1      33.608  22.375  26.171  1.00  0.00     0.058 C 
ATOM     16  C   UNL A   1      32.254  22.767  26.698  1.00  0.00     0.066 C 
ATOM     17  N   UNL A   1      34.140  21.190  26.273  1.00  0.00    -0.099 NA
BRANCH  17  18
ATOM     18  O   UNL A   1      33.295  20.270  26.893  1.00  0.00    -0.411 OA
ATOM     19  H   UNL A   1      33.417  20.058  27.797  1.00  0.00     0.330 HD
ENDBRANCH  17  18
ENDBRANCH  10  15
ENDBRANCH   8   9
ENDBRANCH   5   8
ENDBRANCH   3   4
ENDBRANCH   2   3
ENDBRANCH   1   2
BRANCH   1  20
ATOM     20  C   UNL A   1      32.155  28.305  25.243  1.00  0.00     0.002 C 
BRANCH  20  21
ATOM     21  C   UNL A   1      33.580  28.555  25.748  1.00  0.00     0.021 C 
BRANCH  21  22
ATOM     22  C   UNL A   1      33.721  28.669  27.264  1.00  0.00     0.116 C 
BRANCH  22  23
ATOM     23  N   UNL A   1      33.719  30.053  27.714  1.00  0.00    -0.352 N 
ATOM     24  C   UNL A   1      34.687  30.752  28.393  1.00  0.00     0.251 C 
ATOM     25  H   UNL A   1      32.903  30.562  27.500  1.00  0.00     0.163 HD
ATOM     26  O   UNL A   1      34.443  31.845  28.883  1.00  0.00    -0.269 OA
BRANCH  24  27
ATOM     27  C   UNL A   1      36.030  30.158  28.538  1.00  0.00     0.039 A 
ATOM     28  C   UNL A   1      36.923  30.211  27.466  1.00  0.00     0.014 A 
ATOM     29  C   UNL A   1      36.405  29.567  29.747  1.00  0.00     0.014 A 
ATOM     30  C   UNL A   1      38.225  29.733  27.630  1.00  0.00     0.010 A 
ATOM     31  C   UNL A   1      37.721  29.158  29.931  1.00  0.00     0.010 A 
ATOM     32  C   UNL A   1      38.645  29.238  28.875  1.00  0.00    -0.014 A 
BRANCH  32  33
ATOM     33  C   UNL A   1      40.039  28.787  29.112  1.00  0.00     0.031 A 
ATOM     34  C   UNL A   1      41.056  29.766  29.631  1.00  0.00     0.074 A 
ATOM     35  C   UNL A   1      40.414  27.541  28.760  1.00  0.00     0.049 A 
ATOM     36  N   UNL A   1      42.353  29.631  29.740  1.00  0.00    -0.248 NA
ATOM     37  C   UNL A   1      40.551  31.082  30.054  1.00  0.00     0.031 C 
ATOM     38  C   UNL A   1      39.528  26.511  28.215  1.00  0.00     0.029 A 
ATOM     39  N   UNL A   1      41.648  26.939  28.780  1.00  0.00    -0.354 N 
ATOM     40  C   UNL A   1      42.818  30.852  30.211  1.00  0.00     0.074 A 
ATOM     41  C   UNL A   1      41.674  31.727  30.336  1.00  0.00     0.031 C 
ATOM     42  C   UNL A   1      40.246  25.408  27.949  1.00  0.00     0.029 A 
ATOM     43  C   UNL A   1      41.649  25.667  28.257  1.00  0.00     0.049 A 
ATOM     44  H   UNL A   1      42.455  27.376  29.135  1.00  0.00     0.167 HD
ATOM     45  C   UNL A   1      44.087  31.206  30.525  1.00  0.00     0.037 A 
ATOM     46  C   UNL A   1      42.671  24.819  28.022  1.00  0.00     0.037 A 
ATOM     47  C   UNL A   1      45.215  30.318  30.438  1.00  0.00     0.049 A 
ATOM     48  C   UNL A   1      44.072  25.244  28.373  1.00  0.00     0.074 A 
ATOM     49  C   UNL A   1      46.527  30.560  30.807  1.00  0.00     0.029 A 
ATOM     50  N   UNL A   1      45.167  29.024  29.944  1.00  0.00    -0.354 N 
ATOM     51  N   UNL A   1      44.489  26.377  28.885  1.00  0.00    -0.248 NA
ATOM     52  C   UNL A   1      45.147  24.273  28.115  1.00  0.00     0.031 C 
ATOM     53  C   UNL A   1      47.284  29.432  30.483  1.00  0.00     0.029 A 
ATOM     54  C   UNL A   1      46.433  28.465  29.973  1.00  0.00     0.049 A 
ATOM     55  H   UNL A   1      44.356  28.572  29.622  1.00  0.00     0.167 HD
ATOM     56  C   UNL A   1      45.862  26.239  29.048  1.00  0.00     0.074 A 
ATOM     57  C   UNL A   1      46.208  24.913  28.587  1.00  0.00     0.031 C 
ATOM     58  C   UNL A   1      46.756  27.131  29.538  1.00  0.00     0.037 A 
BRANCH  45  59
ATOM     59  C   UNL A   1      44.334  32.610  30.990  1.00  0.00     0.057 A 
ATOM     60  C   UNL A   1      44.316  32.957  32.346  1.00  0.00     0.134 A 
ATOM     61  C   UNL A   1      44.674  33.612  30.071  1.00  0.00     0.134 A 
ATOM     62  F   UNL A   1      43.989  32.048  33.277  1.00  0.00    -0.206 F 
ATOM     63  C   UNL A   1      44.614  34.254  32.771  1.00  0.00     0.040 A 
ATOM     64  C   UNL A   1      45.001  34.904  30.486  1.00  0.00     0.040 A 
ATOM     65  F   UNL A   1      44.715  33.345  28.757  1.00  0.00    -0.206 F 
ATOM     66  C   UNL A   1      44.969  35.228  31.840  1.00  0.00     0.006 A 
ENDBRANCH  45  59
BRANCH  46  67
ATOM     67  C   UNL A   1      42.421  23.489  27.407  1.00  0.00     0.057 A 
ATOM     68  C   UNL A   1      42.086  22.378  28.191  1.00  0.00     0.134 A 
ATOM     69  C   UNL A   1      42.556  23.283  26.028  1.00  0.00     0.134 A 
ATOM     70  F   UNL A   1      41.959  22.504  29.520  1.00  0.00    -0.206 F 
ATOM     71  C   UNL A   1      41.931  21.107  27.633  1.00  0.00     0.040 A 
ATOM     72  C   UNL A   1      42.373  22.025  25.453  1.00  0.00     0.040 A 
ATOM     73  F   UNL A   1      42.864  24.306  25.217  1.00  0.00    -0.206 F 
ATOM     74  C   UNL A   1      42.073  20.929  26.259  1.00  0.00     0.006 A 
ENDBRANCH  46  67
BRANCH  58  75
ATOM     75  C   UNL A   1      48.185  26.691  29.666  1.00  0.00     0.057 A 
ATOM     76  C   UNL A   1      48.661  26.029  30.804  1.00  0.00     0.134 A 
ATOM     77  C   UNL A   1      49.075  26.865  28.597  1.00  0.00     0.134 A 
ATOM     78  F   UNL A   1      47.863  25.842  31.865  1.00  0.00    -0.206 F 
ATOM     79  C   UNL A   1      49.975  25.564  30.878  1.00  0.00     0.040 A 
ATOM     80  C   UNL A   1      50.381  26.380  28.648  1.00  0.00     0.040 A 
ATOM     81  F   UNL A   1      48.679  27.483  27.475  1.00  0.00    -0.206 F 
ATOM     82  C   UNL A   1      50.836  25.729  29.794  1.00  0.00     0.006 A 
ENDBRANCH  58  75
ENDBRANCH  32  33
ENDBRANCH  24  27
ENDBRANCH  22  23
ENDBRANCH  21  22
ENDBRANCH  20  21
ENDBRANCH   1  20
TORSDOF 16
ENDMDL
MODEL 3
REMARK VINA RESULT:     -10.4      5.966     11.142
REMARK SMILES C/C(=N\O)[C@@H]1C[C@@H](CC(=O)NCCCCCCNC(=O)c2ccc(-c3c4nc(c(-c5c(F)cccc5F)c5ccc([nH]5)c(-c5c(F)cccc5F)c5nc(c(-c6c(F)cccc6F)c6ccc3[nH]6)C=C5)C=C4)cc2)C1(C)C
REMARK SMILES IDX 14 1 13 2 12 3 11 4 9 5 10 6 8 8 7 9 5 10 6 11 75 12 76 13
REMARK SMILES IDX 77 14 2 15 1 16 3 17 4 18 15 20 16 21 17 22 18 23 19 24
REMARK SMILES IDX 20 26 21 27 22 28 74 29 23 30 73 31 24 32 25 33 26 34 67 35
REMARK SMILES IDX 27 36 72 37 66 38 68 39 28 40 71 41 65 42 64 43 29 45 55 46
REMARK SMILES IDX 38 47 54 48 39 49 42 50 53 51 69 52 40 53 41 54 52 56 70 57
REMARK SMILES IDX 43 58 30 59 31 60 36 61 32 62 33 63 35 64 37 65 34 66 56 67
REMARK SMILES IDX 57 68 62 69 58 70 59 71 61 72 63 73 60 74 44 75 45 76 50 77
REMARK SMILES IDX 46 78 47 79 49 80 51 81 48 82
REMARK H PARENT 11 7 4 19 18 25 68 44 42 55
REMARK Flexibility Score: inf
ROOT
ATOM      1  C   UNL A   1      37.018  21.672  24.351  1.00  0.00     0.002 C 
ENDROOT
BRANCH   1   2
ATOM      2  C   UNL A   1      36.698  22.843  25.275  1.00  0.00     0.021 C 
BRANCH   2   3
ATOM      3  C   UNL A   1      36.133  24.083  24.574  1.00  0.00     0.116 C 
BRANCH   3   4
ATOM      4  N   UNL A   1      34.925  24.541  25.232  1.00  0.00    -0.356 N 
ATOM      5  C   UNL A   1      33.616  24.318  24.943  1.00  0.00     0.220 C 
ATOM      6  O   UNL A   1      32.769  24.902  25.624  1.00  0.00    -0.275 OA
ATOM      7  H   UNL A   1      35.080  25.110  26.022  1.00  0.00     0.163 HD
BRANCH   5   8
ATOM      8  C   UNL A   1      33.193  23.388  23.818  1.00  0.00     0.104 C 
BRANCH   8   9
ATOM      9  C   UNL A   1      33.323  21.901  24.156  1.00  0.00     0.005 C 
ATOM     10  C   UNL A   1      32.206  20.055  24.542  1.00  0.00     0.043 C 
ATOM     11  C   UNL A   1      32.544  20.889  23.286  1.00  0.00     0.015 C 
ATOM     12  C   UNL A   1      32.598  21.303  25.417  1.00  0.00    -0.024 C 
ATOM     13  C   UNL A   1      31.300  21.902  25.960  1.00  0.00     0.012 C 
ATOM     14  C   UNL A   1      33.640  21.081  26.518  1.00  0.00     0.012 C 
BRANCH  10  15
ATOM     15  C   UNL A   1      32.930  18.722  24.923  1.00  0.00     0.058 C 
ATOM     16  C   UNL A   1      34.265  18.388  24.314  1.00  0.00     0.066 C 
ATOM     17  N   UNL A   1      32.318  18.012  25.829  1.00  0.00    -0.099 NA
BRANCH  17  18
ATOM     18  O   UNL A   1      33.056  16.900  26.233  1.00  0.00    -0.411 OA
ATOM     19  H   UNL A   1      33.538  16.404  25.602  1.00  0.00     0.330 HD
ENDBRANCH  17  18
ENDBRANCH  10  15
ENDBRANCH   8   9
ENDBRANCH   5   8
ENDBRANCH   3   4
ENDBRANCH   2   3
ENDBRANCH   1   2
BRANCH   1  20
ATOM     20  C   UNL A   1      36.927  20.293  25.006  1.00  0.00     0.002 C 
BRANCH  20  21
ATOM     21  C   UNL A   1      38.215  19.465  24.986  1.00  0.00     0.021 C 
BRANCH  21  22
ATOM     22  C   UNL A   1      39.317  19.956  25.922  1.00  0.00     0.116 C 
BRANCH  22  23
ATOM     23  N   UNL A   1      40.413  19.004  26.028  1.00  0.00    -0.352 N 
ATOM     24  C   UNL A   1      41.759  19.235  26.175  1.00  0.00     0.251 C 
ATOM     25  H   UNL A   1      40.151  18.055  25.988  1.00  0.00     0.163 HD
ATOM     26  O   UNL A   1      42.570  18.330  26.034  1.00  0.00    -0.269 OA
BRANCH  24  27
ATOM     27  C   UNL A   1      42.221  20.601  26.492  1.00  0.00     0.039 A 
ATOM     28  C   UNL A   1      42.633  21.443  25.457  1.00  0.00     0.014 A 
ATOM     29  C   UNL A   1      42.227  21.046  27.816  1.00  0.00     0.014 A 
ATOM     30  C   UNL A   1      42.983  22.764  25.743  1.00  0.00     0.010 A 
ATOM     31  C   UNL A   1      42.506  22.379  28.089  1.00  0.00     0.010 A 
ATOM     32  C   UNL A   1      42.885  23.253  27.055  1.00  0.00    -0.014 A 
BRANCH  32  33
ATOM     33  C   UNL A   1      43.179  24.669  27.391  1.00  0.00     0.031 A 
ATOM     34  C   UNL A   1      44.608  25.116  27.531  1.00  0.00     0.074 A 
ATOM     35  C   UNL A   1      42.172  25.517  27.677  1.00  0.00     0.049 A 
ATOM     36  N   UNL A   1      45.081  26.248  27.985  1.00  0.00    -0.248 NA
ATOM     37  C   UNL A   1      45.645  24.148  27.135  1.00  0.00     0.031 C 
ATOM     38  C   UNL A   1      40.745  25.193  27.611  1.00  0.00     0.029 A 
ATOM     39  N   UNL A   1      42.195  26.820  28.112  1.00  0.00    -0.354 N 
ATOM     40  C   UNL A   1      46.463  26.116  27.961  1.00  0.00     0.074 A 
ATOM     41  C   UNL A   1      46.756  24.784  27.480  1.00  0.00     0.031 C 
ATOM     42  C   UNL A   1      40.032  26.265  27.995  1.00  0.00     0.029 A 
ATOM     43  C   UNL A   1      40.948  27.333  28.381  1.00  0.00     0.049 A 
ATOM     44  H   UNL A   1      43.026  27.336  28.221  1.00  0.00     0.167 HD
ATOM     45  C   UNL A   1      47.403  27.030  28.297  1.00  0.00     0.037 A 
ATOM     46  C   UNL A   1      40.587  28.520  28.910  1.00  0.00     0.037 A 
ATOM     47  C   UNL A   1      47.105  28.367  28.736  1.00  0.00     0.049 A 
ATOM     48  C   UNL A   1      41.656  29.513  29.283  1.00  0.00     0.074 A 
ATOM     49  C   UNL A   1      47.990  29.391  29.026  1.00  0.00     0.029 A 
ATOM     50  N   UNL A   1      45.830  28.862  28.954  1.00  0.00    -0.354 N 
ATOM     51  N   UNL A   1      42.958  29.401  29.186  1.00  0.00    -0.248 NA
ATOM     52  C   UNL A   1      41.205  30.800  29.836  1.00  0.00     0.031 C 
ATOM     53  C   UNL A   1      47.251  30.489  29.474  1.00  0.00     0.029 A 
ATOM     54  C   UNL A   1      45.905  30.170  29.401  1.00  0.00     0.049 A 
ATOM     55  H   UNL A   1      44.996  28.360  28.812  1.00  0.00     0.167 HD
ATOM     56  C   UNL A   1      43.478  30.612  29.627  1.00  0.00     0.074 A 
ATOM     57  C   UNL A   1      42.353  31.447  29.985  1.00  0.00     0.031 C 
ATOM     58  C   UNL A   1      44.773  30.999  29.724  1.00  0.00     0.037 A 
BRANCH  45  59
ATOM     59  C   UNL A   1      48.845  26.625  28.209  1.00  0.00     0.057 A 
ATOM     60  C   UNL A   1      49.599  26.812  27.044  1.00  0.00     0.134 A 
ATOM     61  C   UNL A   1      49.507  26.116  29.334  1.00  0.00     0.134 A 
ATOM     62  F   UNL A   1      49.023  27.287  25.930  1.00  0.00    -0.206 F 
ATOM     63  C   UNL A   1      50.957  26.493  26.997  1.00  0.00     0.040 A 
ATOM     64  C   UNL A   1      50.871  25.820  29.306  1.00  0.00     0.040 A 
ATOM     65  F   UNL A   1      48.845  25.918  30.484  1.00  0.00    -0.206 F 
ATOM     66  C   UNL A   1      51.599  26.007  28.134  1.00  0.00     0.006 A 
ENDBRANCH  45  59
BRANCH  46  67
ATOM     67  C   UNL A   1      39.152  28.837  29.140  1.00  0.00     0.057 A 
ATOM     68  C   UNL A   1      38.369  29.425  28.140  1.00  0.00     0.134 A 
ATOM     69  C   UNL A   1      38.541  28.604  30.379  1.00  0.00     0.134 A 
ATOM     70  F   UNL A   1      38.900  29.692  26.937  1.00  0.00    -0.206 F 
ATOM     71  C   UNL A   1      37.046  29.805  28.373  1.00  0.00     0.040 A 
ATOM     72  C   UNL A   1      37.210  28.949  30.615  1.00  0.00     0.040 A 
ATOM     73  F   UNL A   1      39.230  28.034  31.378  1.00  0.00    -0.206 F 
ATOM     74  C   UNL A   1      36.462  29.564  29.614  1.00  0.00     0.006 A 
ENDBRANCH  46  67
BRANCH  58  75
ATOM     75  C   UNL A   1      45.052  32.402  30.174  1.00  0.00     0.057 A 
ATOM     76  C   UNL A   1      45.089  33.478  29.278  1.00  0.00     0.134 A 
ATOM     77  C   UNL A   1      45.206  32.689  31.537  1.00  0.00     0.134 A 
ATOM     78  F   UNL A   1      44.960  33.269  27.960  1.00  0.00    -0.206 F 
ATOM     79  C   UNL A   1      45.281  34.787  29.722  1.00  0.00     0.040 A 
ATOM     80  C   UNL A   1      45.368  33.996  31.995  1.00  0.00     0.040 A 
ATOM     81  F   UNL A   1      45.171  31.705  32.449  1.00  0.00    -0.206 F 
ATOM     82  C   UNL A   1      45.410  35.050  31.085  1.00  0.00     0.006 A 
ENDBRANCH  58  75
ENDBRANCH  32  33
ENDBRANCH  24  27
ENDBRANCH  22  23
ENDBRANCH  21  22
ENDBRANCH  20  21
ENDBRANCH   1  20
TORSDOF 16
ENDMDL
