MODEL 1
REMARK VINA RESULT:     -11.7      0.000      0.000
REMARK SMILES O=C(C[C@@H](C(=O)NCCCCCCNC(=O)c1ccc(-c2c3nc(c(-c4c(F)cccc4F)c4ccc([nH]4)c(-c4c(F)cccc4F)c4nc(c(-c5c(F)cccc5F)c5ccc2[nH]5)C=C4)C=C3)cc1)c1ccccc1)Nc1cc(C(F)(F)F)ccc1-n1cncn1
REMARK SMILES IDX 9 1 8 2 7 3 5 4 6 5 4 7 3 8 2 9 1 10 77 11 78 13 79 14 87 15
REMARK SMILES IDX 80 16 86 17 85 18 88 19 89 20 92 21 90 22 91 23 81 24 82 25
REMARK SMILES IDX 83 26 84 27 71 28 72 29 76 30 73 31 75 32 74 33 10 34 11 35
REMARK SMILES IDX 12 36 13 37 14 38 15 39 16 41 17 42 18 43 70 44 19 45 69 46
REMARK SMILES IDX 20 47 21 48 22 49 63 50 23 51 68 52 62 53 64 54 24 55 67 56
REMARK SMILES IDX 61 57 60 58 25 60 51 61 34 62 50 63 35 64 38 65 49 66 65 67
REMARK SMILES IDX 36 68 37 69 48 71 66 72 39 73 26 74 27 75 32 76 28 77 29 78
REMARK SMILES IDX 31 79 33 80 30 81 52 82 53 83 58 84 54 85 55 86 57 87 59 88
REMARK SMILES IDX 56 89 40 90 41 91 46 92 42 93 43 94 45 95 47 96 44 97
REMARK H PARENT 7 6 77 12 14 40 64 59 38 70
REMARK Flexibility Score: inf
ROOT
ATOM      1  C   UNL A   1      38.622  23.281  26.498  1.00  0.00     0.021 C 
ENDROOT
BRANCH   1   2
ATOM      2  C   UNL A   1      37.652  22.633  25.513  1.00  0.00     0.116 C 
BRANCH   2   3
ATOM      3  N   UNL A   1      37.068  23.673  24.648  1.00  0.00    -0.356 N 
ATOM      4  C   UNL A   1      36.237  23.330  23.601  1.00  0.00     0.228 C 
ATOM      5  O   UNL A   1      36.711  22.957  22.529  1.00  0.00    -0.274 OA
ATOM      6  H   UNL A   1      37.273  24.622  24.816  1.00  0.00     0.163 HD
BRANCH   4   7
ATOM      7  C   UNL A   1      34.732  23.426  23.855  1.00  0.00     0.118 C 
BRANCH   7   8
ATOM      8  C   UNL A   1      34.502  24.268  25.123  1.00  0.00     0.118 C 
BRANCH   8   9
ATOM      9  C   UNL A   1      34.164  25.736  24.848  1.00  0.00     0.225 C 
ATOM     10  O   UNL A   1      34.009  26.174  23.723  1.00  0.00    -0.275 OA
ATOM     11  N   UNL A   1      34.093  26.495  26.007  1.00  0.00    -0.324 N 
ATOM     12  H   UNL A   1      34.452  26.081  26.825  1.00  0.00     0.170 HD
BRANCH  11  13
ATOM     13  C   UNL A   1      33.559  27.800  26.141  1.00  0.00     0.067 A 
ATOM     14  C   UNL A   1      34.431  28.742  26.675  1.00  0.00     0.041 A 
ATOM     15  C   UNL A   1      32.219  28.175  26.000  1.00  0.00     0.090 A 
ATOM     16  C   UNL A   1      34.020  29.967  27.203  1.00  0.00     0.058 A 
ATOM     17  C   UNL A   1      31.797  29.468  26.392  1.00  0.00     0.031 A 
ATOM     18  C   UNL A   1      32.688  30.334  27.042  1.00  0.00     0.015 A 
BRANCH  15  19
ATOM     19  N   UNL A   1      31.213  27.221  25.767  1.00  0.00    -0.219 N 
ATOM     20  C   UNL A   1      30.461  27.091  24.623  1.00  0.00     0.226 A 
ATOM     21  N   UNL A   1      31.006  26.146  26.561  1.00  0.00    -0.155 NA
ATOM     22  N   UNL A   1      29.632  26.081  24.735  1.00  0.00    -0.223 NA
ATOM     23  C   UNL A   1      29.970  25.562  25.951  1.00  0.00     0.246 A 
ENDBRANCH  15  19
BRANCH  16  24
ATOM     24  C   UNL A   1      35.018  30.730  28.043  1.00  0.00     0.416 C 
ATOM     25  F   UNL A   1      34.459  31.872  28.537  1.00  0.00    -0.166 F 
ATOM     26  F   UNL A   1      35.433  30.051  29.143  1.00  0.00    -0.166 F 
ATOM     27  F   UNL A   1      36.133  31.105  27.374  1.00  0.00    -0.166 F 
ENDBRANCH  16  24
ENDBRANCH  11  13
ENDBRANCH   8   9
ENDBRANCH   7   8
BRANCH   7  28
ATOM     28  C   UNL A   1      34.060  22.045  24.005  1.00  0.00    -0.035 A 
ATOM     29  C   UNL A   1      32.906  21.761  23.251  1.00  0.00     0.004 A 
ATOM     30  C   UNL A   1      34.517  21.045  24.885  1.00  0.00     0.004 A 
ATOM     31  C   UNL A   1      32.249  20.526  23.360  1.00  0.00     0.000 A 
ATOM     32  C   UNL A   1      33.865  19.808  24.987  1.00  0.00     0.000 A 
ATOM     33  C   UNL A   1      32.731  19.548  24.224  1.00  0.00     0.000 A 
ENDBRANCH   7  28
ENDBRANCH   4   7
ENDBRANCH   2   3
ENDBRANCH   1   2
BRANCH   1  34
ATOM     34  C   UNL A   1      40.119  22.912  26.581  1.00  0.00     0.002 C 
BRANCH  34  35
ATOM     35  C   UNL A   1      40.715  21.599  27.122  1.00  0.00     0.002 C 
BRANCH  35  36
ATOM     36  C   UNL A   1      41.101  20.346  26.307  1.00  0.00     0.021 C 
BRANCH  36  37
ATOM     37  C   UNL A   1      42.460  19.588  26.326  1.00  0.00     0.116 C 
BRANCH  37  38
ATOM     38  N   UNL A   1      43.113  19.210  25.089  1.00  0.00    -0.352 N 
ATOM     39  C   UNL A   1      44.155  19.857  24.445  1.00  0.00     0.251 C 
ATOM     40  H   UNL A   1      42.776  18.393  24.653  1.00  0.00     0.163 HD
ATOM     41  O   UNL A   1      44.727  19.324  23.489  1.00  0.00    -0.269 OA
BRANCH  39  42
ATOM     42  C   UNL A   1      44.592  21.210  24.859  1.00  0.00     0.039 A 
ATOM     43  C   UNL A   1      44.242  22.303  24.062  1.00  0.00     0.014 A 
ATOM     44  C   UNL A   1      45.380  21.414  25.995  1.00  0.00     0.014 A 
ATOM     45  C   UNL A   1      44.589  23.600  24.458  1.00  0.00     0.010 A 
ATOM     46  C   UNL A   1      45.701  22.712  26.410  1.00  0.00     0.010 A 
ATOM     47  C   UNL A   1      45.279  23.822  25.663  1.00  0.00    -0.014 A 
BRANCH  47  48
ATOM     48  C   UNL A   1      45.459  25.207  26.185  1.00  0.00     0.031 A 
ATOM     49  C   UNL A   1      46.797  25.893  26.161  1.00  0.00     0.074 A 
ATOM     50  C   UNL A   1      44.393  25.835  26.724  1.00  0.00     0.049 A 
ATOM     51  N   UNL A   1      47.114  27.102  26.554  1.00  0.00    -0.248 NA
ATOM     52  C   UNL A   1      47.931  25.113  25.648  1.00  0.00     0.031 C 
ATOM     53  C   UNL A   1      43.057  25.250  26.861  1.00  0.00     0.029 A 
ATOM     54  N   UNL A   1      44.257  27.094  27.255  1.00  0.00    -0.354 N 
ATOM     55  C   UNL A   1      48.482  27.228  26.341  1.00  0.00     0.074 A 
ATOM     56  C   UNL A   1      48.941  25.954  25.830  1.00  0.00     0.031 C 
ATOM     57  C   UNL A   1      42.229  26.160  27.396  1.00  0.00     0.029 A 
ATOM     58  C   UNL A   1      42.979  27.379  27.677  1.00  0.00     0.049 A 
ATOM     59  H   UNL A   1      45.002  27.733  27.325  1.00  0.00     0.167 HD
ATOM     60  C   UNL A   1      49.274  28.311  26.536  1.00  0.00     0.037 A 
ATOM     61  C   UNL A   1      42.467  28.496  28.227  1.00  0.00     0.037 A 
ATOM     62  C   UNL A   1      48.802  29.577  27.041  1.00  0.00     0.049 A 
ATOM     63  C   UNL A   1      43.366  29.683  28.432  1.00  0.00     0.074 A 
ATOM     64  C   UNL A   1      49.509  30.754  27.222  1.00  0.00     0.029 A 
ATOM     65  N   UNL A   1      47.502  29.827  27.456  1.00  0.00    -0.354 N 
ATOM     66  N   UNL A   1      44.639  29.814  28.144  1.00  0.00    -0.248 NA
ATOM     67  C   UNL A   1      42.759  30.880  29.030  1.00  0.00     0.031 C 
ATOM     68  C   UNL A   1      48.650  31.698  27.795  1.00  0.00     0.029 A 
ATOM     69  C   UNL A   1      47.391  31.130  27.915  1.00  0.00     0.049 A 
ATOM     70  H   UNL A   1      46.765  29.175  27.428  1.00  0.00     0.167 HD
ATOM     71  C   UNL A   1      44.979  31.113  28.499  1.00  0.00     0.074 A 
ATOM     72  C   UNL A   1      43.772  31.735  29.007  1.00  0.00     0.031 C 
ATOM     73  C   UNL A   1      46.181  31.733  28.415  1.00  0.00     0.037 A 
BRANCH  60  74
ATOM     74  C   UNL A   1      50.737  28.173  26.208  1.00  0.00     0.057 A 
ATOM     75  C   UNL A   1      51.698  27.925  27.196  1.00  0.00     0.134 A 
ATOM     76  C   UNL A   1      51.187  28.261  24.883  1.00  0.00     0.134 A 
ATOM     77  F   UNL A   1      51.339  27.831  28.485  1.00  0.00    -0.206 F 
ATOM     78  C   UNL A   1      53.055  27.806  26.886  1.00  0.00     0.040 A 
ATOM     79  C   UNL A   1      52.538  28.115  24.558  1.00  0.00     0.040 A 
ATOM     80  F   UNL A   1      50.323  28.483  23.882  1.00  0.00    -0.206 F 
ATOM     81  C   UNL A   1      53.477  27.897  25.562  1.00  0.00     0.006 A 
ENDBRANCH  60  74
BRANCH  61  82
ATOM     82  C   UNL A   1      41.025  28.557  28.589  1.00  0.00     0.057 A 
ATOM     83  C   UNL A   1      40.063  28.979  27.664  1.00  0.00     0.134 A 
ATOM     84  C   UNL A   1      40.573  28.195  29.864  1.00  0.00     0.134 A 
ATOM     85  F   UNL A   1      40.431  29.355  26.431  1.00  0.00    -0.206 F 
ATOM     86  C   UNL A   1      38.709  29.056  27.996  1.00  0.00     0.040 A 
ATOM     87  C   UNL A   1      39.220  28.241  30.203  1.00  0.00     0.040 A 
ATOM     88  F   UNL A   1      41.441  27.774  30.796  1.00  0.00    -0.206 F 
ATOM     89  C   UNL A   1      38.283  28.680  29.268  1.00  0.00     0.006 A 
ENDBRANCH  61  82
BRANCH  73  90
ATOM     90  C   UNL A   1      46.241  33.169  28.852  1.00  0.00     0.057 A 
ATOM     91  C   UNL A   1      45.980  34.224  27.970  1.00  0.00     0.134 A 
ATOM     92  C   UNL A   1      46.528  33.495  30.184  1.00  0.00     0.134 A 
ATOM     93  F   UNL A   1      45.711  33.981  26.678  1.00  0.00    -0.206 F 
ATOM     94  C   UNL A   1      46.025  35.555  28.390  1.00  0.00     0.040 A 
ATOM     95  C   UNL A   1      46.547  34.819  30.623  1.00  0.00     0.040 A 
ATOM     96  F   UNL A   1      46.779  32.531  31.082  1.00  0.00    -0.206 F 
ATOM     97  C   UNL A   1      46.302  35.854  29.723  1.00  0.00     0.006 A 
ENDBRANCH  73  90
ENDBRANCH  47  48
ENDBRANCH  39  42
ENDBRANCH  37  38
ENDBRANCH  36  37
ENDBRANCH  35  36
ENDBRANCH  34  35
ENDBRANCH   1  34
TORSDOF 19
ENDMDL
MODEL 2
REMARK VINA RESULT:     -11.6      5.838     11.383
REMARK SMILES O=C(C[C@@H](C(=O)NCCCCCCNC(=O)c1ccc(-c2c3nc(c(-c4c(F)cccc4F)c4ccc([nH]4)c(-c4c(F)cccc4F)c4nc(c(-c5c(F)cccc5F)c5ccc2[nH]5)C=C4)C=C3)cc1)c1ccccc1)Nc1cc(C(F)(F)F)ccc1-n1cncn1
REMARK SMILES IDX 9 1 8 2 7 3 5 4 6 5 4 7 3 8 2 9 1 10 77 11 78 13 79 14 87 15
REMARK SMILES IDX 80 16 86 17 85 18 88 19 89 20 92 21 90 22 91 23 81 24 82 25
REMARK SMILES IDX 83 26 84 27 71 28 72 29 76 30 73 31 75 32 74 33 10 34 11 35
REMARK SMILES IDX 12 36 13 37 14 38 15 39 16 41 17 42 18 43 70 44 19 45 69 46
REMARK SMILES IDX 20 47 21 48 22 49 63 50 23 51 68 52 62 53 64 54 24 55 67 56
REMARK SMILES IDX 61 57 60 58 25 60 51 61 34 62 50 63 35 64 38 65 49 66 65 67
REMARK SMILES IDX 36 68 37 69 48 71 66 72 39 73 26 74 27 75 32 76 28 77 29 78
REMARK SMILES IDX 31 79 33 80 30 81 52 82 53 83 58 84 54 85 55 86 57 87 59 88
REMARK SMILES IDX 56 89 40 90 41 91 46 92 42 93 43 94 45 95 47 96 44 97
REMARK H PARENT 7 6 77 12 14 40 64 59 38 70
REMARK Flexibility Score: inf
ROOT
ATOM      1  C   UNL A   1      33.701  30.799  27.740  1.00  0.00     0.021 C 
ENDROOT
BRANCH   1   2
ATOM      2  C   UNL A   1      33.717  29.768  26.615  1.00  0.00     0.116 C 
BRANCH   2   3
ATOM      3  N   UNL A   1      33.486  28.426  27.181  1.00  0.00    -0.356 N 
ATOM      4  C   UNL A   1      32.231  27.855  27.143  1.00  0.00     0.228 C 
ATOM      5  O   UNL A   1      31.386  28.158  27.985  1.00  0.00    -0.274 OA
ATOM      6  H   UNL A   1      34.234  27.933  27.590  1.00  0.00     0.163 HD
BRANCH   4   7
ATOM      7  C   UNL A   1      31.958  26.860  26.014  1.00  0.00     0.118 C 
BRANCH   7   8
ATOM      8  C   UNL A   1      33.299  26.488  25.355  1.00  0.00     0.118 C 
BRANCH   8   9
ATOM      9  C   UNL A   1      33.855  25.130  25.789  1.00  0.00     0.225 C 
ATOM     10  O   UNL A   1      33.207  24.333  26.441  1.00  0.00    -0.275 OA
ATOM     11  N   UNL A   1      35.170  24.938  25.389  1.00  0.00    -0.324 N 
ATOM     12  H   UNL A   1      35.651  25.734  25.067  1.00  0.00     0.170 HD
BRANCH  11  13
ATOM     13  C   UNL A   1      35.894  23.721  25.395  1.00  0.00     0.067 A 
ATOM     14  C   UNL A   1      37.116  23.764  26.057  1.00  0.00     0.041 A 
ATOM     15  C   UNL A   1      35.616  22.577  24.639  1.00  0.00     0.090 A 
ATOM     16  C   UNL A   1      38.121  22.809  25.892  1.00  0.00     0.058 A 
ATOM     17  C   UNL A   1      36.558  21.523  24.571  1.00  0.00     0.031 A 
ATOM     18  C   UNL A   1      37.825  21.670  25.150  1.00  0.00     0.015 A 
BRANCH  15  19
ATOM     19  N   UNL A   1      34.570  22.558  23.699  1.00  0.00    -0.219 N 
ATOM     20  C   UNL A   1      33.397  21.847  23.798  1.00  0.00     0.226 A 
ATOM     21  N   UNL A   1      34.480  23.426  22.666  1.00  0.00    -0.155 NA
ATOM     22  N   UNL A   1      32.634  22.079  22.757  1.00  0.00    -0.223 NA
ATOM     23  C   UNL A   1      33.355  23.015  22.073  1.00  0.00     0.246 A 
ENDBRANCH  15  19
BRANCH  16  24
ATOM     24  C   UNL A   1      39.500  23.159  26.402  1.00  0.00     0.416 C 
ATOM     25  F   UNL A   1      39.565  23.018  27.756  1.00  0.00    -0.166 F 
ATOM     26  F   UNL A   1      40.476  22.344  25.927  1.00  0.00    -0.166 F 
ATOM     27  F   UNL A   1      39.885  24.428  26.128  1.00  0.00    -0.166 F 
ENDBRANCH  16  24
ENDBRANCH  11  13
ENDBRANCH   8   9
ENDBRANCH   7   8
BRANCH   7  28
ATOM     28  C   UNL A   1      30.979  27.409  24.955  1.00  0.00    -0.035 A 
ATOM     29  C   UNL A   1      31.098  28.750  24.544  1.00  0.00     0.004 A 
ATOM     30  C   UNL A   1      29.936  26.652  24.388  1.00  0.00     0.004 A 
ATOM     31  C   UNL A   1      30.226  29.303  23.595  1.00  0.00     0.000 A 
ATOM     32  C   UNL A   1      29.069  27.203  23.434  1.00  0.00     0.000 A 
ATOM     33  C   UNL A   1      29.214  28.529  23.037  1.00  0.00     0.000 A 
ENDBRANCH   7  28
ENDBRANCH   4   7
ENDBRANCH   2   3
ENDBRANCH   1   2
BRANCH   1  34
ATOM     34  C   UNL A   1      34.860  31.784  28.005  1.00  0.00     0.002 C 
BRANCH  34  35
ATOM     35  C   UNL A   1      34.775  33.125  28.757  1.00  0.00     0.002 C 
BRANCH  35  36
ATOM     36  C   UNL A   1      33.615  34.143  28.720  1.00  0.00     0.021 C 
BRANCH  36  37
ATOM     37  C   UNL A   1      33.507  35.481  29.508  1.00  0.00     0.116 C 
BRANCH  37  38
ATOM     38  N   UNL A   1      32.532  35.637  30.569  1.00  0.00    -0.352 N 
ATOM     39  C   UNL A   1      32.724  35.476  31.931  1.00  0.00     0.251 C 
ATOM     40  H   UNL A   1      31.623  35.889  30.287  1.00  0.00     0.163 HD
ATOM     41  O   UNL A   1      31.846  35.811  32.731  1.00  0.00    -0.269 OA
BRANCH  39  42
ATOM     42  C   UNL A   1      33.968  34.873  32.465  1.00  0.00     0.039 A 
ATOM     43  C   UNL A   1      33.921  33.566  32.961  1.00  0.00     0.014 A 
ATOM     44  C   UNL A   1      35.166  35.589  32.528  1.00  0.00     0.014 A 
ATOM     45  C   UNL A   1      35.091  32.948  33.417  1.00  0.00     0.010 A 
ATOM     46  C   UNL A   1      36.343  34.961  32.953  1.00  0.00     0.010 A 
ATOM     47  C   UNL A   1      36.324  33.622  33.371  1.00  0.00    -0.014 A 
BRANCH  47  48
ATOM     48  C   UNL A   1      37.593  32.893  33.656  1.00  0.00     0.031 A 
ATOM     49  C   UNL A   1      38.400  33.165  34.895  1.00  0.00     0.074 A 
ATOM     50  C   UNL A   1      38.037  31.996  32.751  1.00  0.00     0.049 A 
ATOM     51  N   UNL A   1      39.511  32.600  35.299  1.00  0.00    -0.248 NA
ATOM     52  C   UNL A   1      37.907  34.224  35.787  1.00  0.00     0.031 C 
ATOM     53  C   UNL A   1      37.374  31.689  31.480  1.00  0.00     0.029 A 
ATOM     54  N   UNL A   1      39.139  31.177  32.752  1.00  0.00    -0.354 N 
ATOM     55  C   UNL A   1      39.854  33.235  36.488  1.00  0.00     0.074 A 
ATOM     56  C   UNL A   1      38.857  34.261  36.712  1.00  0.00     0.031 C 
ATOM     57  C   UNL A   1      38.057  30.724  30.847  1.00  0.00     0.029 A 
ATOM     58  C   UNL A   1      39.225  30.367  31.644  1.00  0.00     0.049 A 
ATOM     59  H   UNL A   1      39.804  31.169  33.478  1.00  0.00     0.167 HD
ATOM     60  C   UNL A   1      40.890  32.973  37.321  1.00  0.00     0.037 A 
ATOM     61  C   UNL A   1      40.141  29.438  31.306  1.00  0.00     0.037 A 
ATOM     62  C   UNL A   1      41.874  31.944  37.089  1.00  0.00     0.049 A 
ATOM     63  C   UNL A   1      41.280  29.165  32.248  1.00  0.00     0.074 A 
ATOM     64  C   UNL A   1      42.930  31.557  37.897  1.00  0.00     0.029 A 
ATOM     65  N   UNL A   1      41.926  31.143  35.956  1.00  0.00    -0.354 N 
ATOM     66  N   UNL A   1      41.540  29.715  33.410  1.00  0.00    -0.248 NA
ATOM     67  C   UNL A   1      42.249  28.139  31.839  1.00  0.00     0.031 C 
ATOM     68  C   UNL A   1      43.651  30.561  37.231  1.00  0.00     0.029 A 
ATOM     69  C   UNL A   1      43.010  30.283  36.033  1.00  0.00     0.049 A 
ATOM     70  H   UNL A   1      41.287  31.180  35.209  1.00  0.00     0.167 HD
ATOM     71  C   UNL A   1      42.684  29.085  33.883  1.00  0.00     0.074 A 
ATOM     72  C   UNL A   1      43.056  28.099  32.889  1.00  0.00     0.031 C 
ATOM     73  C   UNL A   1      43.365  29.304  35.034  1.00  0.00     0.037 A 
BRANCH  60  74
ATOM     74  C   UNL A   1      41.019  33.816  38.562  1.00  0.00     0.057 A 
ATOM     75  C   UNL A   1      41.808  34.974  38.593  1.00  0.00     0.134 A 
ATOM     76  C   UNL A   1      40.322  33.484  39.732  1.00  0.00     0.134 A 
ATOM     77  F   UNL A   1      42.504  35.351  37.510  1.00  0.00    -0.206 F 
ATOM     78  C   UNL A   1      41.929  35.748  39.749  1.00  0.00     0.040 A 
ATOM     79  C   UNL A   1      40.413  34.266  40.885  1.00  0.00     0.040 A 
ATOM     80  F   UNL A   1      39.536  32.398  39.773  1.00  0.00    -0.206 F 
ATOM     81  C   UNL A   1      41.226  35.396  40.899  1.00  0.00     0.006 A 
ENDBRANCH  60  74
BRANCH  61  82
ATOM     82  C   UNL A   1      39.998  28.675  30.038  1.00  0.00     0.057 A 
ATOM     83  C   UNL A   1      40.570  29.137  28.846  1.00  0.00     0.134 A 
ATOM     84  C   UNL A   1      39.291  27.467  29.984  1.00  0.00     0.134 A 
ATOM     85  F   UNL A   1      41.246  30.295  28.826  1.00  0.00    -0.206 F 
ATOM     86  C   UNL A   1      40.430  28.437  27.645  1.00  0.00     0.040 A 
ATOM     87  C   UNL A   1      39.165  26.744  28.797  1.00  0.00     0.040 A 
ATOM     88  F   UNL A   1      38.725  26.964  31.090  1.00  0.00    -0.206 F 
ATOM     89  C   UNL A   1      39.730  27.233  27.620  1.00  0.00     0.006 A 
ENDBRANCH  61  82
BRANCH  73  90
ATOM     90  C   UNL A   1      44.564  28.438  35.294  1.00  0.00     0.057 A 
ATOM     91  C   UNL A   1      45.847  28.800  34.868  1.00  0.00     0.134 A 
ATOM     92  C   UNL A   1      44.434  27.243  36.015  1.00  0.00     0.134 A 
ATOM     93  F   UNL A   1      46.038  29.925  34.163  1.00  0.00    -0.206 F 
ATOM     94  C   UNL A   1      46.956  27.994  35.128  1.00  0.00     0.040 A 
ATOM     95  C   UNL A   1      45.539  26.443  36.306  1.00  0.00     0.040 A 
ATOM     96  F   UNL A   1      43.234  26.842  36.459  1.00  0.00    -0.206 F 
ATOM     97  C   UNL A   1      46.805  26.815  35.855  1.00  0.00     0.006 A 
ENDBRANCH  73  90
ENDBRANCH  47  48
ENDBRANCH  39  42
ENDBRANCH  37  38
ENDBRANCH  36  37
ENDBRANCH  35  36
ENDBRANCH  34  35
ENDBRANCH   1  34
TORSDOF 19
ENDMDL
MODEL 3
REMARK VINA RESULT:     -11.6      5.903     11.244
REMARK SMILES O=C(C[C@@H](C(=O)NCCCCCCNC(=O)c1ccc(-c2c3nc(c(-c4c(F)cccc4F)c4ccc([nH]4)c(-c4c(F)cccc4F)c4nc(c(-c5c(F)cccc5F)c5ccc2[nH]5)C=C4)C=C3)cc1)c1ccccc1)Nc1cc(C(F)(F)F)ccc1-n1cncn1
REMARK SMILES IDX 9 1 8 2 7 3 5 4 6 5 4 7 3 8 2 9 1 10 77 11 78 13 79 14 87 15
REMARK SMILES IDX 80 16 86 17 85 18 88 19 89 20 92 21 90 22 91 23 81 24 82 25
REMARK SMILES IDX 83 26 84 27 71 28 72 29 76 30 73 31 75 32 74 33 10 34 11 35
REMARK SMILES IDX 12 36 13 37 14 38 15 39 16 41 17 42 18 43 70 44 19 45 69 46
REMARK SMILES IDX 20 47 21 48 22 49 63 50 23 51 68 52 62 53 64 54 24 55 67 56
REMARK SMILES IDX 61 57 60 58 25 60 51 61 34 62 50 63 35 64 38 65 49 66 65 67
REMARK SMILES IDX 36 68 37 69 48 71 66 72 39 73 26 74 27 75 32 76 28 77 29 78
REMARK SMILES IDX 31 79 33 80 30 81 52 82 53 83 58 84 54 85 55 86 57 87 59 88
REMARK SMILES IDX 56 89 40 90 41 91 46 92 42 93 43 94 45 95 47 96 44 97
REMARK H PARENT 7 6 77 12 14 40 64 59 38 70
REMARK Flexibility Score: inf
ROOT
ATOM      1  C   UNL A   1      33.511  30.857  27.662  1.00  0.00     0.021 C 
ENDROOT
BRANCH   1   2
ATOM      2  C   UNL A   1      33.725  29.816  26.567  1.00  0.00     0.116 C 
BRANCH   2   3
ATOM      3  N   UNL A   1      33.482  28.470  27.118  1.00  0.00    -0.356 N 
ATOM      4  C   UNL A   1      32.219  27.917  27.087  1.00  0.00     0.228 C 
ATOM      5  O   UNL A   1      31.388  28.221  27.942  1.00  0.00    -0.274 OA
ATOM      6  H   UNL A   1      34.228  27.962  27.512  1.00  0.00     0.163 HD
BRANCH   4   7
ATOM      7  C   UNL A   1      31.920  26.940  25.949  1.00  0.00     0.118 C 
BRANCH   7   8
ATOM      8  C   UNL A   1      33.251  26.542  25.284  1.00  0.00     0.118 C 
BRANCH   8   9
ATOM      9  C   UNL A   1      33.805  25.193  25.751  1.00  0.00     0.225 C 
ATOM     10  O   UNL A   1      33.157  24.415  26.427  1.00  0.00    -0.275 OA
ATOM     11  N   UNL A   1      35.116  24.986  25.349  1.00  0.00    -0.324 N 
ATOM     12  H   UNL A   1      35.598  25.771  25.003  1.00  0.00     0.170 HD
BRANCH  11  13
ATOM     13  C   UNL A   1      35.837  23.767  25.382  1.00  0.00     0.067 A 
ATOM     14  C   UNL A   1      37.048  23.815  26.062  1.00  0.00     0.041 A 
ATOM     15  C   UNL A   1      35.566  22.613  24.637  1.00  0.00     0.090 A 
ATOM     16  C   UNL A   1      38.052  22.855  25.926  1.00  0.00     0.058 A 
ATOM     17  C   UNL A   1      36.506  21.556  24.598  1.00  0.00     0.031 A 
ATOM     18  C   UNL A   1      37.764  21.707  25.195  1.00  0.00     0.015 A 
BRANCH  15  19
ATOM     19  N   UNL A   1      34.535  22.585  23.682  1.00  0.00    -0.219 N 
ATOM     20  C   UNL A   1      33.378  21.845  23.752  1.00  0.00     0.226 A 
ATOM     21  N   UNL A   1      34.439  23.468  22.662  1.00  0.00    -0.155 NA
ATOM     22  N   UNL A   1      32.625  22.076  22.703  1.00  0.00    -0.223 NA
ATOM     23  C   UNL A   1      33.333  23.039  22.045  1.00  0.00     0.246 A 
ENDBRANCH  15  19
BRANCH  16  24
ATOM     24  C   UNL A   1      39.425  23.207  26.452  1.00  0.00     0.416 C 
ATOM     25  F   UNL A   1      39.826  24.422  25.980  1.00  0.00    -0.166 F 
ATOM     26  F   UNL A   1      39.473  23.333  27.802  1.00  0.00    -0.166 F 
ATOM     27  F   UNL A   1      40.392  22.323  26.109  1.00  0.00    -0.166 F 
ENDBRANCH  16  24
ENDBRANCH  11  13
ENDBRANCH   8   9
ENDBRANCH   7   8
BRANCH   7  28
ATOM     28  C   UNL A   1      30.954  27.523  24.897  1.00  0.00    -0.035 A 
ATOM     29  C   UNL A   1      29.852  26.754  24.480  1.00  0.00     0.004 A 
ATOM     30  C   UNL A   1      31.124  28.785  24.295  1.00  0.00     0.004 A 
ATOM     31  C   UNL A   1      28.950  27.231  23.518  1.00  0.00     0.000 A 
ATOM     32  C   UNL A   1      30.218  29.265  23.338  1.00  0.00     0.000 A 
ATOM     33  C   UNL A   1      29.131  28.488  22.950  1.00  0.00     0.000 A 
ENDBRANCH   7  28
ENDBRANCH   4   7
ENDBRANCH   2   3
ENDBRANCH   1   2
BRANCH   1  34
ATOM     34  C   UNL A   1      34.669  31.565  28.398  1.00  0.00     0.002 C 
BRANCH  34  35
ATOM     35  C   UNL A   1      34.634  32.965  29.036  1.00  0.00     0.002 C 
BRANCH  35  36
ATOM     36  C   UNL A   1      33.679  34.127  28.685  1.00  0.00     0.021 C 
BRANCH  36  37
ATOM     37  C   UNL A   1      33.535  35.489  29.424  1.00  0.00     0.116 C 
BRANCH  37  38
ATOM     38  N   UNL A   1      32.535  35.667  30.458  1.00  0.00    -0.352 N 
ATOM     39  C   UNL A   1      32.691  35.517  31.826  1.00  0.00     0.251 C 
ATOM     40  H   UNL A   1      31.637  35.927  30.150  1.00  0.00     0.163 HD
ATOM     41  O   UNL A   1      31.796  35.871  32.600  1.00  0.00    -0.269 OA
BRANCH  39  42
ATOM     42  C   UNL A   1      33.913  34.905  32.398  1.00  0.00     0.039 A 
ATOM     43  C   UNL A   1      33.823  33.630  32.963  1.00  0.00     0.014 A 
ATOM     44  C   UNL A   1      35.133  35.584  32.427  1.00  0.00     0.014 A 
ATOM     45  C   UNL A   1      34.972  33.000  33.458  1.00  0.00     0.010 A 
ATOM     46  C   UNL A   1      36.288  34.944  32.891  1.00  0.00     0.010 A 
ATOM     47  C   UNL A   1      36.226  33.631  33.381  1.00  0.00    -0.014 A 
BRANCH  47  48
ATOM     48  C   UNL A   1      37.470  32.878  33.711  1.00  0.00     0.031 A 
ATOM     49  C   UNL A   1      38.019  31.821  32.794  1.00  0.00     0.074 A 
ATOM     50  C   UNL A   1      38.085  33.135  34.883  1.00  0.00     0.049 A 
ATOM     51  N   UNL A   1      39.102  31.093  32.926  1.00  0.00    -0.248 NA
ATOM     52  C   UNL A   1      37.243  31.526  31.582  1.00  0.00     0.031 C 
ATOM     53  C   UNL A   1      37.613  34.095  35.885  1.00  0.00     0.029 A 
ATOM     54  N   UNL A   1      39.234  32.623  35.435  1.00  0.00    -0.354 N 
ATOM     55  C   UNL A   1      39.136  30.253  31.819  1.00  0.00     0.074 A 
ATOM     56  C   UNL A   1      37.939  30.529  31.052  1.00  0.00     0.031 C 
ATOM     57  C   UNL A   1      38.483  34.132  36.905  1.00  0.00     0.029 A 
ATOM     58  C   UNL A   1      39.555  33.176  36.653  1.00  0.00     0.049 A 
ATOM     59  H   UNL A   1      39.776  31.926  34.999  1.00  0.00     0.167 HD
ATOM     60  C   UNL A   1      40.086  29.352  31.467  1.00  0.00     0.037 A 
ATOM     61  C   UNL A   1      40.596  32.941  37.474  1.00  0.00     0.037 A 
ATOM     62  C   UNL A   1      41.277  29.091  32.237  1.00  0.00     0.049 A 
ATOM     63  C   UNL A   1      41.637  31.938  37.060  1.00  0.00     0.074 A 
ATOM     64  C   UNL A   1      42.330  28.241  31.942  1.00  0.00     0.029 A 
ATOM     65  N   UNL A   1      41.568  29.673  33.463  1.00  0.00    -0.354 N 
ATOM     66  N   UNL A   1      41.697  31.215  35.968  1.00  0.00    -0.248 NA
ATOM     67  C   UNL A   1      42.756  31.722  37.987  1.00  0.00     0.031 C 
ATOM     68  C   UNL A   1      43.230  28.269  33.012  1.00  0.00     0.029 A 
ATOM     69  C   UNL A   1      42.769  29.182  33.949  1.00  0.00     0.049 A 
ATOM     70  H   UNL A   1      41.004  30.336  33.921  1.00  0.00     0.167 HD
ATOM     71  C   UNL A   1      42.872  30.480  36.062  1.00  0.00     0.074 A 
ATOM     72  C   UNL A   1      43.501  30.859  37.311  1.00  0.00     0.031 C 
ATOM     73  C   UNL A   1      43.382  29.573  35.194  1.00  0.00     0.037 A 
BRANCH  60  74
ATOM     74  C   UNL A   1      39.874  28.576  30.194  1.00  0.00     0.057 A 
ATOM     75  C   UNL A   1      40.375  29.021  28.963  1.00  0.00     0.134 A 
ATOM     76  C   UNL A   1      39.187  27.355  30.202  1.00  0.00     0.134 A 
ATOM     77  F   UNL A   1      41.041  30.183  28.880  1.00  0.00    -0.206 F 
ATOM     78  C   UNL A   1      40.170  28.301  27.784  1.00  0.00     0.040 A 
ATOM     79  C   UNL A   1      39.001  26.612  29.034  1.00  0.00     0.040 A 
ATOM     80  F   UNL A   1      38.692  26.858  31.345  1.00  0.00    -0.206 F 
ATOM     81  C   UNL A   1      39.483  27.089  27.819  1.00  0.00     0.006 A 
ENDBRANCH  60  74
BRANCH  61  82
ATOM     82  C   UNL A   1      40.725  33.694  38.750  1.00  0.00     0.057 A 
ATOM     83  C   UNL A   1      40.056  33.278  39.908  1.00  0.00     0.134 A 
ATOM     84  C   UNL A   1      41.519  34.844  38.847  1.00  0.00     0.134 A 
ATOM     85  F   UNL A   1      39.267  32.194  39.879  1.00  0.00    -0.206 F 
ATOM     86  C   UNL A   1      40.157  33.985  41.108  1.00  0.00     0.040 A 
ATOM     87  C   UNL A   1      41.650  35.546  40.047  1.00  0.00     0.040 A 
ATOM     88  F   UNL A   1      42.193  35.293  37.778  1.00  0.00    -0.206 F 
ATOM     89  C   UNL A   1      40.961  35.120  41.181  1.00  0.00     0.006 A 
ENDBRANCH  61  82
BRANCH  73  90
ATOM     90  C   UNL A   1      44.702  28.952  35.552  1.00  0.00     0.057 A 
ATOM     91  C   UNL A   1      45.920  29.519  35.159  1.00  0.00     0.134 A 
ATOM     92  C   UNL A   1      44.752  27.790  36.334  1.00  0.00     0.134 A 
ATOM     93  F   UNL A   1      45.942  30.624  34.399  1.00  0.00    -0.206 F 
ATOM     94  C   UNL A   1      47.141  28.941  35.509  1.00  0.00     0.040 A 
ATOM     95  C   UNL A   1      45.966  27.218  36.715  1.00  0.00     0.040 A 
ATOM     96  F   UNL A   1      43.622  27.200  36.750  1.00  0.00    -0.206 F 
ATOM     97  C   UNL A   1      47.166  27.790  36.296  1.00  0.00     0.006 A 
ENDBRANCH  73  90
ENDBRANCH  47  48
ENDBRANCH  39  42
ENDBRANCH  37  38
ENDBRANCH  36  37
ENDBRANCH  35  36
ENDBRANCH  34  35
ENDBRANCH   1  34
TORSDOF 19
ENDMDL
