MODEL 1
REMARK VINA RESULT:     -10.6      0.000      0.000
REMARK SMILES CCCCCNC(=O)Oc1cccc(-c2ccc([C@@H](C)C(=O)NCCCCCCNC(=O)c3ccc(-c4c5nc(c(-c6c(F)cccc6F)c6ccc([nH]6)c(-c6c(F)cccc6F)c6nc(c(-c7c(F)cccc7F)c7ccc4[nH]7)C=C6)C=C5)cc3)cc2F)c1
REMARK SMILES IDX 21 1 22 2 23 3 19 5 20 6 18 7 15 8 16 9 88 10 17 11 87 12
REMARK SMILES IDX 89 13 14 14 10 15 11 16 90 17 12 18 13 19 9 20 7 21 6 22
REMARK SMILES IDX 8 24 5 25 4 26 3 27 2 28 1 29 24 30 25 31 26 32 27 33 28 34
REMARK SMILES IDX 29 35 30 36 31 37 32 39 33 40 34 41 86 42 35 43 85 44 36 45
REMARK SMILES IDX 37 46 38 47 79 48 39 49 84 50 78 51 80 52 40 53 83 54 77 55
REMARK SMILES IDX 76 56 41 58 67 59 50 60 66 61 51 62 54 63 65 64 81 65 52 66
REMARK SMILES IDX 53 67 64 69 82 70 55 71 42 72 43 73 48 74 44 75 45 76 47 77
REMARK SMILES IDX 49 78 46 79 68 80 69 81 74 82 70 83 71 84 73 85 75 86 72 87
REMARK SMILES IDX 56 88 57 89 62 90 58 91 59 92 61 93 63 94 60 95
REMARK H PARENT 23 4 6 23 30 38 80 57 54 68
REMARK Flexibility Score: inf
ROOT
ATOM      1  C   UNL A   1      32.157  25.167  25.369  1.00  0.00     0.227 C 
ATOM      2  O   UNL A   1      31.472  24.150  25.209  1.00  0.00    -0.274 OA
ATOM      3  N   UNL A   1      31.716  26.055  26.302  1.00  0.00    -0.356 N 
ATOM      4  H   UNL A   1      30.928  25.750  26.807  1.00  0.00     0.163 HD
ENDROOT
BRANCH   1   5
ATOM      5  C   UNL A   1      33.437  25.367  24.542  1.00  0.00     0.105 C 
ATOM      6  C   UNL A   1      33.179  25.722  23.078  1.00  0.00     0.023 C 
BRANCH   5   7
ATOM      7  C   UNL A   1      34.495  24.306  24.801  1.00  0.00    -0.033 A 
ATOM      8  C   UNL A   1      36.666  22.488  25.210  1.00  0.00     0.018 A 
ATOM      9  C   UNL A   1      35.888  22.959  26.280  1.00  0.00     0.012 A 
ATOM     10  C   UNL A   1      36.282  22.902  23.927  1.00  0.00     0.131 A 
ATOM     11  C   UNL A   1      34.806  23.825  26.076  1.00  0.00     0.005 A 
ATOM     12  C   UNL A   1      35.237  23.806  23.722  1.00  0.00     0.044 A 
ATOM     13  F   UNL A   1      36.926  22.444  22.841  1.00  0.00    -0.206 F 
BRANCH   8  14
ATOM     14  C   UNL A   1      37.857  21.646  25.455  1.00  0.00    -0.012 A 
ATOM     15  C   UNL A   1      40.059  21.331  26.445  1.00  0.00     0.133 A 
ATOM     16  C   UNL A   1      40.100  20.007  26.023  1.00  0.00     0.047 A 
ATOM     17  C   UNL A   1      38.965  22.148  26.159  1.00  0.00     0.056 A 
ATOM     18  C   UNL A   1      39.017  19.489  25.319  1.00  0.00     0.004 A 
ATOM     19  C   UNL A   1      37.913  20.301  25.035  1.00  0.00     0.009 A 
BRANCH  15  20
ATOM     20  O   UNL A   1      41.211  21.846  27.059  1.00  0.00    -0.410 OA
BRANCH  20  21
ATOM     21  C   UNL A   1      42.250  22.268  26.245  1.00  0.00     0.412 C 
ATOM     22  N   UNL A   1      43.176  23.023  26.911  1.00  0.00    -0.321 N 
ATOM     23  H   UNL A   1      43.936  23.360  26.382  1.00  0.00     0.167 HD
ATOM     24  O   UNL A   1      42.374  22.031  25.049  1.00  0.00    -0.224 OA
BRANCH  22  25
ATOM     25  C   UNL A   1      43.154  23.377  28.315  1.00  0.00     0.119 C 
BRANCH  25  26
ATOM     26  C   UNL A   1      44.376  24.201  28.721  1.00  0.00     0.021 C 
BRANCH  26  27
ATOM     27  C   UNL A   1      44.638  24.273  30.230  1.00  0.00     0.002 C 
BRANCH  27  28
ATOM     28  C   UNL A   1      43.917  23.224  31.079  1.00  0.00    -0.003 C 
ATOM     29  C   UNL A   1      43.978  23.502  32.573  1.00  0.00     0.004 C 
ENDBRANCH  27  28
ENDBRANCH  26  27
ENDBRANCH  25  26
ENDBRANCH  22  25
ENDBRANCH  20  21
ENDBRANCH  15  20
ENDBRANCH   8  14
ENDBRANCH   5   7
ENDBRANCH   1   5
BRANCH   3  30
ATOM     30  C   UNL A   1      32.197  27.364  26.684  1.00  0.00     0.116 C 
BRANCH  30  31
ATOM     31  C   UNL A   1      31.738  28.445  25.704  1.00  0.00     0.021 C 
BRANCH  31  32
ATOM     32  C   UNL A   1      32.016  29.874  26.185  1.00  0.00     0.002 C 
BRANCH  32  33
ATOM     33  C   UNL A   1      31.084  30.948  25.608  1.00  0.00     0.002 C 
BRANCH  33  34
ATOM     34  C   UNL A   1      31.027  32.261  26.394  1.00  0.00     0.021 C 
BRANCH  34  35
ATOM     35  C   UNL A   1      32.341  32.662  27.059  1.00  0.00     0.116 C 
BRANCH  35  36
ATOM     36  N   UNL A   1      32.304  34.033  27.541  1.00  0.00    -0.352 N 
ATOM     37  C   UNL A   1      33.062  34.644  28.506  1.00  0.00     0.251 C 
ATOM     38  H   UNL A   1      31.634  34.611  27.108  1.00  0.00     0.163 HD
ATOM     39  O   UNL A   1      32.730  35.743  28.943  1.00  0.00    -0.269 OA
BRANCH  37  40
ATOM     40  C   UNL A   1      34.278  33.986  29.028  1.00  0.00     0.039 A 
ATOM     41  C   UNL A   1      34.153  33.069  30.075  1.00  0.00     0.014 A 
ATOM     42  C   UNL A   1      35.543  34.309  28.527  1.00  0.00     0.014 A 
ATOM     43  C   UNL A   1      35.291  32.450  30.595  1.00  0.00     0.010 A 
ATOM     44  C   UNL A   1      36.669  33.639  28.997  1.00  0.00     0.010 A 
ATOM     45  C   UNL A   1      36.557  32.719  30.049  1.00  0.00    -0.014 A 
BRANCH  45  46
ATOM     46  C   UNL A   1      37.778  32.075  30.594  1.00  0.00     0.031 A 
ATOM     47  C   UNL A   1      38.409  32.600  31.854  1.00  0.00     0.074 A 
ATOM     48  C   UNL A   1      38.346  31.051  29.929  1.00  0.00     0.049 A 
ATOM     49  N   UNL A   1      39.502  32.209  32.457  1.00  0.00    -0.248 NA
ATOM     50  C   UNL A   1      37.738  33.738  32.503  1.00  0.00     0.031 C 
ATOM     51  C   UNL A   1      37.859  30.486  28.670  1.00  0.00     0.029 A 
ATOM     52  N   UNL A   1      39.465  30.312  30.218  1.00  0.00    -0.354 N 
ATOM     53  C   UNL A   1      39.654  33.056  33.548  1.00  0.00     0.074 A 
ATOM     54  C   UNL A   1      38.578  34.022  33.486  1.00  0.00     0.031 C 
ATOM     55  C   UNL A   1      38.667  29.478  28.302  1.00  0.00     0.029 A 
ATOM     56  C   UNL A   1      39.742  29.346  29.281  1.00  0.00     0.049 A 
ATOM     57  H   UNL A   1      40.018  30.461  31.018  1.00  0.00     0.167 HD
ATOM     58  C   UNL A   1      40.587  33.017  34.529  1.00  0.00     0.037 A 
ATOM     59  C   UNL A   1      40.748  28.456  29.219  1.00  0.00     0.037 A 
ATOM     60  C   UNL A   1      41.646  32.044  34.598  1.00  0.00     0.049 A 
ATOM     61  C   UNL A   1      41.766  28.419  30.325  1.00  0.00     0.074 A 
ATOM     62  C   UNL A   1      42.618  31.891  35.571  1.00  0.00     0.029 A 
ATOM     63  N   UNL A   1      41.870  31.056  33.650  1.00  0.00    -0.354 N 
ATOM     64  N   UNL A   1      41.864  29.188  31.384  1.00  0.00    -0.248 NA
ATOM     65  C   UNL A   1      42.804  27.384  30.236  1.00  0.00     0.031 C 
ATOM     66  C   UNL A   1      43.452  30.834  35.194  1.00  0.00     0.029 A 
ATOM     67  C   UNL A   1      42.973  30.298  34.009  1.00  0.00     0.049 A 
ATOM     68  H   UNL A   1      41.327  30.916  32.841  1.00  0.00     0.167 HD
ATOM     69  C   UNL A   1      42.956  28.714  32.099  1.00  0.00     0.074 A 
ATOM     70  C   UNL A   1      43.479  27.582  31.360  1.00  0.00     0.031 C 
ATOM     71  C   UNL A   1      43.478  29.173  33.262  1.00  0.00     0.037 A 
BRANCH  58  72
ATOM     72  C   UNL A   1      40.492  34.059  35.608  1.00  0.00     0.057 A 
ATOM     73  C   UNL A   1      41.186  35.274  35.522  1.00  0.00     0.134 A 
ATOM     74  C   UNL A   1      39.700  33.849  36.743  1.00  0.00     0.134 A 
ATOM     75  F   UNL A   1      41.974  35.535  34.466  1.00  0.00    -0.206 F 
ATOM     76  C   UNL A   1      41.127  36.225  36.542  1.00  0.00     0.040 A 
ATOM     77  C   UNL A   1      39.608  34.806  37.756  1.00  0.00     0.040 A 
ATOM     78  F   UNL A   1      39.004  32.711  36.888  1.00  0.00    -0.206 F 
ATOM     79  C   UNL A   1      40.332  35.993  37.662  1.00  0.00     0.006 A 
ENDBRANCH  58  72
BRANCH  59  80
ATOM     80  C   UNL A   1      40.822  27.506  28.081  1.00  0.00     0.057 A 
ATOM     81  C   UNL A   1      40.173  26.267  28.129  1.00  0.00     0.134 A 
ATOM     82  C   UNL A   1      41.525  27.822  26.913  1.00  0.00     0.134 A 
ATOM     83  F   UNL A   1      39.496  25.903  29.228  1.00  0.00    -0.206 F 
ATOM     84  C   UNL A   1      40.231  25.370  27.062  1.00  0.00     0.040 A 
ATOM     85  C   UNL A   1      41.572  26.944  25.829  1.00  0.00     0.040 A 
ATOM     86  F   UNL A   1      42.159  28.999  26.801  1.00  0.00    -0.206 F 
ATOM     87  C   UNL A   1      40.928  25.711  25.904  1.00  0.00     0.006 A 
ENDBRANCH  59  80
BRANCH  71  88
ATOM     88  C   UNL A   1      44.656  28.432  33.825  1.00  0.00     0.057 A 
ATOM     89  C   UNL A   1      45.974  28.816  33.547  1.00  0.00     0.134 A 
ATOM     90  C   UNL A   1      44.466  27.340  34.681  1.00  0.00     0.134 A 
ATOM     91  F   UNL A   1      46.223  29.845  32.724  1.00  0.00    -0.206 F 
ATOM     92  C   UNL A   1      47.062  28.124  34.082  1.00  0.00     0.040 A 
ATOM     93  C   UNL A   1      45.546  26.657  35.243  1.00  0.00     0.040 A 
ATOM     94  F   UNL A   1      43.229  26.925  34.994  1.00  0.00    -0.206 F 
ATOM     95  C   UNL A   1      46.849  27.046  34.938  1.00  0.00     0.006 A 
ENDBRANCH  71  88
ENDBRANCH  45  46
ENDBRANCH  37  40
ENDBRANCH  35  36
ENDBRANCH  34  35
ENDBRANCH  33  34
ENDBRANCH  32  33
ENDBRANCH  31  32
ENDBRANCH  30  31
ENDBRANCH   3  30
TORSDOF 21
ENDMDL
MODEL 2
REMARK VINA RESULT:     -10.5      3.618      9.956
REMARK SMILES CCCCCNC(=O)Oc1cccc(-c2ccc([C@@H](C)C(=O)NCCCCCCNC(=O)c3ccc(-c4c5nc(c(-c6c(F)cccc6F)c6ccc([nH]6)c(-c6c(F)cccc6F)c6nc(c(-c7c(F)cccc7F)c7ccc4[nH]7)C=C6)C=C5)cc3)cc2F)c1
REMARK SMILES IDX 21 1 22 2 23 3 19 5 20 6 18 7 15 8 16 9 88 10 17 11 87 12
REMARK SMILES IDX 89 13 14 14 10 15 11 16 90 17 12 18 13 19 9 20 7 21 6 22
REMARK SMILES IDX 8 24 5 25 4 26 3 27 2 28 1 29 24 30 25 31 26 32 27 33 28 34
REMARK SMILES IDX 29 35 30 36 31 37 32 39 33 40 34 41 86 42 35 43 85 44 36 45
REMARK SMILES IDX 37 46 38 47 79 48 39 49 84 50 78 51 80 52 40 53 83 54 77 55
REMARK SMILES IDX 76 56 41 58 67 59 50 60 66 61 51 62 54 63 65 64 81 65 52 66
REMARK SMILES IDX 53 67 64 69 82 70 55 71 42 72 43 73 48 74 44 75 45 76 47 77
REMARK SMILES IDX 49 78 46 79 68 80 69 81 74 82 70 83 71 84 73 85 75 86 72 87
REMARK SMILES IDX 56 88 57 89 62 90 58 91 59 92 61 93 63 94 60 95
REMARK H PARENT 23 4 6 23 30 38 80 57 54 68
REMARK Flexibility Score: inf
ROOT
ATOM      1  C   UNL A   1      31.343  26.078  22.354  1.00  0.00     0.227 C 
ATOM      2  O   UNL A   1      30.993  26.865  21.465  1.00  0.00    -0.274 OA
ATOM      3  N   UNL A   1      32.229  25.110  21.991  1.00  0.00    -0.356 N 
ATOM      4  H   UNL A   1      32.555  25.187  21.066  1.00  0.00     0.163 HD
ENDROOT
BRANCH   1   5
ATOM      5  C   UNL A   1      30.789  26.235  23.778  1.00  0.00     0.105 C 
ATOM      6  C   UNL A   1      29.263  26.294  23.846  1.00  0.00     0.023 C 
BRANCH   5   7
ATOM      7  C   UNL A   1      31.540  27.265  24.608  1.00  0.00    -0.033 A 
ATOM      8  C   UNL A   1      33.065  28.999  26.296  1.00  0.00     0.018 A 
ATOM      9  C   UNL A   1      33.281  28.944  24.910  1.00  0.00     0.012 A 
ATOM     10  C   UNL A   1      32.021  28.211  26.800  1.00  0.00     0.131 A 
ATOM     11  C   UNL A   1      32.513  28.118  24.079  1.00  0.00     0.005 A 
ATOM     12  C   UNL A   1      31.286  27.347  25.984  1.00  0.00     0.044 A 
ATOM     13  F   UNL A   1      31.699  28.256  28.102  1.00  0.00    -0.206 F 
BRANCH   8  14
ATOM     14  C   UNL A   1      33.944  29.810  27.167  1.00  0.00    -0.012 A 
ATOM     15  C   UNL A   1      34.356  31.829  28.466  1.00  0.00     0.133 A 
ATOM     16  C   UNL A   1      35.571  31.330  28.922  1.00  0.00     0.047 A 
ATOM     17  C   UNL A   1      33.555  31.092  27.592  1.00  0.00     0.056 A 
ATOM     18  C   UNL A   1      35.981  30.066  28.510  1.00  0.00     0.004 A 
ATOM     19  C   UNL A   1      35.179  29.319  27.639  1.00  0.00     0.009 A 
BRANCH  15  20
ATOM     20  O   UNL A   1      34.027  33.146  28.820  1.00  0.00    -0.410 OA
BRANCH  20  21
ATOM     21  C   UNL A   1      34.619  34.178  28.108  1.00  0.00     0.412 C 
ATOM     22  N   UNL A   1      34.053  35.396  28.366  1.00  0.00    -0.321 N 
ATOM     23  H   UNL A   1      34.427  36.169  27.883  1.00  0.00     0.167 HD
ATOM     24  O   UNL A   1      35.545  34.070  27.313  1.00  0.00    -0.224 OA
BRANCH  22  25
ATOM     25  C   UNL A   1      32.961  35.666  29.278  1.00  0.00     0.119 C 
BRANCH  25  26
ATOM     26  C   UNL A   1      33.434  35.774  30.728  1.00  0.00     0.021 C 
BRANCH  26  27
ATOM     27  C   UNL A   1      33.299  37.168  31.352  1.00  0.00     0.002 C 
BRANCH  27  28
ATOM     28  C   UNL A   1      33.893  37.327  32.753  1.00  0.00    -0.003 C 
ATOM     29  C   UNL A   1      34.437  36.031  33.335  1.00  0.00     0.004 C 
ENDBRANCH  27  28
ENDBRANCH  26  27
ENDBRANCH  25  26
ENDBRANCH  22  25
ENDBRANCH  20  21
ENDBRANCH  15  20
ENDBRANCH   8  14
ENDBRANCH   5   7
ENDBRANCH   1   5
BRANCH   3  30
ATOM     30  C   UNL A   1      32.775  23.988  22.722  1.00  0.00     0.116 C 
BRANCH  30  31
ATOM     31  C   UNL A   1      34.195  24.269  23.216  1.00  0.00     0.021 C 
BRANCH  31  32
ATOM     32  C   UNL A   1      34.270  24.633  24.704  1.00  0.00     0.002 C 
BRANCH  32  33
ATOM     33  C   UNL A   1      33.716  23.570  25.662  1.00  0.00     0.002 C 
BRANCH  33  34
ATOM     34  C   UNL A   1      34.712  22.489  26.092  1.00  0.00     0.021 C 
BRANCH  34  35
ATOM     35  C   UNL A   1      36.170  22.938  26.110  1.00  0.00     0.116 C 
BRANCH  35  36
ATOM     36  N   UNL A   1      37.081  21.817  25.945  1.00  0.00    -0.352 N 
ATOM     37  C   UNL A   1      38.451  21.786  25.991  1.00  0.00     0.251 C 
ATOM     38  H   UNL A   1      36.649  20.948  25.775  1.00  0.00     0.163 HD
ATOM     39  O   UNL A   1      39.056  20.793  25.595  1.00  0.00    -0.269 OA
BRANCH  37  40
ATOM     40  C   UNL A   1      39.206  22.943  26.514  1.00  0.00     0.039 A 
ATOM     41  C   UNL A   1      39.000  24.201  25.939  1.00  0.00     0.014 A 
ATOM     42  C   UNL A   1      40.154  22.785  27.530  1.00  0.00     0.014 A 
ATOM     43  C   UNL A   1      39.717  25.303  26.405  1.00  0.00     0.010 A 
ATOM     44  C   UNL A   1      40.816  23.897  28.042  1.00  0.00     0.010 A 
ATOM     45  C   UNL A   1      40.619  25.163  27.471  1.00  0.00    -0.014 A 
BRANCH  45  46
ATOM     46  C   UNL A   1      41.394  26.324  27.976  1.00  0.00     0.031 A 
ATOM     47  C   UNL A   1      42.827  26.512  27.560  1.00  0.00     0.074 A 
ATOM     48  C   UNL A   1      40.826  27.180  28.846  1.00  0.00     0.049 A 
ATOM     49  N   UNL A   1      43.683  27.429  27.931  1.00  0.00    -0.248 NA
ATOM     50  C   UNL A   1      43.379  25.517  26.626  1.00  0.00     0.031 C 
ATOM     51  C   UNL A   1      39.461  27.075  29.366  1.00  0.00     0.029 A 
ATOM     52  N   UNL A   1      41.331  28.301  29.454  1.00  0.00    -0.354 N 
ATOM     53  C   UNL A   1      44.873  27.116  27.286  1.00  0.00     0.074 A 
ATOM     54  C   UNL A   1      44.647  25.889  26.552  1.00  0.00     0.031 C 
ATOM     55  C   UNL A   1      39.233  28.100  30.204  1.00  0.00     0.029 A 
ATOM     56  C   UNL A   1      40.441  28.914  30.302  1.00  0.00     0.049 A 
ATOM     57  H   UNL A   1      42.244  28.633  29.299  1.00  0.00     0.167 HD
ATOM     58  C   UNL A   1      46.042  27.802  27.280  1.00  0.00     0.037 A 
ATOM     59  C   UNL A   1      40.584  30.008  31.071  1.00  0.00     0.037 A 
ATOM     60  C   UNL A   1      46.259  29.031  27.997  1.00  0.00     0.049 A 
ATOM     61  C   UNL A   1      41.883  30.763  31.041  1.00  0.00     0.074 A 
ATOM     62  C   UNL A   1      47.391  29.827  28.025  1.00  0.00     0.029 A 
ATOM     63  N   UNL A   1      45.320  29.643  28.815  1.00  0.00    -0.354 N 
ATOM     64  N   UNL A   1      42.982  30.490  30.379  1.00  0.00    -0.248 NA
ATOM     65  C   UNL A   1      41.958  31.986  31.852  1.00  0.00     0.031 C 
ATOM     66  C   UNL A   1      47.149  30.901  28.888  1.00  0.00     0.029 A 
ATOM     67  C   UNL A   1      45.850  30.799  29.362  1.00  0.00     0.049 A 
ATOM     68  H   UNL A   1      44.411  29.304  28.982  1.00  0.00     0.167 HD
ATOM     69  C   UNL A   1      43.869  31.518  30.672  1.00  0.00     0.074 A 
ATOM     70  C   UNL A   1      43.174  32.428  31.560  1.00  0.00     0.031 C 
ATOM     71  C   UNL A   1      45.143  31.694  30.244  1.00  0.00     0.037 A 
BRANCH  58  72
ATOM     72  C   UNL A   1      47.168  27.232  26.466  1.00  0.00     0.057 A 
ATOM     73  C   UNL A   1      47.291  27.493  25.093  1.00  0.00     0.134 A 
ATOM     74  C   UNL A   1      48.140  26.414  27.054  1.00  0.00     0.134 A 
ATOM     75  F   UNL A   1      46.386  28.258  24.462  1.00  0.00    -0.206 F 
ATOM     76  C   UNL A   1      48.316  26.932  24.330  1.00  0.00     0.040 A 
ATOM     77  C   UNL A   1      49.188  25.872  26.307  1.00  0.00     0.040 A 
ATOM     78  F   UNL A   1      48.088  26.127  28.364  1.00  0.00    -0.206 F 
ATOM     79  C   UNL A   1      49.272  26.122  24.939  1.00  0.00     0.006 A 
ENDBRANCH  58  72
BRANCH  59  80
ATOM     80  C   UNL A   1      39.451  30.469  31.912  1.00  0.00     0.057 A 
ATOM     81  C   UNL A   1      39.283  30.001  33.220  1.00  0.00     0.134 A 
ATOM     82  C   UNL A   1      38.522  31.402  31.435  1.00  0.00     0.134 A 
ATOM     83  F   UNL A   1      40.132  29.095  33.727  1.00  0.00    -0.206 F 
ATOM     84  C   UNL A   1      38.224  30.432  34.020  1.00  0.00     0.040 A 
ATOM     85  C   UNL A   1      37.472  31.860  32.232  1.00  0.00     0.040 A 
ATOM     86  F   UNL A   1      38.637  31.896  30.193  1.00  0.00    -0.206 F 
ATOM     87  C   UNL A   1      37.317  31.370  33.527  1.00  0.00     0.006 A 
ENDBRANCH  59  80
BRANCH  71  88
ATOM     88  C   UNL A   1      45.857  32.932  30.704  1.00  0.00     0.057 A 
ATOM     89  C   UNL A   1      46.631  32.949  31.871  1.00  0.00     0.134 A 
ATOM     90  C   UNL A   1      45.793  34.111  29.952  1.00  0.00     0.134 A 
ATOM     91  F   UNL A   1      46.721  31.856  32.644  1.00  0.00    -0.206 F 
ATOM     92  C   UNL A   1      47.297  34.103  32.287  1.00  0.00     0.040 A 
ATOM     93  C   UNL A   1      46.476  35.264  30.343  1.00  0.00     0.040 A 
ATOM     94  F   UNL A   1      45.076  34.160  28.819  1.00  0.00    -0.206 F 
ATOM     95  C   UNL A   1      47.225  35.263  31.517  1.00  0.00     0.006 A 
ENDBRANCH  71  88
ENDBRANCH  45  46
ENDBRANCH  37  40
ENDBRANCH  35  36
ENDBRANCH  34  35
ENDBRANCH  33  34
ENDBRANCH  32  33
ENDBRANCH  31  32
ENDBRANCH  30  31
ENDBRANCH   3  30
TORSDOF 21
ENDMDL
MODEL 3
REMARK VINA RESULT:     -10.4      1.020      1.876
REMARK SMILES CCCCCNC(=O)Oc1cccc(-c2ccc([C@@H](C)C(=O)NCCCCCCNC(=O)c3ccc(-c4c5nc(c(-c6c(F)cccc6F)c6ccc([nH]6)c(-c6c(F)cccc6F)c6nc(c(-c7c(F)cccc7F)c7ccc4[nH]7)C=C6)C=C5)cc3)cc2F)c1
REMARK SMILES IDX 21 1 22 2 23 3 19 5 20 6 18 7 15 8 16 9 88 10 17 11 87 12
REMARK SMILES IDX 89 13 14 14 10 15 11 16 90 17 12 18 13 19 9 20 7 21 6 22
REMARK SMILES IDX 8 24 5 25 4 26 3 27 2 28 1 29 24 30 25 31 26 32 27 33 28 34
REMARK SMILES IDX 29 35 30 36 31 37 32 39 33 40 34 41 86 42 35 43 85 44 36 45
REMARK SMILES IDX 37 46 38 47 79 48 39 49 84 50 78 51 80 52 40 53 83 54 77 55
REMARK SMILES IDX 76 56 41 58 67 59 50 60 66 61 51 62 54 63 65 64 81 65 52 66
REMARK SMILES IDX 53 67 64 69 82 70 55 71 42 72 43 73 48 74 44 75 45 76 47 77
REMARK SMILES IDX 49 78 46 79 68 80 69 81 74 82 70 83 71 84 73 85 75 86 72 87
REMARK SMILES IDX 56 88 57 89 62 90 58 91 59 92 61 93 63 94 60 95
REMARK H PARENT 23 4 6 23 30 38 80 57 54 68
REMARK Flexibility Score: inf
ROOT
ATOM      1  C   UNL A   1      31.083  25.656  26.126  1.00  0.00     0.227 C 
ATOM      2  O   UNL A   1      30.039  25.130  26.530  1.00  0.00    -0.274 OA
ATOM      3  N   UNL A   1      31.582  26.671  26.884  1.00  0.00    -0.356 N 
ATOM      4  H   UNL A   1      31.091  26.829  27.721  1.00  0.00     0.163 HD
ENDROOT
BRANCH   1   5
ATOM      5  C   UNL A   1      31.749  25.147  24.838  1.00  0.00     0.105 C 
ATOM      6  C   UNL A   1      30.771  24.536  23.835  1.00  0.00     0.023 C 
BRANCH   5   7
ATOM      7  C   UNL A   1      33.031  24.368  25.089  1.00  0.00    -0.033 A 
ATOM      8  C   UNL A   1      35.398  22.780  25.329  1.00  0.00     0.018 A 
ATOM      9  C   UNL A   1      35.459  24.175  25.182  1.00  0.00     0.012 A 
ATOM     10  C   UNL A   1      34.119  22.215  25.418  1.00  0.00     0.131 A 
ATOM     11  C   UNL A   1      34.299  24.956  25.096  1.00  0.00     0.005 A 
ATOM     12  C   UNL A   1      32.959  22.982  25.281  1.00  0.00     0.044 A 
ATOM     13  F   UNL A   1      33.968  20.898  25.630  1.00  0.00    -0.206 F 
BRANCH   8  14
ATOM     14  C   UNL A   1      36.633  21.966  25.330  1.00  0.00    -0.012 A 
ATOM     15  C   UNL A   1      38.953  21.640  25.996  1.00  0.00     0.133 A 
ATOM     16  C   UNL A   1      38.974  20.369  25.434  1.00  0.00     0.047 A 
ATOM     17  C   UNL A   1      37.809  22.437  25.939  1.00  0.00     0.056 A 
ATOM     18  C   UNL A   1      37.823  19.882  24.821  1.00  0.00     0.004 A 
ATOM     19  C   UNL A   1      36.670  20.674  24.766  1.00  0.00     0.009 A 
BRANCH  15  20
ATOM     20  O   UNL A   1      40.160  22.135  26.513  1.00  0.00    -0.410 OA
BRANCH  20  21
ATOM     21  C   UNL A   1      41.067  21.225  27.034  1.00  0.00     0.412 C 
ATOM     22  N   UNL A   1      42.303  21.312  26.455  1.00  0.00    -0.321 N 
ATOM     23  H   UNL A   1      42.989  20.684  26.778  1.00  0.00     0.167 HD
ATOM     24  O   UNL A   1      40.840  20.400  27.912  1.00  0.00    -0.224 OA
BRANCH  22  25
ATOM     25  C   UNL A   1      42.706  22.235  25.413  1.00  0.00     0.119 C 
BRANCH  25  26
ATOM     26  C   UNL A   1      43.994  22.977  25.769  1.00  0.00     0.021 C 
BRANCH  26  27
ATOM     27  C   UNL A   1      44.315  23.039  27.267  1.00  0.00     0.002 C 
BRANCH  27  28
ATOM     28  C   UNL A   1      43.974  24.357  27.964  1.00  0.00    -0.003 C 
ATOM     29  C   UNL A   1      42.875  24.228  29.008  1.00  0.00     0.004 C 
ENDBRANCH  27  28
ENDBRANCH  26  27
ENDBRANCH  25  26
ENDBRANCH  22  25
ENDBRANCH  20  21
ENDBRANCH  15  20
ENDBRANCH   8  14
ENDBRANCH   5   7
ENDBRANCH   1   5
BRANCH   3  30
ATOM     30  C   UNL A   1      32.705  27.558  26.678  1.00  0.00     0.116 C 
BRANCH  30  31
ATOM     31  C   UNL A   1      32.355  28.707  25.730  1.00  0.00     0.021 C 
BRANCH  31  32
ATOM     32  C   UNL A   1      32.232  30.067  26.427  1.00  0.00     0.002 C 
BRANCH  32  33
ATOM     33  C   UNL A   1      31.149  30.994  25.857  1.00  0.00     0.002 C 
BRANCH  33  34
ATOM     34  C   UNL A   1      31.155  32.425  26.403  1.00  0.00     0.021 C 
BRANCH  34  35
ATOM     35  C   UNL A   1      32.425  32.815  27.154  1.00  0.00     0.116 C 
BRANCH  35  36
ATOM     36  N   UNL A   1      32.358  34.178  27.654  1.00  0.00    -0.352 N 
ATOM     37  C   UNL A   1      33.090  34.788  28.640  1.00  0.00     0.251 C 
ATOM     38  H   UNL A   1      31.685  34.751  27.220  1.00  0.00     0.163 HD
ATOM     39  O   UNL A   1      32.734  35.874  29.087  1.00  0.00    -0.269 OA
BRANCH  37  40
ATOM     40  C   UNL A   1      34.309  34.142  29.171  1.00  0.00     0.039 A 
ATOM     41  C   UNL A   1      35.534  34.393  28.545  1.00  0.00     0.014 A 
ATOM     42  C   UNL A   1      34.242  33.252  30.247  1.00  0.00     0.014 A 
ATOM     43  C   UNL A   1      36.694  33.779  29.018  1.00  0.00     0.010 A 
ATOM     44  C   UNL A   1      35.409  32.697  30.763  1.00  0.00     0.010 A 
ATOM     45  C   UNL A   1      36.643  32.938  30.142  1.00  0.00    -0.014 A 
BRANCH  45  46
ATOM     46  C   UNL A   1      37.866  32.273  30.656  1.00  0.00     0.031 A 
ATOM     47  C   UNL A   1      38.575  32.826  31.861  1.00  0.00     0.074 A 
ATOM     48  C   UNL A   1      38.367  31.203  30.010  1.00  0.00     0.049 A 
ATOM     49  N   UNL A   1      39.681  32.420  32.429  1.00  0.00    -0.248 NA
ATOM     50  C   UNL A   1      37.975  34.013  32.492  1.00  0.00     0.031 C 
ATOM     51  C   UNL A   1      37.801  30.605  28.799  1.00  0.00     0.029 A 
ATOM     52  N   UNL A   1      39.473  30.437  30.277  1.00  0.00    -0.354 N 
ATOM     53  C   UNL A   1      39.914  33.305  33.475  1.00  0.00     0.074 A 
ATOM     54  C   UNL A   1      38.870  34.306  33.422  1.00  0.00     0.031 C 
ATOM     55  C   UNL A   1      38.556  29.555  28.437  1.00  0.00     0.029 A 
ATOM     56  C   UNL A   1      39.671  29.424  29.370  1.00  0.00     0.049 A 
ATOM     57  H   UNL A   1      40.068  30.598  31.044  1.00  0.00     0.167 HD
ATOM     58  C   UNL A   1      40.892  33.273  34.413  1.00  0.00     0.037 A 
ATOM     59  C   UNL A   1      40.643  28.496  29.299  1.00  0.00     0.037 A 
ATOM     60  C   UNL A   1      41.919  32.266  34.474  1.00  0.00     0.049 A 
ATOM     61  C   UNL A   1      41.710  28.468  30.357  1.00  0.00     0.074 A 
ATOM     62  C   UNL A   1      42.931  32.118  35.406  1.00  0.00     0.029 A 
ATOM     63  N   UNL A   1      42.064  31.233  33.559  1.00  0.00    -0.354 N 
ATOM     64  N   UNL A   1      41.885  29.275  31.376  1.00  0.00    -0.248 NA
ATOM     65  C   UNL A   1      42.707  27.393  30.264  1.00  0.00     0.031 C 
ATOM     66  C   UNL A   1      43.709  31.017  35.035  1.00  0.00     0.029 A 
ATOM     67  C   UNL A   1      43.155  30.451  33.898  1.00  0.00     0.049 A 
ATOM     68  H   UNL A   1      41.478  31.079  32.783  1.00  0.00     0.167 HD
ATOM     69  C   UNL A   1      42.993  28.792  32.060  1.00  0.00     0.074 A 
ATOM     70  C   UNL A   1      43.441  27.613  31.346  1.00  0.00     0.031 C 
ATOM     71  C   UNL A   1      43.586  29.279  33.177  1.00  0.00     0.037 A 
BRANCH  58  72
ATOM     72  C   UNL A   1      40.884  34.360  35.449  1.00  0.00     0.057 A 
ATOM     73  C   UNL A   1      41.589  35.559  35.266  1.00  0.00     0.134 A 
ATOM     74  C   UNL A   1      40.166  34.213  36.642  1.00  0.00     0.134 A 
ATOM     75  F   UNL A   1      42.309  35.761  34.151  1.00  0.00    -0.206 F 
ATOM     76  C   UNL A   1      41.612  36.552  36.246  1.00  0.00     0.040 A 
ATOM     77  C   UNL A   1      40.156  35.213  37.617  1.00  0.00     0.040 A 
ATOM     78  F   UNL A   1      39.464  33.095  36.881  1.00  0.00    -0.206 F 
ATOM     79  C   UNL A   1      40.889  36.382  37.424  1.00  0.00     0.006 A 
ENDBRANCH  58  72
BRANCH  59  80
ATOM     80  C   UNL A   1      40.629  27.499  28.200  1.00  0.00     0.057 A 
ATOM     81  C   UNL A   1      41.360  27.707  27.025  1.00  0.00     0.134 A 
ATOM     82  C   UNL A   1      39.901  26.308  28.306  1.00  0.00     0.134 A 
ATOM     83  F   UNL A   1      42.064  28.836  26.859  1.00  0.00    -0.206 F 
ATOM     84  C   UNL A   1      41.357  26.773  25.988  1.00  0.00     0.040 A 
ATOM     85  C   UNL A   1      39.908  25.355  27.287  1.00  0.00     0.040 A 
ATOM     86  F   UNL A   1      39.189  26.046  29.412  1.00  0.00    -0.206 F 
ATOM     87  C   UNL A   1      40.634  25.589  26.120  1.00  0.00     0.006 A 
ENDBRANCH  59  80
BRANCH  71  88
ATOM     88  C   UNL A   1      44.763  28.519  33.715  1.00  0.00     0.057 A 
ATOM     89  C   UNL A   1      44.610  27.461  34.620  1.00  0.00     0.134 A 
ATOM     90  C   UNL A   1      46.063  28.831  33.296  1.00  0.00     0.134 A 
ATOM     91  F   UNL A   1      43.393  27.122  35.071  1.00  0.00    -0.206 F 
ATOM     92  C   UNL A   1      45.712  26.755  35.108  1.00  0.00     0.040 A 
ATOM     93  C   UNL A   1      47.169  28.115  33.757  1.00  0.00     0.040 A 
ATOM     94  F   UNL A   1      46.278  29.827  32.424  1.00  0.00    -0.206 F 
ATOM     95  C   UNL A   1      46.995  27.078  34.670  1.00  0.00     0.006 A 
ENDBRANCH  71  88
ENDBRANCH  45  46
ENDBRANCH  37  40
ENDBRANCH  35  36
ENDBRANCH  34  35
ENDBRANCH  33  34
ENDBRANCH  32  33
ENDBRANCH  31  32
ENDBRANCH  30  31
ENDBRANCH   3  30
TORSDOF 21
ENDMDL
