MODEL 1
REMARK VINA RESULT:     -11.7      0.000      0.000
REMARK SMILES O=C(NCCCCCCNC(=O)c1cc(OCc2ccc(Br)cc2F)cs1)c1ccc(-c2c3nc(c(-c4c(F)cccc4F)c4ccc([nH]4)c(-c4c(F)cccc4F)c4nc(c(-c5c(F)cccc5F)c5ccc2[nH]5)C=C4)C=C3)cc1
REMARK SMILES IDX 7 1 6 2 5 3 4 4 3 5 1 6 2 7 28 9 29 10 81 11 30 12 80 13
REMARK SMILES IDX 31 14 32 15 33 16 74 17 34 18 79 19 73 20 75 21 35 22 78 23
REMARK SMILES IDX 72 24 71 25 36 27 62 28 45 29 61 30 46 31 49 32 60 33 76 34
REMARK SMILES IDX 47 35 48 36 59 38 77 39 50 40 37 41 38 42 43 43 39 44 40 45
REMARK SMILES IDX 42 46 44 47 41 48 63 49 64 50 69 51 65 52 66 53 68 54 70 55
REMARK SMILES IDX 67 56 51 57 52 58 57 59 53 60 54 61 56 62 58 63 55 64 8 65
REMARK SMILES IDX 9 66 10 67 11 68 12 70 13 71 14 72 27 73 15 74 26 75 16 76
REMARK SMILES IDX 17 77 18 78 19 79 24 80 20 81 23 82 25 83 21 84 22 85
REMARK H PARENT 3 8 75 26 49 37 10 69
REMARK Flexibility Score: inf
ROOT
ATOM      1  C   UNL A   1      36.724  21.942  24.324  1.00  0.00     0.002 C 
ENDROOT
BRANCH   1   2
ATOM      2  C   UNL A   1      36.637  20.589  25.039  1.00  0.00     0.002 C 
BRANCH   2   3
ATOM      3  C   UNL A   1      37.880  19.707  24.939  1.00  0.00     0.021 C 
BRANCH   3   4
ATOM      4  C   UNL A   1      39.070  20.155  25.780  1.00  0.00     0.116 C 
BRANCH   4   5
ATOM      5  N   UNL A   1      40.146  19.179  25.816  1.00  0.00    -0.352 N 
ATOM      6  O   UNL A   1      42.272  18.437  25.968  1.00  0.00    -0.269 OA
ATOM      7  C   UNL A   1      41.475  19.359  26.122  1.00  0.00     0.251 C 
ATOM      8  H   UNL A   1      39.887  18.257  25.588  1.00  0.00     0.163 HD
BRANCH   7   9
ATOM      9  C   UNL A   1      41.960  20.676  26.601  1.00  0.00     0.039 A 
ATOM     10  C   UNL A   1      41.929  21.006  27.957  1.00  0.00     0.014 A 
ATOM     11  C   UNL A   1      42.453  21.598  25.672  1.00  0.00     0.014 A 
ATOM     12  C   UNL A   1      42.225  22.305  28.360  1.00  0.00     0.010 A 
ATOM     13  C   UNL A   1      42.839  22.875  26.093  1.00  0.00     0.010 A 
ATOM     14  C   UNL A   1      42.687  23.256  27.434  1.00  0.00    -0.014 A 
BRANCH  14  15
ATOM     15  C   UNL A   1      43.025  24.627  27.905  1.00  0.00     0.031 A 
ATOM     16  C   UNL A   1      44.455  25.082  28.020  1.00  0.00     0.074 A 
ATOM     17  C   UNL A   1      42.025  25.482  28.195  1.00  0.00     0.049 A 
ATOM     18  N   UNL A   1      44.922  26.255  28.372  1.00  0.00    -0.248 NA
ATOM     19  C   UNL A   1      45.499  24.092  27.716  1.00  0.00     0.031 C 
ATOM     20  C   UNL A   1      40.598  25.160  28.140  1.00  0.00     0.029 A 
ATOM     21  N   UNL A   1      42.054  26.801  28.573  1.00  0.00    -0.354 N 
ATOM     22  C   UNL A   1      46.306  26.139  28.353  1.00  0.00     0.074 A 
ATOM     23  C   UNL A   1      46.606  24.772  27.983  1.00  0.00     0.031 C 
ATOM     24  C   UNL A   1      39.887  26.264  28.416  1.00  0.00     0.029 A 
ATOM     25  C   UNL A   1      40.806  27.355  28.724  1.00  0.00     0.049 A 
ATOM     26  H   UNL A   1      42.887  27.302  28.721  1.00  0.00     0.167 HD
ATOM     27  C   UNL A   1      47.242  27.086  28.611  1.00  0.00     0.037 A 
ATOM     28  C   UNL A   1      40.437  28.599  29.077  1.00  0.00     0.037 A 
ATOM     29  C   UNL A   1      46.943  28.454  28.955  1.00  0.00     0.049 A 
ATOM     30  C   UNL A   1      41.493  29.626  29.362  1.00  0.00     0.074 A 
ATOM     31  C   UNL A   1      47.824  29.497  29.186  1.00  0.00     0.029 A 
ATOM     32  N   UNL A   1      45.666  28.969  29.120  1.00  0.00    -0.354 N 
ATOM     33  N   UNL A   1      42.797  29.512  29.294  1.00  0.00    -0.248 NA
ATOM     34  C   UNL A   1      41.025  30.958  29.771  1.00  0.00     0.031 C 
ATOM     35  C   UNL A   1      47.082  30.630  29.536  1.00  0.00     0.029 A 
ATOM     36  C   UNL A   1      45.736  30.308  29.471  1.00  0.00     0.049 A 
ATOM     37  H   UNL A   1      44.832  28.457  29.005  1.00  0.00     0.167 HD
ATOM     38  C   UNL A   1      43.305  30.761  29.626  1.00  0.00     0.074 A 
ATOM     39  C   UNL A   1      42.167  31.621  29.879  1.00  0.00     0.031 C 
ATOM     40  C   UNL A   1      44.597  31.157  29.713  1.00  0.00     0.037 A 
BRANCH  27  41
ATOM     41  C   UNL A   1      48.686  26.674  28.550  1.00  0.00     0.057 A 
ATOM     42  C   UNL A   1      49.348  26.119  29.651  1.00  0.00     0.134 A 
ATOM     43  C   UNL A   1      49.409  26.792  27.354  1.00  0.00     0.134 A 
ATOM     44  F   UNL A   1      48.719  25.986  30.828  1.00  0.00    -0.206 F 
ATOM     45  C   UNL A   1      50.684  25.717  29.572  1.00  0.00     0.040 A 
ATOM     46  C   UNL A   1      50.736  26.370  27.257  1.00  0.00     0.040 A 
ATOM     47  F   UNL A   1      48.832  27.307  26.257  1.00  0.00    -0.206 F 
ATOM     48  C   UNL A   1      51.380  25.835  28.371  1.00  0.00     0.006 A 
ENDBRANCH  27  41
BRANCH  28  49
ATOM     49  C   UNL A   1      38.996  28.947  29.165  1.00  0.00     0.057 A 
ATOM     50  C   UNL A   1      38.307  29.461  28.061  1.00  0.00     0.134 A 
ATOM     51  C   UNL A   1      38.275  28.773  30.352  1.00  0.00     0.134 A 
ATOM     52  F   UNL A   1      38.950  29.665  26.901  1.00  0.00    -0.206 F 
ATOM     53  C   UNL A   1      36.958  29.806  28.137  1.00  0.00     0.040 A 
ATOM     54  C   UNL A   1      36.918  29.087  30.436  1.00  0.00     0.040 A 
ATOM     55  F   UNL A   1      38.877  28.276  31.444  1.00  0.00    -0.206 F 
ATOM     56  C   UNL A   1      36.257  29.613  29.327  1.00  0.00     0.006 A 
ENDBRANCH  28  49
BRANCH  40  57
ATOM     57  C   UNL A   1      44.847  32.598  30.054  1.00  0.00     0.057 A 
ATOM     58  C   UNL A   1      44.907  33.593  29.071  1.00  0.00     0.134 A 
ATOM     59  C   UNL A   1      45.016  32.994  31.387  1.00  0.00     0.134 A 
ATOM     60  F   UNL A   1      44.767  33.278  27.774  1.00  0.00    -0.206 F 
ATOM     61  C   UNL A   1      45.158  34.927  29.399  1.00  0.00     0.040 A 
ATOM     62  C   UNL A   1      45.240  34.327  31.729  1.00  0.00     0.040 A 
ATOM     63  F   UNL A   1      44.962  32.091  32.378  1.00  0.00    -0.206 F 
ATOM     64  C   UNL A   1      45.320  35.298  30.732  1.00  0.00     0.006 A 
ENDBRANCH  40  57
ENDBRANCH  14  15
ENDBRANCH   7   9
ENDBRANCH   4   5
ENDBRANCH   3   4
ENDBRANCH   2   3
ENDBRANCH   1   2
BRANCH   1  65
ATOM     65  C   UNL A   1      35.531  22.883  24.526  1.00  0.00     0.021 C 
BRANCH  65  66
ATOM     66  C   UNL A   1      34.346  22.640  23.596  1.00  0.00     0.116 C 
BRANCH  66  67
ATOM     67  N   UNL A   1      33.475  21.579  24.077  1.00  0.00    -0.351 N 
ATOM     68  C   UNL A   1      32.251  21.679  24.694  1.00  0.00     0.261 C 
ATOM     69  H   UNL A   1      33.809  20.663  23.942  1.00  0.00     0.163 HD
ATOM     70  O   UNL A   1      31.766  20.652  25.181  1.00  0.00    -0.268 OA
BRANCH  68  71
ATOM     71  C   UNL A   1      31.604  22.971  24.728  1.00  0.00     0.096 A 
ATOM     72  C   UNL A   1      31.017  23.666  23.685  1.00  0.00     0.072 A 
ATOM     73  S   UNL A   1      31.495  23.834  26.197  1.00  0.00    -0.135 S 
ATOM     74  C   UNL A   1      30.657  24.990  24.060  1.00  0.00     0.131 A 
ATOM     75  C   UNL A   1      30.831  25.201  25.408  1.00  0.00     0.112 A 
BRANCH  74  76
ATOM     76  O   UNL A   1      30.199  26.009  23.290  1.00  0.00    -0.488 OA
BRANCH  76  77
ATOM     77  C   UNL A   1      29.034  26.689  23.764  1.00  0.00     0.268 C 
BRANCH  77  78
ATOM     78  C   UNL A   1      28.835  28.076  23.190  1.00  0.00     0.025 A 
ATOM     79  C   UNL A   1      29.890  28.743  22.547  1.00  0.00     0.011 A 
ATOM     80  C   UNL A   1      27.586  28.703  23.245  1.00  0.00     0.130 A 
ATOM     81  C   UNL A   1      29.695  30.011  21.995  1.00  0.00     0.016 A 
ATOM     82  C   UNL A   1      27.383  29.967  22.699  1.00  0.00     0.055 A 
ATOM     83  F   UNL A   1      26.547  28.080  23.817  1.00  0.00    -0.207 F 
ATOM     84  C   UNL A   1      28.441  30.617  22.073  1.00  0.00     0.020 A 
ATOM     85  Br  UNL A   1      28.171  32.322  21.305  1.00  0.00    -0.051 Br
ENDBRANCH  77  78
ENDBRANCH  76  77
ENDBRANCH  74  76
ENDBRANCH  68  71
ENDBRANCH  66  67
ENDBRANCH  65  66
ENDBRANCH   1  65
TORSDOF 16
ENDMDL
MODEL 2
REMARK VINA RESULT:     -11.6      0.464      6.241
REMARK SMILES O=C(NCCCCCCNC(=O)c1cc(OCc2ccc(Br)cc2F)cs1)c1ccc(-c2c3nc(c(-c4c(F)cccc4F)c4ccc([nH]4)c(-c4c(F)cccc4F)c4nc(c(-c5c(F)cccc5F)c5ccc2[nH]5)C=C4)C=C3)cc1
REMARK SMILES IDX 7 1 6 2 5 3 4 4 3 5 1 6 2 7 28 9 29 10 81 11 30 12 80 13
REMARK SMILES IDX 31 14 32 15 33 16 74 17 34 18 79 19 73 20 75 21 35 22 78 23
REMARK SMILES IDX 72 24 71 25 36 27 62 28 45 29 61 30 46 31 49 32 60 33 76 34
REMARK SMILES IDX 47 35 48 36 59 38 77 39 50 40 37 41 38 42 43 43 39 44 40 45
REMARK SMILES IDX 42 46 44 47 41 48 63 49 64 50 69 51 65 52 66 53 68 54 70 55
REMARK SMILES IDX 67 56 51 57 52 58 57 59 53 60 54 61 56 62 58 63 55 64 8 65
REMARK SMILES IDX 9 66 10 67 11 68 12 70 13 71 14 72 27 73 15 74 26 75 16 76
REMARK SMILES IDX 17 77 18 78 19 79 24 80 20 81 23 82 25 83 21 84 22 85
REMARK H PARENT 3 8 75 26 49 37 10 69
REMARK Flexibility Score: inf
ROOT
ATOM      1  C   UNL A   1      36.682  22.031  24.186  1.00  0.00     0.002 C 
ENDROOT
BRANCH   1   2
ATOM      2  C   UNL A   1      36.744  20.721  24.979  1.00  0.00     0.002 C 
BRANCH   2   3
ATOM      3  C   UNL A   1      38.039  19.923  24.837  1.00  0.00     0.021 C 
BRANCH   3   4
ATOM      4  C   UNL A   1      39.079  20.165  25.924  1.00  0.00     0.116 C 
BRANCH   4   5
ATOM      5  N   UNL A   1      40.146  19.178  25.926  1.00  0.00    -0.352 N 
ATOM      6  O   UNL A   1      42.270  18.417  25.949  1.00  0.00    -0.269 OA
ATOM      7  C   UNL A   1      41.497  19.356  26.115  1.00  0.00     0.251 C 
ATOM      8  H   UNL A   1      39.862  18.249  25.769  1.00  0.00     0.163 HD
BRANCH   7   9
ATOM      9  C   UNL A   1      42.031  20.690  26.484  1.00  0.00     0.039 A 
ATOM     10  C   UNL A   1      42.173  21.065  27.821  1.00  0.00     0.014 A 
ATOM     11  C   UNL A   1      42.391  21.582  25.469  1.00  0.00     0.014 A 
ATOM     12  C   UNL A   1      42.510  22.378  28.139  1.00  0.00     0.010 A 
ATOM     13  C   UNL A   1      42.819  22.874  25.794  1.00  0.00     0.010 A 
ATOM     14  C   UNL A   1      42.840  23.299  27.130  1.00  0.00    -0.014 A 
BRANCH  14  15
ATOM     15  C   UNL A   1      43.226  24.686  27.507  1.00  0.00     0.031 A 
ATOM     16  C   UNL A   1      42.190  25.705  27.900  1.00  0.00     0.074 A 
ATOM     17  C   UNL A   1      44.531  25.017  27.530  1.00  0.00     0.049 A 
ATOM     18  N   UNL A   1      42.359  26.943  28.297  1.00  0.00    -0.248 NA
ATOM     19  C   UNL A   1      40.781  25.290  27.827  1.00  0.00     0.031 C 
ATOM     20  C   UNL A   1      45.633  24.127  27.156  1.00  0.00     0.029 A 
ATOM     21  N   UNL A   1      45.157  26.180  27.903  1.00  0.00    -0.354 N 
ATOM     22  C   UNL A   1      41.085  27.459  28.498  1.00  0.00     0.074 A 
ATOM     23  C   UNL A   1      40.149  26.410  28.152  1.00  0.00     0.031 C 
ATOM     24  C   UNL A   1      46.798  24.755  27.370  1.00  0.00     0.029 A 
ATOM     25  C   UNL A   1      46.527  26.109  27.842  1.00  0.00     0.049 A 
ATOM     26  H   UNL A   1      44.671  26.987  28.187  1.00  0.00     0.167 HD
ATOM     27  C   UNL A   1      40.727  28.691  28.940  1.00  0.00     0.037 A 
ATOM     28  C   UNL A   1      47.465  27.031  28.126  1.00  0.00     0.037 A 
ATOM     29  C   UNL A   1      41.660  29.727  29.308  1.00  0.00     0.049 A 
ATOM     30  C   UNL A   1      47.041  28.387  28.607  1.00  0.00     0.074 A 
ATOM     31  C   UNL A   1      41.392  30.988  29.811  1.00  0.00     0.029 A 
ATOM     32  N   UNL A   1      43.039  29.622  29.210  1.00  0.00    -0.354 N 
ATOM     33  N   UNL A   1      45.833  28.842  28.836  1.00  0.00    -0.248 NA
ATOM     34  C   UNL A   1      48.112  29.358  28.872  1.00  0.00     0.031 C 
ATOM     35  C   UNL A   1      42.606  31.664  29.974  1.00  0.00     0.029 A 
ATOM     36  C   UNL A   1      43.634  30.805  29.622  1.00  0.00     0.049 A 
ATOM     37  H   UNL A   1      43.524  28.826  28.893  1.00  0.00     0.167 HD
ATOM     38  C   UNL A   1      46.000  30.142  29.296  1.00  0.00     0.074 A 
ATOM     39  C   UNL A   1      47.425  30.396  29.328  1.00  0.00     0.031 C 
ATOM     40  C   UNL A   1      45.055  31.043  29.658  1.00  0.00     0.037 A 
BRANCH  27  41
ATOM     41  C   UNL A   1      39.259  28.997  29.034  1.00  0.00     0.057 A 
ATOM     42  C   UNL A   1      38.511  29.402  27.923  1.00  0.00     0.134 A 
ATOM     43  C   UNL A   1      38.576  28.838  30.248  1.00  0.00     0.134 A 
ATOM     44  F   UNL A   1      39.103  29.584  26.732  1.00  0.00    -0.206 F 
ATOM     45  C   UNL A   1      37.141  29.660  28.019  1.00  0.00     0.040 A 
ATOM     46  C   UNL A   1      37.203  29.068  30.351  1.00  0.00     0.040 A 
ATOM     47  F   UNL A   1      39.230  28.443  31.352  1.00  0.00    -0.206 F 
ATOM     48  C   UNL A   1      36.482  29.486  29.234  1.00  0.00     0.006 A 
ENDBRANCH  27  41
BRANCH  28  49
ATOM     49  C   UNL A   1      48.903  26.693  27.976  1.00  0.00     0.057 A 
ATOM     50  C   UNL A   1      49.563  26.868  26.755  1.00  0.00     0.134 A 
ATOM     51  C   UNL A   1      49.650  26.190  29.048  1.00  0.00     0.134 A 
ATOM     52  F   UNL A   1      48.895  27.330  25.688  1.00  0.00    -0.206 F 
ATOM     53  C   UNL A   1      50.910  26.539  26.599  1.00  0.00     0.040 A 
ATOM     54  C   UNL A   1      51.004  25.883  28.915  1.00  0.00     0.040 A 
ATOM     55  F   UNL A   1      49.076  26.008  30.247  1.00  0.00    -0.206 F 
ATOM     56  C   UNL A   1      51.636  26.050  27.684  1.00  0.00     0.006 A 
ENDBRANCH  28  49
BRANCH  40  57
ATOM     57  C   UNL A   1      45.538  32.371  30.164  1.00  0.00     0.057 A 
ATOM     58  C   UNL A   1      45.821  32.592  31.518  1.00  0.00     0.134 A 
ATOM     59  C   UNL A   1      45.735  33.440  29.279  1.00  0.00     0.134 A 
ATOM     60  F   UNL A   1      45.639  31.614  32.418  1.00  0.00    -0.206 F 
ATOM     61  C   UNL A   1      46.252  33.837  31.979  1.00  0.00     0.040 A 
ATOM     62  C   UNL A   1      46.192  34.681  29.725  1.00  0.00     0.040 A 
ATOM     63  F   UNL A   1      45.491  33.293  27.969  1.00  0.00    -0.206 F 
ATOM     64  C   UNL A   1      46.444  34.884  31.080  1.00  0.00     0.006 A 
ENDBRANCH  40  57
ENDBRANCH  14  15
ENDBRANCH   7   9
ENDBRANCH   4   5
ENDBRANCH   3   4
ENDBRANCH   2   3
ENDBRANCH   1   2
BRANCH   1  65
ATOM     65  C   UNL A   1      35.441  22.899  24.424  1.00  0.00     0.021 C 
BRANCH  65  66
ATOM     66  C   UNL A   1      34.250  22.593  23.519  1.00  0.00     0.116 C 
BRANCH  66  67
ATOM     67  N   UNL A   1      33.420  21.520  24.043  1.00  0.00    -0.351 N 
ATOM     68  C   UNL A   1      32.216  21.602  24.702  1.00  0.00     0.261 C 
ATOM     69  H   UNL A   1      33.769  20.609  23.907  1.00  0.00     0.163 HD
ATOM     70  O   UNL A   1      31.771  20.571  25.217  1.00  0.00    -0.268 OA
BRANCH  68  71
ATOM     71  C   UNL A   1      31.543  22.880  24.744  1.00  0.00     0.096 A 
ATOM     72  C   UNL A   1      30.982  23.591  23.697  1.00  0.00     0.072 A 
ATOM     73  S   UNL A   1      31.362  23.702  26.229  1.00  0.00    -0.135 S 
ATOM     74  C   UNL A   1      30.582  24.897  24.092  1.00  0.00     0.131 A 
ATOM     75  C   UNL A   1      30.701  25.076  25.451  1.00  0.00     0.112 A 
BRANCH  74  76
ATOM     76  O   UNL A   1      30.134  25.927  23.331  1.00  0.00    -0.488 OA
BRANCH  76  77
ATOM     77  C   UNL A   1      29.104  26.738  23.903  1.00  0.00     0.268 C 
BRANCH  77  78
ATOM     78  C   UNL A   1      28.897  28.072  23.219  1.00  0.00     0.025 A 
ATOM     79  C   UNL A   1      29.968  28.726  22.587  1.00  0.00     0.011 A 
ATOM     80  C   UNL A   1      27.630  28.660  23.160  1.00  0.00     0.130 A 
ATOM     81  C   UNL A   1      29.767  29.945  21.933  1.00  0.00     0.016 A 
ATOM     82  C   UNL A   1      27.421  29.874  22.512  1.00  0.00     0.055 A 
ATOM     83  F   UNL A   1      26.579  28.046  23.719  1.00  0.00    -0.207 F 
ATOM     84  C   UNL A   1      28.494  30.513  21.899  1.00  0.00     0.020 A 
ATOM     85  Br  UNL A   1      28.217  32.148  20.994  1.00  0.00    -0.051 Br
ENDBRANCH  77  78
ENDBRANCH  76  77
ENDBRANCH  74  76
ENDBRANCH  68  71
ENDBRANCH  66  67
ENDBRANCH  65  66
ENDBRANCH   1  65
TORSDOF 16
ENDMDL
MODEL 3
REMARK VINA RESULT:     -11.6      5.100      9.888
REMARK SMILES O=C(NCCCCCCNC(=O)c1cc(OCc2ccc(Br)cc2F)cs1)c1ccc(-c2c3nc(c(-c4c(F)cccc4F)c4ccc([nH]4)c(-c4c(F)cccc4F)c4nc(c(-c5c(F)cccc5F)c5ccc2[nH]5)C=C4)C=C3)cc1
REMARK SMILES IDX 7 1 6 2 5 3 4 4 3 5 1 6 2 7 28 9 29 10 81 11 30 12 80 13
REMARK SMILES IDX 31 14 32 15 33 16 74 17 34 18 79 19 73 20 75 21 35 22 78 23
REMARK SMILES IDX 72 24 71 25 36 27 62 28 45 29 61 30 46 31 49 32 60 33 76 34
REMARK SMILES IDX 47 35 48 36 59 38 77 39 50 40 37 41 38 42 43 43 39 44 40 45
REMARK SMILES IDX 42 46 44 47 41 48 63 49 64 50 69 51 65 52 66 53 68 54 70 55
REMARK SMILES IDX 67 56 51 57 52 58 57 59 53 60 54 61 56 62 58 63 55 64 8 65
REMARK SMILES IDX 9 66 10 67 11 68 12 70 13 71 14 72 27 73 15 74 26 75 16 76
REMARK SMILES IDX 17 77 18 78 19 79 24 80 20 81 23 82 25 83 21 84 22 85
REMARK H PARENT 3 8 75 26 49 37 10 69
REMARK Flexibility Score: inf
ROOT
ATOM      1  C   UNL A   1      31.732  29.856  25.516  1.00  0.00     0.002 C 
ENDROOT
BRANCH   1   2
ATOM      2  C   UNL A   1      31.803  30.563  26.874  1.00  0.00     0.002 C 
BRANCH   2   3
ATOM      3  C   UNL A   1      31.415  32.041  26.872  1.00  0.00     0.021 C 
BRANCH   3   4
ATOM      4  C   UNL A   1      32.579  33.022  26.796  1.00  0.00     0.116 C 
BRANCH   4   5
ATOM      5  N   UNL A   1      32.390  34.200  27.626  1.00  0.00    -0.352 N 
ATOM      6  O   UNL A   1      32.690  35.558  29.403  1.00  0.00    -0.269 OA
ATOM      7  C   UNL A   1      33.079  34.594  28.750  1.00  0.00     0.251 C 
ATOM      8  H   UNL A   1      31.665  34.803  27.343  1.00  0.00     0.163 HD
BRANCH   7   9
ATOM      9  C   UNL A   1      34.270  33.835  29.200  1.00  0.00     0.039 A 
ATOM     10  C   UNL A   1      34.139  32.677  29.969  1.00  0.00     0.014 A 
ATOM     11  C   UNL A   1      35.543  34.295  28.848  1.00  0.00     0.014 A 
ATOM     12  C   UNL A   1      35.269  32.082  30.523  1.00  0.00     0.010 A 
ATOM     13  C   UNL A   1      36.681  33.640  29.331  1.00  0.00     0.010 A 
ATOM     14  C   UNL A   1      36.555  32.554  30.209  1.00  0.00    -0.014 A 
BRANCH  14  15
ATOM     15  C   UNL A   1      37.743  31.875  30.794  1.00  0.00     0.031 A 
ATOM     16  C   UNL A   1      38.203  32.176  32.196  1.00  0.00     0.074 A 
ATOM     17  C   UNL A   1      38.393  30.950  30.062  1.00  0.00     0.049 A 
ATOM     18  N   UNL A   1      39.191  31.642  32.873  1.00  0.00    -0.248 NA
ATOM     19  C   UNL A   1      37.469  33.215  32.933  1.00  0.00     0.031 C 
ATOM     20  C   UNL A   1      38.059  30.578  28.685  1.00  0.00     0.029 A 
ATOM     21  N   UNL A   1      39.453  30.136  30.377  1.00  0.00    -0.354 N 
ATOM     22  C   UNL A   1      39.213  32.295  34.099  1.00  0.00     0.074 A 
ATOM     23  C   UNL A   1      38.156  33.285  34.065  1.00  0.00     0.031 C 
ATOM     24  C   UNL A   1      38.859  29.575  28.294  1.00  0.00     0.029 A 
ATOM     25  C   UNL A   1      39.798  29.271  29.368  1.00  0.00     0.049 A 
ATOM     26  H   UNL A   1      39.920  30.170  31.243  1.00  0.00     0.167 HD
ATOM     27  C   UNL A   1      40.030  32.083  35.160  1.00  0.00     0.037 A 
ATOM     28  C   UNL A   1      40.766  28.338  29.308  1.00  0.00     0.037 A 
ATOM     29  C   UNL A   1      41.066  31.081  35.203  1.00  0.00     0.049 A 
ATOM     30  C   UNL A   1      41.660  28.129  30.494  1.00  0.00     0.074 A 
ATOM     31  C   UNL A   1      41.912  30.761  36.251  1.00  0.00     0.029 A 
ATOM     32  N   UNL A   1      41.398  30.240  34.152  1.00  0.00    -0.354 N 
ATOM     33  N   UNL A   1      41.636  28.723  31.663  1.00  0.00    -0.248 NA
ATOM     34  C   UNL A   1      42.716  27.117  30.354  1.00  0.00     0.031 C 
ATOM     35  C   UNL A   1      42.787  29.758  35.819  1.00  0.00     0.029 A 
ATOM     36  C   UNL A   1      42.451  29.416  34.519  1.00  0.00     0.049 A 
ATOM     37  H   UNL A   1      40.952  30.230  33.274  1.00  0.00     0.167 HD
ATOM     38  C   UNL A   1      42.654  28.139  32.405  1.00  0.00     0.074 A 
ATOM     39  C   UNL A   1      43.265  27.134  31.560  1.00  0.00     0.031 C 
ATOM     40  C   UNL A   1      43.047  28.414  33.672  1.00  0.00     0.037 A 
BRANCH  27  41
ATOM     41  C   UNL A   1      39.853  32.966  36.363  1.00  0.00     0.057 A 
ATOM     42  C   UNL A   1      38.936  32.667  37.377  1.00  0.00     0.134 A 
ATOM     43  C   UNL A   1      40.650  34.108  36.531  1.00  0.00     0.134 A 
ATOM     44  F   UNL A   1      38.136  31.594  37.277  1.00  0.00    -0.206 F 
ATOM     45  C   UNL A   1      38.800  33.483  38.503  1.00  0.00     0.040 A 
ATOM     46  C   UNL A   1      40.540  34.917  37.663  1.00  0.00     0.040 A 
ATOM     47  F   UNL A   1      41.557  34.449  35.602  1.00  0.00    -0.206 F 
ATOM     48  C   UNL A   1      39.608  34.608  38.652  1.00  0.00     0.006 A 
ENDBRANCH  27  41
BRANCH  28  49
ATOM     49  C   UNL A   1      40.928  27.519  28.080  1.00  0.00     0.057 A 
ATOM     50  C   UNL A   1      40.265  26.296  27.934  1.00  0.00     0.134 A 
ATOM     51  C   UNL A   1      41.748  27.940  27.026  1.00  0.00     0.134 A 
ATOM     52  F   UNL A   1      39.480  25.833  28.918  1.00  0.00    -0.206 F 
ATOM     53  C   UNL A   1      40.424  25.511  26.792  1.00  0.00     0.040 A 
ATOM     54  C   UNL A   1      41.894  27.179  25.866  1.00  0.00     0.040 A 
ATOM     55  F   UNL A   1      42.403  29.108  27.102  1.00  0.00    -0.206 F 
ATOM     56  C   UNL A   1      41.236  25.956  25.750  1.00  0.00     0.006 A 
ENDBRANCH  28  49
BRANCH  40  57
ATOM     57  C   UNL A   1      44.161  27.581  34.236  1.00  0.00     0.057 A 
ATOM     58  C   UNL A   1      45.497  27.999  34.190  1.00  0.00     0.134 A 
ATOM     59  C   UNL A   1      43.889  26.348  34.845  1.00  0.00     0.134 A 
ATOM     60  F   UNL A   1      45.826  29.161  33.608  1.00  0.00    -0.206 F 
ATOM     61  C   UNL A   1      46.527  27.206  34.701  1.00  0.00     0.040 A 
ATOM     62  C   UNL A   1      44.907  25.561  35.384  1.00  0.00     0.040 A 
ATOM     63  F   UNL A   1      42.630  25.893  34.930  1.00  0.00    -0.206 F 
ATOM     64  C   UNL A   1      46.232  25.986  35.306  1.00  0.00     0.006 A 
ENDBRANCH  40  57
ENDBRANCH  14  15
ENDBRANCH   7   9
ENDBRANCH   4   5
ENDBRANCH   3   4
ENDBRANCH   2   3
ENDBRANCH   1   2
BRANCH   1  65
ATOM     65  C   UNL A   1      33.062  29.327  24.967  1.00  0.00     0.021 C 
BRANCH  65  66
ATOM     66  C   UNL A   1      33.086  29.064  23.464  1.00  0.00     0.116 C 
BRANCH  66  67
ATOM     67  N   UNL A   1      31.802  29.328  22.836  1.00  0.00    -0.351 N 
ATOM     68  C   UNL A   1      30.851  28.435  22.402  1.00  0.00     0.261 C 
ATOM     69  H   UNL A   1      31.581  30.280  22.705  1.00  0.00     0.163 HD
ATOM     70  O   UNL A   1      29.909  28.875  21.735  1.00  0.00    -0.268 OA
BRANCH  68  71
ATOM     71  C   UNL A   1      31.006  27.043  22.757  1.00  0.00     0.096 A 
ATOM     72  C   UNL A   1      30.600  26.400  23.913  1.00  0.00     0.072 A 
ATOM     73  S   UNL A   1      31.776  25.966  21.678  1.00  0.00    -0.135 S 
ATOM     74  C   UNL A   1      31.099  25.071  23.991  1.00  0.00     0.131 A 
ATOM     75  C   UNL A   1      31.726  24.695  22.825  1.00  0.00     0.112 A 
BRANCH  74  76
ATOM     76  O   UNL A   1      31.041  24.188  25.019  1.00  0.00    -0.488 OA
BRANCH  76  77
ATOM     77  C   UNL A   1      31.826  24.503  26.172  1.00  0.00     0.268 C 
BRANCH  77  78
ATOM     78  C   UNL A   1      33.267  24.047  26.100  1.00  0.00     0.025 A 
ATOM     79  C   UNL A   1      33.641  22.780  26.574  1.00  0.00     0.011 A 
ATOM     80  C   UNL A   1      34.247  24.856  25.517  1.00  0.00     0.130 A 
ATOM     81  C   UNL A   1      34.968  22.351  26.481  1.00  0.00     0.016 A 
ATOM     82  C   UNL A   1      35.572  24.438  25.421  1.00  0.00     0.055 A 
ATOM     83  F   UNL A   1      33.918  26.055  25.019  1.00  0.00    -0.207 F 
ATOM     84  C   UNL A   1      35.927  23.183  25.904  1.00  0.00     0.020 A 
ATOM     85  Br  UNL A   1      37.716  22.595  25.755  1.00  0.00    -0.051 Br
ENDBRANCH  77  78
ENDBRANCH  76  77
ENDBRANCH  74  76
ENDBRANCH  68  71
ENDBRANCH  66  67
ENDBRANCH  65  66
ENDBRANCH   1  65
TORSDOF 16
ENDMDL
