MODEL 1
REMARK VINA RESULT:     -12.0      0.000      0.000
REMARK SMILES O=C(NCCCCCCNC(=O)c1cc(Cl)ncc1-c1cccc(C(F)(F)F)c1)c1ccc(-c2c3nc(c(-c4c(F)cccc4F)c4ccc([nH]4)c(-c4c(F)cccc4F)c4nc(c(-c5c(F)cccc5F)c5ccc2[nH]5)C=C4)C=C3)cc1
REMARK SMILES IDX 6 1 5 2 4 3 3 4 1 5 2 6 30 8 31 9 83 10 32 11 82 12 33 13
REMARK SMILES IDX 34 14 35 15 76 16 36 17 81 18 75 19 77 20 37 21 80 22 74 23
REMARK SMILES IDX 73 24 38 26 64 27 47 28 63 29 48 30 51 31 62 32 78 33 49 34
REMARK SMILES IDX 50 35 61 37 79 38 52 39 39 40 40 41 45 42 41 43 42 44 44 45
REMARK SMILES IDX 46 46 43 47 65 48 66 49 71 50 67 51 68 52 70 53 72 54 69 55
REMARK SMILES IDX 53 56 54 57 59 58 55 59 56 60 58 61 60 62 57 63 7 64 8 65
REMARK SMILES IDX 9 66 10 67 11 68 12 70 13 71 14 72 19 73 15 74 18 75 16 76
REMARK SMILES IDX 17 77 20 78 21 79 29 80 22 81 24 82 23 83 25 84 26 85 27 86
REMARK SMILES IDX 28 87
REMARK H PARENT 3 7 77 25 51 36 10 69
REMARK Flexibility Score: inf
ROOT
ATOM      1  C   UNL A   1      36.627  19.896  25.003  1.00  0.00     0.002 C 
ENDROOT
BRANCH   1   2
ATOM      2  C   UNL A   1      38.095  19.657  24.655  1.00  0.00     0.021 C 
BRANCH   2   3
ATOM      3  C   UNL A   1      39.084  20.034  25.750  1.00  0.00     0.116 C 
BRANCH   3   4
ATOM      4  N   UNL A   1      40.243  19.157  25.783  1.00  0.00    -0.352 N 
ATOM      5  O   UNL A   1      42.435  18.629  25.906  1.00  0.00    -0.269 OA
ATOM      6  C   UNL A   1      41.549  19.460  26.084  1.00  0.00     0.251 C 
ATOM      7  H   UNL A   1      40.068  18.216  25.558  1.00  0.00     0.163 HD
BRANCH   6   8
ATOM      8  C   UNL A   1      41.888  20.801  26.605  1.00  0.00     0.039 A 
ATOM      9  C   UNL A   1      41.821  21.069  27.974  1.00  0.00     0.014 A 
ATOM     10  C   UNL A   1      42.286  21.800  25.712  1.00  0.00     0.014 A 
ATOM     11  C   UNL A   1      42.016  22.366  28.435  1.00  0.00     0.010 A 
ATOM     12  C   UNL A   1      42.571  23.083  26.188  1.00  0.00     0.010 A 
ATOM     13  C   UNL A   1      42.416  23.381  27.551  1.00  0.00    -0.014 A 
BRANCH  13  14
ATOM     14  C   UNL A   1      42.747  24.724  28.090  1.00  0.00     0.031 A 
ATOM     15  C   UNL A   1      44.159  25.099  28.442  1.00  0.00     0.074 A 
ATOM     16  C   UNL A   1      41.750  25.617  28.244  1.00  0.00     0.049 A 
ATOM     17  N   UNL A   1      44.613  26.228  28.925  1.00  0.00    -0.248 NA
ATOM     18  C   UNL A   1      45.194  24.076  28.233  1.00  0.00     0.031 C 
ATOM     19  C   UNL A   1      40.339  25.361  27.942  1.00  0.00     0.029 A 
ATOM     20  N   UNL A   1      41.766  26.916  28.678  1.00  0.00    -0.354 N 
ATOM     21  C   UNL A   1      45.981  26.051  29.089  1.00  0.00     0.074 A 
ATOM     22  C   UNL A   1      46.279  24.693  28.681  1.00  0.00     0.031 C 
ATOM     23  C   UNL A   1      39.634  26.479  28.158  1.00  0.00     0.029 A 
ATOM     24  C   UNL A   1      40.525  27.507  28.679  1.00  0.00     0.049 A 
ATOM     25  H   UNL A   1      42.586  27.382  28.961  1.00  0.00     0.167 HD
ATOM     26  C   UNL A   1      46.901  26.942  29.531  1.00  0.00     0.037 A 
ATOM     27  C   UNL A   1      40.142  28.732  29.078  1.00  0.00     0.037 A 
ATOM     28  C   UNL A   1      46.593  28.293  29.933  1.00  0.00     0.049 A 
ATOM     29  C   UNL A   1      41.174  29.680  29.611  1.00  0.00     0.074 A 
ATOM     30  C   UNL A   1      47.459  29.280  30.370  1.00  0.00     0.029 A 
ATOM     31  N   UNL A   1      45.320  28.842  29.956  1.00  0.00    -0.354 N 
ATOM     32  N   UNL A   1      42.469  29.510  29.728  1.00  0.00    -0.248 NA
ATOM     33  C   UNL A   1      40.694  30.989  30.070  1.00  0.00     0.031 C 
ATOM     34  C   UNL A   1      46.705  30.409  30.706  1.00  0.00     0.029 A 
ATOM     35  C   UNL A   1      45.374  30.146  30.426  1.00  0.00     0.049 A 
ATOM     36  H   UNL A   1      44.498  28.376  29.681  1.00  0.00     0.167 HD
ATOM     37  C   UNL A   1      42.962  30.696  30.255  1.00  0.00     0.074 A 
ATOM     38  C   UNL A   1      41.828  31.583  30.415  1.00  0.00     0.031 C 
ATOM     39  C   UNL A   1      44.237  31.019  30.579  1.00  0.00     0.037 A 
BRANCH  26  40
ATOM     40  C   UNL A   1      48.330  26.485  29.621  1.00  0.00     0.057 A 
ATOM     41  C   UNL A   1      49.251  26.721  28.592  1.00  0.00     0.134 A 
ATOM     42  C   UNL A   1      48.802  25.843  30.774  1.00  0.00     0.134 A 
ATOM     43  F   UNL A   1      48.864  27.322  27.458  1.00  0.00    -0.206 F 
ATOM     44  C   UNL A   1      50.584  26.317  28.698  1.00  0.00     0.040 A 
ATOM     45  C   UNL A   1      50.139  25.458  30.901  1.00  0.00     0.040 A 
ATOM     46  F   UNL A   1      47.977  25.593  31.802  1.00  0.00    -0.206 F 
ATOM     47  C   UNL A   1      51.032  25.690  29.859  1.00  0.00     0.006 A 
ENDBRANCH  26  40
BRANCH  27  48
ATOM     48  C   UNL A   1      38.712  29.120  28.997  1.00  0.00     0.057 A 
ATOM     49  C   UNL A   1      38.153  29.580  27.800  1.00  0.00     0.134 A 
ATOM     50  C   UNL A   1      37.868  29.031  30.111  1.00  0.00     0.134 A 
ATOM     51  F   UNL A   1      38.915  29.702  26.702  1.00  0.00    -0.206 F 
ATOM     52  C   UNL A   1      36.810  29.952  27.716  1.00  0.00     0.040 A 
ATOM     53  C   UNL A   1      36.517  29.370  30.035  1.00  0.00     0.040 A 
ATOM     54  F   UNL A   1      38.341  28.588  31.286  1.00  0.00    -0.206 F 
ATOM     55  C   UNL A   1      35.986  29.839  28.835  1.00  0.00     0.006 A 
ENDBRANCH  27  48
BRANCH  39  56
ATOM     56  C   UNL A   1      44.477  32.403  31.107  1.00  0.00     0.057 A 
ATOM     57  C   UNL A   1      44.465  32.686  32.478  1.00  0.00     0.134 A 
ATOM     58  C   UNL A   1      44.748  33.462  30.230  1.00  0.00     0.134 A 
ATOM     59  F   UNL A   1      44.194  31.719  33.369  1.00  0.00    -0.206 F 
ATOM     60  C   UNL A   1      44.690  33.977  32.958  1.00  0.00     0.040 A 
ATOM     61  C   UNL A   1      45.004  34.751  30.699  1.00  0.00     0.040 A 
ATOM     62  F   UNL A   1      44.781  33.258  28.905  1.00  0.00    -0.206 F 
ATOM     63  C   UNL A   1      44.967  35.012  32.067  1.00  0.00     0.006 A 
ENDBRANCH  39  56
ENDBRANCH  13  14
ENDBRANCH   6   8
ENDBRANCH   3   4
ENDBRANCH   2   3
ENDBRANCH   1   2
BRANCH   1  64
ATOM     64  C   UNL A   1      36.127  21.329  24.802  1.00  0.00     0.002 C 
BRANCH  64  65
ATOM     65  C   UNL A   1      35.701  22.071  26.073  1.00  0.00     0.021 C 
BRANCH  65  66
ATOM     66  C   UNL A   1      35.709  23.594  25.970  1.00  0.00     0.116 C 
BRANCH  66  67
ATOM     67  N   UNL A   1      35.477  24.057  24.612  1.00  0.00    -0.352 N 
ATOM     68  C   UNL A   1      34.323  24.520  24.032  1.00  0.00     0.252 C 
ATOM     69  H   UNL A   1      36.264  24.036  24.021  1.00  0.00     0.163 HD
ATOM     70  O   UNL A   1      34.300  24.827  22.845  1.00  0.00    -0.269 OA
BRANCH  68  71
ATOM     71  C   UNL A   1      33.111  24.674  24.859  1.00  0.00     0.052 A 
ATOM     72  C   UNL A   1      32.937  25.896  25.519  1.00  0.00     0.055 A 
ATOM     73  C   UNL A   1      32.146  23.658  24.947  1.00  0.00     0.013 A 
ATOM     74  C   UNL A   1      31.821  26.039  26.311  1.00  0.00     0.129 A 
ATOM     75  C   UNL A   1      31.058  23.943  25.774  1.00  0.00     0.122 A 
ATOM     76  Cl  UNL A   1      31.565  27.468  27.219  1.00  0.00    -0.062 Cl
ATOM     77  N   UNL A   1      30.879  25.094  26.465  1.00  0.00    -0.244 NA
BRANCH  73  78
ATOM     78  C   UNL A   1      32.221  22.357  24.261  1.00  0.00    -0.015 A 
ATOM     79  C   UNL A   1      31.966  22.267  22.882  1.00  0.00     0.009 A 
ATOM     80  C   UNL A   1      32.502  21.171  24.960  1.00  0.00     0.021 A 
ATOM     81  C   UNL A   1      31.977  21.036  22.224  1.00  0.00     0.001 A 
ATOM     82  C   UNL A   1      32.524  19.924  24.307  1.00  0.00     0.056 A 
ATOM     83  C   UNL A   1      32.250  19.871  22.933  1.00  0.00     0.013 A 
BRANCH  82  84
ATOM     84  C   UNL A   1      32.815  18.653  25.064  1.00  0.00     0.416 C 
ATOM     85  F   UNL A   1      31.879  17.690  24.835  1.00  0.00    -0.166 F 
ATOM     86  F   UNL A   1      34.011  18.097  24.725  1.00  0.00    -0.166 F 
ATOM     87  F   UNL A   1      32.850  18.819  26.416  1.00  0.00    -0.166 F 
ENDBRANCH  82  84
ENDBRANCH  73  78
ENDBRANCH  68  71
ENDBRANCH  66  67
ENDBRANCH  65  66
ENDBRANCH  64  65
ENDBRANCH   1  64
TORSDOF 15
ENDMDL
MODEL 2
REMARK VINA RESULT:     -12.0      4.852      9.499
REMARK SMILES O=C(NCCCCCCNC(=O)c1cc(Cl)ncc1-c1cccc(C(F)(F)F)c1)c1ccc(-c2c3nc(c(-c4c(F)cccc4F)c4ccc([nH]4)c(-c4c(F)cccc4F)c4nc(c(-c5c(F)cccc5F)c5ccc2[nH]5)C=C4)C=C3)cc1
REMARK SMILES IDX 6 1 5 2 4 3 3 4 1 5 2 6 30 8 31 9 83 10 32 11 82 12 33 13
REMARK SMILES IDX 34 14 35 15 76 16 36 17 81 18 75 19 77 20 37 21 80 22 74 23
REMARK SMILES IDX 73 24 38 26 64 27 47 28 63 29 48 30 51 31 62 32 78 33 49 34
REMARK SMILES IDX 50 35 61 37 79 38 52 39 39 40 40 41 45 42 41 43 42 44 44 45
REMARK SMILES IDX 46 46 43 47 65 48 66 49 71 50 67 51 68 52 70 53 72 54 69 55
REMARK SMILES IDX 53 56 54 57 59 58 55 59 56 60 58 61 60 62 57 63 7 64 8 65
REMARK SMILES IDX 9 66 10 67 11 68 12 70 13 71 14 72 19 73 15 74 18 75 16 76
REMARK SMILES IDX 17 77 20 78 21 79 29 80 22 81 24 82 23 83 25 84 26 85 27 86
REMARK SMILES IDX 28 87
REMARK H PARENT 3 7 77 25 51 36 10 69
REMARK Flexibility Score: inf
ROOT
ATOM      1  C   UNL A   1      31.217  31.068  25.709  1.00  0.00     0.002 C 
ENDROOT
BRANCH   1   2
ATOM      2  C   UNL A   1      31.277  32.069  26.861  1.00  0.00     0.021 C 
BRANCH   2   3
ATOM      3  C   UNL A   1      32.616  32.775  27.027  1.00  0.00     0.116 C 
BRANCH   3   4
ATOM      4  N   UNL A   1      32.482  34.100  27.611  1.00  0.00    -0.352 N 
ATOM      5  O   UNL A   1      32.828  35.738  29.126  1.00  0.00    -0.269 OA
ATOM      6  C   UNL A   1      33.180  34.662  28.652  1.00  0.00     0.251 C 
ATOM      7  H   UNL A   1      31.795  34.673  27.204  1.00  0.00     0.163 HD
BRANCH   6   8
ATOM      8  C   UNL A   1      34.349  33.954  29.216  1.00  0.00     0.039 A 
ATOM      9  C   UNL A   1      34.176  32.916  30.135  1.00  0.00     0.014 A 
ATOM     10  C   UNL A   1      35.635  34.330  28.814  1.00  0.00     0.014 A 
ATOM     11  C   UNL A   1      35.284  32.349  30.754  1.00  0.00     0.010 A 
ATOM     12  C   UNL A   1      36.749  33.695  29.370  1.00  0.00     0.010 A 
ATOM     13  C   UNL A   1      36.582  32.716  30.361  1.00  0.00    -0.014 A 
BRANCH  13  14
ATOM     14  C   UNL A   1      37.745  31.998  30.942  1.00  0.00     0.031 A 
ATOM     15  C   UNL A   1      38.251  32.314  32.320  1.00  0.00     0.074 A 
ATOM     16  C   UNL A   1      38.335  31.035  30.207  1.00  0.00     0.049 A 
ATOM     17  N   UNL A   1      39.255  31.781  32.969  1.00  0.00    -0.248 NA
ATOM     18  C   UNL A   1      37.546  33.368  33.066  1.00  0.00     0.031 C 
ATOM     19  C   UNL A   1      37.934  30.647  28.852  1.00  0.00     0.029 A 
ATOM     20  N   UNL A   1      39.383  30.201  30.494  1.00  0.00    -0.354 N 
ATOM     21  C   UNL A   1      39.312  32.438  34.192  1.00  0.00     0.074 A 
ATOM     22  C   UNL A   1      38.258  33.432  34.183  1.00  0.00     0.031 C 
ATOM     23  C   UNL A   1      38.697  29.624  28.444  1.00  0.00     0.029 A 
ATOM     24  C   UNL A   1      39.684  29.330  29.475  1.00  0.00     0.049 A 
ATOM     25  H   UNL A   1      39.873  30.222  31.348  1.00  0.00     0.167 HD
ATOM     26  C   UNL A   1      40.161  32.225  35.227  1.00  0.00     0.037 A 
ATOM     27  C   UNL A   1      40.661  28.412  29.369  1.00  0.00     0.037 A 
ATOM     28  C   UNL A   1      41.206  31.231  35.226  1.00  0.00     0.049 A 
ATOM     29  C   UNL A   1      41.617  28.233  30.511  1.00  0.00     0.074 A 
ATOM     30  C   UNL A   1      42.100  30.921  36.236  1.00  0.00     0.029 A 
ATOM     31  N   UNL A   1      41.504  30.395  34.161  1.00  0.00    -0.354 N 
ATOM     32  N   UNL A   1      41.638  28.839  31.673  1.00  0.00    -0.248 NA
ATOM     33  C   UNL A   1      42.688  27.247  30.325  1.00  0.00     0.031 C 
ATOM     34  C   UNL A   1      42.971  29.933  35.764  1.00  0.00     0.029 A 
ATOM     35  C   UNL A   1      42.585  29.587  34.479  1.00  0.00     0.049 A 
ATOM     36  H   UNL A   1      41.019  30.377  33.304  1.00  0.00     0.167 HD
ATOM     37  C   UNL A   1      42.709  28.294  32.367  1.00  0.00     0.074 A 
ATOM     38  C   UNL A   1      43.300  27.294  31.500  1.00  0.00     0.031 C 
ATOM     39  C   UNL A   1      43.163  28.595  33.607  1.00  0.00     0.037 A 
BRANCH  26  40
ATOM     40  C   UNL A   1      40.009  33.092  36.445  1.00  0.00     0.057 A 
ATOM     41  C   UNL A   1      40.775  34.251  36.631  1.00  0.00     0.134 A 
ATOM     42  C   UNL A   1      39.049  32.792  37.420  1.00  0.00     0.134 A 
ATOM     43  F   UNL A   1      41.719  34.592  35.741  1.00  0.00    -0.206 F 
ATOM     44  C   UNL A   1      40.607  35.066  37.753  1.00  0.00     0.040 A 
ATOM     45  C   UNL A   1      38.854  33.614  38.533  1.00  0.00     0.040 A 
ATOM     46  F   UNL A   1      38.274  31.704  37.301  1.00  0.00    -0.206 F 
ATOM     47  C   UNL A   1      39.638  34.751  38.703  1.00  0.00     0.006 A 
ENDBRANCH  26  40
BRANCH  27  48
ATOM     48  C   UNL A   1      40.784  27.605  28.130  1.00  0.00     0.057 A 
ATOM     49  C   UNL A   1      41.526  28.065  27.037  1.00  0.00     0.134 A 
ATOM     50  C   UNL A   1      40.171  26.351  28.013  1.00  0.00     0.134 A 
ATOM     51  F   UNL A   1      42.123  29.266  27.084  1.00  0.00    -0.206 F 
ATOM     52  C   UNL A   1      41.643  27.314  25.866  1.00  0.00     0.040 A 
ATOM     53  C   UNL A   1      40.304  25.577  26.861  1.00  0.00     0.040 A 
ATOM     54  F   UNL A   1      39.453  25.850  29.030  1.00  0.00    -0.206 F 
ATOM     55  C   UNL A   1      41.036  26.062  25.779  1.00  0.00     0.006 A 
ENDBRANCH  27  48
BRANCH  39  56
ATOM     56  C   UNL A   1      44.337  27.809  34.113  1.00  0.00     0.057 A 
ATOM     57  C   UNL A   1      45.652  28.270  33.975  1.00  0.00     0.134 A 
ATOM     58  C   UNL A   1      44.145  26.587  34.770  1.00  0.00     0.134 A 
ATOM     59  F   UNL A   1      45.905  29.426  33.341  1.00  0.00    -0.206 F 
ATOM     60  C   UNL A   1      46.737  27.531  34.451  1.00  0.00     0.040 A 
ATOM     61  C   UNL A   1      45.219  25.853  35.276  1.00  0.00     0.040 A 
ATOM     62  F   UNL A   1      42.910  26.092  34.941  1.00  0.00    -0.206 F 
ATOM     63  C   UNL A   1      46.520  26.322  35.109  1.00  0.00     0.006 A 
ENDBRANCH  39  56
ENDBRANCH  13  14
ENDBRANCH   6   8
ENDBRANCH   3   4
ENDBRANCH   2   3
ENDBRANCH   1   2
BRANCH   1  64
ATOM     64  C   UNL A   1      31.817  29.689  26.003  1.00  0.00     0.002 C 
BRANCH  64  65
ATOM     65  C   UNL A   1      33.108  29.351  25.249  1.00  0.00     0.021 C 
BRANCH  65  66
ATOM     66  C   UNL A   1      33.864  28.133  25.772  1.00  0.00     0.116 C 
BRANCH  66  67
ATOM     67  N   UNL A   1      32.998  27.207  26.482  1.00  0.00    -0.352 N 
ATOM     68  C   UNL A   1      32.496  25.996  26.077  1.00  0.00     0.252 C 
ATOM     69  H   UNL A   1      32.733  27.490  27.387  1.00  0.00     0.163 HD
ATOM     70  O   UNL A   1      31.731  25.365  26.799  1.00  0.00    -0.269 OA
BRANCH  68  71
ATOM     71  C   UNL A   1      32.907  25.444  24.773  1.00  0.00     0.052 A 
ATOM     72  C   UNL A   1      34.074  24.672  24.743  1.00  0.00     0.055 A 
ATOM     73  C   UNL A   1      32.138  25.641  23.615  1.00  0.00     0.013 A 
ATOM     74  C   UNL A   1      34.477  24.172  23.526  1.00  0.00     0.129 A 
ATOM     75  C   UNL A   1      32.656  25.066  22.453  1.00  0.00     0.122 A 
ATOM     76  Cl  UNL A   1      35.934  23.285  23.378  1.00  0.00    -0.062 Cl
ATOM     77  N   UNL A   1      33.806  24.354  22.377  1.00  0.00    -0.244 NA
BRANCH  73  78
ATOM     78  C   UNL A   1      30.879  26.402  23.553  1.00  0.00    -0.015 A 
ATOM     79  C   UNL A   1      29.686  25.841  24.040  1.00  0.00     0.009 A 
ATOM     80  C   UNL A   1      30.819  27.680  22.973  1.00  0.00     0.021 A 
ATOM     81  C   UNL A   1      28.472  26.523  23.942  1.00  0.00     0.001 A 
ATOM     82  C   UNL A   1      29.603  28.382  22.874  1.00  0.00     0.056 A 
ATOM     83  C   UNL A   1      28.430  27.785  23.357  1.00  0.00     0.013 A 
BRANCH  82  84
ATOM     84  C   UNL A   1      29.542  29.750  22.239  1.00  0.00     0.416 C 
ATOM     85  F   UNL A   1      29.317  30.734  23.155  1.00  0.00    -0.166 F 
ATOM     86  F   UNL A   1      30.698  30.089  21.604  1.00  0.00    -0.166 F 
ATOM     87  F   UNL A   1      28.554  29.877  21.310  1.00  0.00    -0.166 F 
ENDBRANCH  82  84
ENDBRANCH  73  78
ENDBRANCH  68  71
ENDBRANCH  66  67
ENDBRANCH  65  66
ENDBRANCH  64  65
ENDBRANCH   1  64
TORSDOF 15
ENDMDL
MODEL 3
REMARK VINA RESULT:     -12.0      0.413      1.003
REMARK SMILES O=C(NCCCCCCNC(=O)c1cc(Cl)ncc1-c1cccc(C(F)(F)F)c1)c1ccc(-c2c3nc(c(-c4c(F)cccc4F)c4ccc([nH]4)c(-c4c(F)cccc4F)c4nc(c(-c5c(F)cccc5F)c5ccc2[nH]5)C=C4)C=C3)cc1
REMARK SMILES IDX 6 1 5 2 4 3 3 4 1 5 2 6 30 8 31 9 83 10 32 11 82 12 33 13
REMARK SMILES IDX 34 14 35 15 76 16 36 17 81 18 75 19 77 20 37 21 80 22 74 23
REMARK SMILES IDX 73 24 38 26 64 27 47 28 63 29 48 30 51 31 62 32 78 33 49 34
REMARK SMILES IDX 50 35 61 37 79 38 52 39 39 40 40 41 45 42 41 43 42 44 44 45
REMARK SMILES IDX 46 46 43 47 65 48 66 49 71 50 67 51 68 52 70 53 72 54 69 55
REMARK SMILES IDX 53 56 54 57 59 58 55 59 56 60 58 61 60 62 57 63 7 64 8 65
REMARK SMILES IDX 9 66 10 67 11 68 12 70 13 71 14 72 19 73 15 74 18 75 16 76
REMARK SMILES IDX 17 77 20 78 21 79 29 80 22 81 24 82 23 83 25 84 26 85 27 86
REMARK SMILES IDX 28 87
REMARK H PARENT 3 7 77 25 51 36 10 69
REMARK Flexibility Score: inf
ROOT
ATOM      1  C   UNL A   1      36.630  19.915  25.014  1.00  0.00     0.002 C 
ENDROOT
BRANCH   1   2
ATOM      2  C   UNL A   1      38.106  19.671  24.707  1.00  0.00     0.021 C 
BRANCH   2   3
ATOM      3  C   UNL A   1      39.064  20.031  25.835  1.00  0.00     0.116 C 
BRANCH   3   4
ATOM      4  N   UNL A   1      40.208  19.137  25.903  1.00  0.00    -0.352 N 
ATOM      5  O   UNL A   1      42.391  18.577  26.041  1.00  0.00    -0.269 OA
ATOM      6  C   UNL A   1      41.520  19.430  26.185  1.00  0.00     0.251 C 
ATOM      7  H   UNL A   1      40.015  18.189  25.723  1.00  0.00     0.163 HD
BRANCH   6   8
ATOM      8  C   UNL A   1      41.885  20.787  26.642  1.00  0.00     0.039 A 
ATOM      9  C   UNL A   1      41.867  21.108  28.001  1.00  0.00     0.014 A 
ATOM     10  C   UNL A   1      42.257  21.749  25.698  1.00  0.00     0.014 A 
ATOM     11  C   UNL A   1      42.085  22.420  28.405  1.00  0.00     0.010 A 
ATOM     12  C   UNL A   1      42.566  23.047  26.115  1.00  0.00     0.010 A 
ATOM     13  C   UNL A   1      42.460  23.398  27.469  1.00  0.00    -0.014 A 
BRANCH  13  14
ATOM     14  C   UNL A   1      42.818  24.758  27.945  1.00  0.00     0.031 A 
ATOM     15  C   UNL A   1      44.250  25.165  28.146  1.00  0.00     0.074 A 
ATOM     16  C   UNL A   1      41.824  25.636  28.180  1.00  0.00     0.049 A 
ATOM     17  N   UNL A   1      44.728  26.312  28.558  1.00  0.00    -0.248 NA
ATOM     18  C   UNL A   1      45.279  24.156  27.854  1.00  0.00     0.031 C 
ATOM     19  C   UNL A   1      40.395  25.350  28.027  1.00  0.00     0.029 A 
ATOM     20  N   UNL A   1      41.858  26.945  28.584  1.00  0.00    -0.354 N 
ATOM     21  C   UNL A   1      46.108  26.163  28.586  1.00  0.00     0.074 A 
ATOM     22  C   UNL A   1      46.391  24.802  28.179  1.00  0.00     0.031 C 
ATOM     23  C   UNL A   1      39.693  26.460  28.291  1.00  0.00     0.029 A 
ATOM     24  C   UNL A   1      40.612  27.514  28.698  1.00  0.00     0.049 A 
ATOM     25  H   UNL A   1      42.692  27.431  28.773  1.00  0.00     0.167 HD
ATOM     26  C   UNL A   1      47.051  27.079  28.915  1.00  0.00     0.037 A 
ATOM     27  C   UNL A   1      40.247  28.742  29.109  1.00  0.00     0.037 A 
ATOM     28  C   UNL A   1      46.759  28.433  29.319  1.00  0.00     0.049 A 
ATOM     29  C   UNL A   1      41.309  29.719  29.515  1.00  0.00     0.074 A 
ATOM     30  C   UNL A   1      47.645  29.445  29.646  1.00  0.00     0.029 A 
ATOM     31  N   UNL A   1      45.484  28.961  29.459  1.00  0.00    -0.354 N 
ATOM     32  N   UNL A   1      42.612  29.574  29.506  1.00  0.00    -0.248 NA
ATOM     33  C   UNL A   1      40.852  31.029  29.994  1.00  0.00     0.031 C 
ATOM     34  C   UNL A   1      46.906  30.568  30.034  1.00  0.00     0.029 A 
ATOM     35  C   UNL A   1      45.559  30.275  29.894  1.00  0.00     0.049 A 
ATOM     36  H   UNL A   1      44.648  28.474  29.277  1.00  0.00     0.167 HD
ATOM     37  C   UNL A   1      43.132  30.779  29.956  1.00  0.00     0.074 A 
ATOM     38  C   UNL A   1      42.002  31.650  30.211  1.00  0.00     0.031 C 
ATOM     39  C   UNL A   1      44.427  31.131  30.143  1.00  0.00     0.037 A 
BRANCH  26  40
ATOM     40  C   UNL A   1      48.490  26.649  28.870  1.00  0.00     0.057 A 
ATOM     41  C   UNL A   1      49.100  25.986  29.944  1.00  0.00     0.134 A 
ATOM     42  C   UNL A   1      49.262  26.856  27.719  1.00  0.00     0.134 A 
ATOM     43  F   UNL A   1      48.422  25.763  31.079  1.00  0.00    -0.206 F 
ATOM     44  C   UNL A   1      50.430  25.564  29.881  1.00  0.00     0.040 A 
ATOM     45  C   UNL A   1      50.585  26.416  27.636  1.00  0.00     0.040 A 
ATOM     46  F   UNL A   1      48.740  27.476  26.651  1.00  0.00    -0.206 F 
ATOM     47  C   UNL A   1      51.174  25.773  28.721  1.00  0.00     0.006 A 
ENDBRANCH  26  40
BRANCH  27  48
ATOM     48  C   UNL A   1      38.808  29.103  29.164  1.00  0.00     0.057 A 
ATOM     49  C   UNL A   1      38.136  29.574  28.032  1.00  0.00     0.134 A 
ATOM     50  C   UNL A   1      38.070  28.976  30.347  1.00  0.00     0.134 A 
ATOM     51  F   UNL A   1      38.794  29.732  26.873  1.00  0.00    -0.206 F 
ATOM     52  C   UNL A   1      36.785  29.921  28.076  1.00  0.00     0.040 A 
ATOM     53  C   UNL A   1      36.712  29.290  30.400  1.00  0.00     0.040 A 
ATOM     54  F   UNL A   1      38.655  28.521  31.466  1.00  0.00    -0.206 F 
ATOM     55  C   UNL A   1      36.067  29.771  29.262  1.00  0.00     0.006 A 
ENDBRANCH  27  48
BRANCH  39  56
ATOM     56  C   UNL A   1      44.691  32.531  30.616  1.00  0.00     0.057 A 
ATOM     57  C   UNL A   1      44.823  32.842  31.974  1.00  0.00     0.134 A 
ATOM     58  C   UNL A   1      44.841  33.576  29.695  1.00  0.00     0.134 A 
ATOM     59  F   UNL A   1      44.674  31.889  32.908  1.00  0.00    -0.206 F 
ATOM     60  C   UNL A   1      45.070  34.147  32.404  1.00  0.00     0.040 A 
ATOM     61  C   UNL A   1      45.117  34.880  30.110  1.00  0.00     0.040 A 
ATOM     62  F   UNL A   1      44.733  33.346  28.378  1.00  0.00    -0.206 F 
ATOM     63  C   UNL A   1      45.224  35.169  31.468  1.00  0.00     0.006 A 
ENDBRANCH  39  56
ENDBRANCH  13  14
ENDBRANCH   6   8
ENDBRANCH   3   4
ENDBRANCH   2   3
ENDBRANCH   1   2
BRANCH   1  64
ATOM     64  C   UNL A   1      36.134  21.345  24.776  1.00  0.00     0.002 C 
BRANCH  64  65
ATOM     65  C   UNL A   1      35.708  22.120  26.027  1.00  0.00     0.021 C 
BRANCH  65  66
ATOM     66  C   UNL A   1      35.730  23.639  25.889  1.00  0.00     0.116 C 
BRANCH  66  67
ATOM     67  N   UNL A   1      35.476  24.074  24.525  1.00  0.00    -0.352 N 
ATOM     68  C   UNL A   1      34.310  24.517  23.953  1.00  0.00     0.252 C 
ATOM     69  H   UNL A   1      36.254  24.047  23.924  1.00  0.00     0.163 HD
ATOM     70  O   UNL A   1      34.268  24.800  22.760  1.00  0.00    -0.269 OA
BRANCH  68  71
ATOM     71  C   UNL A   1      33.109  24.678  24.794  1.00  0.00     0.052 A 
ATOM     72  C   UNL A   1      32.946  25.904  25.449  1.00  0.00     0.055 A 
ATOM     73  C   UNL A   1      32.143  23.665  24.898  1.00  0.00     0.013 A 
ATOM     74  C   UNL A   1      31.840  26.054  26.253  1.00  0.00     0.129 A 
ATOM     75  C   UNL A   1      31.064  23.957  25.736  1.00  0.00     0.122 A 
ATOM     76  Cl  UNL A   1      31.598  27.488  27.158  1.00  0.00    -0.062 Cl
ATOM     77  N   UNL A   1      30.897  25.111  26.423  1.00  0.00    -0.244 NA
BRANCH  73  78
ATOM     78  C   UNL A   1      32.206  22.361  24.218  1.00  0.00    -0.015 A 
ATOM     79  C   UNL A   1      31.906  22.259  22.849  1.00  0.00     0.009 A 
ATOM     80  C   UNL A   1      32.519  21.182  24.914  1.00  0.00     0.021 A 
ATOM     81  C   UNL A   1      31.907  21.025  22.197  1.00  0.00     0.001 A 
ATOM     82  C   UNL A   1      32.530  19.930  24.268  1.00  0.00     0.056 A 
ATOM     83  C   UNL A   1      32.213  19.866  22.904  1.00  0.00     0.013 A 
BRANCH  82  84
ATOM     84  C   UNL A   1      32.857  18.666  25.024  1.00  0.00     0.416 C 
ATOM     85  F   UNL A   1      31.959  17.672  24.778  1.00  0.00    -0.166 F 
ATOM     86  F   UNL A   1      34.076  18.155  24.696  1.00  0.00    -0.166 F 
ATOM     87  F   UNL A   1      32.870  18.826  26.376  1.00  0.00    -0.166 F 
ENDBRANCH  82  84
ENDBRANCH  73  78
ENDBRANCH  68  71
ENDBRANCH  66  67
ENDBRANCH  65  66
ENDBRANCH  64  65
ENDBRANCH   1  64
TORSDOF 15
ENDMDL
