MODEL 1
REMARK VINA RESULT:     -11.6      0.000      0.000
REMARK SMILES Cc1cc(C)c(C(=O)NCCCCCCNC(=O)c2ccc(-c3c4nc(c(-c5c(F)cccc5F)c5ccc([nH]5)c(-c5c(F)cccc5F)c5nc(c(-c6c(F)cccc6F)c6ccc3[nH]6)C=C5)C=C4)cc2)c(NC[C@@H]2C[N@@H+](C)CCO2)n1
REMARK SMILES IDX 12 1 11 2 10 3 9 4 7 5 8 6 6 8 1 9 2 10 3 11 83 12 4 13
REMARK SMILES IDX 73 14 5 15 74 16 75 18 76 19 77 20 82 21 78 22 81 23 79 24
REMARK SMILES IDX 80 25 13 27 14 28 15 29 16 30 17 31 18 33 19 34 20 35 72 36
REMARK SMILES IDX 21 37 71 38 22 39 23 40 24 41 65 42 25 43 70 44 64 45 66 46
REMARK SMILES IDX 26 47 69 48 63 49 62 50 27 52 53 53 36 54 52 55 37 56 40 57
REMARK SMILES IDX 51 58 67 59 38 60 39 61 50 63 68 64 41 65 28 66 29 67 34 68
REMARK SMILES IDX 30 69 31 70 33 71 35 72 32 73 54 74 55 75 60 76 56 77 57 78
REMARK SMILES IDX 59 79 61 80 58 81 42 82 43 83 48 84 44 85 45 86 47 87 49 88
REMARK SMILES IDX 46 89
REMARK H PARENT 9 7 74 17 78 26 16 32 66 51 40 62
REMARK Flexibility Score: inf
ROOT
ATOM      1  C   UNL A   1      37.274  22.277  24.845  1.00  0.00     0.002 C 
ENDROOT
BRANCH   1   2
ATOM      2  C   UNL A   1      36.555  23.302  25.732  1.00  0.00     0.021 C 
BRANCH   2   3
ATOM      3  C   UNL A   1      35.505  24.187  25.064  1.00  0.00     0.116 C 
BRANCH   3   4
ATOM      4  N   UNL A   1      34.967  23.679  23.824  1.00  0.00    -0.352 N 
ATOM      5  C   UNL A   1      33.678  23.342  23.468  1.00  0.00     0.255 C 
ATOM      6  O   UNL A   1      33.488  23.046  22.286  1.00  0.00    -0.269 OA
ATOM      7  H   UNL A   1      35.634  23.551  23.110  1.00  0.00     0.163 HD
BRANCH   5   8
ATOM      8  C   UNL A   1      32.538  23.262  24.437  1.00  0.00     0.085 A 
ATOM      9  C   UNL A   1      29.403  22.634  27.258  1.00  0.00     0.067 C 
ATOM     10  C   UNL A   1      30.484  22.873  26.249  1.00  0.00     0.040 A 
ATOM     11  C   UNL A   1      30.854  24.166  25.917  1.00  0.00     0.028 A 
ATOM     12  N   UNL A   1      31.049  21.794  25.671  1.00  0.00    -0.236 NA
ATOM     13  C   UNL A   1      31.849  24.379  24.952  1.00  0.00    -0.033 A 
ATOM     14  C   UNL A   1      32.040  21.973  24.761  1.00  0.00     0.139 A 
ATOM     15  C   UNL A   1      32.044  25.794  24.501  1.00  0.00     0.045 C 
BRANCH  14  16
ATOM     16  N   UNL A   1      32.581  20.834  24.185  1.00  0.00    -0.367 N 
ATOM     17  H   UNL A   1      32.472  20.703  23.216  1.00  0.00     0.162 HD
BRANCH  16  18
ATOM     18  C   UNL A   1      33.303  19.817  24.945  1.00  0.00     0.152 C 
BRANCH  18  19
ATOM     19  C   UNL A   1      32.528  18.473  24.939  1.00  0.00     0.192 C 
ATOM     20  C   UNL A   1      33.333  17.323  25.592  1.00  0.00     0.296 C 
ATOM     21  O   UNL A   1      32.105  18.079  23.611  1.00  0.00    -0.365 OA
ATOM     22  N   UNL A   1      34.500  16.934  24.770  1.00  0.00    -0.333 N 
ATOM     23  C   UNL A   1      33.212  17.700  22.782  1.00  0.00     0.222 C 
ATOM     24  C   UNL A   1      35.237  15.828  25.374  1.00  0.00     0.332 C 
ATOM     25  C   UNL A   1      34.031  16.569  23.418  1.00  0.00     0.290 C 
ATOM     26  H   UNL A   1      35.141  17.724  24.712  1.00  0.00     0.348 HD
ENDBRANCH  18  19
ENDBRANCH  16  18
ENDBRANCH  14  16
ENDBRANCH   5   8
ENDBRANCH   3   4
ENDBRANCH   2   3
ENDBRANCH   1   2
BRANCH   1  27
ATOM     27  C   UNL A   1      36.862  20.806  24.966  1.00  0.00     0.002 C 
BRANCH  27  28
ATOM     28  C   UNL A   1      37.979  19.762  25.002  1.00  0.00     0.021 C 
BRANCH  28  29
ATOM     29  C   UNL A   1      39.247  20.150  25.751  1.00  0.00     0.116 C 
BRANCH  29  30
ATOM     30  N   UNL A   1      40.230  19.083  25.822  1.00  0.00    -0.352 N 
ATOM     31  C   UNL A   1      41.578  19.152  26.081  1.00  0.00     0.251 C 
ATOM     32  H   UNL A   1      39.879  18.177  25.662  1.00  0.00     0.163 HD
ATOM     33  O   UNL A   1      42.273  18.142  26.006  1.00  0.00    -0.269 OA
BRANCH  31  34
ATOM     34  C   UNL A   1      42.209  20.450  26.413  1.00  0.00     0.039 A 
ATOM     35  C   UNL A   1      42.745  21.221  25.377  1.00  0.00     0.014 A 
ATOM     36  C   UNL A   1      42.269  20.913  27.730  1.00  0.00     0.014 A 
ATOM     37  C   UNL A   1      43.274  22.484  25.652  1.00  0.00     0.010 A 
ATOM     38  C   UNL A   1      42.728  22.203  27.993  1.00  0.00     0.010 A 
ATOM     39  C   UNL A   1      43.232  23.003  26.956  1.00  0.00    -0.014 A 
BRANCH  39  40
ATOM     40  C   UNL A   1      43.699  24.383  27.253  1.00  0.00     0.031 A 
ATOM     41  C   UNL A   1      42.717  25.443  27.672  1.00  0.00     0.074 A 
ATOM     42  C   UNL A   1      44.998  24.700  27.081  1.00  0.00     0.049 A 
ATOM     43  N   UNL A   1      42.922  26.716  27.902  1.00  0.00    -0.248 NA
ATOM     44  C   UNL A   1      41.316  25.022  27.825  1.00  0.00     0.031 C 
ATOM     45  C   UNL A   1      46.043  23.777  26.636  1.00  0.00     0.029 A 
ATOM     46  N   UNL A   1      45.659  25.892  27.247  1.00  0.00    -0.354 N 
ATOM     47  C   UNL A   1      41.678  27.248  28.213  1.00  0.00     0.074 A 
ATOM     48  C   UNL A   1      40.715  26.173  28.089  1.00  0.00     0.031 C 
ATOM     49  C   UNL A   1      47.216  24.429  26.587  1.00  0.00     0.029 A 
ATOM     50  C   UNL A   1      47.000  25.825  26.956  1.00  0.00     0.049 A 
ATOM     51  H   UNL A   1      45.214  26.717  27.549  1.00  0.00     0.167 HD
ATOM     52  C   UNL A   1      41.366  28.511  28.591  1.00  0.00     0.037 A 
ATOM     53  C   UNL A   1      47.949  26.780  26.975  1.00  0.00     0.037 A 
ATOM     54  C   UNL A   1      42.327  29.573  28.733  1.00  0.00     0.049 A 
ATOM     55  C   UNL A   1      47.576  28.179  27.384  1.00  0.00     0.074 A 
ATOM     56  C   UNL A   1      42.119  30.872  29.164  1.00  0.00     0.029 A 
ATOM     57  N   UNL A   1      43.679  29.460  28.444  1.00  0.00    -0.354 N 
ATOM     58  N   UNL A   1      46.407  28.651  27.740  1.00  0.00    -0.248 NA
ATOM     59  C   UNL A   1      48.657  29.175  27.400  1.00  0.00     0.031 C 
ATOM     60  C   UNL A   1      43.336  31.558  29.089  1.00  0.00     0.029 A 
ATOM     61  C   UNL A   1      44.313  30.671  28.666  1.00  0.00     0.049 A 
ATOM     62  H   UNL A   1      44.123  28.639  28.129  1.00  0.00     0.167 HD
ATOM     63  C   UNL A   1      46.617  29.988  28.056  1.00  0.00     0.074 A 
ATOM     64  C   UNL A   1      48.026  30.249  27.856  1.00  0.00     0.031 C 
ATOM     65  C   UNL A   1      45.720  30.914  28.476  1.00  0.00     0.037 A 
BRANCH  52  66
ATOM     66  C   UNL A   1      39.923  28.814  28.876  1.00  0.00     0.057 A 
ATOM     67  C   UNL A   1      39.392  28.734  30.171  1.00  0.00     0.134 A 
ATOM     68  C   UNL A   1      39.060  29.224  27.852  1.00  0.00     0.134 A 
ATOM     69  F   UNL A   1      40.161  28.338  31.198  1.00  0.00    -0.206 F 
ATOM     70  C   UNL A   1      38.052  29.021  30.432  1.00  0.00     0.040 A 
ATOM     71  C   UNL A   1      37.725  29.544  28.104  1.00  0.00     0.040 A 
ATOM     72  F   UNL A   1      39.503  29.332  26.590  1.00  0.00    -0.206 F 
ATOM     73  C   UNL A   1      37.215  29.435  29.396  1.00  0.00     0.006 A 
ENDBRANCH  52  66
BRANCH  53  74
ATOM     74  C   UNL A   1      49.351  26.444  26.615  1.00  0.00     0.057 A 
ATOM     75  C   UNL A   1      50.233  25.919  27.566  1.00  0.00     0.134 A 
ATOM     76  C   UNL A   1      49.843  26.645  25.320  1.00  0.00     0.134 A 
ATOM     77  F   UNL A   1      49.825  25.721  28.828  1.00  0.00    -0.206 F 
ATOM     78  C   UNL A   1      51.561  25.624  27.249  1.00  0.00     0.040 A 
ATOM     79  C   UNL A   1      51.160  26.329  24.982  1.00  0.00     0.040 A 
ATOM     80  F   UNL A   1      49.046  27.137  24.360  1.00  0.00    -0.206 F 
ATOM     81  C   UNL A   1      52.025  25.826  25.951  1.00  0.00     0.006 A 
ENDBRANCH  53  74
BRANCH  65  82
ATOM     82  C   UNL A   1      46.242  32.285  28.796  1.00  0.00     0.057 A 
ATOM     83  C   UNL A   1      46.702  32.626  30.074  1.00  0.00     0.134 A 
ATOM     84  C   UNL A   1      46.330  33.261  27.795  1.00  0.00     0.134 A 
ATOM     85  F   UNL A   1      46.634  31.741  31.080  1.00  0.00    -0.206 F 
ATOM     86  C   UNL A   1      47.215  33.895  30.349  1.00  0.00     0.040 A 
ATOM     87  C   UNL A   1      46.865  34.524  28.051  1.00  0.00     0.040 A 
ATOM     88  F   UNL A   1      45.913  32.996  26.547  1.00  0.00    -0.206 F 
ATOM     89  C   UNL A   1      47.305  34.846  29.333  1.00  0.00     0.006 A 
ENDBRANCH  65  82
ENDBRANCH  39  40
ENDBRANCH  31  34
ENDBRANCH  29  30
ENDBRANCH  28  29
ENDBRANCH  27  28
ENDBRANCH   1  27
TORSDOF 16
ENDMDL
MODEL 2
REMARK VINA RESULT:     -11.6      0.516      6.110
REMARK SMILES Cc1cc(C)c(C(=O)NCCCCCCNC(=O)c2ccc(-c3c4nc(c(-c5c(F)cccc5F)c5ccc([nH]5)c(-c5c(F)cccc5F)c5nc(c(-c6c(F)cccc6F)c6ccc3[nH]6)C=C5)C=C4)cc2)c(NC[C@@H]2C[N@@H+](C)CCO2)n1
REMARK SMILES IDX 12 1 11 2 10 3 9 4 7 5 8 6 6 8 1 9 2 10 3 11 83 12 4 13
REMARK SMILES IDX 73 14 5 15 74 16 75 18 76 19 77 20 82 21 78 22 81 23 79 24
REMARK SMILES IDX 80 25 13 27 14 28 15 29 16 30 17 31 18 33 19 34 20 35 72 36
REMARK SMILES IDX 21 37 71 38 22 39 23 40 24 41 65 42 25 43 70 44 64 45 66 46
REMARK SMILES IDX 26 47 69 48 63 49 62 50 27 52 53 53 36 54 52 55 37 56 40 57
REMARK SMILES IDX 51 58 67 59 38 60 39 61 50 63 68 64 41 65 28 66 29 67 34 68
REMARK SMILES IDX 30 69 31 70 33 71 35 72 32 73 54 74 55 75 60 76 56 77 57 78
REMARK SMILES IDX 59 79 61 80 58 81 42 82 43 83 48 84 44 85 45 86 47 87 49 88
REMARK SMILES IDX 46 89
REMARK H PARENT 9 7 74 17 78 26 16 32 66 51 40 62
REMARK Flexibility Score: inf
ROOT
ATOM      1  C   UNL A   1      37.074  21.920  24.439  1.00  0.00     0.002 C 
ENDROOT
BRANCH   1   2
ATOM      2  C   UNL A   1      36.692  23.101  25.340  1.00  0.00     0.021 C 
BRANCH   2   3
ATOM      3  C   UNL A   1      35.538  23.987  24.875  1.00  0.00     0.116 C 
BRANCH   3   4
ATOM      4  N   UNL A   1      34.925  23.598  23.626  1.00  0.00    -0.352 N 
ATOM      5  C   UNL A   1      33.605  23.359  23.303  1.00  0.00     0.255 C 
ATOM      6  O   UNL A   1      33.354  23.157  22.113  1.00  0.00    -0.269 OA
ATOM      7  H   UNL A   1      35.556  23.483  22.878  1.00  0.00     0.163 HD
BRANCH   5   8
ATOM      8  C   UNL A   1      32.500  23.276  24.311  1.00  0.00     0.085 A 
ATOM      9  C   UNL A   1      29.477  22.644  27.251  1.00  0.00     0.067 C 
ATOM     10  C   UNL A   1      30.518  22.883  26.200  1.00  0.00     0.040 A 
ATOM     11  C   UNL A   1      30.837  24.175  25.817  1.00  0.00     0.028 A 
ATOM     12  N   UNL A   1      31.098  21.804  25.637  1.00  0.00    -0.236 NA
ATOM     13  C   UNL A   1      31.794  24.387  24.814  1.00  0.00    -0.033 A 
ATOM     14  C   UNL A   1      32.053  21.984  24.690  1.00  0.00     0.139 A 
ATOM     15  C   UNL A   1      31.930  25.793  24.313  1.00  0.00     0.045 C 
BRANCH  14  16
ATOM     16  N   UNL A   1      32.610  20.843  24.132  1.00  0.00    -0.367 N 
ATOM     17  H   UNL A   1      32.528  20.710  23.160  1.00  0.00     0.162 HD
BRANCH  16  18
ATOM     18  C   UNL A   1      33.312  19.829  24.914  1.00  0.00     0.152 C 
BRANCH  18  19
ATOM     19  C   UNL A   1      32.527  18.491  24.907  1.00  0.00     0.192 C 
ATOM     20  C   UNL A   1      33.319  17.338  25.571  1.00  0.00     0.296 C 
ATOM     21  O   UNL A   1      32.113  18.093  23.578  1.00  0.00    -0.365 OA
ATOM     22  N   UNL A   1      34.489  16.936  24.761  1.00  0.00    -0.333 N 
ATOM     23  C   UNL A   1      33.223  17.703  22.760  1.00  0.00     0.222 C 
ATOM     24  C   UNL A   1      35.213  15.828  25.376  1.00  0.00     0.332 C 
ATOM     25  C   UNL A   1      34.029  16.569  23.406  1.00  0.00     0.290 C 
ATOM     26  H   UNL A   1      35.137  17.722  24.705  1.00  0.00     0.348 HD
ENDBRANCH  18  19
ENDBRANCH  16  18
ENDBRANCH  14  16
ENDBRANCH   5   8
ENDBRANCH   3   4
ENDBRANCH   2   3
ENDBRANCH   1   2
BRANCH   1  27
ATOM     27  C   UNL A   1      36.795  20.504  24.954  1.00  0.00     0.002 C 
BRANCH  27  28
ATOM     28  C   UNL A   1      37.970  19.526  25.001  1.00  0.00     0.021 C 
BRANCH  28  29
ATOM     29  C   UNL A   1      39.211  19.991  25.752  1.00  0.00     0.116 C 
BRANCH  29  30
ATOM     30  N   UNL A   1      40.263  18.991  25.812  1.00  0.00    -0.352 N 
ATOM     31  C   UNL A   1      41.605  19.149  26.068  1.00  0.00     0.251 C 
ATOM     32  H   UNL A   1      39.973  18.065  25.646  1.00  0.00     0.163 HD
ATOM     33  O   UNL A   1      42.365  18.188  25.983  1.00  0.00    -0.269 OA
BRANCH  31  34
ATOM     34  C   UNL A   1      42.148  20.483  26.409  1.00  0.00     0.039 A 
ATOM     35  C   UNL A   1      42.556  21.328  25.371  1.00  0.00     0.014 A 
ATOM     36  C   UNL A   1      42.251  20.909  27.736  1.00  0.00     0.014 A 
ATOM     37  C   UNL A   1      42.997  22.621  25.660  1.00  0.00     0.010 A 
ATOM     38  C   UNL A   1      42.620  22.224  28.017  1.00  0.00     0.010 A 
ATOM     39  C   UNL A   1      42.994  23.094  26.982  1.00  0.00    -0.014 A 
BRANCH  39  40
ATOM     40  C   UNL A   1      43.366  24.498  27.300  1.00  0.00     0.031 A 
ATOM     41  C   UNL A   1      44.805  24.932  27.249  1.00  0.00     0.074 A 
ATOM     42  C   UNL A   1      42.415  25.367  27.698  1.00  0.00     0.049 A 
ATOM     43  N   UNL A   1      45.332  26.090  27.562  1.00  0.00    -0.248 NA
ATOM     44  C   UNL A   1      45.785  23.924  26.817  1.00  0.00     0.031 C 
ATOM     45  C   UNL A   1      40.991  25.060  27.832  1.00  0.00     0.029 A 
ATOM     46  N   UNL A   1      42.507  26.683  28.078  1.00  0.00    -0.354 N 
ATOM     47  C   UNL A   1      46.701  25.944  27.377  1.00  0.00     0.074 A 
ATOM     48  C   UNL A   1      46.929  24.572  26.978  1.00  0.00     0.031 C 
ATOM     49  C   UNL A   1      40.339  26.160  28.241  1.00  0.00     0.029 A 
ATOM     50  C   UNL A   1      41.303  27.239  28.438  1.00  0.00     0.049 A 
ATOM     51  H   UNL A   1      43.356  27.183  28.090  1.00  0.00     0.167 HD
ATOM     52  C   UNL A   1      47.677  26.875  27.505  1.00  0.00     0.037 A 
ATOM     53  C   UNL A   1      41.008  28.475  28.885  1.00  0.00     0.037 A 
ATOM     54  C   UNL A   1      47.445  28.244  27.882  1.00  0.00     0.049 A 
ATOM     55  C   UNL A   1      42.111  29.487  29.032  1.00  0.00     0.074 A 
ATOM     56  C   UNL A   1      48.361  29.277  27.984  1.00  0.00     0.029 A 
ATOM     57  N   UNL A   1      46.208  28.772  28.222  1.00  0.00    -0.354 N 
ATOM     58  N   UNL A   1      43.392  29.353  28.789  1.00  0.00    -0.248 NA
ATOM     59  C   UNL A   1      41.726  30.823  29.509  1.00  0.00     0.031 C 
ATOM     60  C   UNL A   1      47.686  30.417  28.433  1.00  0.00     0.029 A 
ATOM     61  C   UNL A   1      46.341  30.109  28.556  1.00  0.00     0.049 A 
ATOM     62  H   UNL A   1      45.361  28.270  28.224  1.00  0.00     0.167 HD
ATOM     63  C   UNL A   1      43.960  30.594  29.049  1.00  0.00     0.074 A 
ATOM     64  C   UNL A   1      42.883  31.469  29.461  1.00  0.00     0.031 C 
ATOM     65  C   UNL A   1      45.258  30.974  28.952  1.00  0.00     0.037 A 
BRANCH  52  66
ATOM     66  C   UNL A   1      49.089  26.440  27.235  1.00  0.00     0.057 A 
ATOM     67  C   UNL A   1      49.932  25.988  28.259  1.00  0.00     0.134 A 
ATOM     68  C   UNL A   1      49.602  26.438  25.931  1.00  0.00     0.134 A 
ATOM     69  F   UNL A   1      49.508  25.973  29.532  1.00  0.00    -0.206 F 
ATOM     70  C   UNL A   1      51.242  25.579  28.002  1.00  0.00     0.040 A 
ATOM     71  C   UNL A   1      50.899  26.003  25.656  1.00  0.00     0.040 A 
ATOM     72  F   UNL A   1      48.847  26.849  24.901  1.00  0.00    -0.206 F 
ATOM     73  C   UNL A   1      51.727  25.579  26.695  1.00  0.00     0.006 A 
ENDBRANCH  52  66
BRANCH  53  74
ATOM     74  C   UNL A   1      39.602  28.834  29.205  1.00  0.00     0.057 A 
ATOM     75  C   UNL A   1      39.087  28.651  30.493  1.00  0.00     0.134 A 
ATOM     76  C   UNL A   1      38.742  29.362  28.235  1.00  0.00     0.134 A 
ATOM     77  F   UNL A   1      39.857  28.132  31.461  1.00  0.00    -0.206 F 
ATOM     78  C   UNL A   1      37.760  28.959  30.801  1.00  0.00     0.040 A 
ATOM     79  C   UNL A   1      37.421  29.699  28.536  1.00  0.00     0.040 A 
ATOM     80  F   UNL A   1      39.176  29.570  26.984  1.00  0.00    -0.206 F 
ATOM     81  C   UNL A   1      36.925  29.490  29.820  1.00  0.00     0.006 A 
ENDBRANCH  53  74
BRANCH  65  82
ATOM     82  C   UNL A   1      45.583  32.409  29.250  1.00  0.00     0.057 A 
ATOM     83  C   UNL A   1      45.509  33.406  28.270  1.00  0.00     0.134 A 
ATOM     84  C   UNL A   1      45.925  32.802  30.550  1.00  0.00     0.134 A 
ATOM     85  F   UNL A   1      45.199  33.094  27.003  1.00  0.00    -0.206 F 
ATOM     86  C   UNL A   1      45.782  34.743  28.569  1.00  0.00     0.040 A 
ATOM     87  C   UNL A   1      46.173  34.139  30.867  1.00  0.00     0.040 A 
ATOM     88  F   UNL A   1      46.005  31.897  31.537  1.00  0.00    -0.206 F 
ATOM     89  C   UNL A   1      46.107  35.113  29.873  1.00  0.00     0.006 A 
ENDBRANCH  65  82
ENDBRANCH  39  40
ENDBRANCH  31  34
ENDBRANCH  29  30
ENDBRANCH  28  29
ENDBRANCH  27  28
ENDBRANCH   1  27
TORSDOF 16
ENDMDL
MODEL 3
REMARK VINA RESULT:     -11.5      5.869     10.405
REMARK SMILES Cc1cc(C)c(C(=O)NCCCCCCNC(=O)c2ccc(-c3c4nc(c(-c5c(F)cccc5F)c5ccc([nH]5)c(-c5c(F)cccc5F)c5nc(c(-c6c(F)cccc6F)c6ccc3[nH]6)C=C5)C=C4)cc2)c(NC[C@@H]2C[N@@H+](C)CCO2)n1
REMARK SMILES IDX 12 1 11 2 10 3 9 4 7 5 8 6 6 8 1 9 2 10 3 11 83 12 4 13
REMARK SMILES IDX 73 14 5 15 74 16 75 18 76 19 77 20 82 21 78 22 81 23 79 24
REMARK SMILES IDX 80 25 13 27 14 28 15 29 16 30 17 31 18 33 19 34 20 35 72 36
REMARK SMILES IDX 21 37 71 38 22 39 23 40 24 41 65 42 25 43 70 44 64 45 66 46
REMARK SMILES IDX 26 47 69 48 63 49 62 50 27 52 53 53 36 54 52 55 37 56 40 57
REMARK SMILES IDX 51 58 67 59 38 60 39 61 50 63 68 64 41 65 28 66 29 67 34 68
REMARK SMILES IDX 30 69 31 70 33 71 35 72 32 73 54 74 55 75 60 76 56 77 57 78
REMARK SMILES IDX 59 79 61 80 58 81 42 82 43 83 48 84 44 85 45 86 47 87 49 88
REMARK SMILES IDX 46 89
REMARK H PARENT 9 7 74 17 78 26 16 32 66 51 40 62
REMARK Flexibility Score: inf
ROOT
ATOM      1  C   UNL A   1      32.255  29.808  26.872  1.00  0.00     0.002 C 
ENDROOT
BRANCH   1   2
ATOM      2  C   UNL A   1      33.174  28.809  26.158  1.00  0.00     0.021 C 
BRANCH   2   3
ATOM      3  C   UNL A   1      32.926  27.325  26.421  1.00  0.00     0.116 C 
BRANCH   3   4
ATOM      4  N   UNL A   1      31.541  26.917  26.409  1.00  0.00    -0.352 N 
ATOM      5  C   UNL A   1      30.797  26.272  25.443  1.00  0.00     0.255 C 
ATOM      6  O   UNL A   1      29.652  25.938  25.757  1.00  0.00    -0.269 OA
ATOM      7  H   UNL A   1      31.042  27.139  27.229  1.00  0.00     0.163 HD
BRANCH   5   8
ATOM      8  C   UNL A   1      31.280  26.017  24.049  1.00  0.00     0.085 A 
ATOM      9  C   UNL A   1      32.536  25.684  19.988  1.00  0.00     0.067 C 
ATOM     10  C   UNL A   1      32.084  25.771  21.413  1.00  0.00     0.040 A 
ATOM     11  C   UNL A   1      32.537  24.852  22.344  1.00  0.00     0.028 A 
ATOM     12  N   UNL A   1      31.212  26.748  21.734  1.00  0.00    -0.236 NA
ATOM     13  C   UNL A   1      32.087  24.925  23.671  1.00  0.00    -0.033 A 
ATOM     14  C   UNL A   1      30.790  26.862  23.019  1.00  0.00     0.139 A 
ATOM     15  C   UNL A   1      32.457  23.779  24.562  1.00  0.00     0.045 C 
BRANCH  14  16
ATOM     16  N   UNL A   1      29.884  27.874  23.297  1.00  0.00    -0.367 N 
ATOM     17  H   UNL A   1      29.290  27.770  24.075  1.00  0.00     0.162 HD
BRANCH  16  18
ATOM     18  C   UNL A   1      29.766  29.087  22.493  1.00  0.00     0.152 C 
BRANCH  18  19
ATOM     19  C   UNL A   1      28.330  29.668  22.584  1.00  0.00     0.192 C 
ATOM     20  C   UNL A   1      27.893  30.373  21.276  1.00  0.00     0.296 C 
ATOM     21  O   UNL A   1      28.163  30.573  23.702  1.00  0.00    -0.365 OA
ATOM     22  N   UNL A   1      28.647  31.625  21.048  1.00  0.00    -0.333 N 
ATOM     23  C   UNL A   1      28.886  31.797  23.519  1.00  0.00     0.222 C 
ATOM     24  C   UNL A   1      28.209  32.301  19.830  1.00  0.00     0.332 C 
ATOM     25  C   UNL A   1      28.476  32.505  22.221  1.00  0.00     0.290 C 
ATOM     26  H   UNL A   1      29.634  31.398  20.925  1.00  0.00     0.348 HD
ENDBRANCH  18  19
ENDBRANCH  16  18
ENDBRANCH  14  16
ENDBRANCH   5   8
ENDBRANCH   3   4
ENDBRANCH   2   3
ENDBRANCH   1   2
BRANCH   1  27
ATOM     27  C   UNL A   1      31.423  30.763  26.009  1.00  0.00     0.002 C 
BRANCH  27  28
ATOM     28  C   UNL A   1      31.309  32.215  26.474  1.00  0.00     0.021 C 
BRANCH  28  29
ATOM     29  C   UNL A   1      32.526  32.802  27.175  1.00  0.00     0.116 C 
BRANCH  29  30
ATOM     30  N   UNL A   1      32.341  34.174  27.614  1.00  0.00    -0.352 N 
ATOM     31  C   UNL A   1      33.039  34.893  28.555  1.00  0.00     0.251 C 
ATOM     32  H   UNL A   1      31.607  34.661  27.172  1.00  0.00     0.163 HD
ATOM     33  O   UNL A   1      32.673  36.025  28.862  1.00  0.00    -0.269 OA
BRANCH  31  34
ATOM     34  C   UNL A   1      34.213  34.295  29.231  1.00  0.00     0.039 A 
ATOM     35  C   UNL A   1      34.004  33.517  30.375  1.00  0.00     0.014 A 
ATOM     36  C   UNL A   1      35.509  34.488  28.746  1.00  0.00     0.014 A 
ATOM     37  C   UNL A   1      35.084  32.877  30.987  1.00  0.00     0.010 A 
ATOM     38  C   UNL A   1      36.573  33.788  29.311  1.00  0.00     0.010 A 
ATOM     39  C   UNL A   1      36.372  32.973  30.436  1.00  0.00    -0.014 A 
BRANCH  39  40
ATOM     40  C   UNL A   1      37.517  32.220  31.013  1.00  0.00     0.031 A 
ATOM     41  C   UNL A   1      38.072  32.598  32.359  1.00  0.00     0.074 A 
ATOM     42  C   UNL A   1      38.099  31.238  30.296  1.00  0.00     0.049 A 
ATOM     43  N   UNL A   1      39.108  32.109  32.993  1.00  0.00    -0.248 NA
ATOM     44  C   UNL A   1      37.390  33.687  33.074  1.00  0.00     0.031 C 
ATOM     45  C   UNL A   1      37.686  30.806  28.961  1.00  0.00     0.029 A 
ATOM     46  N   UNL A   1      39.175  30.436  30.586  1.00  0.00    -0.354 N 
ATOM     47  C   UNL A   1      39.208  32.838  34.171  1.00  0.00     0.074 A 
ATOM     48  C   UNL A   1      38.163  33.838  34.139  1.00  0.00     0.031 C 
ATOM     49  C   UNL A   1      38.481  29.802  28.556  1.00  0.00     0.029 A 
ATOM     50  C   UNL A   1      39.486  29.548  29.585  1.00  0.00     0.049 A 
ATOM     51  H   UNL A   1      39.675  30.490  31.433  1.00  0.00     0.167 HD
ATOM     52  C   UNL A   1      40.078  32.675  35.198  1.00  0.00     0.037 A 
ATOM     53  C   UNL A   1      40.475  28.638  29.498  1.00  0.00     0.037 A 
ATOM     54  C   UNL A   1      41.104  31.666  35.236  1.00  0.00     0.049 A 
ATOM     55  C   UNL A   1      41.437  28.484  30.645  1.00  0.00     0.074 A 
ATOM     56  C   UNL A   1      41.997  31.385  36.255  1.00  0.00     0.029 A 
ATOM     57  N   UNL A   1      41.376  30.776  34.209  1.00  0.00    -0.354 N 
ATOM     58  N   UNL A   1      41.478  29.137  31.781  1.00  0.00    -0.248 NA
ATOM     59  C   UNL A   1      42.485  27.465  30.499  1.00  0.00     0.031 C 
ATOM     60  C   UNL A   1      42.842  30.356  35.825  1.00  0.00     0.029 A 
ATOM     61  C   UNL A   1      42.438  29.959  34.560  1.00  0.00     0.049 A 
ATOM     62  H   UNL A   1      40.887  30.730  33.356  1.00  0.00     0.167 HD
ATOM     63  C   UNL A   1      42.531  28.584  32.499  1.00  0.00     0.074 A 
ATOM     64  C   UNL A   1      43.097  27.538  31.674  1.00  0.00     0.031 C 
ATOM     65  C   UNL A   1      42.984  28.912  33.734  1.00  0.00     0.037 A 
BRANCH  52  66
ATOM     66  C   UNL A   1      39.955  33.612  36.365  1.00  0.00     0.057 A 
ATOM     67  C   UNL A   1      40.666  34.819  36.422  1.00  0.00     0.134 A 
ATOM     68  C   UNL A   1      39.090  33.324  37.428  1.00  0.00     0.134 A 
ATOM     69  F   UNL A   1      41.520  35.152  35.442  1.00  0.00    -0.206 F 
ATOM     70  C   UNL A   1      40.544  35.689  37.507  1.00  0.00     0.040 A 
ATOM     71  C   UNL A   1      38.937  34.199  38.504  1.00  0.00     0.040 A 
ATOM     72  F   UNL A   1      38.372  32.191  37.434  1.00  0.00    -0.206 F 
ATOM     73  C   UNL A   1      39.671  35.383  38.550  1.00  0.00     0.006 A 
ENDBRANCH  52  66
BRANCH  53  74
ATOM     74  C   UNL A   1      40.595  27.782  28.289  1.00  0.00     0.057 A 
ATOM     75  C   UNL A   1      39.977  26.527  28.230  1.00  0.00     0.134 A 
ATOM     76  C   UNL A   1      41.332  28.191  27.172  1.00  0.00     0.134 A 
ATOM     77  F   UNL A   1      39.273  26.072  29.276  1.00  0.00    -0.206 F 
ATOM     78  C   UNL A   1      40.105  25.701  27.111  1.00  0.00     0.040 A 
ATOM     79  C   UNL A   1      41.446  27.388  26.036  1.00  0.00     0.040 A 
ATOM     80  F   UNL A   1      41.942  29.386  27.162  1.00  0.00    -0.206 F 
ATOM     81  C   UNL A   1      40.838  26.135  26.008  1.00  0.00     0.006 A 
ENDBRANCH  53  74
BRANCH  65  82
ATOM     82  C   UNL A   1      44.120  28.103  34.291  1.00  0.00     0.057 A 
ATOM     83  C   UNL A   1      43.910  26.898  34.972  1.00  0.00     0.134 A 
ATOM     84  C   UNL A   1      45.445  28.515  34.096  1.00  0.00     0.134 A 
ATOM     85  F   UNL A   1      42.665  26.454  35.202  1.00  0.00    -0.206 F 
ATOM     86  C   UNL A   1      44.978  26.139  35.456  1.00  0.00     0.040 A 
ATOM     87  C   UNL A   1      46.521  27.752  34.552  1.00  0.00     0.040 A 
ATOM     88  F   UNL A   1      45.715  29.657  33.445  1.00  0.00    -0.206 F 
ATOM     89  C   UNL A   1      46.288  26.563  35.239  1.00  0.00     0.006 A 
ENDBRANCH  65  82
ENDBRANCH  39  40
ENDBRANCH  31  34
ENDBRANCH  29  30
ENDBRANCH  28  29
ENDBRANCH  27  28
ENDBRANCH   1  27
TORSDOF 16
ENDMDL
