MODEL 1
REMARK VINA RESULT:     -11.0      0.000      0.000
REMARK SMILES CN(C)Nc1ncnc(Nc2ccc(C(=O)NCCCCCCNC(=O)c3ccc(-c4c5nc(c(-c6c(F)cccc6F)c6ccc([nH]6)c(-c6c(F)cccc6F)c6nc(c(-c7c(F)cccc7F)c7ccc4[nH]7)C=C6)C=C5)cc3)cc2)c1[N+](=O)[O-]
REMARK SMILES IDX 19 1 18 2 17 3 15 4 16 5 14 7 11 8 12 9 82 10 13 11 81 12
REMARK SMILES IDX 10 13 9 15 5 16 6 17 83 18 7 19 8 20 4 21 2 23 1 24 3 25
REMARK SMILES IDX 84 26 85 27 86 28 20 29 21 30 22 31 23 32 24 33 25 34 26 36
REMARK SMILES IDX 27 37 28 38 80 39 29 40 79 41 30 42 31 43 32 44 73 45 33 46
REMARK SMILES IDX 78 47 72 48 74 49 34 50 77 51 71 52 70 53 35 55 61 56 44 57
REMARK SMILES IDX 60 58 45 59 48 60 59 61 75 62 46 63 47 64 58 66 76 67 49 68
REMARK SMILES IDX 36 69 37 70 42 71 38 72 39 73 41 74 43 75 40 76 62 77 63 78
REMARK SMILES IDX 68 79 64 80 65 81 67 82 69 83 66 84 50 85 51 86 56 87 52 88
REMARK SMILES IDX 53 89 55 90 57 91 54 92
REMARK H PARENT 17 6 10 14 4 22 24 35 74 54 48 65
REMARK Flexibility Score: inf
ROOT
ATOM      1  C   UNL A   1      39.832  23.095  26.820  1.00  0.00     0.021 C 
ENDROOT
BRANCH   1   2
ATOM      2  C   UNL A   1      38.478  22.924  26.127  1.00  0.00     0.116 C 
BRANCH   2   3
ATOM      3  N   UNL A   1      38.392  21.592  25.563  1.00  0.00    -0.352 N 
ATOM      4  C   UNL A   1      37.390  20.910  24.927  1.00  0.00     0.251 C 
ATOM      5  O   UNL A   1      37.606  19.735  24.628  1.00  0.00    -0.269 OA
ATOM      6  H   UNL A   1      39.224  21.073  25.655  1.00  0.00     0.163 HD
BRANCH   4   7
ATOM      7  C   UNL A   1      36.106  21.538  24.510  1.00  0.00     0.039 A 
ATOM      8  C   UNL A   1      33.829  23.032  23.774  1.00  0.00     0.040 A 
ATOM      9  C   UNL A   1      35.065  23.301  23.189  1.00  0.00     0.027 A 
ATOM     10  C   UNL A   1      33.718  21.927  24.627  1.00  0.00     0.027 A 
ATOM     11  C   UNL A   1      36.198  22.578  23.572  1.00  0.00     0.016 A 
ATOM     12  C   UNL A   1      34.843  21.168  24.971  1.00  0.00     0.016 A 
BRANCH   8  13
ATOM     13  N   UNL A   1      32.706  23.796  23.411  1.00  0.00    -0.334 N 
ATOM     14  H   UNL A   1      32.071  23.390  22.778  1.00  0.00     0.168 HD
BRANCH  13  15
ATOM     15  C   UNL A   1      32.414  25.093  23.877  1.00  0.00     0.215 A 
ATOM     16  C   UNL A   1      31.889  27.391  23.583  1.00  0.00     0.225 A 
ATOM     17  N   UNL A   1      31.893  27.573  24.922  1.00  0.00    -0.212 NA
ATOM     18  C   UNL A   1      32.242  26.177  23.031  1.00  0.00     0.354 A 
ATOM     19  C   UNL A   1      32.147  26.504  25.677  1.00  0.00     0.227 A 
ATOM     20  N   UNL A   1      32.366  25.270  25.218  1.00  0.00    -0.212 NA
BRANCH  16  21
ATOM     21  N   UNL A   1      31.379  28.504  22.908  1.00  0.00    -0.298 N 
ATOM     22  H   UNL A   1      31.950  29.305  22.868  1.00  0.00     0.184 HD
BRANCH  21  23
ATOM     23  N   UNL A   1      30.109  28.579  22.269  1.00  0.00    -0.228 NA
ATOM     24  C   UNL A   1      29.010  28.096  23.126  1.00  0.00     0.130 C 
ATOM     25  C   UNL A   1      29.857  30.011  22.000  1.00  0.00     0.130 C 
ENDBRANCH  21  23
ENDBRANCH  16  21
BRANCH  18  26
ATOM     26  N   UNL A   1      32.483  26.043  21.626  1.00  0.00     0.070 N 
ATOM     27  O   UNL A   1      31.485  25.976  20.888  1.00  0.00    -0.258 OA
ATOM     28  O   UNL A   1      33.653  25.893  21.251  1.00  0.00    -0.258 OA
ENDBRANCH  18  26
ENDBRANCH  13  15
ENDBRANCH   8  13
ENDBRANCH   4   7
ENDBRANCH   2   3
ENDBRANCH   1   2
BRANCH   1  29
ATOM     29  C   UNL A   1      40.450  21.760  27.260  1.00  0.00     0.002 C 
BRANCH  29  30
ATOM     30  C   UNL A   1      41.771  21.407  26.565  1.00  0.00     0.002 C 
BRANCH  30  31
ATOM     31  C   UNL A   1      41.781  20.046  25.866  1.00  0.00     0.021 C 
BRANCH  31  32
ATOM     32  C   UNL A   1      42.916  19.129  26.310  1.00  0.00     0.116 C 
BRANCH  32  33
ATOM     33  N   UNL A   1      43.761  18.746  25.191  1.00  0.00    -0.352 N 
ATOM     34  C   UNL A   1      44.528  19.538  24.374  1.00  0.00     0.251 C 
ATOM     35  H   UNL A   1      43.788  17.783  24.990  1.00  0.00     0.163 HD
ATOM     36  O   UNL A   1      44.990  19.091  23.331  1.00  0.00    -0.269 OA
BRANCH  34  37
ATOM     37  C   UNL A   1      44.788  20.942  24.755  1.00  0.00     0.039 A 
ATOM     38  C   UNL A   1      44.401  21.963  23.886  1.00  0.00     0.014 A 
ATOM     39  C   UNL A   1      45.424  21.245  25.962  1.00  0.00     0.014 A 
ATOM     40  C   UNL A   1      44.606  23.294  24.251  1.00  0.00     0.010 A 
ATOM     41  C   UNL A   1      45.561  22.572  26.358  1.00  0.00     0.010 A 
ATOM     42  C   UNL A   1      45.160  23.609  25.504  1.00  0.00    -0.014 A 
BRANCH  42  43
ATOM     43  C   UNL A   1      45.331  25.019  25.935  1.00  0.00     0.031 A 
ATOM     44  C   UNL A   1      46.689  25.664  25.882  1.00  0.00     0.074 A 
ATOM     45  C   UNL A   1      44.278  25.697  26.430  1.00  0.00     0.049 A 
ATOM     46  N   UNL A   1      47.052  26.858  26.276  1.00  0.00    -0.248 NA
ATOM     47  C   UNL A   1      47.789  24.851  25.339  1.00  0.00     0.031 C 
ATOM     48  C   UNL A   1      42.920  25.166  26.573  1.00  0.00     0.029 A 
ATOM     49  N   UNL A   1      44.185  26.977  26.915  1.00  0.00    -0.354 N 
ATOM     50  C   UNL A   1      48.420  26.934  26.041  1.00  0.00     0.074 A 
ATOM     51  C   UNL A   1      48.831  25.649  25.521  1.00  0.00     0.031 C 
ATOM     52  C   UNL A   1      42.127  26.119  27.087  1.00  0.00     0.029 A 
ATOM     53  C   UNL A   1      42.925  27.312  27.347  1.00  0.00     0.049 A 
ATOM     54  H   UNL A   1      44.950  27.597  26.949  1.00  0.00     0.167 HD
ATOM     55  C   UNL A   1      49.251  27.986  26.222  1.00  0.00     0.037 A 
ATOM     56  C   UNL A   1      42.468  28.452  27.900  1.00  0.00     0.037 A 
ATOM     57  C   UNL A   1      48.832  29.272  26.715  1.00  0.00     0.049 A 
ATOM     58  C   UNL A   1      43.416  29.602  28.100  1.00  0.00     0.074 A 
ATOM     59  C   UNL A   1      49.588  30.420  26.877  1.00  0.00     0.029 A 
ATOM     60  N   UNL A   1      47.545  29.577  27.129  1.00  0.00    -0.354 N 
ATOM     61  N   UNL A   1      44.692  29.681  27.809  1.00  0.00    -0.248 NA
ATOM     62  C   UNL A   1      42.860  30.822  28.700  1.00  0.00     0.031 C 
ATOM     63  C   UNL A   1      48.768  31.407  27.434  1.00  0.00     0.029 A 
ATOM     64  C   UNL A   1      47.490  30.889  27.569  1.00  0.00     0.049 A 
ATOM     65  H   UNL A   1      46.782  28.954  27.113  1.00  0.00     0.167 HD
ATOM     66  C   UNL A   1      45.082  30.968  28.159  1.00  0.00     0.074 A 
ATOM     67  C   UNL A   1      43.905  31.638  28.670  1.00  0.00     0.031 C 
ATOM     68  C   UNL A   1      46.306  31.544  28.065  1.00  0.00     0.037 A 
BRANCH  55  69
ATOM     69  C   UNL A   1      50.701  27.797  25.879  1.00  0.00     0.057 A 
ATOM     70  C   UNL A   1      51.176  27.943  24.568  1.00  0.00     0.134 A 
ATOM     71  C   UNL A   1      51.641  27.512  26.878  1.00  0.00     0.134 A 
ATOM     72  F   UNL A   1      50.327  28.204  23.562  1.00  0.00    -0.206 F 
ATOM     73  C   UNL A   1      52.529  27.791  24.260  1.00  0.00     0.040 A 
ATOM     74  C   UNL A   1      53.001  27.386  26.586  1.00  0.00     0.040 A 
ATOM     75  F   UNL A   1      51.256  27.364  28.154  1.00  0.00    -0.206 F 
ATOM     76  C   UNL A   1      53.447  27.520  25.274  1.00  0.00     0.006 A 
ENDBRANCH  55  69
BRANCH  56  77
ATOM     77  C   UNL A   1      41.040  28.573  28.291  1.00  0.00     0.057 A 
ATOM     78  C   UNL A   1      40.615  28.248  29.585  1.00  0.00     0.134 A 
ATOM     79  C   UNL A   1      40.063  28.991  27.379  1.00  0.00     0.134 A 
ATOM     80  F   UNL A   1      41.501  27.824  30.499  1.00  0.00    -0.206 F 
ATOM     81  C   UNL A   1      39.269  28.307  29.951  1.00  0.00     0.040 A 
ATOM     82  C   UNL A   1      38.718  29.082  27.739  1.00  0.00     0.040 A 
ATOM     83  F   UNL A   1      40.405  29.326  26.126  1.00  0.00    -0.206 F 
ATOM     84  C   UNL A   1      38.317  28.729  29.026  1.00  0.00     0.006 A 
ENDBRANCH  56  77
BRANCH  68  85
ATOM     85  C   UNL A   1      46.424  32.981  28.484  1.00  0.00     0.057 A 
ATOM     86  C   UNL A   1      46.767  33.346  29.792  1.00  0.00     0.134 A 
ATOM     87  C   UNL A   1      46.228  34.011  27.555  1.00  0.00     0.134 A 
ATOM     88  F   UNL A   1      46.954  32.408  30.733  1.00  0.00    -0.206 F 
ATOM     89  C   UNL A   1      46.887  34.684  30.167  1.00  0.00     0.040 A 
ATOM     90  C   UNL A   1      46.374  35.352  27.910  1.00  0.00     0.040 A 
ATOM     91  F   UNL A   1      45.907  33.729  26.283  1.00  0.00    -0.206 F 
ATOM     92  C   UNL A   1      46.699  35.692  29.222  1.00  0.00     0.006 A 
ENDBRANCH  68  85
ENDBRANCH  42  43
ENDBRANCH  34  37
ENDBRANCH  32  33
ENDBRANCH  31  32
ENDBRANCH  30  31
ENDBRANCH  29  30
ENDBRANCH   1  29
TORSDOF 18
ENDMDL
MODEL 2
REMARK VINA RESULT:     -11.0      2.424      3.605
REMARK SMILES CN(C)Nc1ncnc(Nc2ccc(C(=O)NCCCCCCNC(=O)c3ccc(-c4c5nc(c(-c6c(F)cccc6F)c6ccc([nH]6)c(-c6c(F)cccc6F)c6nc(c(-c7c(F)cccc7F)c7ccc4[nH]7)C=C6)C=C5)cc3)cc2)c1[N+](=O)[O-]
REMARK SMILES IDX 19 1 18 2 17 3 15 4 16 5 14 7 11 8 12 9 82 10 13 11 81 12
REMARK SMILES IDX 10 13 9 15 5 16 6 17 83 18 7 19 8 20 4 21 2 23 1 24 3 25
REMARK SMILES IDX 84 26 85 27 86 28 20 29 21 30 22 31 23 32 24 33 25 34 26 36
REMARK SMILES IDX 27 37 28 38 80 39 29 40 79 41 30 42 31 43 32 44 73 45 33 46
REMARK SMILES IDX 78 47 72 48 74 49 34 50 77 51 71 52 70 53 35 55 61 56 44 57
REMARK SMILES IDX 60 58 45 59 48 60 59 61 75 62 46 63 47 64 58 66 76 67 49 68
REMARK SMILES IDX 36 69 37 70 42 71 38 72 39 73 41 74 43 75 40 76 62 77 63 78
REMARK SMILES IDX 68 79 64 80 65 81 67 82 69 83 66 84 50 85 51 86 56 87 52 88
REMARK SMILES IDX 53 89 55 90 57 91 54 92
REMARK H PARENT 17 6 10 14 4 22 24 35 74 54 48 65
REMARK Flexibility Score: inf
ROOT
ATOM      1  C   UNL A   1      35.507  21.868  26.143  1.00  0.00     0.021 C 
ENDROOT
BRANCH   1   2
ATOM      2  C   UNL A   1      34.384  21.246  26.975  1.00  0.00     0.116 C 
BRANCH   2   3
ATOM      3  N   UNL A   1      33.582  20.384  26.130  1.00  0.00    -0.352 N 
ATOM      4  C   UNL A   1      32.446  20.591  25.394  1.00  0.00     0.251 C 
ATOM      5  O   UNL A   1      31.950  19.615  24.831  1.00  0.00    -0.269 OA
ATOM      6  H   UNL A   1      33.925  19.462  26.072  1.00  0.00     0.163 HD
BRANCH   4   7
ATOM      7  C   UNL A   1      31.843  21.935  25.177  1.00  0.00     0.039 A 
ATOM      8  C   UNL A   1      30.423  24.360  24.934  1.00  0.00     0.040 A 
ATOM      9  C   UNL A   1      30.576  23.758  26.182  1.00  0.00     0.027 A 
ATOM     10  C   UNL A   1      31.098  23.811  23.837  1.00  0.00     0.027 A 
ATOM     11  C   UNL A   1      31.257  22.543  26.297  1.00  0.00     0.016 A 
ATOM     12  C   UNL A   1      31.825  22.621  23.963  1.00  0.00     0.016 A 
BRANCH   8  13
ATOM     13  N   UNL A   1      29.699  25.560  24.826  1.00  0.00    -0.334 N 
ATOM     14  H   UNL A   1      28.757  25.546  25.113  1.00  0.00     0.168 HD
BRANCH  13  15
ATOM     15  C   UNL A   1      30.208  26.782  24.341  1.00  0.00     0.215 A 
ATOM     16  C   UNL A   1      31.672  28.652  24.403  1.00  0.00     0.225 A 
ATOM     17  N   UNL A   1      31.074  29.169  23.307  1.00  0.00    -0.212 NA
ATOM     18  C   UNL A   1      31.193  27.503  24.998  1.00  0.00     0.354 A 
ATOM     19  C   UNL A   1      30.078  28.463  22.772  1.00  0.00     0.227 A 
ATOM     20  N   UNL A   1      29.647  27.279  23.213  1.00  0.00    -0.212 NA
BRANCH  16  21
ATOM     21  N   UNL A   1      32.843  29.341  24.732  1.00  0.00    -0.298 N 
ATOM     22  H   UNL A   1      33.662  29.091  24.247  1.00  0.00     0.184 HD
BRANCH  21  23
ATOM     23  N   UNL A   1      32.955  30.374  25.704  1.00  0.00    -0.228 NA
ATOM     24  C   UNL A   1      31.658  30.732  26.308  1.00  0.00     0.130 C 
ATOM     25  C   UNL A   1      33.810  29.843  26.787  1.00  0.00     0.130 C 
ENDBRANCH  21  23
ENDBRANCH  16  21
BRANCH  18  26
ATOM     26  N   UNL A   1      31.653  27.087  26.289  1.00  0.00     0.070 N 
ATOM     27  O   UNL A   1      32.781  26.565  26.341  1.00  0.00    -0.258 OA
ATOM     28  O   UNL A   1      30.866  27.171  27.239  1.00  0.00    -0.258 OA
ENDBRANCH  18  26
ENDBRANCH  13  15
ENDBRANCH   8  13
ENDBRANCH   4   7
ENDBRANCH   2   3
ENDBRANCH   1   2
BRANCH   1  29
ATOM     29  C   UNL A   1      35.917  20.998  24.946  1.00  0.00     0.002 C 
BRANCH  29  30
ATOM     30  C   UNL A   1      37.393  21.118  24.544  1.00  0.00     0.002 C 
BRANCH  30  31
ATOM     31  C   UNL A   1      38.245  19.891  24.871  1.00  0.00     0.021 C 
BRANCH  31  32
ATOM     32  C   UNL A   1      39.187  20.086  26.054  1.00  0.00     0.116 C 
BRANCH  32  33
ATOM     33  N   UNL A   1      40.340  19.203  25.970  1.00  0.00    -0.352 N 
ATOM     34  C   UNL A   1      41.675  19.515  26.022  1.00  0.00     0.251 C 
ATOM     35  H   UNL A   1      40.133  18.247  25.860  1.00  0.00     0.163 HD
ATOM     36  O   UNL A   1      42.518  18.687  25.696  1.00  0.00    -0.269 OA
BRANCH  34  37
ATOM     37  C   UNL A   1      42.093  20.860  26.468  1.00  0.00     0.039 A 
ATOM     38  C   UNL A   1      42.416  21.821  25.508  1.00  0.00     0.014 A 
ATOM     39  C   UNL A   1      42.177  21.165  27.829  1.00  0.00     0.014 A 
ATOM     40  C   UNL A   1      42.774  23.107  25.914  1.00  0.00     0.010 A 
ATOM     41  C   UNL A   1      42.463  22.466  28.231  1.00  0.00     0.010 A 
ATOM     42  C   UNL A   1      42.771  23.448  27.278  1.00  0.00    -0.014 A 
BRANCH  42  43
ATOM     43  C   UNL A   1      43.092  24.826  27.725  1.00  0.00     0.031 A 
ATOM     44  C   UNL A   1      44.526  25.251  27.889  1.00  0.00     0.074 A 
ATOM     45  C   UNL A   1      42.094  25.673  28.042  1.00  0.00     0.049 A 
ATOM     46  N   UNL A   1      45.006  26.385  28.332  1.00  0.00    -0.248 NA
ATOM     47  C   UNL A   1      45.556  24.262  27.533  1.00  0.00     0.031 C 
ATOM     48  C   UNL A   1      40.665  25.363  27.967  1.00  0.00     0.029 A 
ATOM     49  N   UNL A   1      42.129  26.966  28.501  1.00  0.00    -0.354 N 
ATOM     50  C   UNL A   1      46.388  26.240  28.320  1.00  0.00     0.074 A 
ATOM     51  C   UNL A   1      46.669  24.892  27.878  1.00  0.00     0.031 C 
ATOM     52  C   UNL A   1      39.960  26.443  28.342  1.00  0.00     0.029 A 
ATOM     53  C   UNL A   1      40.885  27.505  28.723  1.00  0.00     0.049 A 
ATOM     54  H   UNL A   1      42.967  27.460  28.655  1.00  0.00     0.167 HD
ATOM     55  C   UNL A   1      47.336  27.156  28.628  1.00  0.00     0.037 A 
ATOM     56  C   UNL A   1      40.532  28.718  29.191  1.00  0.00     0.037 A 
ATOM     57  C   UNL A   1      47.052  28.505  29.043  1.00  0.00     0.049 A 
ATOM     58  C   UNL A   1      41.606  29.711  29.536  1.00  0.00     0.074 A 
ATOM     59  C   UNL A   1      47.944  29.526  29.320  1.00  0.00     0.029 A 
ATOM     60  N   UNL A   1      45.780  29.018  29.244  1.00  0.00    -0.354 N 
ATOM     61  N   UNL A   1      42.909  29.583  29.455  1.00  0.00    -0.248 NA
ATOM     62  C   UNL A   1      41.162  31.020  30.035  1.00  0.00     0.031 C 
ATOM     63  C   UNL A   1      47.213  30.644  29.735  1.00  0.00     0.029 A 
ATOM     64  C   UNL A   1      45.864  30.335  29.664  1.00  0.00     0.049 A 
ATOM     65  H   UNL A   1      44.941  28.520  29.107  1.00  0.00     0.167 HD
ATOM     66  C   UNL A   1      43.436  30.803  29.858  1.00  0.00     0.074 A 
ATOM     67  C   UNL A   1      42.314  31.662  30.171  1.00  0.00     0.031 C 
ATOM     68  C   UNL A   1      44.735  31.180  29.960  1.00  0.00     0.037 A 
BRANCH  55  69
ATOM     69  C   UNL A   1      48.773  26.734  28.524  1.00  0.00     0.057 A 
ATOM     70  C   UNL A   1      49.500  26.872  27.334  1.00  0.00     0.134 A 
ATOM     71  C   UNL A   1      49.453  26.228  29.640  1.00  0.00     0.134 A 
ATOM     72  F   UNL A   1      48.906  27.339  26.225  1.00  0.00    -0.206 F 
ATOM     73  C   UNL A   1      50.843  26.502  27.250  1.00  0.00     0.040 A 
ATOM     74  C   UNL A   1      50.804  25.881  29.576  1.00  0.00     0.040 A 
ATOM     75  F   UNL A   1      48.819  26.074  30.812  1.00  0.00    -0.206 F 
ATOM     76  C   UNL A   1      51.502  26.012  28.378  1.00  0.00     0.006 A 
ENDBRANCH  55  69
BRANCH  56  77
ATOM     77  C   UNL A   1      39.097  29.070  29.347  1.00  0.00     0.057 A 
ATOM     78  C   UNL A   1      38.447  28.925  30.578  1.00  0.00     0.134 A 
ATOM     79  C   UNL A   1      38.336  29.536  28.268  1.00  0.00     0.134 A 
ATOM     80  F   UNL A   1      39.118  28.466  31.645  1.00  0.00    -0.206 F 
ATOM     81  C   UNL A   1      37.087  29.202  30.725  1.00  0.00     0.040 A 
ATOM     82  C   UNL A   1      36.982  29.844  28.408  1.00  0.00     0.040 A 
ATOM     83  F   UNL A   1      38.901  29.706  27.063  1.00  0.00    -0.206 F 
ATOM     84  C   UNL A   1      36.352  29.667  29.638  1.00  0.00     0.006 A 
ENDBRANCH  56  77
BRANCH  68  85
ATOM     85  C   UNL A   1      45.010  32.592  30.387  1.00  0.00     0.057 A 
ATOM     86  C   UNL A   1      45.083  33.645  29.466  1.00  0.00     0.134 A 
ATOM     87  C   UNL A   1      45.165  32.908  31.743  1.00  0.00     0.134 A 
ATOM     88  F   UNL A   1      44.958  33.408  28.151  1.00  0.00    -0.206 F 
ATOM     89  C   UNL A   1      45.326  34.956  29.876  1.00  0.00     0.040 A 
ATOM     90  C   UNL A   1      45.377  34.219  32.168  1.00  0.00     0.040 A 
ATOM     91  F   UNL A   1      45.096  31.948  32.678  1.00  0.00    -0.206 F 
ATOM     92  C   UNL A   1      45.465  35.248  31.232  1.00  0.00     0.006 A 
ENDBRANCH  68  85
ENDBRANCH  42  43
ENDBRANCH  34  37
ENDBRANCH  32  33
ENDBRANCH  31  32
ENDBRANCH  30  31
ENDBRANCH  29  30
ENDBRANCH   1  29
TORSDOF 18
ENDMDL
MODEL 3
REMARK VINA RESULT:     -10.9      4.549      6.953
REMARK SMILES CN(C)Nc1ncnc(Nc2ccc(C(=O)NCCCCCCNC(=O)c3ccc(-c4c5nc(c(-c6c(F)cccc6F)c6ccc([nH]6)c(-c6c(F)cccc6F)c6nc(c(-c7c(F)cccc7F)c7ccc4[nH]7)C=C6)C=C5)cc3)cc2)c1[N+](=O)[O-]
REMARK SMILES IDX 19 1 18 2 17 3 15 4 16 5 14 7 11 8 12 9 82 10 13 11 81 12
REMARK SMILES IDX 10 13 9 15 5 16 6 17 83 18 7 19 8 20 4 21 2 23 1 24 3 25
REMARK SMILES IDX 84 26 85 27 86 28 20 29 21 30 22 31 23 32 24 33 25 34 26 36
REMARK SMILES IDX 27 37 28 38 80 39 29 40 79 41 30 42 31 43 32 44 73 45 33 46
REMARK SMILES IDX 78 47 72 48 74 49 34 50 77 51 71 52 70 53 35 55 61 56 44 57
REMARK SMILES IDX 60 58 45 59 48 60 59 61 75 62 46 63 47 64 58 66 76 67 49 68
REMARK SMILES IDX 36 69 37 70 42 71 38 72 39 73 41 74 43 75 40 76 62 77 63 78
REMARK SMILES IDX 68 79 64 80 65 81 67 82 69 83 66 84 50 85 51 86 56 87 52 88
REMARK SMILES IDX 53 89 55 90 57 91 54 92
REMARK H PARENT 17 6 10 14 4 22 24 35 74 54 48 65
REMARK Flexibility Score: inf
ROOT
ATOM      1  C   UNL A   1      40.035  22.642  27.304  1.00  0.00     0.021 C 
ENDROOT
BRANCH   1   2
ATOM      2  C   UNL A   1      38.883  22.869  26.321  1.00  0.00     0.116 C 
BRANCH   2   3
ATOM      3  N   UNL A   1      38.554  21.616  25.671  1.00  0.00    -0.352 N 
ATOM      4  C   UNL A   1      37.437  21.168  25.017  1.00  0.00     0.251 C 
ATOM      5  O   UNL A   1      37.437  19.998  24.634  1.00  0.00    -0.269 OA
ATOM      6  H   UNL A   1      39.281  20.953  25.706  1.00  0.00     0.163 HD
BRANCH   4   7
ATOM      7  C   UNL A   1      36.280  22.040  24.677  1.00  0.00     0.039 A 
ATOM      8  C   UNL A   1      33.934  23.407  23.912  1.00  0.00     0.040 A 
ATOM      9  C   UNL A   1      33.854  22.268  24.711  1.00  0.00     0.027 A 
ATOM     10  C   UNL A   1      35.198  23.929  23.613  1.00  0.00     0.027 A 
ATOM     11  C   UNL A   1      35.015  21.577  25.068  1.00  0.00     0.016 A 
ATOM     12  C   UNL A   1      36.364  23.265  24.015  1.00  0.00     0.016 A 
BRANCH   8  13
ATOM     13  N   UNL A   1      32.755  24.069  23.524  1.00  0.00    -0.334 N 
ATOM     14  H   UNL A   1      32.092  23.548  23.016  1.00  0.00     0.168 HD
BRANCH  13  15
ATOM     15  C   UNL A   1      32.444  25.415  23.803  1.00  0.00     0.215 A 
ATOM     16  C   UNL A   1      31.854  27.633  23.190  1.00  0.00     0.225 A 
ATOM     17  N   UNL A   1      31.890  28.011  24.487  1.00  0.00    -0.212 NA
ATOM     18  C   UNL A   1      32.221  26.358  22.812  1.00  0.00     0.354 A 
ATOM     19  C   UNL A   1      32.191  27.071  25.383  1.00  0.00     0.227 A 
ATOM     20  N   UNL A   1      32.428  25.787  25.104  1.00  0.00    -0.212 NA
BRANCH  16  21
ATOM     21  N   UNL A   1      31.299  28.622  22.374  1.00  0.00    -0.298 N 
ATOM     22  H   UNL A   1      31.909  29.309  22.021  1.00  0.00     0.184 HD
BRANCH  21  23
ATOM     23  N   UNL A   1      29.927  28.723  22.005  1.00  0.00    -0.228 NA
ATOM     24  C   UNL A   1      29.017  28.223  23.051  1.00  0.00     0.130 C 
ATOM     25  C   UNL A   1      29.643  30.163  21.829  1.00  0.00     0.130 C 
ENDBRANCH  21  23
ENDBRANCH  16  21
BRANCH  18  26
ATOM     26  N   UNL A   1      32.428  26.022  21.435  1.00  0.00     0.070 N 
ATOM     27  O   UNL A   1      31.422  26.009  20.704  1.00  0.00    -0.258 OA
ATOM     28  O   UNL A   1      33.560  25.663  21.090  1.00  0.00    -0.258 OA
ENDBRANCH  18  26
ENDBRANCH  13  15
ENDBRANCH   8  13
ENDBRANCH   4   7
ENDBRANCH   2   3
ENDBRANCH   1   2
BRANCH   1  29
ATOM     29  C   UNL A   1      40.639  21.234  27.202  1.00  0.00     0.002 C 
BRANCH  29  30
ATOM     30  C   UNL A   1      42.170  21.189  27.267  1.00  0.00     0.002 C 
BRANCH  30  31
ATOM     31  C   UNL A   1      42.872  21.389  25.922  1.00  0.00     0.021 C 
BRANCH  31  32
ATOM     32  C   UNL A   1      42.686  22.780  25.325  1.00  0.00     0.116 C 
BRANCH  32  33
ATOM     33  N   UNL A   1      43.955  23.360  24.917  1.00  0.00    -0.352 N 
ATOM     34  C   UNL A   1      44.477  24.595  25.210  1.00  0.00     0.251 C 
ATOM     35  H   UNL A   1      44.521  22.786  24.352  1.00  0.00     0.163 HD
ATOM     36  O   UNL A   1      45.446  25.021  24.594  1.00  0.00    -0.269 OA
BRANCH  34  37
ATOM     37  C   UNL A   1      43.856  25.416  26.270  1.00  0.00     0.039 A 
ATOM     38  C   UNL A   1      43.033  24.796  27.212  1.00  0.00     0.014 A 
ATOM     39  C   UNL A   1      44.077  26.795  26.324  1.00  0.00     0.014 A 
ATOM     40  C   UNL A   1      42.471  25.552  28.241  1.00  0.00     0.010 A 
ATOM     41  C   UNL A   1      43.577  27.535  27.391  1.00  0.00     0.010 A 
ATOM     42  C   UNL A   1      42.764  26.922  28.356  1.00  0.00    -0.014 A 
BRANCH  42  43
ATOM     43  C   UNL A   1      42.224  27.731  29.477  1.00  0.00     0.031 A 
ATOM     44  C   UNL A   1      42.872  27.669  30.833  1.00  0.00     0.074 A 
ATOM     45  C   UNL A   1      41.114  28.472  29.290  1.00  0.00     0.049 A 
ATOM     46  N   UNL A   1      42.508  28.247  31.949  1.00  0.00    -0.248 NA
ATOM     47  C   UNL A   1      44.072  26.827  30.957  1.00  0.00     0.031 C 
ATOM     48  C   UNL A   1      40.370  28.579  28.033  1.00  0.00     0.029 A 
ATOM     49  N   UNL A   1      40.413  29.269  30.159  1.00  0.00    -0.354 N 
ATOM     50  C   UNL A   1      43.424  27.828  32.907  1.00  0.00     0.074 A 
ATOM     51  C   UNL A   1      44.328  26.907  32.254  1.00  0.00     0.031 C 
ATOM     52  C   UNL A   1      39.331  29.411  28.207  1.00  0.00     0.029 A 
ATOM     53  C   UNL A   1      39.312  29.865  29.593  1.00  0.00     0.049 A 
ATOM     54  H   UNL A   1      40.675  29.402  31.099  1.00  0.00     0.167 HD
ATOM     55  C   UNL A   1      43.516  28.196  34.206  1.00  0.00     0.037 A 
ATOM     56  C   UNL A   1      38.385  30.678  30.136  1.00  0.00     0.037 A 
ATOM     57  C   UNL A   1      42.630  29.134  34.846  1.00  0.00     0.049 A 
ATOM     58  C   UNL A   1      38.506  31.062  31.585  1.00  0.00     0.074 A 
ATOM     59  C   UNL A   1      42.677  29.617  36.142  1.00  0.00     0.029 A 
ATOM     60  N   UNL A   1      41.535  29.726  34.236  1.00  0.00    -0.354 N 
ATOM     61  N   UNL A   1      39.418  30.712  32.460  1.00  0.00    -0.248 NA
ATOM     62  C   UNL A   1      37.472  31.957  32.121  1.00  0.00     0.031 C 
ATOM     63  C   UNL A   1      41.582  30.466  36.331  1.00  0.00     0.029 A 
ATOM     64  C   UNL A   1      40.885  30.553  35.137  1.00  0.00     0.049 A 
ATOM     65  H   UNL A   1      41.260  29.581  33.302  1.00  0.00     0.167 HD
ATOM     66  C   UNL A   1      39.086  31.370  33.638  1.00  0.00     0.074 A 
ATOM     67  C   UNL A   1      37.899  32.150  33.362  1.00  0.00     0.031 C 
ATOM     68  C   UNL A   1      39.710  31.332  34.842  1.00  0.00     0.037 A 
BRANCH  55  69
ATOM     69  C   UNL A   1      44.618  27.589  35.027  1.00  0.00     0.057 A 
ATOM     70  C   UNL A   1      45.901  28.150  35.073  1.00  0.00     0.134 A 
ATOM     71  C   UNL A   1      44.380  26.457  35.818  1.00  0.00     0.134 A 
ATOM     72  F   UNL A   1      46.199  29.227  34.331  1.00  0.00    -0.206 F 
ATOM     73  C   UNL A   1      46.913  27.596  35.858  1.00  0.00     0.040 A 
ATOM     74  C   UNL A   1      45.376  25.910  36.629  1.00  0.00     0.040 A 
ATOM     75  F   UNL A   1      43.173  25.872  35.825  1.00  0.00    -0.206 F 
ATOM     76  C   UNL A   1      46.649  26.477  36.647  1.00  0.00     0.006 A 
ENDBRANCH  55  69
BRANCH  56  77
ATOM     77  C   UNL A   1      37.270  31.201  29.306  1.00  0.00     0.057 A 
ATOM     78  C   UNL A   1      37.296  32.507  28.801  1.00  0.00     0.134 A 
ATOM     79  C   UNL A   1      36.144  30.421  29.017  1.00  0.00     0.134 A 
ATOM     80  F   UNL A   1      38.340  33.309  29.059  1.00  0.00    -0.206 F 
ATOM     81  C   UNL A   1      36.232  33.029  28.064  1.00  0.00     0.040 A 
ATOM     82  C   UNL A   1      35.085  30.921  28.257  1.00  0.00     0.040 A 
ATOM     83  F   UNL A   1      36.061  29.159  29.462  1.00  0.00    -0.206 F 
ATOM     84  C   UNL A   1      35.123  32.232  27.787  1.00  0.00     0.006 A 
ENDBRANCH  56  77
BRANCH  68  85
ATOM     85  C   UNL A   1      39.144  32.190  35.936  1.00  0.00     0.057 A 
ATOM     86  C   UNL A   1      38.212  31.697  36.858  1.00  0.00     0.134 A 
ATOM     87  C   UNL A   1      39.569  33.515  36.091  1.00  0.00     0.134 A 
ATOM     88  F   UNL A   1      37.754  30.440  36.757  1.00  0.00    -0.206 F 
ATOM     89  C   UNL A   1      37.704  32.500  37.880  1.00  0.00     0.040 A 
ATOM     90  C   UNL A   1      39.091  34.319  37.126  1.00  0.00     0.040 A 
ATOM     91  F   UNL A   1      40.468  34.046  35.248  1.00  0.00    -0.206 F 
ATOM     92  C   UNL A   1      38.150  33.813  38.021  1.00  0.00     0.006 A 
ENDBRANCH  68  85
ENDBRANCH  42  43
ENDBRANCH  34  37
ENDBRANCH  32  33
ENDBRANCH  31  32
ENDBRANCH  30  31
ENDBRANCH  29  30
ENDBRANCH   1  29
TORSDOF 18
ENDMDL
