MODEL 1
REMARK VINA RESULT:     -11.3      0.000      0.000
REMARK SMILES CC1(C)CCCC[C@@]1(C(=O)NCCCCCCNC(=O)c1ccc(-c2c3nc(c(-c4c(F)cccc4F)c4ccc([nH]4)c(-c4c(F)cccc4F)c4nc(c(-c5c(F)cccc5F)c5ccc2[nH]5)C=C4)C=C3)cc1)[NH+]1CC[NH2+]CC1
REMARK SMILES IDX 15 1 14 2 13 3 12 4 11 5 9 6 10 7 8 9 1 10 2 11 3 12 4 13
REMARK SMILES IDX 5 14 7 15 6 16 75 17 76 18 80 19 77 21 79 22 78 23 16 26
REMARK SMILES IDX 17 27 18 28 19 29 20 31 21 32 22 33 74 34 23 35 73 36 24 37
REMARK SMILES IDX 25 38 26 39 67 40 27 41 72 42 66 43 68 44 28 45 71 46 65 47
REMARK SMILES IDX 64 48 29 50 55 51 38 52 54 53 39 54 42 55 53 56 69 57 40 58
REMARK SMILES IDX 41 59 52 61 70 62 43 63 30 64 31 65 36 66 32 67 33 68 35 69
REMARK SMILES IDX 37 70 34 71 56 72 57 73 62 74 58 75 59 76 61 77 63 78 60 79
REMARK SMILES IDX 44 80 45 81 50 82 46 83 47 84 49 85 51 86 48 87
REMARK H PARENT 11 8 75 20 78 24 78 25 18 30 68 49 42 60
REMARK Flexibility Score: inf
ROOT
ATOM      1  C   UNL A   1      37.311  21.282  24.594  1.00  0.00     0.002 C 
ENDROOT
BRANCH   1   2
ATOM      2  C   UNL A   1      37.187  22.231  25.788  1.00  0.00     0.002 C 
BRANCH   2   3
ATOM      3  C   UNL A   1      36.881  23.703  25.480  1.00  0.00     0.021 C 
BRANCH   3   4
ATOM      4  C   UNL A   1      35.619  23.984  24.668  1.00  0.00     0.116 C 
BRANCH   4   5
ATOM      5  N   UNL A   1      34.899  25.163  25.099  1.00  0.00    -0.351 N 
ATOM      6  C   UNL A   1      33.619  25.323  25.548  1.00  0.00     0.281 C 
ATOM      7  O   UNL A   1      33.446  26.390  26.150  1.00  0.00    -0.268 OA
ATOM      8  H   UNL A   1      35.425  25.995  25.065  1.00  0.00     0.163 HD
BRANCH   6   9
ATOM      9  C   UNL A   1      32.403  24.297  25.259  1.00  0.00     0.182 C 
ATOM     10  C   UNL A   1      30.632  23.745  23.299  1.00  0.00     0.018 C 
ATOM     11  C   UNL A   1      31.868  24.584  23.753  1.00  0.00     0.029 C 
ATOM     12  C   UNL A   1      32.965  24.372  22.688  1.00  0.00     0.018 C 
ATOM     13  C   UNL A   1      31.388  26.070  23.648  1.00  0.00     0.013 C 
ATOM     14  C   UNL A   1      30.262  26.414  24.620  1.00  0.00     0.001 C 
ATOM     15  C   UNL A   1      31.239  24.674  26.246  1.00  0.00     0.080 C 
ATOM     16  C   UNL A   1      30.576  26.044  26.058  1.00  0.00     0.007 C 
BRANCH   9  17
ATOM     17  N   UNL A   1      32.921  22.912  25.584  1.00  0.00    -0.313 N 
ATOM     18  C   UNL A   1      32.257  21.749  24.986  1.00  0.00     0.325 C 
ATOM     19  C   UNL A   1      33.160  22.662  27.026  1.00  0.00     0.325 C 
ATOM     20  H   UNL A   1      33.812  22.979  25.092  1.00  0.00     0.349 HD
ATOM     21  C   UNL A   1      32.896  20.379  25.345  1.00  0.00     0.322 C 
ATOM     22  C   UNL A   1      33.915  21.337  27.272  1.00  0.00     0.322 C 
ATOM     23  N   UNL A   1      33.160  20.178  26.776  1.00  0.00    -0.337 N 
ATOM     24  H   UNL A   1      33.707  19.327  26.910  1.00  0.00     0.346 HD
ATOM     25  H   UNL A   1      32.281  20.085  27.286  1.00  0.00     0.346 HD
ENDBRANCH   9  17
ENDBRANCH   6   9
ENDBRANCH   4   5
ENDBRANCH   3   4
ENDBRANCH   2   3
ENDBRANCH   1   2
BRANCH   1  26
ATOM     26  C   UNL A   1      38.142  20.017  24.815  1.00  0.00     0.021 C 
BRANCH  26  27
ATOM     27  C   UNL A   1      39.086  20.043  26.011  1.00  0.00     0.116 C 
BRANCH  27  28
ATOM     28  N   UNL A   1      40.255  19.195  25.842  1.00  0.00    -0.352 N 
ATOM     29  C   UNL A   1      41.582  19.498  26.015  1.00  0.00     0.251 C 
ATOM     30  H   UNL A   1      40.066  18.270  25.562  1.00  0.00     0.163 HD
ATOM     31  O   UNL A   1      42.447  18.679  25.712  1.00  0.00    -0.269 OA
BRANCH  29  32
ATOM     32  C   UNL A   1      41.980  20.825  26.537  1.00  0.00     0.039 A 
ATOM     33  C   UNL A   1      42.344  21.823  25.630  1.00  0.00     0.014 A 
ATOM     34  C   UNL A   1      41.996  21.087  27.910  1.00  0.00     0.014 A 
ATOM     35  C   UNL A   1      42.662  23.102  26.095  1.00  0.00     0.010 A 
ATOM     36  C   UNL A   1      42.237  22.380  28.366  1.00  0.00     0.010 A 
ATOM     37  C   UNL A   1      42.578  23.400  27.464  1.00  0.00    -0.014 A 
BRANCH  37  38
ATOM     38  C   UNL A   1      42.848  24.770  27.972  1.00  0.00     0.031 A 
ATOM     39  C   UNL A   1      44.243  25.167  28.369  1.00  0.00     0.074 A 
ATOM     40  C   UNL A   1      41.830  25.637  28.134  1.00  0.00     0.049 A 
ATOM     41  N   UNL A   1      44.667  26.286  28.900  1.00  0.00    -0.248 NA
ATOM     42  C   UNL A   1      45.300  24.162  28.168  1.00  0.00     0.031 C 
ATOM     43  C   UNL A   1      40.426  25.361  27.827  1.00  0.00     0.029 A 
ATOM     44  N   UNL A   1      41.817  26.925  28.611  1.00  0.00    -0.354 N 
ATOM     45  C   UNL A   1      46.030  26.114  29.107  1.00  0.00     0.074 A 
ATOM     46  C   UNL A   1      46.353  24.765  28.698  1.00  0.00     0.031 C 
ATOM     47  C   UNL A   1      39.693  26.452  28.101  1.00  0.00     0.029 A 
ATOM     48  C   UNL A   1      40.566  27.489  28.643  1.00  0.00     0.049 A 
ATOM     49  H   UNL A   1      42.630  27.399  28.902  1.00  0.00     0.167 HD
ATOM     50  C   UNL A   1      46.936  27.008  29.573  1.00  0.00     0.037 A 
ATOM     51  C   UNL A   1      40.164  28.702  29.070  1.00  0.00     0.037 A 
ATOM     52  C   UNL A   1      46.615  28.356  29.963  1.00  0.00     0.049 A 
ATOM     53  C   UNL A   1      41.185  29.668  29.603  1.00  0.00     0.074 A 
ATOM     54  C   UNL A   1      47.470  29.355  30.395  1.00  0.00     0.029 A 
ATOM     55  N   UNL A   1      45.336  28.894  29.970  1.00  0.00    -0.354 N 
ATOM     56  N   UNL A   1      42.482  29.516  29.730  1.00  0.00    -0.248 NA
ATOM     57  C   UNL A   1      40.689  30.980  30.046  1.00  0.00     0.031 C 
ATOM     58  C   UNL A   1      46.702  30.480  30.714  1.00  0.00     0.029 A 
ATOM     59  C   UNL A   1      45.376  30.202  30.425  1.00  0.00     0.049 A 
ATOM     60  H   UNL A   1      44.521  28.416  29.693  1.00  0.00     0.167 HD
ATOM     61  C   UNL A   1      42.959  30.718  30.238  1.00  0.00     0.074 A 
ATOM     62  C   UNL A   1      41.814  31.594  30.382  1.00  0.00     0.031 C 
ATOM     63  C   UNL A   1      44.229  31.065  30.556  1.00  0.00     0.037 A 
BRANCH  50  64
ATOM     64  C   UNL A   1      48.362  26.552  29.690  1.00  0.00     0.057 A 
ATOM     65  C   UNL A   1      49.295  26.768  28.666  1.00  0.00     0.134 A 
ATOM     66  C   UNL A   1      48.818  25.916  30.852  1.00  0.00     0.134 A 
ATOM     67  F   UNL A   1      48.923  27.361  27.522  1.00  0.00    -0.206 F 
ATOM     68  C   UNL A   1      50.619  26.340  28.781  1.00  0.00     0.040 A 
ATOM     69  C   UNL A   1      50.147  25.511  30.991  1.00  0.00     0.040 A 
ATOM     70  F   UNL A   1      47.981  25.683  31.875  1.00  0.00    -0.206 F 
ATOM     71  C   UNL A   1      51.050  25.717  29.950  1.00  0.00     0.006 A 
ENDBRANCH  50  64
BRANCH  51  72
ATOM     72  C   UNL A   1      38.729  29.079  28.998  1.00  0.00     0.057 A 
ATOM     73  C   UNL A   1      38.170  29.569  27.813  1.00  0.00     0.134 A 
ATOM     74  C   UNL A   1      37.887  28.972  30.111  1.00  0.00     0.134 A 
ATOM     75  F   UNL A   1      38.929  29.713  26.717  1.00  0.00    -0.206 F 
ATOM     76  C   UNL A   1      36.831  29.959  27.741  1.00  0.00     0.040 A 
ATOM     77  C   UNL A   1      36.540  29.332  30.047  1.00  0.00     0.040 A 
ATOM     78  F   UNL A   1      38.359  28.503  31.276  1.00  0.00    -0.206 F 
ATOM     79  C   UNL A   1      36.011  29.836  28.861  1.00  0.00     0.006 A 
ENDBRANCH  51  72
BRANCH  63  80
ATOM     80  C   UNL A   1      44.459  32.465  31.051  1.00  0.00     0.057 A 
ATOM     81  C   UNL A   1      44.699  33.532  30.177  1.00  0.00     0.134 A 
ATOM     82  C   UNL A   1      44.397  32.753  32.421  1.00  0.00     0.134 A 
ATOM     83  F   UNL A   1      44.783  33.322  28.854  1.00  0.00    -0.206 F 
ATOM     84  C   UNL A   1      44.895  34.831  30.649  1.00  0.00     0.040 A 
ATOM     85  C   UNL A   1      44.561  34.052  32.902  1.00  0.00     0.040 A 
ATOM     86  F   UNL A   1      44.160  31.779  33.313  1.00  0.00    -0.206 F 
ATOM     87  C   UNL A   1      44.818  35.095  32.015  1.00  0.00     0.006 A 
ENDBRANCH  63  80
ENDBRANCH  37  38
ENDBRANCH  29  32
ENDBRANCH  27  28
ENDBRANCH  26  27
ENDBRANCH   1  26
TORSDOF 14
ENDMDL
MODEL 2
REMARK VINA RESULT:     -11.3      4.370      9.357
REMARK SMILES CC1(C)CCCC[C@@]1(C(=O)NCCCCCCNC(=O)c1ccc(-c2c3nc(c(-c4c(F)cccc4F)c4ccc([nH]4)c(-c4c(F)cccc4F)c4nc(c(-c5c(F)cccc5F)c5ccc2[nH]5)C=C4)C=C3)cc1)[NH+]1CC[NH2+]CC1
REMARK SMILES IDX 15 1 14 2 13 3 12 4 11 5 9 6 10 7 8 9 1 10 2 11 3 12 4 13
REMARK SMILES IDX 5 14 7 15 6 16 75 17 76 18 80 19 77 21 79 22 78 23 16 26
REMARK SMILES IDX 17 27 18 28 19 29 20 31 21 32 22 33 74 34 23 35 73 36 24 37
REMARK SMILES IDX 25 38 26 39 67 40 27 41 72 42 66 43 68 44 28 45 71 46 65 47
REMARK SMILES IDX 64 48 29 50 55 51 38 52 54 53 39 54 42 55 53 56 69 57 40 58
REMARK SMILES IDX 41 59 52 61 70 62 43 63 30 64 31 65 36 66 32 67 33 68 35 69
REMARK SMILES IDX 37 70 34 71 56 72 57 73 62 74 58 75 59 76 61 77 63 78 60 79
REMARK SMILES IDX 44 80 45 81 50 82 46 83 47 84 49 85 51 86 48 87
REMARK H PARENT 11 8 75 20 78 24 78 25 18 30 68 49 42 60
REMARK Flexibility Score: inf
ROOT
ATOM      1  C   UNL A   1      31.402  30.931  25.836  1.00  0.00     0.002 C 
ENDROOT
BRANCH   1   2
ATOM      2  C   UNL A   1      32.252  29.893  26.574  1.00  0.00     0.002 C 
BRANCH   2   3
ATOM      3  C   UNL A   1      31.506  28.739  27.256  1.00  0.00     0.021 C 
BRANCH   3   4
ATOM      4  C   UNL A   1      32.210  27.384  27.271  1.00  0.00     0.116 C 
BRANCH   4   5
ATOM      5  N   UNL A   1      31.359  26.281  26.878  1.00  0.00    -0.351 N 
ATOM      6  C   UNL A   1      31.509  25.329  25.910  1.00  0.00     0.281 C 
ATOM      7  O   UNL A   1      30.771  24.349  26.075  1.00  0.00    -0.268 OA
ATOM      8  H   UNL A   1      30.528  26.204  27.399  1.00  0.00     0.163 HD
BRANCH   6   9
ATOM      9  C   UNL A   1      32.466  25.470  24.614  1.00  0.00     0.182 C 
ATOM     10  C   UNL A   1      33.009  24.134  22.334  1.00  0.00     0.018 C 
ATOM     11  C   UNL A   1      32.132  24.230  23.621  1.00  0.00     0.029 C 
ATOM     12  C   UNL A   1      30.659  24.228  23.158  1.00  0.00     0.018 C 
ATOM     13  C   UNL A   1      32.392  22.881  24.370  1.00  0.00     0.013 C 
ATOM     14  C   UNL A   1      33.833  22.722  24.850  1.00  0.00     0.001 C 
ATOM     15  C   UNL A   1      33.945  25.281  25.113  1.00  0.00     0.080 C 
ATOM     16  C   UNL A   1      34.328  23.902  25.666  1.00  0.00     0.007 C 
BRANCH   9  17
ATOM     17  N   UNL A   1      32.279  26.878  24.091  1.00  0.00    -0.313 N 
ATOM     18  C   UNL A   1      31.067  27.196  23.329  1.00  0.00     0.325 C 
ATOM     19  C   UNL A   1      33.463  27.446  23.402  1.00  0.00     0.325 C 
ATOM     20  H   UNL A   1      32.145  27.342  24.989  1.00  0.00     0.349 HD
ATOM     21  C   UNL A   1      30.951  28.678  22.880  1.00  0.00     0.322 C 
ATOM     22  C   UNL A   1      33.304  28.955  23.113  1.00  0.00     0.322 C 
ATOM     23  N   UNL A   1      32.155  29.225  22.240  1.00  0.00    -0.337 N 
ATOM     24  H   UNL A   1      32.049  30.232  22.110  1.00  0.00     0.346 HD
ATOM     25  H   UNL A   1      32.295  28.791  21.328  1.00  0.00     0.346 HD
ENDBRANCH   9  17
ENDBRANCH   6   9
ENDBRANCH   4   5
ENDBRANCH   3   4
ENDBRANCH   2   3
ENDBRANCH   1   2
BRANCH   1  26
ATOM     26  C   UNL A   1      31.278  32.304  26.498  1.00  0.00     0.021 C 
BRANCH  26  27
ATOM     27  C   UNL A   1      32.538  32.832  27.174  1.00  0.00     0.116 C 
BRANCH  27  28
ATOM     28  N   UNL A   1      32.404  34.195  27.659  1.00  0.00    -0.352 N 
ATOM     29  C   UNL A   1      33.114  34.844  28.638  1.00  0.00     0.251 C 
ATOM     30  H   UNL A   1      31.702  34.730  27.222  1.00  0.00     0.163 HD
ATOM     31  O   UNL A   1      32.782  35.972  28.997  1.00  0.00    -0.269 OA
BRANCH  29  32
ATOM     32  C   UNL A   1      34.264  34.178  29.288  1.00  0.00     0.039 A 
ATOM     33  C   UNL A   1      34.025  33.329  30.372  1.00  0.00     0.014 A 
ATOM     34  C   UNL A   1      35.571  34.384  28.837  1.00  0.00     0.014 A 
ATOM     35  C   UNL A   1      35.087  32.639  30.962  1.00  0.00     0.010 A 
ATOM     36  C   UNL A   1      36.616  33.639  29.375  1.00  0.00     0.010 A 
ATOM     37  C   UNL A   1      36.386  32.762  30.446  1.00  0.00    -0.014 A 
BRANCH  37  38
ATOM     38  C   UNL A   1      37.518  31.987  31.017  1.00  0.00     0.031 A 
ATOM     39  C   UNL A   1      38.014  32.286  32.405  1.00  0.00     0.074 A 
ATOM     40  C   UNL A   1      38.140  31.057  30.265  1.00  0.00     0.049 A 
ATOM     41  N   UNL A   1      39.031  31.771  33.050  1.00  0.00    -0.248 NA
ATOM     42  C   UNL A   1      37.287  33.318  33.160  1.00  0.00     0.031 C 
ATOM     43  C   UNL A   1      37.784  30.703  28.891  1.00  0.00     0.029 A 
ATOM     44  N   UNL A   1      39.212  30.248  30.548  1.00  0.00    -0.354 N 
ATOM     45  C   UNL A   1      39.072  32.426  34.275  1.00  0.00     0.074 A 
ATOM     46  C   UNL A   1      38.014  33.413  34.262  1.00  0.00     0.031 C 
ATOM     47  C   UNL A   1      38.606  29.734  28.459  1.00  0.00     0.029 A 
ATOM     48  C   UNL A   1      39.574  29.428  29.508  1.00  0.00     0.049 A 
ATOM     49  H   UNL A   1      39.678  30.255  31.416  1.00  0.00     0.167 HD
ATOM     50  C   UNL A   1      39.900  32.208  35.325  1.00  0.00     0.037 A 
ATOM     51  C   UNL A   1      40.579  28.537  29.405  1.00  0.00     0.037 A 
ATOM     52  C   UNL A   1      40.940  31.213  35.342  1.00  0.00     0.049 A 
ATOM     53  C   UNL A   1      41.498  28.328  30.577  1.00  0.00     0.074 A 
ATOM     54  C   UNL A   1      41.796  30.877  36.377  1.00  0.00     0.029 A 
ATOM     55  N   UNL A   1      41.268  30.394  34.271  1.00  0.00    -0.354 N 
ATOM     56  N   UNL A   1      41.483  28.908  31.754  1.00  0.00    -0.248 NA
ATOM     57  C   UNL A   1      42.571  27.337  30.410  1.00  0.00     0.031 C 
ATOM     58  C   UNL A   1      42.675  29.893  35.915  1.00  0.00     0.029 A 
ATOM     59  C   UNL A   1      42.331  29.573  34.612  1.00  0.00     0.049 A 
ATOM     60  H   UNL A   1      40.813  30.397  33.398  1.00  0.00     0.167 HD
ATOM     61  C   UNL A   1      42.521  28.331  32.476  1.00  0.00     0.074 A 
ATOM     62  C   UNL A   1      43.136  27.346  31.608  1.00  0.00     0.031 C 
ATOM     63  C   UNL A   1      42.928  28.592  33.741  1.00  0.00     0.037 A 
BRANCH  50  64
ATOM     64  C   UNL A   1      39.715  33.067  36.543  1.00  0.00     0.057 A 
ATOM     65  C   UNL A   1      40.449  34.246  36.737  1.00  0.00     0.134 A 
ATOM     66  C   UNL A   1      38.771  32.730  37.521  1.00  0.00     0.134 A 
ATOM     67  F   UNL A   1      41.379  34.622  35.845  1.00  0.00    -0.206 F 
ATOM     68  C   UNL A   1      40.272  35.039  37.872  1.00  0.00     0.040 A 
ATOM     69  C   UNL A   1      38.563  33.531  38.644  1.00  0.00     0.040 A 
ATOM     70  F   UNL A   1      38.028  31.619  37.396  1.00  0.00    -0.206 F 
ATOM     71  C   UNL A   1      39.321  34.686  38.826  1.00  0.00     0.006 A 
ENDBRANCH  50  64
BRANCH  51  72
ATOM     72  C   UNL A   1      40.763  27.762  28.152  1.00  0.00     0.057 A 
ATOM     73  C   UNL A   1      40.163  26.509  27.983  1.00  0.00     0.134 A 
ATOM     74  C   UNL A   1      41.549  28.245  27.100  1.00  0.00     0.134 A 
ATOM     75  F   UNL A   1      39.412  25.982  28.963  1.00  0.00    -0.206 F 
ATOM     76  C   UNL A   1      40.354  25.755  26.824  1.00  0.00     0.040 A 
ATOM     77  C   UNL A   1      41.727  27.515  25.923  1.00  0.00     0.040 A 
ATOM     78  F   UNL A   1      42.146  29.443  27.194  1.00  0.00    -0.206 F 
ATOM     79  C   UNL A   1      41.135  26.261  25.787  1.00  0.00     0.006 A 
ENDBRANCH  51  72
BRANCH  63  80
ATOM     80  C   UNL A   1      44.066  27.774  34.283  1.00  0.00     0.057 A 
ATOM     81  C   UNL A   1      45.393  28.219  34.225  1.00  0.00     0.134 A 
ATOM     82  C   UNL A   1      43.824  26.543  34.906  1.00  0.00     0.134 A 
ATOM     83  F   UNL A   1      45.695  29.384  33.631  1.00  0.00    -0.206 F 
ATOM     84  C   UNL A   1      46.440  27.457  34.746  1.00  0.00     0.040 A 
ATOM     85  C   UNL A   1      44.858  25.786  35.456  1.00  0.00     0.040 A 
ATOM     86  F   UNL A   1      42.575  26.062  35.003  1.00  0.00    -0.206 F 
ATOM     87  C   UNL A   1      46.173  26.240  35.371  1.00  0.00     0.006 A 
ENDBRANCH  63  80
ENDBRANCH  37  38
ENDBRANCH  29  32
ENDBRANCH  27  28
ENDBRANCH  26  27
ENDBRANCH   1  26
TORSDOF 14
ENDMDL
MODEL 3
REMARK VINA RESULT:     -11.3      1.164      6.402
REMARK SMILES CC1(C)CCCC[C@@]1(C(=O)NCCCCCCNC(=O)c1ccc(-c2c3nc(c(-c4c(F)cccc4F)c4ccc([nH]4)c(-c4c(F)cccc4F)c4nc(c(-c5c(F)cccc5F)c5ccc2[nH]5)C=C4)C=C3)cc1)[NH+]1CC[NH2+]CC1
REMARK SMILES IDX 15 1 14 2 13 3 12 4 11 5 9 6 10 7 8 9 1 10 2 11 3 12 4 13
REMARK SMILES IDX 5 14 7 15 6 16 75 17 76 18 80 19 77 21 79 22 78 23 16 26
REMARK SMILES IDX 17 27 18 28 19 29 20 31 21 32 22 33 74 34 23 35 73 36 24 37
REMARK SMILES IDX 25 38 26 39 67 40 27 41 72 42 66 43 68 44 28 45 71 46 65 47
REMARK SMILES IDX 64 48 29 50 55 51 38 52 54 53 39 54 42 55 53 56 69 57 40 58
REMARK SMILES IDX 41 59 52 61 70 62 43 63 30 64 31 65 36 66 32 67 33 68 35 69
REMARK SMILES IDX 37 70 34 71 56 72 57 73 62 74 58 75 59 76 61 77 63 78 60 79
REMARK SMILES IDX 44 80 45 81 50 82 46 83 47 84 49 85 51 86 48 87
REMARK H PARENT 11 8 75 20 78 24 78 25 18 30 68 49 42 60
REMARK Flexibility Score: inf
ROOT
ATOM      1  C   UNL A   1      36.877  20.944  24.780  1.00  0.00     0.002 C 
ENDROOT
BRANCH   1   2
ATOM      2  C   UNL A   1      37.404  22.378  24.874  1.00  0.00     0.002 C 
BRANCH   2   3
ATOM      3  C   UNL A   1      36.451  23.435  25.448  1.00  0.00     0.021 C 
BRANCH   3   4
ATOM      4  C   UNL A   1      35.495  24.101  24.461  1.00  0.00     0.116 C 
BRANCH   4   5
ATOM      5  N   UNL A   1      34.761  25.215  25.022  1.00  0.00    -0.351 N 
ATOM      6  C   UNL A   1      33.502  25.293  25.544  1.00  0.00     0.281 C 
ATOM      7  O   UNL A   1      33.325  26.301  26.241  1.00  0.00    -0.268 OA
ATOM      8  H   UNL A   1      35.258  26.065  25.030  1.00  0.00     0.163 HD
BRANCH   6   9
ATOM      9  C   UNL A   1      32.305  24.250  25.232  1.00  0.00     0.182 C 
ATOM     10  C   UNL A   1      30.565  23.689  23.248  1.00  0.00     0.018 C 
ATOM     11  C   UNL A   1      31.782  24.543  23.724  1.00  0.00     0.029 C 
ATOM     12  C   UNL A   1      32.895  24.359  22.669  1.00  0.00     0.018 C 
ATOM     13  C   UNL A   1      31.280  26.022  23.627  1.00  0.00     0.013 C 
ATOM     14  C   UNL A   1      30.138  26.339  24.589  1.00  0.00     0.001 C 
ATOM     15  C   UNL A   1      31.124  24.599  26.210  1.00  0.00     0.080 C 
ATOM     16  C   UNL A   1      30.441  25.960  26.027  1.00  0.00     0.007 C 
BRANCH   9  17
ATOM     17  N   UNL A   1      32.841  22.871  25.550  1.00  0.00    -0.313 N 
ATOM     18  C   UNL A   1      32.158  21.699  24.991  1.00  0.00     0.325 C 
ATOM     19  C   UNL A   1      33.139  22.636  26.983  1.00  0.00     0.325 C 
ATOM     20  H   UNL A   1      33.711  22.935  25.021  1.00  0.00     0.349 HD
ATOM     21  C   UNL A   1      32.817  20.335  25.338  1.00  0.00     0.322 C 
ATOM     22  C   UNL A   1      33.908  21.316  27.212  1.00  0.00     0.322 C 
ATOM     23  N   UNL A   1      33.139  20.150  26.759  1.00  0.00    -0.337 N 
ATOM     24  H   UNL A   1      33.694  19.302  26.879  1.00  0.00     0.346 HD
ATOM     25  H   UNL A   1      32.282  20.059  27.304  1.00  0.00     0.346 HD
ENDBRANCH   9  17
ENDBRANCH   6   9
ENDBRANCH   4   5
ENDBRANCH   3   4
ENDBRANCH   2   3
ENDBRANCH   1   2
BRANCH   1  26
ATOM     26  C   UNL A   1      37.906  19.828  24.965  1.00  0.00     0.021 C 
BRANCH  26  27
ATOM     27  C   UNL A   1      39.084  20.155  25.876  1.00  0.00     0.116 C 
BRANCH  27  28
ATOM     28  N   UNL A   1      40.120  19.135  25.866  1.00  0.00    -0.352 N 
ATOM     29  C   UNL A   1      41.468  19.263  26.093  1.00  0.00     0.251 C 
ATOM     30  H   UNL A   1      39.810  18.222  25.669  1.00  0.00     0.163 HD
ATOM     31  O   UNL A   1      42.216  18.300  25.928  1.00  0.00    -0.269 OA
BRANCH  29  32
ATOM     32  C   UNL A   1      42.033  20.567  26.505  1.00  0.00     0.039 A 
ATOM     33  C   UNL A   1      42.470  21.453  25.517  1.00  0.00     0.014 A 
ATOM     34  C   UNL A   1      42.134  20.919  27.853  1.00  0.00     0.014 A 
ATOM     35  C   UNL A   1      42.949  22.715  25.877  1.00  0.00     0.010 A 
ATOM     36  C   UNL A   1      42.537  22.203  28.207  1.00  0.00     0.010 A 
ATOM     37  C   UNL A   1      42.954  23.114  27.223  1.00  0.00    -0.014 A 
BRANCH  37  38
ATOM     38  C   UNL A   1      43.396  24.474  27.622  1.00  0.00     0.031 A 
ATOM     39  C   UNL A   1      42.381  25.520  27.996  1.00  0.00     0.074 A 
ATOM     40  C   UNL A   1      44.706  24.789  27.591  1.00  0.00     0.049 A 
ATOM     41  N   UNL A   1      42.564  26.780  28.302  1.00  0.00    -0.248 NA
ATOM     42  C   UNL A   1      40.971  25.100  28.001  1.00  0.00     0.031 C 
ATOM     43  C   UNL A   1      45.786  23.880  27.206  1.00  0.00     0.029 A 
ATOM     44  N   UNL A   1      45.351  25.968  27.875  1.00  0.00    -0.354 N 
ATOM     45  C   UNL A   1      41.295  27.303  28.521  1.00  0.00     0.074 A 
ATOM     46  C   UNL A   1      40.349  26.241  28.259  1.00  0.00     0.031 C 
ATOM     47  C   UNL A   1      46.959  24.526  27.300  1.00  0.00     0.029 A 
ATOM     48  C   UNL A   1      46.713  25.905  27.709  1.00  0.00     0.049 A 
ATOM     49  H   UNL A   1      44.881  26.781  28.171  1.00  0.00     0.167 HD
ATOM     50  C   UNL A   1      40.951  28.549  28.927  1.00  0.00     0.037 A 
ATOM     51  C   UNL A   1      47.657  26.854  27.860  1.00  0.00     0.037 A 
ATOM     52  C   UNL A   1      41.895  29.599  29.205  1.00  0.00     0.049 A 
ATOM     53  C   UNL A   1      47.247  28.235  28.291  1.00  0.00     0.074 A 
ATOM     54  C   UNL A   1      41.650  30.878  29.674  1.00  0.00     0.029 A 
ATOM     55  N   UNL A   1      43.268  29.492  29.035  1.00  0.00    -0.354 N 
ATOM     56  N   UNL A   1      46.049  28.697  28.559  1.00  0.00    -0.248 NA
ATOM     57  C   UNL A   1      48.322  29.227  28.448  1.00  0.00     0.031 C 
ATOM     58  C   UNL A   1      42.869  31.561  29.739  1.00  0.00     0.029 A 
ATOM     59  C   UNL A   1      43.880  30.691  29.365  1.00  0.00     0.049 A 
ATOM     60  H   UNL A   1      43.738  28.684  28.725  1.00  0.00     0.167 HD
ATOM     61  C   UNL A   1      46.229  30.020  28.945  1.00  0.00     0.074 A 
ATOM     62  C   UNL A   1      47.653  30.282  28.888  1.00  0.00     0.031 C 
ATOM     63  C   UNL A   1      45.299  30.935  29.312  1.00  0.00     0.037 A 
BRANCH  50  64
ATOM     64  C   UNL A   1      39.488  28.844  29.092  1.00  0.00     0.057 A 
ATOM     65  C   UNL A   1      38.835  28.692  30.324  1.00  0.00     0.134 A 
ATOM     66  C   UNL A   1      38.725  29.314  28.015  1.00  0.00     0.134 A 
ATOM     67  F   UNL A   1      39.503  28.235  31.395  1.00  0.00    -0.206 F 
ATOM     68  C   UNL A   1      37.475  28.968  30.470  1.00  0.00     0.040 A 
ATOM     69  C   UNL A   1      37.371  29.622  28.157  1.00  0.00     0.040 A 
ATOM     70  F   UNL A   1      39.286  29.490  26.809  1.00  0.00    -0.206 F 
ATOM     71  C   UNL A   1      36.740  29.442  29.386  1.00  0.00     0.006 A 
ENDBRANCH  50  64
BRANCH  51  72
ATOM     72  C   UNL A   1      49.085  26.530  27.616  1.00  0.00     0.057 A 
ATOM     73  C   UNL A   1      49.920  26.114  28.660  1.00  0.00     0.134 A 
ATOM     74  C   UNL A   1      49.654  26.638  26.342  1.00  0.00     0.134 A 
ATOM     75  F   UNL A   1      49.439  26.009  29.908  1.00  0.00    -0.206 F 
ATOM     76  C   UNL A   1      51.272  25.838  28.451  1.00  0.00     0.040 A 
ATOM     77  C   UNL A   1      50.997  26.338  26.112  1.00  0.00     0.040 A 
ATOM     78  F   UNL A   1      48.907  27.024  25.296  1.00  0.00    -0.206 F 
ATOM     79  C   UNL A   1      51.813  25.946  27.171  1.00  0.00     0.006 A 
ENDBRANCH  51  72
BRANCH  63  80
ATOM     80  C   UNL A   1      45.793  32.293  29.722  1.00  0.00     0.057 A 
ATOM     81  C   UNL A   1      46.143  32.587  31.046  1.00  0.00     0.134 A 
ATOM     82  C   UNL A   1      45.957  33.308  28.770  1.00  0.00     0.134 A 
ATOM     83  F   UNL A   1      45.997  31.664  32.010  1.00  0.00    -0.206 F 
ATOM     84  C   UNL A   1      46.615  33.849  31.412  1.00  0.00     0.040 A 
ATOM     85  C   UNL A   1      46.456  34.563  29.118  1.00  0.00     0.040 A 
ATOM     86  F   UNL A   1      45.649  33.091  27.482  1.00  0.00    -0.206 F 
ATOM     87  C   UNL A   1      46.780  34.839  30.445  1.00  0.00     0.006 A 
ENDBRANCH  63  80
ENDBRANCH  37  38
ENDBRANCH  29  32
ENDBRANCH  27  28
ENDBRANCH  26  27
ENDBRANCH   1  26
TORSDOF 14
ENDMDL
