MODEL 1
REMARK VINA RESULT:     -11.9      0.000      0.000
REMARK SMILES O=C(NCCCCCCNC(=O)c1cccc2c1ccn2Cc1ccncc1)c1ccc(-c2c3nc(c(-c4c(F)cccc4F)c4ccc([nH]4)c(-c4c(F)cccc4F)c4nc(c(-c5c(F)cccc5F)c5ccc2[nH]5)C=C4)C=C3)cc1
REMARK SMILES IDX 6 1 5 2 4 3 3 4 1 5 2 6 29 8 30 9 82 10 31 11 81 12 32 13
REMARK SMILES IDX 33 14 34 15 75 16 35 17 80 18 74 19 76 20 36 21 79 22 73 23
REMARK SMILES IDX 72 24 37 26 63 27 46 28 62 29 47 30 50 31 61 32 77 33 48 34
REMARK SMILES IDX 49 35 60 37 78 38 51 39 38 40 39 41 44 42 40 43 41 44 43 45
REMARK SMILES IDX 45 46 42 47 64 48 65 49 70 50 66 51 67 52 69 53 71 54 68 55
REMARK SMILES IDX 52 56 53 57 58 58 54 59 55 60 57 61 59 62 56 63 7 64 8 65
REMARK SMILES IDX 9 66 10 67 11 68 12 70 13 71 14 72 18 73 15 74 17 75 19 76
REMARK SMILES IDX 16 77 21 78 20 79 22 80 23 81 24 82 28 83 25 84 27 85 26 86
REMARK H PARENT 3 7 76 25 50 36 10 69
REMARK Flexibility Score: inf
ROOT
ATOM      1  C   UNL A   1      41.807  19.908  27.376  1.00  0.00     0.002 C 
ENDROOT
BRANCH   1   2
ATOM      2  C   UNL A   1      42.747  18.829  26.816  1.00  0.00     0.021 C 
BRANCH   2   3
ATOM      3  C   UNL A   1      43.051  18.969  25.337  1.00  0.00     0.116 C 
BRANCH   3   4
ATOM      4  N   UNL A   1      44.475  18.838  24.986  1.00  0.00    -0.352 N 
ATOM      5  O   UNL A   1      46.380  19.582  23.955  1.00  0.00    -0.269 OA
ATOM      6  C   UNL A   1      45.352  19.837  24.557  1.00  0.00     0.251 C 
ATOM      7  H   UNL A   1      44.856  17.932  25.062  1.00  0.00     0.163 HD
BRANCH   6   8
ATOM      8  C   UNL A   1      45.005  21.232  24.892  1.00  0.00     0.039 A 
ATOM      9  C   UNL A   1      44.017  21.996  24.270  1.00  0.00     0.014 A 
ATOM     10  C   UNL A   1      45.666  21.726  25.995  1.00  0.00     0.014 A 
ATOM     11  C   UNL A   1      43.722  23.242  24.829  1.00  0.00     0.010 A 
ATOM     12  C   UNL A   1      44.988  22.605  26.766  1.00  0.00     0.010 A 
ATOM     13  C   UNL A   1      44.246  23.540  26.098  1.00  0.00    -0.014 A 
BRANCH  13  14
ATOM     14  C   UNL A   1      44.063  24.789  26.814  1.00  0.00     0.031 A 
ATOM     15  C   UNL A   1      45.124  25.776  26.556  1.00  0.00     0.074 A 
ATOM     16  C   UNL A   1      42.938  25.090  27.512  1.00  0.00     0.049 A 
ATOM     17  N   UNL A   1      46.106  26.068  27.335  1.00  0.00    -0.248 NA
ATOM     18  C   UNL A   1      45.224  26.354  25.209  1.00  0.00     0.031 C 
ATOM     19  C   UNL A   1      41.670  24.348  27.632  1.00  0.00     0.029 A 
ATOM     20  N   UNL A   1      42.680  26.205  28.247  1.00  0.00    -0.354 N 
ATOM     21  C   UNL A   1      46.821  27.056  26.675  1.00  0.00     0.074 A 
ATOM     22  C   UNL A   1      46.371  27.032  25.308  1.00  0.00     0.031 C 
ATOM     23  C   UNL A   1      40.723  25.128  28.200  1.00  0.00     0.029 A 
ATOM     24  C   UNL A   1      41.355  26.348  28.655  1.00  0.00     0.049 A 
ATOM     25  H   UNL A   1      43.377  26.864  28.473  1.00  0.00     0.167 HD
ATOM     26  C   UNL A   1      47.514  27.986  27.386  1.00  0.00     0.037 A 
ATOM     27  C   UNL A   1      40.830  27.401  29.331  1.00  0.00     0.037 A 
ATOM     28  C   UNL A   1      47.674  27.570  28.763  1.00  0.00     0.049 A 
ATOM     29  C   UNL A   1      41.965  28.102  29.983  1.00  0.00     0.074 A 
ATOM     30  C   UNL A   1      48.254  26.483  29.388  1.00  0.00     0.029 A 
ATOM     31  N   UNL A   1      46.822  28.119  29.693  1.00  0.00    -0.354 N 
ATOM     32  N   UNL A   1      42.664  27.579  30.953  1.00  0.00    -0.248 NA
ATOM     33  C   UNL A   1      42.639  29.140  29.218  1.00  0.00     0.031 C 
ATOM     34  C   UNL A   1      47.363  26.150  30.453  1.00  0.00     0.029 A 
ATOM     35  C   UNL A   1      46.337  27.097  30.470  1.00  0.00     0.049 A 
ATOM     36  H   UNL A   1      46.599  29.073  29.784  1.00  0.00     0.167 HD
ATOM     37  C   UNL A   1      43.983  27.894  30.652  1.00  0.00     0.074 A 
ATOM     38  C   UNL A   1      43.898  28.914  29.606  1.00  0.00     0.031 C 
ATOM     39  C   UNL A   1      45.014  27.091  31.053  1.00  0.00     0.037 A 
BRANCH  26  40
ATOM     40  C   UNL A   1      47.662  29.426  26.969  1.00  0.00     0.057 A 
ATOM     41  C   UNL A   1      46.585  30.315  26.771  1.00  0.00     0.134 A 
ATOM     42  C   UNL A   1      48.925  30.033  27.083  1.00  0.00     0.134 A 
ATOM     43  F   UNL A   1      45.313  29.907  26.692  1.00  0.00    -0.206 F 
ATOM     44  C   UNL A   1      46.743  31.702  26.750  1.00  0.00     0.040 A 
ATOM     45  C   UNL A   1      49.087  31.422  27.113  1.00  0.00     0.040 A 
ATOM     46  F   UNL A   1      50.029  29.292  27.264  1.00  0.00    -0.206 F 
ATOM     47  C   UNL A   1      47.991  32.261  26.963  1.00  0.00     0.006 A 
ENDBRANCH  26  40
BRANCH  27  48
ATOM     48  C   UNL A   1      39.490  28.012  29.176  1.00  0.00     0.057 A 
ATOM     49  C   UNL A   1      39.171  28.787  28.047  1.00  0.00     0.134 A 
ATOM     50  C   UNL A   1      38.590  28.092  30.250  1.00  0.00     0.134 A 
ATOM     51  F   UNL A   1      39.998  28.842  26.992  1.00  0.00    -0.206 F 
ATOM     52  C   UNL A   1      38.040  29.610  27.995  1.00  0.00     0.040 A 
ATOM     53  C   UNL A   1      37.453  28.914  30.210  1.00  0.00     0.040 A 
ATOM     54  F   UNL A   1      38.827  27.423  31.387  1.00  0.00    -0.206 F 
ATOM     55  C   UNL A   1      37.183  29.686  29.084  1.00  0.00     0.006 A 
ENDBRANCH  27  48
BRANCH  39  56
ATOM     56  C   UNL A   1      44.692  25.977  32.016  1.00  0.00     0.057 A 
ATOM     57  C   UNL A   1      44.741  26.235  33.388  1.00  0.00     0.134 A 
ATOM     58  C   UNL A   1      44.462  24.644  31.636  1.00  0.00     0.134 A 
ATOM     59  F   UNL A   1      45.017  27.472  33.832  1.00  0.00    -0.206 F 
ATOM     60  C   UNL A   1      44.549  25.228  34.338  1.00  0.00     0.040 A 
ATOM     61  C   UNL A   1      44.238  23.631  32.575  1.00  0.00     0.040 A 
ATOM     62  F   UNL A   1      44.498  24.275  30.351  1.00  0.00    -0.206 F 
ATOM     63  C   UNL A   1      44.283  23.923  33.934  1.00  0.00     0.006 A 
ENDBRANCH  39  56
ENDBRANCH  13  14
ENDBRANCH   6   8
ENDBRANCH   3   4
ENDBRANCH   2   3
ENDBRANCH   1   2
BRANCH   1  64
ATOM     64  C   UNL A   1      40.939  20.690  26.376  1.00  0.00     0.002 C 
BRANCH  64  65
ATOM     65  C   UNL A   1      39.743  19.953  25.765  1.00  0.00     0.021 C 
BRANCH  65  66
ATOM     66  C   UNL A   1      38.454  20.764  25.655  1.00  0.00     0.116 C 
BRANCH  66  67
ATOM     67  N   UNL A   1      38.590  22.099  26.207  1.00  0.00    -0.352 N 
ATOM     68  C   UNL A   1      37.827  23.213  25.969  1.00  0.00     0.251 C 
ATOM     69  H   UNL A   1      39.333  22.222  26.839  1.00  0.00     0.163 HD
ATOM     70  O   UNL A   1      38.156  24.293  26.447  1.00  0.00    -0.269 OA
BRANCH  68  71
ATOM     71  C   UNL A   1      36.621  23.103  25.127  1.00  0.00     0.049 A 
ATOM     72  C   UNL A   1      36.718  23.155  23.730  1.00  0.00     0.014 A 
ATOM     73  C   UNL A   1      35.362  22.944  25.742  1.00  0.00     0.012 A 
ATOM     74  C   UNL A   1      35.570  23.098  22.946  1.00  0.00     0.003 A 
ATOM     75  C   UNL A   1      34.222  22.848  24.932  1.00  0.00     0.049 A 
ATOM     76  C   UNL A   1      34.927  22.884  27.095  1.00  0.00     0.029 A 
ATOM     77  C   UNL A   1      34.307  22.939  23.531  1.00  0.00     0.027 A 
ATOM     78  N   UNL A   1      33.145  22.657  25.782  1.00  0.00    -0.343 N 
ATOM     79  C   UNL A   1      33.558  22.785  27.088  1.00  0.00     0.087 A 
BRANCH  78  80
ATOM     80  C   UNL A   1      31.760  22.405  25.389  1.00  0.00     0.157 C 
BRANCH  80  81
ATOM     81  C   UNL A   1      31.016  23.679  25.062  1.00  0.00    -0.025 A 
ATOM     82  C   UNL A   1      30.741  24.041  23.736  1.00  0.00     0.025 A 
ATOM     83  C   UNL A   1      30.575  24.536  26.074  1.00  0.00     0.025 A 
ATOM     84  C   UNL A   1      30.076  25.231  23.483  1.00  0.00     0.111 A 
ATOM     85  C   UNL A   1      29.898  25.696  25.722  1.00  0.00     0.111 A 
ATOM     86  N   UNL A   1      29.642  26.063  24.449  1.00  0.00    -0.265 NA
ENDBRANCH  80  81
ENDBRANCH  78  80
ENDBRANCH  68  71
ENDBRANCH  66  67
ENDBRANCH  65  66
ENDBRANCH  64  65
ENDBRANCH   1  64
TORSDOF 15
ENDMDL
MODEL 2
REMARK VINA RESULT:     -11.8      1.439      2.304
REMARK SMILES O=C(NCCCCCCNC(=O)c1cccc2c1ccn2Cc1ccncc1)c1ccc(-c2c3nc(c(-c4c(F)cccc4F)c4ccc([nH]4)c(-c4c(F)cccc4F)c4nc(c(-c5c(F)cccc5F)c5ccc2[nH]5)C=C4)C=C3)cc1
REMARK SMILES IDX 6 1 5 2 4 3 3 4 1 5 2 6 29 8 30 9 82 10 31 11 81 12 32 13
REMARK SMILES IDX 33 14 34 15 75 16 35 17 80 18 74 19 76 20 36 21 79 22 73 23
REMARK SMILES IDX 72 24 37 26 63 27 46 28 62 29 47 30 50 31 61 32 77 33 48 34
REMARK SMILES IDX 49 35 60 37 78 38 51 39 38 40 39 41 44 42 40 43 41 44 43 45
REMARK SMILES IDX 45 46 42 47 64 48 65 49 70 50 66 51 67 52 69 53 71 54 68 55
REMARK SMILES IDX 52 56 53 57 58 58 54 59 55 60 57 61 59 62 56 63 7 64 8 65
REMARK SMILES IDX 9 66 10 67 11 68 12 70 13 71 14 72 18 73 15 74 17 75 19 76
REMARK SMILES IDX 16 77 21 78 20 79 22 80 23 81 24 82 28 83 25 84 27 85 26 86
REMARK H PARENT 3 7 76 25 50 36 10 69
REMARK Flexibility Score: inf
ROOT
ATOM      1  C   UNL A   1      42.102  19.536  26.995  1.00  0.00     0.002 C 
ENDROOT
BRANCH   1   2
ATOM      2  C   UNL A   1      42.915  18.717  25.980  1.00  0.00     0.021 C 
BRANCH   2   3
ATOM      3  C   UNL A   1      44.387  18.583  26.315  1.00  0.00     0.116 C 
BRANCH   3   4
ATOM      4  N   UNL A   1      45.287  18.582  25.150  1.00  0.00    -0.352 N 
ATOM      5  O   UNL A   1      45.940  19.363  23.099  1.00  0.00    -0.269 OA
ATOM      6  C   UNL A   1      45.466  19.588  24.198  1.00  0.00     0.251 C 
ATOM      7  H   UNL A   1      45.830  17.769  25.026  1.00  0.00     0.163 HD
BRANCH   6   8
ATOM      8  C   UNL A   1      45.086  20.961  24.585  1.00  0.00     0.039 A 
ATOM      9  C   UNL A   1      43.970  21.658  24.121  1.00  0.00     0.014 A 
ATOM     10  C   UNL A   1      45.873  21.503  25.577  1.00  0.00     0.014 A 
ATOM     11  C   UNL A   1      43.685  22.887  24.721  1.00  0.00     0.010 A 
ATOM     12  C   UNL A   1      45.266  22.343  26.444  1.00  0.00     0.010 A 
ATOM     13  C   UNL A   1      44.374  23.225  25.897  1.00  0.00    -0.014 A 
BRANCH  13  14
ATOM     14  C   UNL A   1      44.223  24.466  26.636  1.00  0.00     0.031 A 
ATOM     15  C   UNL A   1      45.328  25.416  26.423  1.00  0.00     0.074 A 
ATOM     16  C   UNL A   1      43.096  24.796  27.316  1.00  0.00     0.049 A 
ATOM     17  N   UNL A   1      46.302  25.653  27.229  1.00  0.00    -0.248 NA
ATOM     18  C   UNL A   1      45.481  26.017  25.091  1.00  0.00     0.031 C 
ATOM     19  C   UNL A   1      41.797  24.102  27.391  1.00  0.00     0.029 A 
ATOM     20  N   UNL A   1      42.864  25.905  28.069  1.00  0.00    -0.354 N 
ATOM     21  C   UNL A   1      47.070  26.625  26.607  1.00  0.00     0.074 A 
ATOM     22  C   UNL A   1      46.650  26.648  25.230  1.00  0.00     0.031 C 
ATOM     23  C   UNL A   1      40.868  24.907  27.954  1.00  0.00     0.029 A 
ATOM     24  C   UNL A   1      41.537  26.091  28.450  1.00  0.00     0.049 A 
ATOM     25  H   UNL A   1      43.581  26.532  28.324  1.00  0.00     0.167 HD
ATOM     26  C   UNL A   1      47.782  27.513  27.353  1.00  0.00     0.037 A 
ATOM     27  C   UNL A   1      41.037  27.150  29.137  1.00  0.00     0.037 A 
ATOM     28  C   UNL A   1      47.894  27.063  28.724  1.00  0.00     0.049 A 
ATOM     29  C   UNL A   1      42.184  27.792  29.829  1.00  0.00     0.074 A 
ATOM     30  C   UNL A   1      48.417  25.940  29.338  1.00  0.00     0.029 A 
ATOM     31  N   UNL A   1      47.043  27.625  29.646  1.00  0.00    -0.354 N 
ATOM     32  N   UNL A   1      42.840  27.223  30.803  1.00  0.00    -0.248 NA
ATOM     33  C   UNL A   1      42.914  28.819  29.101  1.00  0.00     0.031 C 
ATOM     34  C   UNL A   1      47.489  25.621  30.375  1.00  0.00     0.029 A 
ATOM     35  C   UNL A   1      46.501  26.606  30.390  1.00  0.00     0.049 A 
ATOM     36  H   UNL A   1      46.855  28.585  29.753  1.00  0.00     0.167 HD
ATOM     37  C   UNL A   1      44.176  27.491  30.537  1.00  0.00     0.074 A 
ATOM     38  C   UNL A   1      44.155  28.536  29.512  1.00  0.00     0.031 C 
ATOM     39  C   UNL A   1      45.165  26.641  30.943  1.00  0.00     0.037 A 
BRANCH  26  40
ATOM     40  C   UNL A   1      47.995  28.954  26.970  1.00  0.00     0.057 A 
ATOM     41  C   UNL A   1      46.959  29.895  26.792  1.00  0.00     0.134 A 
ATOM     42  C   UNL A   1      49.283  29.501  27.100  1.00  0.00     0.134 A 
ATOM     43  F   UNL A   1      45.671  29.546  26.702  1.00  0.00    -0.206 F 
ATOM     44  C   UNL A   1      47.179  31.273  26.804  1.00  0.00     0.040 A 
ATOM     45  C   UNL A   1      49.508  30.880  27.164  1.00  0.00     0.040 A 
ATOM     46  F   UNL A   1      50.353  28.708  27.265  1.00  0.00    -0.206 F 
ATOM     47  C   UNL A   1      48.450  31.771  27.032  1.00  0.00     0.006 A 
ENDBRANCH  26  40
BRANCH  27  48
ATOM     48  C   UNL A   1      39.726  27.816  28.966  1.00  0.00     0.057 A 
ATOM     49  C   UNL A   1      39.466  28.632  27.850  1.00  0.00     0.134 A 
ATOM     50  C   UNL A   1      38.803  27.903  30.018  1.00  0.00     0.134 A 
ATOM     51  F   UNL A   1      40.321  28.683  26.818  1.00  0.00    -0.206 F 
ATOM     52  C   UNL A   1      38.369  29.499  27.793  1.00  0.00     0.040 A 
ATOM     53  C   UNL A   1      37.699  28.768  29.972  1.00  0.00     0.040 A 
ATOM     54  F   UNL A   1      38.984  27.195  31.142  1.00  0.00    -0.206 F 
ATOM     55  C   UNL A   1      37.487  29.580  28.862  1.00  0.00     0.006 A 
ENDBRANCH  27  48
BRANCH  39  56
ATOM     56  C   UNL A   1      44.779  25.521  31.875  1.00  0.00     0.057 A 
ATOM     57  C   UNL A   1      44.457  24.273  31.334  1.00  0.00     0.134 A 
ATOM     58  C   UNL A   1      44.594  25.671  33.259  1.00  0.00     0.134 A 
ATOM     59  F   UNL A   1      44.548  24.069  30.011  1.00  0.00    -0.206 F 
ATOM     60  C   UNL A   1      43.998  23.218  32.129  1.00  0.00     0.040 A 
ATOM     61  C   UNL A   1      44.164  24.616  34.072  1.00  0.00     0.040 A 
ATOM     62  F   UNL A   1      44.776  26.853  33.858  1.00  0.00    -0.206 F 
ATOM     63  C   UNL A   1      43.863  23.383  33.504  1.00  0.00     0.006 A 
ENDBRANCH  39  56
ENDBRANCH  13  14
ENDBRANCH   6   8
ENDBRANCH   3   4
ENDBRANCH   2   3
ENDBRANCH   1   2
BRANCH   1  64
ATOM     64  C   UNL A   1      41.169  20.630  26.449  1.00  0.00     0.002 C 
BRANCH  64  65
ATOM     65  C   UNL A   1      39.704  20.247  26.221  1.00  0.00     0.021 C 
BRANCH  65  66
ATOM     66  C   UNL A   1      38.878  21.248  25.416  1.00  0.00     0.116 C 
BRANCH  66  67
ATOM     67  N   UNL A   1      38.670  22.494  26.127  1.00  0.00    -0.352 N 
ATOM     68  C   UNL A   1      37.642  23.394  26.008  1.00  0.00     0.251 C 
ATOM     69  H   UNL A   1      39.362  22.726  26.786  1.00  0.00     0.163 HD
ATOM     70  O   UNL A   1      37.685  24.456  26.620  1.00  0.00    -0.269 OA
BRANCH  68  71
ATOM     71  C   UNL A   1      36.498  23.081  25.133  1.00  0.00     0.049 A 
ATOM     72  C   UNL A   1      36.498  23.476  23.787  1.00  0.00     0.014 A 
ATOM     73  C   UNL A   1      35.397  22.376  25.661  1.00  0.00     0.012 A 
ATOM     74  C   UNL A   1      35.394  23.218  22.982  1.00  0.00     0.003 A 
ATOM     75  C   UNL A   1      34.311  22.090  24.821  1.00  0.00     0.049 A 
ATOM     76  C   UNL A   1      35.078  21.871  26.952  1.00  0.00     0.029 A 
ATOM     77  C   UNL A   1      34.288  22.518  23.481  1.00  0.00     0.027 A 
ATOM     78  N   UNL A   1      33.405  21.364  25.576  1.00  0.00    -0.343 N 
ATOM     79  C   UNL A   1      33.821  21.324  26.886  1.00  0.00     0.087 A 
BRANCH  78  80
ATOM     80  C   UNL A   1      32.163  20.760  25.099  1.00  0.00     0.157 C 
BRANCH  80  81
ATOM     81  C   UNL A   1      32.406  19.493  24.313  1.00  0.00    -0.025 A 
ATOM     82  C   UNL A   1      32.861  18.325  24.939  1.00  0.00     0.025 A 
ATOM     83  C   UNL A   1      32.180  19.446  22.934  1.00  0.00     0.025 A 
ATOM     84  C   UNL A   1      33.092  17.192  24.174  1.00  0.00     0.111 A 
ATOM     85  C   UNL A   1      32.422  18.258  22.256  1.00  0.00     0.111 A 
ATOM     86  N   UNL A   1      32.875  17.132  22.846  1.00  0.00    -0.265 NA
ENDBRANCH  80  81
ENDBRANCH  78  80
ENDBRANCH  68  71
ENDBRANCH  66  67
ENDBRANCH  65  66
ENDBRANCH  64  65
ENDBRANCH   1  64
TORSDOF 15
ENDMDL
MODEL 3
REMARK VINA RESULT:     -11.5      2.536      6.551
REMARK SMILES O=C(NCCCCCCNC(=O)c1cccc2c1ccn2Cc1ccncc1)c1ccc(-c2c3nc(c(-c4c(F)cccc4F)c4ccc([nH]4)c(-c4c(F)cccc4F)c4nc(c(-c5c(F)cccc5F)c5ccc2[nH]5)C=C4)C=C3)cc1
REMARK SMILES IDX 6 1 5 2 4 3 3 4 1 5 2 6 29 8 30 9 82 10 31 11 81 12 32 13
REMARK SMILES IDX 33 14 34 15 75 16 35 17 80 18 74 19 76 20 36 21 79 22 73 23
REMARK SMILES IDX 72 24 37 26 63 27 46 28 62 29 47 30 50 31 61 32 77 33 48 34
REMARK SMILES IDX 49 35 60 37 78 38 51 39 38 40 39 41 44 42 40 43 41 44 43 45
REMARK SMILES IDX 45 46 42 47 64 48 65 49 70 50 66 51 67 52 69 53 71 54 68 55
REMARK SMILES IDX 52 56 53 57 58 58 54 59 55 60 57 61 59 62 56 63 7 64 8 65
REMARK SMILES IDX 9 66 10 67 11 68 12 70 13 71 14 72 18 73 15 74 17 75 19 76
REMARK SMILES IDX 16 77 21 78 20 79 22 80 23 81 24 82 28 83 25 84 27 85 26 86
REMARK H PARENT 3 7 76 25 50 36 10 69
REMARK Flexibility Score: inf
ROOT
ATOM      1  C   UNL A   1      36.607  20.859  24.655  1.00  0.00     0.002 C 
ENDROOT
BRANCH   1   2
ATOM      2  C   UNL A   1      37.781  19.868  24.665  1.00  0.00     0.021 C 
BRANCH   2   3
ATOM      3  C   UNL A   1      38.925  20.259  25.581  1.00  0.00     0.116 C 
BRANCH   3   4
ATOM      4  N   UNL A   1      39.942  19.213  25.778  1.00  0.00    -0.352 N 
ATOM      5  O   UNL A   1      42.108  18.469  25.755  1.00  0.00    -0.269 OA
ATOM      6  C   UNL A   1      41.317  19.372  25.962  1.00  0.00     0.251 C 
ATOM      7  H   UNL A   1      39.611  18.285  25.779  1.00  0.00     0.163 HD
BRANCH   6   8
ATOM      8  C   UNL A   1      41.786  20.682  26.457  1.00  0.00     0.039 A 
ATOM      9  C   UNL A   1      42.335  21.698  25.674  1.00  0.00     0.014 A 
ATOM     10  C   UNL A   1      41.529  20.903  27.792  1.00  0.00     0.014 A 
ATOM     11  C   UNL A   1      42.572  22.928  26.293  1.00  0.00     0.010 A 
ATOM     12  C   UNL A   1      41.258  22.176  28.155  1.00  0.00     0.010 A 
ATOM     13  C   UNL A   1      42.030  23.143  27.570  1.00  0.00    -0.014 A 
BRANCH  13  14
ATOM     14  C   UNL A   1      42.198  24.345  28.367  1.00  0.00     0.031 A 
ATOM     15  C   UNL A   1      41.095  25.308  28.219  1.00  0.00     0.074 A 
ATOM     16  C   UNL A   1      43.181  24.495  29.290  1.00  0.00     0.049 A 
ATOM     17  N   UNL A   1      41.107  26.388  27.520  1.00  0.00    -0.248 NA
ATOM     18  C   UNL A   1      39.771  24.934  28.736  1.00  0.00     0.031 C 
ATOM     19  C   UNL A   1      44.185  23.528  29.773  1.00  0.00     0.029 A 
ATOM     20  N   UNL A   1      43.453  25.585  30.058  1.00  0.00    -0.354 N 
ATOM     21  C   UNL A   1      39.860  26.964  27.706  1.00  0.00     0.074 A 
ATOM     22  C   UNL A   1      39.023  25.937  28.270  1.00  0.00     0.031 C 
ATOM     23  C   UNL A   1      44.793  24.000  30.884  1.00  0.00     0.029 A 
ATOM     24  C   UNL A   1      44.368  25.368  31.085  1.00  0.00     0.049 A 
ATOM     25  H   UNL A   1      43.032  26.462  29.900  1.00  0.00     0.167 HD
ATOM     26  C   UNL A   1      39.716  28.316  27.637  1.00  0.00     0.037 A 
ATOM     27  C   UNL A   1      44.750  26.268  32.027  1.00  0.00     0.037 A 
ATOM     28  C   UNL A   1      40.872  28.927  27.019  1.00  0.00     0.049 A 
ATOM     29  C   UNL A   1      44.430  27.615  31.488  1.00  0.00     0.074 A 
ATOM     30  C   UNL A   1      41.493  28.808  25.790  1.00  0.00     0.029 A 
ATOM     31  N   UNL A   1      41.806  29.499  27.850  1.00  0.00    -0.354 N 
ATOM     32  N   UNL A   1      45.044  28.137  30.462  1.00  0.00    -0.248 NA
ATOM     33  C   UNL A   1      43.101  28.144  31.756  1.00  0.00     0.031 C 
ATOM     34  C   UNL A   1      42.891  28.846  26.077  1.00  0.00     0.029 A 
ATOM     35  C   UNL A   1      43.045  29.067  27.447  1.00  0.00     0.049 A 
ATOM     36  H   UNL A   1      41.620  30.109  28.600  1.00  0.00     0.167 HD
ATOM     37  C   UNL A   1      44.039  28.726  29.707  1.00  0.00     0.074 A 
ATOM     38  C   UNL A   1      42.871  28.755  30.589  1.00  0.00     0.031 C 
ATOM     39  C   UNL A   1      44.154  28.856  28.351  1.00  0.00     0.037 A 
BRANCH  26  40
ATOM     40  C   UNL A   1      38.763  29.105  28.496  1.00  0.00     0.057 A 
ATOM     41  C   UNL A   1      37.612  29.764  28.016  1.00  0.00     0.134 A 
ATOM     42  C   UNL A   1      38.816  28.933  29.891  1.00  0.00     0.134 A 
ATOM     43  F   UNL A   1      37.381  29.964  26.714  1.00  0.00    -0.206 F 
ATOM     44  C   UNL A   1      36.567  30.165  28.851  1.00  0.00     0.040 A 
ATOM     45  C   UNL A   1      37.753  29.285  30.728  1.00  0.00     0.040 A 
ATOM     46  F   UNL A   1      39.865  28.329  30.469  1.00  0.00    -0.206 F 
ATOM     47  C   UNL A   1      36.616  29.889  30.206  1.00  0.00     0.006 A 
ENDBRANCH  26  40
BRANCH  27  48
ATOM     48  C   UNL A   1      45.053  26.026  33.456  1.00  0.00     0.057 A 
ATOM     49  C   UNL A   1      46.365  25.751  33.883  1.00  0.00     0.134 A 
ATOM     50  C   UNL A   1      44.038  25.775  34.391  1.00  0.00     0.134 A 
ATOM     51  F   UNL A   1      47.406  25.885  33.048  1.00  0.00    -0.206 F 
ATOM     52  C   UNL A   1      46.649  25.237  35.154  1.00  0.00     0.040 A 
ATOM     53  C   UNL A   1      44.310  25.260  35.667  1.00  0.00     0.040 A 
ATOM     54  F   UNL A   1      42.752  25.966  34.065  1.00  0.00    -0.206 F 
ATOM     55  C   UNL A   1      45.619  24.977  36.047  1.00  0.00     0.006 A 
ENDBRANCH  27  48
BRANCH  39  56
ATOM     56  C   UNL A   1      45.493  28.542  27.734  1.00  0.00     0.057 A 
ATOM     57  C   UNL A   1      46.396  29.585  27.512  1.00  0.00     0.134 A 
ATOM     58  C   UNL A   1      45.862  27.278  27.244  1.00  0.00     0.134 A 
ATOM     59  F   UNL A   1      46.089  30.834  27.896  1.00  0.00    -0.206 F 
ATOM     60  C   UNL A   1      47.614  29.383  26.858  1.00  0.00     0.040 A 
ATOM     61  C   UNL A   1      47.091  27.054  26.614  1.00  0.00     0.040 A 
ATOM     62  F   UNL A   1      45.025  26.237  27.315  1.00  0.00    -0.206 F 
ATOM     63  C   UNL A   1      47.972  28.111  26.418  1.00  0.00     0.006 A 
ENDBRANCH  39  56
ENDBRANCH  13  14
ENDBRANCH   6   8
ENDBRANCH   3   4
ENDBRANCH   2   3
ENDBRANCH   1   2
BRANCH   1  64
ATOM     64  C   UNL A   1      36.809  22.200  23.928  1.00  0.00     0.002 C 
BRANCH  64  65
ATOM     65  C   UNL A   1      36.594  23.477  24.746  1.00  0.00     0.021 C 
BRANCH  65  66
ATOM     66  C   UNL A   1      36.006  23.276  26.140  1.00  0.00     0.116 C 
BRANCH  66  67
ATOM     67  N   UNL A   1      34.915  24.189  26.418  1.00  0.00    -0.352 N 
ATOM     68  C   UNL A   1      33.731  24.351  25.745  1.00  0.00     0.251 C 
ATOM     69  H   UNL A   1      35.041  24.775  27.199  1.00  0.00     0.163 HD
ATOM     70  O   UNL A   1      32.965  25.254  26.062  1.00  0.00    -0.269 OA
BRANCH  68  71
ATOM     71  C   UNL A   1      33.397  23.443  24.632  1.00  0.00     0.049 A 
ATOM     72  C   UNL A   1      33.326  23.920  23.316  1.00  0.00     0.014 A 
ATOM     73  C   UNL A   1      33.150  22.081  24.904  1.00  0.00     0.012 A 
ATOM     74  C   UNL A   1      32.964  23.065  22.280  1.00  0.00     0.003 A 
ATOM     75  C   UNL A   1      32.826  21.227  23.839  1.00  0.00     0.049 A 
ATOM     76  C   UNL A   1      33.114  21.304  26.095  1.00  0.00     0.029 A 
ATOM     77  C   UNL A   1      32.713  21.708  22.522  1.00  0.00     0.027 A 
ATOM     78  N   UNL A   1      32.678  19.960  24.376  1.00  0.00    -0.343 N 
ATOM     79  C   UNL A   1      32.748  20.027  25.748  1.00  0.00     0.087 A 
BRANCH  78  80
ATOM     80  C   UNL A   1      32.435  18.724  23.635  1.00  0.00     0.157 C 
BRANCH  80  81
ATOM     81  C   UNL A   1      33.152  17.540  24.242  1.00  0.00    -0.025 A 
ATOM     82  C   UNL A   1      32.443  16.485  24.832  1.00  0.00     0.025 A 
ATOM     83  C   UNL A   1      34.548  17.460  24.231  1.00  0.00     0.025 A 
ATOM     84  C   UNL A   1      33.144  15.431  25.397  1.00  0.00     0.111 A 
ATOM     85  C   UNL A   1      35.159  16.353  24.805  1.00  0.00     0.111 A 
ATOM     86  N   UNL A   1      34.488  15.339  25.389  1.00  0.00    -0.265 NA
ENDBRANCH  80  81
ENDBRANCH  78  80
ENDBRANCH  68  71
ENDBRANCH  66  67
ENDBRANCH  65  66
ENDBRANCH  64  65
ENDBRANCH   1  64
TORSDOF 15
ENDMDL
