MODEL 1
REMARK VINA RESULT:     -12.2      0.000      0.000
REMARK SMILES O=C(NCCCCCCNC(=O)c1ccc(-c2c3nc(c(-c4c(F)cccc4F)c4ccc([nH]4)c(-c4c(F)cccc4F)c4nc(c(-c5c(F)cccc5F)c5ccc2[nH]5)C=C4)C=C3)cc1)C1=Cc2cc(Cl)c(Cl)cc2O[C@@H]1C(F)(F)F
REMARK SMILES IDX 7 1 6 2 5 3 4 4 3 5 1 6 2 7 67 9 68 10 78 11 69 12 77 13
REMARK SMILES IDX 70 14 76 15 71 16 75 17 72 18 73 19 74 20 79 21 80 22 81 23
REMARK SMILES IDX 82 24 8 25 9 26 10 27 11 28 12 30 13 31 14 32 66 33 15 34
REMARK SMILES IDX 65 35 16 36 17 37 18 38 59 39 19 40 64 41 58 42 60 43 20 44
REMARK SMILES IDX 63 45 57 46 56 47 21 49 47 50 30 51 46 52 31 53 34 54 45 55
REMARK SMILES IDX 61 56 32 57 33 58 44 60 62 61 35 62 22 63 23 64 28 65 24 66
REMARK SMILES IDX 25 67 27 68 29 69 26 70 48 71 49 72 54 73 50 74 51 75 53 76
REMARK SMILES IDX 55 77 52 78 36 79 37 80 42 81 38 82 39 83 41 84 43 85 40 86
REMARK H PARENT 3 8 10 29 60 48 34 59
REMARK Flexibility Score: inf
ROOT
ATOM      1  C   UNL A   1      37.879  21.375  24.871  1.00  0.00     0.002 C 
ENDROOT
BRANCH   1   2
ATOM      2  C   UNL A   1      38.335  22.345  25.966  1.00  0.00     0.002 C 
BRANCH   2   3
ATOM      3  C   UNL A   1      37.577  23.667  26.083  1.00  0.00     0.021 C 
BRANCH   3   4
ATOM      4  C   UNL A   1      36.090  23.635  25.749  1.00  0.00     0.116 C 
BRANCH   4   5
ATOM      5  N   UNL A   1      35.247  22.976  26.731  1.00  0.00    -0.352 N 
ATOM      6  O   UNL A   1      33.844  21.430  27.562  1.00  0.00    -0.270 OA
ATOM      7  C   UNL A   1      34.363  21.943  26.571  1.00  0.00     0.251 C 
ATOM      8  H   UNL A   1      35.320  23.326  27.649  1.00  0.00     0.163 HD
BRANCH   7   9
ATOM      9  C   UNL A   1      34.075  21.344  25.235  1.00  0.00     0.067 C 
ATOM     10  C   UNL A   1      34.865  20.394  24.708  1.00  0.00     0.025 C 
ATOM     11  C   UNL A   1      32.604  21.363  24.884  1.00  0.00     0.314 C 
ATOM     12  C   UNL A   1      34.195  19.074  24.668  1.00  0.00     0.019 A 
ATOM     13  O   UNL A   1      31.993  20.055  25.059  1.00  0.00    -0.475 OA
ATOM     14  C   UNL A   1      34.992  17.924  24.634  1.00  0.00     0.034 A 
ATOM     15  C   UNL A   1      32.824  18.970  24.941  1.00  0.00     0.129 A 
ATOM     16  C   UNL A   1      34.437  16.686  24.968  1.00  0.00     0.060 A 
ATOM     17  C   UNL A   1      32.263  17.730  25.235  1.00  0.00     0.069 A 
ATOM     18  Cl  UNL A   1      35.511  15.339  25.086  1.00  0.00    -0.083 Cl
ATOM     19  C   UNL A   1      33.074  16.592  25.281  1.00  0.00     0.063 A 
ATOM     20  Cl  UNL A   1      32.352  15.114  25.811  1.00  0.00    -0.083 Cl
BRANCH  11  21
ATOM     21  C   UNL A   1      32.354  21.908  23.468  1.00  0.00     0.429 C 
ATOM     22  F   UNL A   1      31.296  22.751  23.444  1.00  0.00    -0.167 F 
ATOM     23  F   UNL A   1      33.420  22.597  22.998  1.00  0.00    -0.167 F 
ATOM     24  F   UNL A   1      32.097  20.919  22.577  1.00  0.00    -0.167 F 
ENDBRANCH  11  21
ENDBRANCH   7   9
ENDBRANCH   4   5
ENDBRANCH   3   4
ENDBRANCH   2   3
ENDBRANCH   1   2
BRANCH   1  25
ATOM     25  C   UNL A   1      38.477  19.965  24.882  1.00  0.00     0.021 C 
BRANCH  25  26
ATOM     26  C   UNL A   1      39.257  19.555  26.130  1.00  0.00     0.116 C 
BRANCH  26  27
ATOM     27  N   UNL A   1      40.546  18.959  25.833  1.00  0.00    -0.352 N 
ATOM     28  C   UNL A   1      41.809  19.497  25.891  1.00  0.00     0.251 C 
ATOM     29  H   UNL A   1      40.511  18.019  25.545  1.00  0.00     0.163 HD
ATOM     30  O   UNL A   1      42.763  18.836  25.491  1.00  0.00    -0.269 OA
BRANCH  28  31
ATOM     31  C   UNL A   1      42.040  20.871  26.403  1.00  0.00     0.039 A 
ATOM     32  C   UNL A   1      41.944  21.088  27.782  1.00  0.00     0.014 A 
ATOM     33  C   UNL A   1      42.297  21.948  25.551  1.00  0.00     0.014 A 
ATOM     34  C   UNL A   1      42.157  22.366  28.308  1.00  0.00     0.010 A 
ATOM     35  C   UNL A   1      42.571  23.210  26.082  1.00  0.00     0.010 A 
ATOM     36  C   UNL A   1      42.500  23.434  27.465  1.00  0.00    -0.014 A 
BRANCH  36  37
ATOM     37  C   UNL A   1      42.779  24.787  28.017  1.00  0.00     0.031 A 
ATOM     38  C   UNL A   1      44.173  25.165  28.440  1.00  0.00     0.074 A 
ATOM     39  C   UNL A   1      41.768  25.662  28.184  1.00  0.00     0.049 A 
ATOM     40  N   UNL A   1      44.598  26.275  28.990  1.00  0.00    -0.248 NA
ATOM     41  C   UNL A   1      45.225  24.156  28.238  1.00  0.00     0.031 C 
ATOM     42  C   UNL A   1      40.365  25.409  27.850  1.00  0.00     0.029 A 
ATOM     43  N   UNL A   1      41.763  26.940  28.686  1.00  0.00    -0.354 N 
ATOM     44  C   UNL A   1      45.957  26.089  29.218  1.00  0.00     0.074 A 
ATOM     45  C   UNL A   1      46.278  24.748  28.783  1.00  0.00     0.031 C 
ATOM     46  C   UNL A   1      39.641  26.503  28.132  1.00  0.00     0.029 A 
ATOM     47  C   UNL A   1      40.518  27.522  28.703  1.00  0.00     0.049 A 
ATOM     48  H   UNL A   1      42.575  27.396  29.005  1.00  0.00     0.167 HD
ATOM     49  C   UNL A   1      46.857  26.964  29.728  1.00  0.00     0.037 A 
ATOM     50  C   UNL A   1      40.126  28.735  29.136  1.00  0.00     0.037 A 
ATOM     51  C   UNL A   1      46.547  28.311  30.128  1.00  0.00     0.049 A 
ATOM     52  C   UNL A   1      41.147  29.683  29.703  1.00  0.00     0.074 A 
ATOM     53  C   UNL A   1      47.407  29.295  30.585  1.00  0.00     0.029 A 
ATOM     54  N   UNL A   1      45.275  28.864  30.122  1.00  0.00    -0.354 N 
ATOM     55  N   UNL A   1      42.439  29.519  29.844  1.00  0.00    -0.248 NA
ATOM     56  C   UNL A   1      40.653  30.987  30.166  1.00  0.00     0.031 C 
ATOM     57  C   UNL A   1      46.651  30.430  30.896  1.00  0.00     0.029 A 
ATOM     58  C   UNL A   1      45.325  30.168  30.590  1.00  0.00     0.049 A 
ATOM     59  H   UNL A   1      44.459  28.399  29.828  1.00  0.00     0.167 HD
ATOM     60  C   UNL A   1      42.916  30.706  30.382  1.00  0.00     0.074 A 
ATOM     61  C   UNL A   1      41.777  31.587  30.532  1.00  0.00     0.031 C 
ATOM     62  C   UNL A   1      44.186  31.038  30.720  1.00  0.00     0.037 A 
BRANCH  49  63
ATOM     63  C   UNL A   1      48.274  26.492  29.885  1.00  0.00     0.057 A 
ATOM     64  C   UNL A   1      49.240  26.710  28.894  1.00  0.00     0.134 A 
ATOM     65  C   UNL A   1      48.691  25.862  31.065  1.00  0.00     0.134 A 
ATOM     66  F   UNL A   1      48.905  27.300  27.736  1.00  0.00    -0.206 F 
ATOM     67  C   UNL A   1      50.563  26.299  29.062  1.00  0.00     0.040 A 
ATOM     68  C   UNL A   1      50.016  25.470  31.254  1.00  0.00     0.040 A 
ATOM     69  F   UNL A   1      47.818  25.631  32.057  1.00  0.00    -0.206 F 
ATOM     70  C   UNL A   1      50.956  25.684  30.248  1.00  0.00     0.006 A 
ENDBRANCH  49  63
BRANCH  50  71
ATOM     71  C   UNL A   1      38.701  29.141  29.032  1.00  0.00     0.057 A 
ATOM     72  C   UNL A   1      37.848  29.061  30.138  1.00  0.00     0.134 A 
ATOM     73  C   UNL A   1      38.153  29.594  27.826  1.00  0.00     0.134 A 
ATOM     74  F   UNL A   1      38.309  28.613  31.315  1.00  0.00    -0.206 F 
ATOM     75  C   UNL A   1      36.495  29.394  30.045  1.00  0.00     0.040 A 
ATOM     76  C   UNL A   1      36.809  29.955  27.724  1.00  0.00     0.040 A 
ATOM     77  F   UNL A   1      38.920  29.697  26.730  1.00  0.00    -0.206 F 
ATOM     78  C   UNL A   1      35.974  29.847  28.835  1.00  0.00     0.006 A 
ENDBRANCH  50  71
BRANCH  62  79
ATOM     79  C   UNL A   1      44.418  32.424  31.247  1.00  0.00     0.057 A 
ATOM     80  C   UNL A   1      44.389  32.710  32.617  1.00  0.00     0.134 A 
ATOM     81  C   UNL A   1      44.709  33.478  30.372  1.00  0.00     0.134 A 
ATOM     82  F   UNL A   1      44.102  31.747  33.507  1.00  0.00    -0.206 F 
ATOM     83  C   UNL A   1      44.619  34.000  33.098  1.00  0.00     0.040 A 
ATOM     84  C   UNL A   1      44.967  34.767  30.840  1.00  0.00     0.040 A 
ATOM     85  F   UNL A   1      44.760  33.269  29.047  1.00  0.00    -0.206 F 
ATOM     86  C   UNL A   1      44.917  35.031  32.208  1.00  0.00     0.006 A 
ENDBRANCH  62  79
ENDBRANCH  36  37
ENDBRANCH  28  31
ENDBRANCH  26  27
ENDBRANCH  25  26
ENDBRANCH   1  25
TORSDOF 14
ENDMDL
MODEL 2
REMARK VINA RESULT:     -12.1      0.367      1.500
REMARK SMILES O=C(NCCCCCCNC(=O)c1ccc(-c2c3nc(c(-c4c(F)cccc4F)c4ccc([nH]4)c(-c4c(F)cccc4F)c4nc(c(-c5c(F)cccc5F)c5ccc2[nH]5)C=C4)C=C3)cc1)C1=Cc2cc(Cl)c(Cl)cc2O[C@@H]1C(F)(F)F
REMARK SMILES IDX 7 1 6 2 5 3 4 4 3 5 1 6 2 7 67 9 68 10 78 11 69 12 77 13
REMARK SMILES IDX 70 14 76 15 71 16 75 17 72 18 73 19 74 20 79 21 80 22 81 23
REMARK SMILES IDX 82 24 8 25 9 26 10 27 11 28 12 30 13 31 14 32 66 33 15 34
REMARK SMILES IDX 65 35 16 36 17 37 18 38 59 39 19 40 64 41 58 42 60 43 20 44
REMARK SMILES IDX 63 45 57 46 56 47 21 49 47 50 30 51 46 52 31 53 34 54 45 55
REMARK SMILES IDX 61 56 32 57 33 58 44 60 62 61 35 62 22 63 23 64 28 65 24 66
REMARK SMILES IDX 25 67 27 68 29 69 26 70 48 71 49 72 54 73 50 74 51 75 53 76
REMARK SMILES IDX 55 77 52 78 36 79 37 80 42 81 38 82 39 83 41 84 43 85 40 86
REMARK H PARENT 3 8 10 29 60 48 34 59
REMARK Flexibility Score: inf
ROOT
ATOM      1  C   UNL A   1      37.790  21.466  24.884  1.00  0.00     0.002 C 
ENDROOT
BRANCH   1   2
ATOM      2  C   UNL A   1      38.261  22.476  25.937  1.00  0.00     0.002 C 
BRANCH   2   3
ATOM      3  C   UNL A   1      37.420  23.740  26.112  1.00  0.00     0.021 C 
BRANCH   3   4
ATOM      4  C   UNL A   1      35.952  23.646  25.712  1.00  0.00     0.116 C 
BRANCH   4   5
ATOM      5  N   UNL A   1      35.084  22.996  26.678  1.00  0.00    -0.352 N 
ATOM      6  O   UNL A   1      33.668  21.451  27.489  1.00  0.00    -0.270 OA
ATOM      7  C   UNL A   1      34.213  21.953  26.507  1.00  0.00     0.251 C 
ATOM      8  H   UNL A   1      35.129  23.358  27.593  1.00  0.00     0.163 HD
BRANCH   7   9
ATOM      9  C   UNL A   1      33.968  21.334  25.171  1.00  0.00     0.067 C 
ATOM     10  C   UNL A   1      34.794  20.399  24.671  1.00  0.00     0.025 C 
ATOM     11  C   UNL A   1      32.505  21.311  24.790  1.00  0.00     0.314 C 
ATOM     12  C   UNL A   1      34.159  19.062  24.631  1.00  0.00     0.019 A 
ATOM     13  O   UNL A   1      31.925  19.989  24.966  1.00  0.00    -0.475 OA
ATOM     14  C   UNL A   1      34.987  17.934  24.627  1.00  0.00     0.034 A 
ATOM     15  C   UNL A   1      32.786  18.925  24.878  1.00  0.00     0.129 A 
ATOM     16  C   UNL A   1      34.457  16.685  24.962  1.00  0.00     0.060 A 
ATOM     17  C   UNL A   1      32.252  17.674  25.173  1.00  0.00     0.069 A 
ATOM     18  Cl  UNL A   1      35.563  15.367  25.117  1.00  0.00    -0.083 Cl
ATOM     19  C   UNL A   1      33.091  16.558  25.249  1.00  0.00     0.063 A 
ATOM     20  Cl  UNL A   1      32.397  15.067  25.780  1.00  0.00    -0.083 Cl
BRANCH  11  21
ATOM     21  C   UNL A   1      32.271  21.835  23.363  1.00  0.00     0.429 C 
ATOM     22  F   UNL A   1      33.332  22.548  22.920  1.00  0.00    -0.167 F 
ATOM     23  F   UNL A   1      32.076  20.826  22.483  1.00  0.00    -0.167 F 
ATOM     24  F   UNL A   1      31.185  22.643  23.287  1.00  0.00    -0.167 F 
ENDBRANCH  11  21
ENDBRANCH   7   9
ENDBRANCH   4   5
ENDBRANCH   3   4
ENDBRANCH   2   3
ENDBRANCH   1   2
BRANCH   1  25
ATOM     25  C   UNL A   1      38.416  20.069  24.914  1.00  0.00     0.021 C 
BRANCH  25  26
ATOM     26  C   UNL A   1      39.171  19.678  26.185  1.00  0.00     0.116 C 
BRANCH  26  27
ATOM     27  N   UNL A   1      40.415  18.980  25.923  1.00  0.00    -0.352 N 
ATOM     28  C   UNL A   1      41.716  19.413  26.017  1.00  0.00     0.251 C 
ATOM     29  H   UNL A   1      40.311  18.045  25.631  1.00  0.00     0.163 HD
ATOM     30  O   UNL A   1      42.623  18.676  25.643  1.00  0.00    -0.269 OA
BRANCH  28  31
ATOM     31  C   UNL A   1      42.043  20.763  26.538  1.00  0.00     0.039 A 
ATOM     32  C   UNL A   1      42.344  21.773  25.617  1.00  0.00     0.014 A 
ATOM     33  C   UNL A   1      42.109  21.035  27.906  1.00  0.00     0.014 A 
ATOM     34  C   UNL A   1      42.657  23.061  26.064  1.00  0.00     0.010 A 
ATOM     35  C   UNL A   1      42.359  22.336  28.351  1.00  0.00     0.010 A 
ATOM     36  C   UNL A   1      42.640  23.361  27.435  1.00  0.00    -0.014 A 
BRANCH  36  37
ATOM     37  C   UNL A   1      42.919  24.739  27.921  1.00  0.00     0.031 A 
ATOM     38  C   UNL A   1      44.329  25.170  28.222  1.00  0.00     0.074 A 
ATOM     39  C   UNL A   1      41.897  25.590  28.138  1.00  0.00     0.049 A 
ATOM     40  N   UNL A   1      44.761  26.309  28.703  1.00  0.00    -0.248 NA
ATOM     41  C   UNL A   1      45.392  24.185  27.971  1.00  0.00     0.031 C 
ATOM     42  C   UNL A   1      40.482  25.287  27.922  1.00  0.00     0.029 A 
ATOM     43  N   UNL A   1      41.892  26.884  28.599  1.00  0.00    -0.354 N 
ATOM     44  C   UNL A   1      46.138  26.170  28.830  1.00  0.00     0.074 A 
ATOM     45  C   UNL A   1      46.465  24.824  28.413  1.00  0.00     0.031 C 
ATOM     46  C   UNL A   1      39.748  26.370  28.225  1.00  0.00     0.029 A 
ATOM     47  C   UNL A   1      40.635  27.431  28.694  1.00  0.00     0.049 A 
ATOM     48  H   UNL A   1      42.711  27.374  28.839  1.00  0.00     0.167 HD
ATOM     49  C   UNL A   1      47.048  27.086  29.241  1.00  0.00     0.037 A 
ATOM     50  C   UNL A   1      40.240  28.647  29.117  1.00  0.00     0.037 A 
ATOM     51  C   UNL A   1      46.728  28.437  29.621  1.00  0.00     0.049 A 
ATOM     52  C   UNL A   1      41.272  29.641  29.573  1.00  0.00     0.074 A 
ATOM     53  C   UNL A   1      47.590  29.460  29.979  1.00  0.00     0.029 A 
ATOM     54  N   UNL A   1      45.443  28.953  29.697  1.00  0.00    -0.354 N 
ATOM     55  N   UNL A   1      42.575  29.518  29.619  1.00  0.00    -0.248 NA
ATOM     56  C   UNL A   1      40.775  30.947  30.032  1.00  0.00     0.031 C 
ATOM     57  C   UNL A   1      46.826  30.582  30.311  1.00  0.00     0.029 A 
ATOM     58  C   UNL A   1      45.489  30.273  30.117  1.00  0.00     0.049 A 
ATOM     59  H   UNL A   1      44.621  28.456  29.482  1.00  0.00     0.167 HD
ATOM     60  C   UNL A   1      43.056  30.737  30.080  1.00  0.00     0.074 A 
ATOM     61  C   UNL A   1      41.905  31.590  30.290  1.00  0.00     0.031 C 
ATOM     62  C   UNL A   1      44.337  31.115  30.309  1.00  0.00     0.037 A 
BRANCH  49  63
ATOM     63  C   UNL A   1      48.486  26.660  29.302  1.00  0.00     0.057 A 
ATOM     64  C   UNL A   1      49.355  26.831  28.217  1.00  0.00     0.134 A 
ATOM     65  C   UNL A   1      49.022  26.123  30.480  1.00  0.00     0.134 A 
ATOM     66  F   UNL A   1      48.903  27.332  27.056  1.00  0.00    -0.206 F 
ATOM     67  C   UNL A   1      50.700  26.464  28.293  1.00  0.00     0.040 A 
ATOM     68  C   UNL A   1      50.370  25.776  30.576  1.00  0.00     0.040 A 
ATOM     69  F   UNL A   1      48.247  25.941  31.559  1.00  0.00    -0.206 F 
ATOM     70  C   UNL A   1      51.212  25.942  29.478  1.00  0.00     0.006 A 
ENDBRANCH  49  63
BRANCH  50  71
ATOM     71  C   UNL A   1      38.800  29.009  29.111  1.00  0.00     0.057 A 
ATOM     72  C   UNL A   1      38.194  29.532  27.964  1.00  0.00     0.134 A 
ATOM     73  C   UNL A   1      38.003  28.866  30.254  1.00  0.00     0.134 A 
ATOM     74  F   UNL A   1      38.911  29.713  26.844  1.00  0.00    -0.206 F 
ATOM     75  C   UNL A   1      36.853  29.922  27.956  1.00  0.00     0.040 A 
ATOM     76  C   UNL A   1      36.655  29.228  30.253  1.00  0.00     0.040 A 
ATOM     77  F   UNL A   1      38.523  28.368  31.385  1.00  0.00    -0.206 F 
ATOM     78  C   UNL A   1      36.079  29.765  29.103  1.00  0.00     0.006 A 
ENDBRANCH  50  71
BRANCH  62  79
ATOM     79  C   UNL A   1      44.566  32.524  30.772  1.00  0.00     0.057 A 
ATOM     80  C   UNL A   1      44.719  33.585  29.870  1.00  0.00     0.134 A 
ATOM     81  C   UNL A   1      44.600  32.827  32.139  1.00  0.00     0.134 A 
ATOM     82  F   UNL A   1      44.710  33.358  28.547  1.00  0.00    -0.206 F 
ATOM     83  C   UNL A   1      44.918  34.893  30.312  1.00  0.00     0.040 A 
ATOM     84  C   UNL A   1      44.773  34.134  32.594  1.00  0.00     0.040 A 
ATOM     85  F   UNL A   1      44.452  31.857  33.055  1.00  0.00    -0.206 F 
ATOM     86  C   UNL A   1      44.937  35.172  31.678  1.00  0.00     0.006 A 
ENDBRANCH  62  79
ENDBRANCH  36  37
ENDBRANCH  28  31
ENDBRANCH  26  27
ENDBRANCH  25  26
ENDBRANCH   1  25
TORSDOF 14
ENDMDL
MODEL 3
REMARK VINA RESULT:     -12.0      0.303      6.193
REMARK SMILES O=C(NCCCCCCNC(=O)c1ccc(-c2c3nc(c(-c4c(F)cccc4F)c4ccc([nH]4)c(-c4c(F)cccc4F)c4nc(c(-c5c(F)cccc5F)c5ccc2[nH]5)C=C4)C=C3)cc1)C1=Cc2cc(Cl)c(Cl)cc2O[C@@H]1C(F)(F)F
REMARK SMILES IDX 7 1 6 2 5 3 4 4 3 5 1 6 2 7 67 9 68 10 78 11 69 12 77 13
REMARK SMILES IDX 70 14 76 15 71 16 75 17 72 18 73 19 74 20 79 21 80 22 81 23
REMARK SMILES IDX 82 24 8 25 9 26 10 27 11 28 12 30 13 31 14 32 66 33 15 34
REMARK SMILES IDX 65 35 16 36 17 37 18 38 59 39 19 40 64 41 58 42 60 43 20 44
REMARK SMILES IDX 63 45 57 46 56 47 21 49 47 50 30 51 46 52 31 53 34 54 45 55
REMARK SMILES IDX 61 56 32 57 33 58 44 60 62 61 35 62 22 63 23 64 28 65 24 66
REMARK SMILES IDX 25 67 27 68 29 69 26 70 48 71 49 72 54 73 50 74 51 75 53 76
REMARK SMILES IDX 55 77 52 78 36 79 37 80 42 81 38 82 39 83 41 84 43 85 40 86
REMARK H PARENT 3 8 10 29 60 48 34 59
REMARK Flexibility Score: inf
ROOT
ATOM      1  C   UNL A   1      37.940  21.732  24.653  1.00  0.00     0.002 C 
ENDROOT
BRANCH   1   2
ATOM      2  C   UNL A   1      38.066  22.584  25.921  1.00  0.00     0.002 C 
BRANCH   2   3
ATOM      3  C   UNL A   1      37.287  23.898  25.956  1.00  0.00     0.021 C 
BRANCH   3   4
ATOM      4  C   UNL A   1      35.778  23.804  25.757  1.00  0.00     0.116 C 
BRANCH   4   5
ATOM      5  N   UNL A   1      35.067  23.020  26.752  1.00  0.00    -0.352 N 
ATOM      6  O   UNL A   1      33.898  21.294  27.589  1.00  0.00    -0.270 OA
ATOM      7  C   UNL A   1      34.304  21.895  26.595  1.00  0.00     0.251 C 
ATOM      8  H   UNL A   1      35.145  23.348  27.678  1.00  0.00     0.163 HD
BRANCH   7   9
ATOM      9  C   UNL A   1      34.022  21.308  25.252  1.00  0.00     0.067 C 
ATOM     10  C   UNL A   1      34.819  20.368  24.717  1.00  0.00     0.025 C 
ATOM     11  C   UNL A   1      32.551  21.321  24.900  1.00  0.00     0.314 C 
ATOM     12  C   UNL A   1      34.158  19.045  24.662  1.00  0.00     0.019 A 
ATOM     13  O   UNL A   1      31.949  20.007  25.060  1.00  0.00    -0.475 OA
ATOM     14  C   UNL A   1      34.963  17.900  24.618  1.00  0.00     0.034 A 
ATOM     15  C   UNL A   1      32.787  18.928  24.933  1.00  0.00     0.129 A 
ATOM     16  C   UNL A   1      34.415  16.656  24.939  1.00  0.00     0.060 A 
ATOM     17  C   UNL A   1      32.234  17.682  25.213  1.00  0.00     0.069 A 
ATOM     18  Cl  UNL A   1      35.498  15.314  25.045  1.00  0.00    -0.083 Cl
ATOM     19  C   UNL A   1      33.053  16.549  25.249  1.00  0.00     0.063 A 
ATOM     20  Cl  UNL A   1      32.340  15.061  25.763  1.00  0.00    -0.083 Cl
BRANCH  11  21
ATOM     21  C   UNL A   1      32.300  21.878  23.488  1.00  0.00     0.429 C 
ATOM     22  F   UNL A   1      31.216  22.689  23.465  1.00  0.00    -0.167 F 
ATOM     23  F   UNL A   1      33.349  22.607  23.040  1.00  0.00    -0.167 F 
ATOM     24  F   UNL A   1      32.083  20.895  22.581  1.00  0.00    -0.167 F 
ENDBRANCH  11  21
ENDBRANCH   7   9
ENDBRANCH   4   5
ENDBRANCH   3   4
ENDBRANCH   2   3
ENDBRANCH   1   2
BRANCH   1  25
ATOM     25  C   UNL A   1      38.137  20.220  24.794  1.00  0.00     0.021 C 
BRANCH  25  26
ATOM     26  C   UNL A   1      38.806  19.728  26.076  1.00  0.00     0.116 C 
BRANCH  26  27
ATOM     27  N   UNL A   1      40.054  19.026  25.841  1.00  0.00    -0.352 N 
ATOM     28  C   UNL A   1      41.353  19.457  25.961  1.00  0.00     0.251 C 
ATOM     29  H   UNL A   1      39.955  18.091  25.550  1.00  0.00     0.163 HD
ATOM     30  O   UNL A   1      42.267  18.718  25.606  1.00  0.00    -0.269 OA
BRANCH  28  31
ATOM     31  C   UNL A   1      41.673  20.808  26.485  1.00  0.00     0.039 A 
ATOM     32  C   UNL A   1      41.682  20.994  27.872  1.00  0.00     0.014 A 
ATOM     33  C   UNL A   1      41.913  21.895  25.641  1.00  0.00     0.014 A 
ATOM     34  C   UNL A   1      41.980  22.250  28.410  1.00  0.00     0.010 A 
ATOM     35  C   UNL A   1      42.272  23.133  26.179  1.00  0.00     0.010 A 
ATOM     36  C   UNL A   1      42.306  23.325  27.569  1.00  0.00    -0.014 A 
BRANCH  36  37
ATOM     37  C   UNL A   1      42.676  24.652  28.129  1.00  0.00     0.031 A 
ATOM     38  C   UNL A   1      41.625  25.707  28.349  1.00  0.00     0.074 A 
ATOM     39  C   UNL A   1      43.968  24.928  28.396  1.00  0.00     0.049 A 
ATOM     40  N   UNL A   1      41.764  26.937  28.778  1.00  0.00    -0.248 NA
ATOM     41  C   UNL A   1      40.238  25.339  28.027  1.00  0.00     0.031 C 
ATOM     42  C   UNL A   1      45.089  24.008  28.193  1.00  0.00     0.029 A 
ATOM     43  N   UNL A   1      44.558  26.066  28.887  1.00  0.00    -0.354 N 
ATOM     44  C   UNL A   1      40.491  27.493  28.755  1.00  0.00     0.074 A 
ATOM     45  C   UNL A   1      39.598  26.480  28.236  1.00  0.00     0.031 C 
ATOM     46  C   UNL A   1      46.226  24.609  28.580  1.00  0.00     0.029 A 
ATOM     47  C   UNL A   1      45.922  25.968  29.020  1.00  0.00     0.049 A 
ATOM     48  H   UNL A   1      44.052  26.877  29.121  1.00  0.00     0.167 HD
ATOM     49  C   UNL A   1      40.099  28.729  29.148  1.00  0.00     0.037 A 
ATOM     50  C   UNL A   1      46.827  26.871  29.443  1.00  0.00     0.037 A 
ATOM     51  C   UNL A   1      40.980  29.725  29.699  1.00  0.00     0.049 A 
ATOM     52  C   UNL A   1      46.363  28.238  29.867  1.00  0.00     0.074 A 
ATOM     53  C   UNL A   1      40.662  30.978  30.196  1.00  0.00     0.029 A 
ATOM     54  N   UNL A   1      42.354  29.582  29.825  1.00  0.00    -0.354 N 
ATOM     55  N   UNL A   1      45.148  28.723  29.908  1.00  0.00    -0.248 NA
ATOM     56  C   UNL A   1      47.402  29.180  30.308  1.00  0.00     0.031 C 
ATOM     57  C   UNL A   1      41.848  31.611  30.582  1.00  0.00     0.029 A 
ATOM     58  C   UNL A   1      42.900  30.734  30.369  1.00  0.00     0.049 A 
ATOM     59  H   UNL A   1      42.865  28.781  29.566  1.00  0.00     0.167 HD
ATOM     60  C   UNL A   1      45.269  30.013  30.407  1.00  0.00     0.074 A 
ATOM     61  C   UNL A   1      46.677  30.232  30.666  1.00  0.00     0.031 C 
ATOM     62  C   UNL A   1      44.301  30.933  30.633  1.00  0.00     0.037 A 
BRANCH  49  63
ATOM     63  C   UNL A   1      38.648  29.080  28.997  1.00  0.00     0.057 A 
ATOM     64  C   UNL A   1      37.749  28.989  30.069  1.00  0.00     0.134 A 
ATOM     65  C   UNL A   1      38.154  29.569  27.781  1.00  0.00     0.134 A 
ATOM     66  F   UNL A   1      38.155  28.520  31.259  1.00  0.00    -0.206 F 
ATOM     67  C   UNL A   1      36.408  29.350  29.929  1.00  0.00     0.040 A 
ATOM     68  C   UNL A   1      36.821  29.957  27.637  1.00  0.00     0.040 A 
ATOM     69  F   UNL A   1      38.962  29.690  26.718  1.00  0.00    -0.206 F 
ATOM     70  C   UNL A   1      35.943  29.843  28.712  1.00  0.00     0.006 A 
ENDBRANCH  49  63
BRANCH  50  71
ATOM     71  C   UNL A   1      48.266  26.512  29.510  1.00  0.00     0.057 A 
ATOM     72  C   UNL A   1      48.816  25.957  30.671  1.00  0.00     0.134 A 
ATOM     73  C   UNL A   1      49.130  26.737  28.431  1.00  0.00     0.134 A 
ATOM     74  F   UNL A   1      48.043  25.739  31.746  1.00  0.00    -0.206 F 
ATOM     75  C   UNL A   1      50.176  25.658  30.767  1.00  0.00     0.040 A 
ATOM     76  C   UNL A   1      50.487  26.419  28.504  1.00  0.00     0.040 A 
ATOM     77  F   UNL A   1      48.664  27.263  27.289  1.00  0.00    -0.206 F 
ATOM     78  C   UNL A   1      51.015  25.885  29.678  1.00  0.00     0.006 A 
ENDBRANCH  50  71
BRANCH  62  79
ATOM     79  C   UNL A   1      44.724  32.246  31.225  1.00  0.00     0.057 A 
ATOM     80  C   UNL A   1      45.086  33.337  30.425  1.00  0.00     0.134 A 
ATOM     81  C   UNL A   1      44.735  32.430  32.614  1.00  0.00     0.134 A 
ATOM     82  F   UNL A   1      45.110  33.221  29.088  1.00  0.00    -0.206 F 
ATOM     83  C   UNL A   1      45.465  34.557  30.986  1.00  0.00     0.040 A 
ATOM     84  C   UNL A   1      45.087  33.652  33.186  1.00  0.00     0.040 A 
ATOM     85  F   UNL A   1      44.391  31.427  33.436  1.00  0.00    -0.206 F 
ATOM     86  C   UNL A   1      45.458  34.719  32.370  1.00  0.00     0.006 A 
ENDBRANCH  62  79
ENDBRANCH  36  37
ENDBRANCH  28  31
ENDBRANCH  26  27
ENDBRANCH  25  26
ENDBRANCH   1  25
TORSDOF 14
ENDMDL
