MODEL 1
REMARK VINA RESULT:     -11.9      0.000      0.000
REMARK SMILES O=C(NCCCCCCNC(=O)[C@@H]1CN(C(=O)[C@H]2CC=CCC2)c2ccccc2O1)c1ccc(-c2c3nc(c(-c4c(F)cccc4F)c4ccc([nH]4)c(-c4c(F)cccc4F)c4nc(c(-c5c(F)cccc5F)c5ccc2[nH]5)C=C4)C=C3)cc1
REMARK SMILES IDX 6 1 5 2 4 3 3 4 1 5 2 6 31 8 32 9 84 10 33 11 83 12 34 13
REMARK SMILES IDX 35 14 36 15 77 16 37 17 82 18 76 19 78 20 38 21 81 22 75 23
REMARK SMILES IDX 74 24 39 26 65 27 48 28 64 29 49 30 52 31 63 32 79 33 50 34
REMARK SMILES IDX 51 35 62 37 80 38 53 39 40 40 41 41 46 42 42 43 43 44 45 45
REMARK SMILES IDX 47 46 44 47 66 48 67 49 72 50 68 51 69 52 71 53 73 54 70 55
REMARK SMILES IDX 54 56 55 57 60 58 56 59 57 60 59 61 61 62 58 63 7 64 8 65
REMARK SMILES IDX 9 66 10 67 11 68 12 70 13 71 14 72 30 73 15 74 29 75 24 76
REMARK SMILES IDX 28 77 25 78 27 79 26 80 16 81 17 82 18 83 19 84 23 85 20 86
REMARK SMILES IDX 22 87 21 88
REMARK H PARENT 3 7 78 25 52 36 10 69
REMARK Flexibility Score: inf
ROOT
ATOM      1  C   UNL A   1      31.397  30.882  25.968  1.00  0.00     0.002 C 
ENDROOT
BRANCH   1   2
ATOM      2  C   UNL A   1      31.265  32.304  26.502  1.00  0.00     0.021 C 
BRANCH   2   3
ATOM      3  C   UNL A   1      32.510  32.825  27.192  1.00  0.00     0.116 C 
BRANCH   3   4
ATOM      4  N   UNL A   1      32.364  34.201  27.627  1.00  0.00    -0.352 N 
ATOM      5  O   UNL A   1      32.731  35.963  28.997  1.00  0.00    -0.269 OA
ATOM      6  C   UNL A   1      33.063  34.851  28.616  1.00  0.00     0.251 C 
ATOM      7  H   UNL A   1      31.682  34.734  27.157  1.00  0.00     0.163 HD
BRANCH   6   8
ATOM      8  C   UNL A   1      34.220  34.164  29.227  1.00  0.00     0.039 A 
ATOM      9  C   UNL A   1      34.026  33.263  30.277  1.00  0.00     0.014 A 
ATOM     10  C   UNL A   1      35.505  34.445  28.761  1.00  0.00     0.014 A 
ATOM     11  C   UNL A   1      35.122  32.730  30.939  1.00  0.00     0.010 A 
ATOM     12  C   UNL A   1      36.605  33.836  29.368  1.00  0.00     0.010 A 
ATOM     13  C   UNL A   1      36.421  32.983  30.469  1.00  0.00    -0.014 A 
BRANCH  13  14
ATOM     14  C   UNL A   1      37.556  32.243  31.068  1.00  0.00     0.031 A 
ATOM     15  C   UNL A   1      38.263  31.149  30.326  1.00  0.00     0.074 A 
ATOM     16  C   UNL A   1      37.945  32.591  32.311  1.00  0.00     0.049 A 
ATOM     17  N   UNL A   1      39.267  30.408  30.722  1.00  0.00    -0.248 NA
ATOM     18  C   UNL A   1      37.785  30.838  28.971  1.00  0.00     0.031 C 
ATOM     19  C   UNL A   1      37.311  33.630  33.131  1.00  0.00     0.029 A 
ATOM     20  N   UNL A   1      38.964  32.126  33.100  1.00  0.00    -0.354 N 
ATOM     21  C   UNL A   1      39.529  29.531  29.678  1.00  0.00     0.074 A 
ATOM     22  C   UNL A   1      38.569  29.820  28.634  1.00  0.00     0.031 C 
ATOM     23  C   UNL A   1      37.979  33.750  34.286  1.00  0.00     0.029 A 
ATOM     24  C   UNL A   1      39.041  32.754  34.319  1.00  0.00     0.049 A 
ATOM     25  H   UNL A   1      39.580  31.413  32.819  1.00  0.00     0.167 HD
ATOM     26  C   UNL A   1      40.486  28.576  29.605  1.00  0.00     0.037 A 
ATOM     27  C   UNL A   1      39.859  32.533  35.363  1.00  0.00     0.037 A 
ATOM     28  C   UNL A   1      41.447  28.310  30.645  1.00  0.00     0.049 A 
ATOM     29  C   UNL A   1      40.893  31.453  35.254  1.00  0.00     0.074 A 
ATOM     30  C   UNL A   1      42.488  27.396  30.643  1.00  0.00     0.029 A 
ATOM     31  N   UNL A   1      41.481  28.950  31.875  1.00  0.00    -0.354 N 
ATOM     32  N   UNL A   1      41.158  30.665  34.242  1.00  0.00    -0.248 NA
ATOM     33  C   UNL A   1      41.737  31.228  36.434  1.00  0.00     0.031 C 
ATOM     34  C   UNL A   1      43.122  27.451  31.888  1.00  0.00     0.029 A 
ATOM     35  C   UNL A   1      42.508  28.432  32.649  1.00  0.00     0.049 A 
ATOM     36  H   UNL A   1      40.868  29.665  32.156  1.00  0.00     0.167 HD
ATOM     37  C   UNL A   1      42.208  29.858  34.657  1.00  0.00     0.074 A 
ATOM     38  C   UNL A   1      42.547  30.273  36.003  1.00  0.00     0.031 C 
ATOM     39  C   UNL A   1      42.830  28.858  33.986  1.00  0.00     0.037 A 
BRANCH  26  40
ATOM     40  C   UNL A   1      40.546  27.730  28.366  1.00  0.00     0.057 A 
ATOM     41  C   UNL A   1      41.296  28.107  27.247  1.00  0.00     0.134 A 
ATOM     42  C   UNL A   1      39.915  26.479  28.329  1.00  0.00     0.134 A 
ATOM     43  F   UNL A   1      41.918  29.295  27.214  1.00  0.00    -0.206 F 
ATOM     44  C   UNL A   1      41.412  27.274  26.131  1.00  0.00     0.040 A 
ATOM     45  C   UNL A   1      40.040  25.629  27.229  1.00  0.00     0.040 A 
ATOM     46  F   UNL A   1      39.186  26.053  29.372  1.00  0.00    -0.206 F 
ATOM     47  C   UNL A   1      40.791  26.026  26.125  1.00  0.00     0.006 A 
ENDBRANCH  26  40
BRANCH  27  48
ATOM     48  C   UNL A   1      39.711  33.333  36.604  1.00  0.00     0.057 A 
ATOM     49  C   UNL A   1      40.462  34.494  36.812  1.00  0.00     0.134 A 
ATOM     50  C   UNL A   1      38.816  32.952  37.612  1.00  0.00     0.134 A 
ATOM     51  F   UNL A   1      41.346  34.902  35.889  1.00  0.00    -0.206 F 
ATOM     52  C   UNL A   1      40.346  35.237  37.988  1.00  0.00     0.040 A 
ATOM     53  C   UNL A   1      38.667  33.701  38.779  1.00  0.00     0.040 A 
ATOM     54  F   UNL A   1      38.059  31.854  37.467  1.00  0.00    -0.206 F 
ATOM     55  C   UNL A   1      39.442  34.842  38.973  1.00  0.00     0.006 A 
ENDBRANCH  27  48
BRANCH  39  56
ATOM     56  C   UNL A   1      43.954  28.167  34.698  1.00  0.00     0.057 A 
ATOM     57  C   UNL A   1      45.268  28.645  34.637  1.00  0.00     0.134 A 
ATOM     58  C   UNL A   1      43.714  27.020  35.465  1.00  0.00     0.134 A 
ATOM     59  F   UNL A   1      45.565  29.729  33.904  1.00  0.00    -0.206 F 
ATOM     60  C   UNL A   1      46.312  27.991  35.293  1.00  0.00     0.040 A 
ATOM     61  C   UNL A   1      44.744  26.373  36.147  1.00  0.00     0.040 A 
ATOM     62  F   UNL A   1      42.475  26.516  35.568  1.00  0.00    -0.206 F 
ATOM     63  C   UNL A   1      46.049  26.854  36.055  1.00  0.00     0.006 A 
ENDBRANCH  39  56
ENDBRANCH  13  14
ENDBRANCH   6   8
ENDBRANCH   3   4
ENDBRANCH   2   3
ENDBRANCH   1   2
BRANCH   1  64
ATOM     64  C   UNL A   1      32.322  29.966  26.779  1.00  0.00     0.002 C 
BRANCH  64  65
ATOM     65  C   UNL A   1      31.713  28.631  27.237  1.00  0.00     0.021 C 
BRANCH  65  66
ATOM     66  C   UNL A   1      32.597  27.407  27.011  1.00  0.00     0.116 C 
BRANCH  66  67
ATOM     67  N   UNL A   1      31.804  26.205  27.045  1.00  0.00    -0.353 N 
ATOM     68  C   UNL A   1      32.110  24.958  26.616  1.00  0.00     0.262 C 
ATOM     69  H   UNL A   1      30.908  26.306  27.438  1.00  0.00     0.163 HD
ATOM     70  O   UNL A   1      31.191  24.141  26.628  1.00  0.00    -0.271 OA
BRANCH  68  71
ATOM     71  C   UNL A   1      33.533  24.657  26.124  1.00  0.00     0.281 C 
ATOM     72  C   UNL A   1      33.866  25.447  24.873  1.00  0.00     0.181 C 
ATOM     73  O   UNL A   1      33.767  23.271  25.902  1.00  0.00    -0.477 OA
ATOM     74  N   UNL A   1      32.991  25.096  23.762  1.00  0.00    -0.304 N 
ATOM     75  C   UNL A   1      33.227  22.821  24.717  1.00  0.00     0.144 A 
ATOM     76  C   UNL A   1      32.796  23.661  23.659  1.00  0.00     0.086 A 
ATOM     77  C   UNL A   1      33.111  21.428  24.643  1.00  0.00     0.049 A 
ATOM     78  C   UNL A   1      32.214  23.038  22.550  1.00  0.00     0.030 A 
ATOM     79  C   UNL A   1      32.531  20.839  23.528  1.00  0.00     0.004 A 
ATOM     80  C   UNL A   1      32.077  21.643  22.487  1.00  0.00     0.002 A 
BRANCH  74  81
ATOM     81  C   UNL A   1      32.301  26.035  22.993  1.00  0.00     0.230 C 
ATOM     82  O   UNL A   1      32.174  25.921  21.765  1.00  0.00    -0.274 OA
BRANCH  81  83
ATOM     83  C   UNL A   1      31.668  27.317  23.614  1.00  0.00     0.083 C 
ATOM     84  C   UNL A   1      31.985  28.682  22.978  1.00  0.00     0.040 C 
ATOM     85  C   UNL A   1      30.213  27.160  24.072  1.00  0.00     0.018 C 
ATOM     86  C   UNL A   1      30.824  29.397  22.341  1.00  0.00    -0.030 C 
ATOM     87  C   UNL A   1      29.149  27.716  23.127  1.00  0.00     0.028 C 
ATOM     88  C   UNL A   1      29.558  28.961  22.400  1.00  0.00    -0.031 C 
ENDBRANCH  81  83
ENDBRANCH  74  81
ENDBRANCH  68  71
ENDBRANCH  66  67
ENDBRANCH  65  66
ENDBRANCH  64  65
ENDBRANCH   1  64
TORSDOF 15
ENDMDL
MODEL 2
REMARK VINA RESULT:     -11.9      0.792      6.147
REMARK SMILES O=C(NCCCCCCNC(=O)[C@@H]1CN(C(=O)[C@H]2CC=CCC2)c2ccccc2O1)c1ccc(-c2c3nc(c(-c4c(F)cccc4F)c4ccc([nH]4)c(-c4c(F)cccc4F)c4nc(c(-c5c(F)cccc5F)c5ccc2[nH]5)C=C4)C=C3)cc1
REMARK SMILES IDX 6 1 5 2 4 3 3 4 1 5 2 6 31 8 32 9 84 10 33 11 83 12 34 13
REMARK SMILES IDX 35 14 36 15 77 16 37 17 82 18 76 19 78 20 38 21 81 22 75 23
REMARK SMILES IDX 74 24 39 26 65 27 48 28 64 29 49 30 52 31 63 32 79 33 50 34
REMARK SMILES IDX 51 35 62 37 80 38 53 39 40 40 41 41 46 42 42 43 43 44 45 45
REMARK SMILES IDX 47 46 44 47 66 48 67 49 72 50 68 51 69 52 71 53 73 54 70 55
REMARK SMILES IDX 54 56 55 57 60 58 56 59 57 60 59 61 61 62 58 63 7 64 8 65
REMARK SMILES IDX 9 66 10 67 11 68 12 70 13 71 14 72 30 73 15 74 29 75 24 76
REMARK SMILES IDX 28 77 25 78 27 79 26 80 16 81 17 82 18 83 19 84 23 85 20 86
REMARK SMILES IDX 22 87 21 88
REMARK H PARENT 3 7 78 25 52 36 10 69
REMARK Flexibility Score: inf
ROOT
ATOM      1  C   UNL A   1      31.491  30.177  25.818  1.00  0.00     0.002 C 
ENDROOT
BRANCH   1   2
ATOM      2  C   UNL A   1      31.337  31.638  26.225  1.00  0.00     0.021 C 
BRANCH   2   3
ATOM      3  C   UNL A   1      32.516  32.193  27.000  1.00  0.00     0.116 C 
BRANCH   3   4
ATOM      4  N   UNL A   1      32.344  33.594  27.337  1.00  0.00    -0.352 N 
ATOM      5  O   UNL A   1      32.697  35.459  28.566  1.00  0.00    -0.269 OA
ATOM      6  C   UNL A   1      33.050  34.331  28.258  1.00  0.00     0.251 C 
ATOM      7  H   UNL A   1      31.637  34.073  26.849  1.00  0.00     0.163 HD
BRANCH   6   8
ATOM      8  C   UNL A   1      34.240  33.720  28.885  1.00  0.00     0.039 A 
ATOM      9  C   UNL A   1      34.088  32.713  29.843  1.00  0.00     0.014 A 
ATOM     10  C   UNL A   1      35.510  34.176  28.530  1.00  0.00     0.014 A 
ATOM     11  C   UNL A   1      35.198  32.245  30.530  1.00  0.00     0.010 A 
ATOM     12  C   UNL A   1      36.635  33.636  29.157  1.00  0.00     0.010 A 
ATOM     13  C   UNL A   1      36.485  32.675  30.169  1.00  0.00    -0.014 A 
BRANCH  13  14
ATOM     14  C   UNL A   1      37.660  32.010  30.780  1.00  0.00     0.031 A 
ATOM     15  C   UNL A   1      38.161  32.392  32.141  1.00  0.00     0.074 A 
ATOM     16  C   UNL A   1      38.267  31.036  30.074  1.00  0.00     0.049 A 
ATOM     17  N   UNL A   1      39.180  31.905  32.803  1.00  0.00    -0.248 NA
ATOM     18  C   UNL A   1      37.437  33.456  32.851  1.00  0.00     0.031 C 
ATOM     19  C   UNL A   1      37.872  30.600  28.730  1.00  0.00     0.029 A 
ATOM     20  N   UNL A   1      39.330  30.229  30.381  1.00  0.00    -0.354 N 
ATOM     21  C   UNL A   1      39.234  32.615  33.996  1.00  0.00     0.074 A 
ATOM     22  C   UNL A   1      38.153  33.577  33.963  1.00  0.00     0.031 C 
ATOM     23  C   UNL A   1      38.653  29.582  28.348  1.00  0.00     0.029 A 
ATOM     24  C   UNL A   1      39.646  29.339  29.385  1.00  0.00     0.049 A 
ATOM     25  H   UNL A   1      39.819  30.283  31.234  1.00  0.00     0.167 HD
ATOM     26  C   UNL A   1      40.107  32.468  35.020  1.00  0.00     0.037 A 
ATOM     27  C   UNL A   1      40.646  28.443  29.301  1.00  0.00     0.037 A 
ATOM     28  C   UNL A   1      41.169  31.494  35.048  1.00  0.00     0.049 A 
ATOM     29  C   UNL A   1      41.606  28.323  30.445  1.00  0.00     0.074 A 
ATOM     30  C   UNL A   1      42.074  31.234  36.064  1.00  0.00     0.029 A 
ATOM     31  N   UNL A   1      41.473  30.624  34.012  1.00  0.00    -0.354 N 
ATOM     32  N   UNL A   1      41.614  28.969  31.585  1.00  0.00    -0.248 NA
ATOM     33  C   UNL A   1      42.699  27.356  30.290  1.00  0.00     0.031 C 
ATOM     34  C   UNL A   1      42.954  30.241  35.624  1.00  0.00     0.029 A 
ATOM     35  C   UNL A   1      42.568  29.846  34.354  1.00  0.00     0.049 A 
ATOM     36  H   UNL A   1      40.984  30.567  33.160  1.00  0.00     0.167 HD
ATOM     37  C   UNL A   1      42.704  28.477  32.290  1.00  0.00     0.074 A 
ATOM     38  C   UNL A   1      43.315  27.460  31.457  1.00  0.00     0.031 C 
ATOM     39  C   UNL A   1      43.162  28.840  33.512  1.00  0.00     0.037 A 
BRANCH  26  40
ATOM     40  C   UNL A   1      39.971  33.387  36.200  1.00  0.00     0.057 A 
ATOM     41  C   UNL A   1      40.636  34.617  36.261  1.00  0.00     0.134 A 
ATOM     42  C   UNL A   1      39.094  33.074  37.246  1.00  0.00     0.134 A 
ATOM     43  F   UNL A   1      41.497  34.974  35.296  1.00  0.00    -0.206 F 
ATOM     44  C   UNL A   1      40.439  35.501  37.325  1.00  0.00     0.040 A 
ATOM     45  C   UNL A   1      38.871  33.959  38.304  1.00  0.00     0.040 A 
ATOM     46  F   UNL A   1      38.418  31.915  37.246  1.00  0.00    -0.206 F 
ATOM     47  C   UNL A   1      39.546  35.177  38.344  1.00  0.00     0.006 A 
ENDBRANCH  26  40
BRANCH  27  48
ATOM     48  C   UNL A   1      40.798  27.614  28.080  1.00  0.00     0.057 A 
ATOM     49  C   UNL A   1      41.553  28.059  26.990  1.00  0.00     0.134 A 
ATOM     50  C   UNL A   1      40.190  26.357  27.974  1.00  0.00     0.134 A 
ATOM     51  F   UNL A   1      42.149  29.260  27.026  1.00  0.00    -0.206 F 
ATOM     52  C   UNL A   1      41.679  27.295  25.829  1.00  0.00     0.040 A 
ATOM     53  C   UNL A   1      40.332  25.569  26.833  1.00  0.00     0.040 A 
ATOM     54  F   UNL A   1      39.462  25.869  28.990  1.00  0.00    -0.206 F 
ATOM     55  C   UNL A   1      41.071  26.042  25.751  1.00  0.00     0.006 A 
ENDBRANCH  27  48
BRANCH  39  56
ATOM     56  C   UNL A   1      44.369  28.112  34.023  1.00  0.00     0.057 A 
ATOM     57  C   UNL A   1      44.258  26.902  34.720  1.00  0.00     0.134 A 
ATOM     58  C   UNL A   1      45.654  28.620  33.802  1.00  0.00     0.134 A 
ATOM     59  F   UNL A   1      43.053  26.374  34.978  1.00  0.00    -0.206 F 
ATOM     60  C   UNL A   1      45.385  26.235  35.202  1.00  0.00     0.040 A 
ATOM     61  C   UNL A   1      46.790  27.948  34.255  1.00  0.00     0.040 A 
ATOM     62  F   UNL A   1      45.828  29.772  33.136  1.00  0.00    -0.206 F 
ATOM     63  C   UNL A   1      46.656  26.756  34.965  1.00  0.00     0.006 A 
ENDBRANCH  39  56
ENDBRANCH  13  14
ENDBRANCH   6   8
ENDBRANCH   3   4
ENDBRANCH   2   3
ENDBRANCH   1   2
BRANCH   1  64
ATOM     64  C   UNL A   1      32.924  29.739  25.497  1.00  0.00     0.002 C 
BRANCH  64  65
ATOM     65  C   UNL A   1      33.104  28.264  25.101  1.00  0.00     0.021 C 
BRANCH  65  66
ATOM     66  C   UNL A   1      33.598  27.351  26.220  1.00  0.00     0.116 C 
BRANCH  66  67
ATOM     67  N   UNL A   1      32.641  26.303  26.468  1.00  0.00    -0.353 N 
ATOM     68  C   UNL A   1      32.762  24.966  26.295  1.00  0.00     0.262 C 
ATOM     69  H   UNL A   1      31.771  26.605  26.815  1.00  0.00     0.163 HD
ATOM     70  O   UNL A   1      31.736  24.306  26.445  1.00  0.00    -0.271 OA
BRANCH  68  71
ATOM     71  C   UNL A   1      34.125  24.376  25.902  1.00  0.00     0.281 C 
ATOM     72  C   UNL A   1      34.570  24.871  24.539  1.00  0.00     0.181 C 
ATOM     73  O   UNL A   1      34.150  22.954  25.937  1.00  0.00    -0.477 OA
ATOM     74  N   UNL A   1      33.651  24.457  23.487  1.00  0.00    -0.304 N 
ATOM     75  C   UNL A   1      33.548  22.382  24.837  1.00  0.00     0.144 A 
ATOM     76  C   UNL A   1      33.245  23.071  23.636  1.00  0.00     0.086 A 
ATOM     77  C   UNL A   1      33.226  21.030  25.010  1.00  0.00     0.049 A 
ATOM     78  C   UNL A   1      32.576  22.351  22.641  1.00  0.00     0.030 A 
ATOM     79  C   UNL A   1      32.564  20.341  24.003  1.00  0.00     0.004 A 
ATOM     80  C   UNL A   1      32.234  21.002  22.825  1.00  0.00     0.002 A 
BRANCH  74  81
ATOM     81  C   UNL A   1      33.108  25.333  22.544  1.00  0.00     0.230 C 
ATOM     82  O   UNL A   1      33.815  26.048  21.820  1.00  0.00    -0.274 OA
BRANCH  81  83
ATOM     83  C   UNL A   1      31.570  25.502  22.354  1.00  0.00     0.083 C 
ATOM     84  C   UNL A   1      30.633  25.101  23.507  1.00  0.00     0.040 C 
ATOM     85  C   UNL A   1      31.149  26.779  21.618  1.00  0.00     0.018 C 
ATOM     86  C   UNL A   1      29.861  26.222  24.148  1.00  0.00    -0.030 C 
ATOM     87  C   UNL A   1      30.647  27.925  22.496  1.00  0.00     0.028 C 
ATOM     88  C   UNL A   1      29.874  27.485  23.702  1.00  0.00    -0.031 C 
ENDBRANCH  81  83
ENDBRANCH  74  81
ENDBRANCH  68  71
ENDBRANCH  66  67
ENDBRANCH  65  66
ENDBRANCH  64  65
ENDBRANCH   1  64
TORSDOF 15
ENDMDL
MODEL 3
REMARK VINA RESULT:     -11.9      4.531      9.061
REMARK SMILES O=C(NCCCCCCNC(=O)[C@@H]1CN(C(=O)[C@H]2CC=CCC2)c2ccccc2O1)c1ccc(-c2c3nc(c(-c4c(F)cccc4F)c4ccc([nH]4)c(-c4c(F)cccc4F)c4nc(c(-c5c(F)cccc5F)c5ccc2[nH]5)C=C4)C=C3)cc1
REMARK SMILES IDX 6 1 5 2 4 3 3 4 1 5 2 6 31 8 32 9 84 10 33 11 83 12 34 13
REMARK SMILES IDX 35 14 36 15 77 16 37 17 82 18 76 19 78 20 38 21 81 22 75 23
REMARK SMILES IDX 74 24 39 26 65 27 48 28 64 29 49 30 52 31 63 32 79 33 50 34
REMARK SMILES IDX 51 35 62 37 80 38 53 39 40 40 41 41 46 42 42 43 43 44 45 45
REMARK SMILES IDX 47 46 44 47 66 48 67 49 72 50 68 51 69 52 71 53 73 54 70 55
REMARK SMILES IDX 54 56 55 57 60 58 56 59 57 60 59 61 61 62 58 63 7 64 8 65
REMARK SMILES IDX 9 66 10 67 11 68 12 70 13 71 14 72 30 73 15 74 29 75 24 76
REMARK SMILES IDX 28 77 25 78 27 79 26 80 16 81 17 82 18 83 19 84 23 85 20 86
REMARK SMILES IDX 22 87 21 88
REMARK H PARENT 3 7 78 25 52 36 10 69
REMARK Flexibility Score: inf
ROOT
ATOM      1  C   UNL A   1      37.210  21.230  24.602  1.00  0.00     0.002 C 
ENDROOT
BRANCH   1   2
ATOM      2  C   UNL A   1      38.065  19.999  24.884  1.00  0.00     0.021 C 
BRANCH   2   3
ATOM      3  C   UNL A   1      39.071  20.188  26.003  1.00  0.00     0.116 C 
BRANCH   3   4
ATOM      4  N   UNL A   1      40.180  19.257  25.909  1.00  0.00    -0.352 N 
ATOM      5  O   UNL A   1      42.364  18.685  25.777  1.00  0.00    -0.269 OA
ATOM      6  C   UNL A   1      41.521  19.527  26.042  1.00  0.00     0.251 C 
ATOM      7  H   UNL A   1      39.944  18.318  25.727  1.00  0.00     0.163 HD
BRANCH   6   8
ATOM      8  C   UNL A   1      41.924  20.874  26.497  1.00  0.00     0.039 A 
ATOM      9  C   UNL A   1      42.166  21.886  25.564  1.00  0.00     0.014 A 
ATOM     10  C   UNL A   1      42.086  21.114  27.862  1.00  0.00     0.014 A 
ATOM     11  C   UNL A   1      42.680  23.103  25.986  1.00  0.00     0.010 A 
ATOM     12  C   UNL A   1      42.515  22.371  28.294  1.00  0.00     0.010 A 
ATOM     13  C   UNL A   1      42.826  23.370  27.357  1.00  0.00    -0.014 A 
BRANCH  13  14
ATOM     14  C   UNL A   1      43.185  24.742  27.784  1.00  0.00     0.031 A 
ATOM     15  C   UNL A   1      44.614  25.184  27.898  1.00  0.00     0.074 A 
ATOM     16  C   UNL A   1      42.179  25.595  28.064  1.00  0.00     0.049 A 
ATOM     17  N   UNL A   1      45.083  26.349  28.265  1.00  0.00    -0.248 NA
ATOM     18  C   UNL A   1      45.651  24.197  27.564  1.00  0.00     0.031 C 
ATOM     19  C   UNL A   1      40.752  25.261  28.006  1.00  0.00     0.029 A 
ATOM     20  N   UNL A   1      42.193  26.912  28.441  1.00  0.00    -0.354 N 
ATOM     21  C   UNL A   1      46.466  26.232  28.228  1.00  0.00     0.074 A 
ATOM     22  C   UNL A   1      46.764  24.877  27.815  1.00  0.00     0.031 C 
ATOM     23  C   UNL A   1      40.031  26.352  28.294  1.00  0.00     0.029 A 
ATOM     24  C   UNL A   1      40.940  27.441  28.625  1.00  0.00     0.049 A 
ATOM     25  H   UNL A   1      43.022  27.428  28.566  1.00  0.00     0.167 HD
ATOM     26  C   UNL A   1      47.396  27.176  28.511  1.00  0.00     0.037 A 
ATOM     27  C   UNL A   1      40.561  28.662  29.043  1.00  0.00     0.037 A 
ATOM     28  C   UNL A   1      47.086  28.527  28.904  1.00  0.00     0.049 A 
ATOM     29  C   UNL A   1      41.618  29.674  29.367  1.00  0.00     0.074 A 
ATOM     30  C   UNL A   1      47.959  29.571  29.163  1.00  0.00     0.029 A 
ATOM     31  N   UNL A   1      45.805  29.021  29.102  1.00  0.00    -0.354 N 
ATOM     32  N   UNL A   1      42.920  29.562  29.282  1.00  0.00    -0.248 NA
ATOM     33  C   UNL A   1      41.153  30.979  29.853  1.00  0.00     0.031 C 
ATOM     34  C   UNL A   1      47.209  30.681  29.562  1.00  0.00     0.029 A 
ATOM     35  C   UNL A   1      45.866  30.346  29.506  1.00  0.00     0.049 A 
ATOM     36  H   UNL A   1      44.976  28.507  28.974  1.00  0.00     0.167 HD
ATOM     37  C   UNL A   1      43.432  30.785  29.689  1.00  0.00     0.074 A 
ATOM     38  C   UNL A   1      42.297  31.632  29.997  1.00  0.00     0.031 C 
ATOM     39  C   UNL A   1      44.726  31.171  29.807  1.00  0.00     0.037 A 
BRANCH  26  40
ATOM     40  C   UNL A   1      48.843  26.789  28.423  1.00  0.00     0.057 A 
ATOM     41  C   UNL A   1      49.514  26.182  29.491  1.00  0.00     0.134 A 
ATOM     42  C   UNL A   1      49.549  26.945  27.223  1.00  0.00     0.134 A 
ATOM     43  F   UNL A   1      48.899  26.009  30.670  1.00  0.00    -0.206 F 
ATOM     44  C   UNL A   1      50.838  25.750  29.371  1.00  0.00     0.040 A 
ATOM     45  C   UNL A   1      50.865  26.499  27.083  1.00  0.00     0.040 A 
ATOM     46  F   UNL A   1      48.963  27.513  26.157  1.00  0.00    -0.206 F 
ATOM     47  C   UNL A   1      51.512  25.899  28.160  1.00  0.00     0.006 A 
ENDBRANCH  26  40
BRANCH  27  48
ATOM     48  C   UNL A   1      39.120  28.978  29.201  1.00  0.00     0.057 A 
ATOM     49  C   UNL A   1      38.470  28.805  30.427  1.00  0.00     0.134 A 
ATOM     50  C   UNL A   1      38.359  29.458  28.128  1.00  0.00     0.134 A 
ATOM     51  F   UNL A   1      39.141  28.335  31.488  1.00  0.00    -0.206 F 
ATOM     52  C   UNL A   1      37.109  29.077  30.575  1.00  0.00     0.040 A 
ATOM     53  C   UNL A   1      37.006  29.763  28.269  1.00  0.00     0.040 A 
ATOM     54  F   UNL A   1      38.928  29.657  26.929  1.00  0.00    -0.206 F 
ATOM     55  C   UNL A   1      36.374  29.563  29.494  1.00  0.00     0.006 A 
ENDBRANCH  27  48
BRANCH  39  56
ATOM     56  C   UNL A   1      44.971  32.577  30.265  1.00  0.00     0.057 A 
ATOM     57  C   UNL A   1      45.036  33.645  29.362  1.00  0.00     0.134 A 
ATOM     58  C   UNL A   1      45.127  32.866  31.626  1.00  0.00     0.134 A 
ATOM     59  F   UNL A   1      44.911  33.430  28.044  1.00  0.00    -0.206 F 
ATOM     60  C   UNL A   1      45.275  34.950  29.794  1.00  0.00     0.040 A 
ATOM     61  C   UNL A   1      45.340  34.170  32.074  1.00  0.00     0.040 A 
ATOM     62  F   UNL A   1      45.070  31.887  32.542  1.00  0.00    -0.206 F 
ATOM     63  C   UNL A   1      45.422  35.215  31.155  1.00  0.00     0.006 A 
ENDBRANCH  39  56
ENDBRANCH  13  14
ENDBRANCH   6   8
ENDBRANCH   3   4
ENDBRANCH   2   3
ENDBRANCH   1   2
BRANCH   1  64
ATOM     64  C   UNL A   1      37.316  22.348  25.645  1.00  0.00     0.002 C 
BRANCH  64  65
ATOM     65  C   UNL A   1      36.784  23.724  25.211  1.00  0.00     0.021 C 
BRANCH  65  66
ATOM     66  C   UNL A   1      35.264  23.866  25.238  1.00  0.00     0.116 C 
BRANCH  66  67
ATOM     67  N   UNL A   1      34.772  24.207  23.927  1.00  0.00    -0.353 N 
ATOM     68  C   UNL A   1      34.137  25.327  23.510  1.00  0.00     0.262 C 
ATOM     69  H   UNL A   1      34.919  23.524  23.234  1.00  0.00     0.163 HD
ATOM     70  O   UNL A   1      33.689  25.301  22.364  1.00  0.00    -0.271 OA
BRANCH  68  71
ATOM     71  C   UNL A   1      33.989  26.515  24.473  1.00  0.00     0.281 C 
ATOM     72  C   UNL A   1      33.314  26.099  25.766  1.00  0.00     0.181 C 
ATOM     73  O   UNL A   1      33.303  27.620  23.897  1.00  0.00    -0.477 OA
ATOM     74  N   UNL A   1      31.959  25.616  25.537  1.00  0.00    -0.304 N 
ATOM     75  C   UNL A   1      31.937  27.439  23.859  1.00  0.00     0.144 A 
ATOM     76  C   UNL A   1      31.235  26.457  24.602  1.00  0.00     0.086 A 
ATOM     77  C   UNL A   1      31.277  28.311  22.985  1.00  0.00     0.049 A 
ATOM     78  C   UNL A   1      29.854  26.372  24.396  1.00  0.00     0.030 A 
ATOM     79  C   UNL A   1      29.905  28.204  22.804  1.00  0.00     0.004 A 
ATOM     80  C   UNL A   1      29.196  27.232  23.502  1.00  0.00     0.002 A 
BRANCH  74  81
ATOM     81  C   UNL A   1      31.474  24.405  26.036  1.00  0.00     0.230 C 
ATOM     82  O   UNL A   1      31.458  24.146  27.248  1.00  0.00    -0.274 OA
BRANCH  81  83
ATOM     83  C   UNL A   1      30.946  23.272  25.104  1.00  0.00     0.083 C 
ATOM     84  C   UNL A   1      31.209  23.375  23.592  1.00  0.00     0.040 C 
ATOM     85  C   UNL A   1      31.086  21.854  25.671  1.00  0.00     0.018 C 
ATOM     86  C   UNL A   1      32.115  22.326  23.007  1.00  0.00    -0.030 C 
ATOM     87  C   UNL A   1      32.264  21.035  25.144  1.00  0.00     0.028 C 
ATOM     88  C   UNL A   1      32.593  21.284  23.703  1.00  0.00    -0.031 C 
ENDBRANCH  81  83
ENDBRANCH  74  81
ENDBRANCH  68  71
ENDBRANCH  66  67
ENDBRANCH  65  66
ENDBRANCH  64  65
ENDBRANCH   1  64
TORSDOF 15
ENDMDL
