MODEL 1
REMARK VINA RESULT:     -13.1      0.000      0.000
REMARK SMILES COc1cc([C@@H]2CC(=O)Nc3c(C(=O)NCCCCCCNC(=O)c4ccc(-c5c6nc(c(-c7c(F)cccc7F)c7ccc([nH]7)c(-c7c(F)cccc7F)c7nc(c(-c8c(F)cccc8F)c8ccc5[nH]8)C=C7)C=C6)cc4)cn(-c4ccc(F)cc4)c32)c(OC)c2c1OCO2
REMARK SMILES IDX 18 1 17 2 16 3 15 4 13 5 14 6 12 8 6 9 7 10 88 11 8 12 11 13
REMARK SMILES IDX 80 14 9 15 10 16 79 17 5 19 3 20 4 21 93 22 92 23 94 24
REMARK SMILES IDX 89 25 96 26 95 27 2 28 1 29 90 30 91 31 81 32 82 33 87 34
REMARK SMILES IDX 83 35 86 36 84 37 85 38 19 39 20 40 21 41 22 42 23 43 24 45
REMARK SMILES IDX 25 46 26 47 78 48 27 49 77 50 28 51 29 52 30 53 71 54 31 55
REMARK SMILES IDX 76 56 70 57 72 58 32 59 75 60 69 61 68 62 33 64 59 65 42 66
REMARK SMILES IDX 58 67 43 68 46 69 57 70 73 71 44 72 45 73 56 75 74 76 47 77
REMARK SMILES IDX 34 78 35 79 40 80 36 81 37 82 39 83 41 84 38 85 60 86 61 87
REMARK SMILES IDX 66 88 62 89 63 90 65 91 67 92 64 93 48 94 49 95 54 96 50 97
REMARK SMILES IDX 51 98 53 99 55 100 52 101
REMARK H PARENT 15 7 10 18 22 44 72 63 46 74
REMARK Flexibility Score: inf
ROOT
ATOM      1  C   UNL A   1      37.359  21.265  24.857  1.00  0.00     0.002 C 
ENDROOT
BRANCH   1   2
ATOM      2  C   UNL A   1      37.028  22.618  24.227  1.00  0.00     0.021 C 
BRANCH   2   3
ATOM      3  C   UNL A   1      35.567  22.748  23.778  1.00  0.00     0.116 C 
BRANCH   3   4
ATOM      4  N   UNL A   1      34.692  22.587  24.912  1.00  0.00    -0.352 N 
ATOM      5  C   UNL A   1      33.842  23.439  25.560  1.00  0.00     0.254 C 
ATOM      6  O   UNL A   1      33.249  22.951  26.527  1.00  0.00    -0.269 OA
ATOM      7  H   UNL A   1      34.711  21.681  25.298  1.00  0.00     0.163 HD
BRANCH   5   8
ATOM      8  C   UNL A   1      33.561  24.813  25.130  1.00  0.00     0.081 A 
ATOM      9  C   UNL A   1      32.587  27.843  23.164  1.00  0.00     0.082 C 
ATOM     10  C   UNL A   1      33.104  27.429  21.782  1.00  0.00     0.115 C 
ATOM     11  C   UNL A   1      32.958  26.813  24.196  1.00  0.00     0.055 A 
ATOM     12  C   UNL A   1      33.086  25.939  21.530  1.00  0.00     0.225 C 
ATOM     13  C   UNL A   1      33.307  25.506  23.909  1.00  0.00     0.076 A 
ATOM     14  N   UNL A   1      33.180  27.021  25.540  1.00  0.00    -0.317 N 
ATOM     15  O   UNL A   1      32.991  25.468  20.395  1.00  0.00    -0.275 OA
ATOM     16  N   UNL A   1      33.344  25.114  22.592  1.00  0.00    -0.324 N 
ATOM     17  C   UNL A   1      33.571  25.827  26.089  1.00  0.00     0.107 A 
ATOM     18  H   UNL A   1      33.571  24.176  22.398  1.00  0.00     0.170 HD
BRANCH   9  19
ATOM     19  C   UNL A   1      31.104  28.218  23.108  1.00  0.00     0.012 A 
ATOM     20  C   UNL A   1      29.495  29.997  22.576  1.00  0.00     0.165 A 
ATOM     21  C   UNL A   1      30.796  29.505  22.587  1.00  0.00     0.059 A 
ATOM     22  C   UNL A   1      28.486  29.153  22.986  1.00  0.00     0.211 A 
ATOM     23  C   UNL A   1      28.753  27.875  23.444  1.00  0.00     0.211 A 
ATOM     24  O   UNL A   1      27.154  29.438  22.981  1.00  0.00    -0.449 OA
ATOM     25  C   UNL A   1      30.049  27.376  23.530  1.00  0.00     0.168 A 
ATOM     26  O   UNL A   1      27.599  27.228  23.786  1.00  0.00    -0.449 OA
ATOM     27  C   UNL A   1      26.599  28.182  23.397  1.00  0.00     0.468 C 
BRANCH  20  28
ATOM     28  O   UNL A   1      29.321  31.272  22.123  1.00  0.00    -0.493 OA
ATOM     29  C   UNL A   1      28.686  32.110  23.089  1.00  0.00     0.278 C 
ENDBRANCH  20  28
BRANCH  25  30
ATOM     30  O   UNL A   1      30.406  26.142  23.986  1.00  0.00    -0.492 OA
ATOM     31  C   UNL A   1      29.906  25.703  25.241  1.00  0.00     0.278 C 
ENDBRANCH  25  30
ENDBRANCH   9  19
BRANCH  14  32
ATOM     32  C   UNL A   1      33.172  28.256  26.224  1.00  0.00     0.046 A 
ATOM     33  C   UNL A   1      31.976  28.958  26.384  1.00  0.00     0.029 A 
ATOM     34  C   UNL A   1      34.384  28.801  26.663  1.00  0.00     0.029 A 
ATOM     35  C   UNL A   1      32.001  30.260  26.879  1.00  0.00     0.041 A 
ATOM     36  C   UNL A   1      34.401  30.104  27.160  1.00  0.00     0.041 A 
ATOM     37  C   UNL A   1      33.216  30.829  27.242  1.00  0.00     0.123 A 
ATOM     38  F   UNL A   1      33.244  32.096  27.674  1.00  0.00    -0.207 F 
ENDBRANCH  14  32
ENDBRANCH   5   8
ENDBRANCH   3   4
ENDBRANCH   2   3
ENDBRANCH   1   2
BRANCH   1  39
ATOM     39  C   UNL A   1      38.706  21.212  25.598  1.00  0.00     0.002 C 
BRANCH  39  40
ATOM     40  C   UNL A   1      39.092  22.462  26.406  1.00  0.00     0.021 C 
BRANCH  40  41
ATOM     41  C   UNL A   1      40.354  22.279  27.234  1.00  0.00     0.116 C 
BRANCH  41  42
ATOM     42  N   UNL A   1      41.556  22.255  26.392  1.00  0.00    -0.352 N 
ATOM     43  C   UNL A   1      42.286  23.295  25.845  1.00  0.00     0.251 C 
ATOM     44  H   UNL A   1      41.898  21.355  26.184  1.00  0.00     0.163 HD
ATOM     45  O   UNL A   1      43.036  23.108  24.904  1.00  0.00    -0.269 OA
BRANCH  43  46
ATOM     46  C   UNL A   1      42.148  24.638  26.431  1.00  0.00     0.039 A 
ATOM     47  C   UNL A   1      41.282  25.601  25.904  1.00  0.00     0.014 A 
ATOM     48  C   UNL A   1      42.909  24.916  27.556  1.00  0.00     0.014 A 
ATOM     49  C   UNL A   1      41.172  26.822  26.563  1.00  0.00     0.010 A 
ATOM     50  C   UNL A   1      42.583  25.973  28.346  1.00  0.00     0.010 A 
ATOM     51  C   UNL A   1      41.830  26.990  27.790  1.00  0.00    -0.014 A 
BRANCH  51  52
ATOM     52  C   UNL A   1      41.704  28.199  28.587  1.00  0.00     0.031 A 
ATOM     53  C   UNL A   1      42.802  29.159  28.346  1.00  0.00     0.074 A 
ATOM     54  C   UNL A   1      40.570  28.507  29.255  1.00  0.00     0.049 A 
ATOM     55  N   UNL A   1      43.807  29.410  29.114  1.00  0.00    -0.248 NA
ATOM     56  C   UNL A   1      42.913  29.758  27.004  1.00  0.00     0.031 C 
ATOM     57  C   UNL A   1      39.283  27.790  29.234  1.00  0.00     0.029 A 
ATOM     58  N   UNL A   1      40.283  29.598  30.018  1.00  0.00    -0.354 N 
ATOM     59  C   UNL A   1      44.519  30.413  28.463  1.00  0.00     0.074 A 
ATOM     60  C   UNL A   1      44.087  30.386  27.094  1.00  0.00     0.031 C 
ATOM     61  C   UNL A   1      38.310  28.576  29.741  1.00  0.00     0.029 A 
ATOM     62  C   UNL A   1      38.929  29.764  30.294  1.00  0.00     0.049 A 
ATOM     63  H   UNL A   1      40.975  30.218  30.345  1.00  0.00     0.167 HD
ATOM     64  C   UNL A   1      45.111  31.404  29.186  1.00  0.00     0.037 A 
ATOM     65  C   UNL A   1      38.359  30.819  30.926  1.00  0.00     0.037 A 
ATOM     66  C   UNL A   1      45.118  31.059  30.588  1.00  0.00     0.049 A 
ATOM     67  C   UNL A   1      39.432  31.499  31.687  1.00  0.00     0.074 A 
ATOM     68  C   UNL A   1      45.765  30.148  31.392  1.00  0.00     0.029 A 
ATOM     69  N   UNL A   1      43.994  31.474  31.253  1.00  0.00    -0.354 N 
ATOM     70  N   UNL A   1      40.063  30.951  32.690  1.00  0.00    -0.248 NA
ATOM     71  C   UNL A   1      40.094  32.653  31.091  1.00  0.00     0.031 C 
ATOM     72  C   UNL A   1      44.872  29.880  32.473  1.00  0.00     0.029 A 
ATOM     73  C   UNL A   1      43.733  30.674  32.330  1.00  0.00     0.049 A 
ATOM     74  H   UNL A   1      43.446  32.249  30.991  1.00  0.00     0.167 HD
ATOM     75  C   UNL A   1      41.363  31.406  32.572  1.00  0.00     0.074 A 
ATOM     76  C   UNL A   1      41.283  32.567  31.692  1.00  0.00     0.031 C 
ATOM     77  C   UNL A   1      42.415  30.611  32.926  1.00  0.00     0.037 A 
BRANCH  64  78
ATOM     78  C   UNL A   1      45.191  32.859  28.764  1.00  0.00     0.057 A 
ATOM     79  C   UNL A   1      43.990  33.542  28.490  1.00  0.00     0.134 A 
ATOM     80  C   UNL A   1      46.357  33.510  28.312  1.00  0.00     0.134 A 
ATOM     81  F   UNL A   1      42.806  33.027  28.855  1.00  0.00    -0.206 F 
ATOM     82  C   UNL A   1      43.952  34.735  27.756  1.00  0.00     0.040 A 
ATOM     83  C   UNL A   1      46.334  34.725  27.622  1.00  0.00     0.040 A 
ATOM     84  F   UNL A   1      47.576  32.968  28.411  1.00  0.00    -0.206 F 
ATOM     85  C   UNL A   1      45.126  35.327  27.313  1.00  0.00     0.006 A 
ENDBRANCH  64  78
BRANCH  65  86
ATOM     86  C   UNL A   1      37.034  31.433  30.689  1.00  0.00     0.057 A 
ATOM     87  C   UNL A   1      36.078  31.534  31.709  1.00  0.00     0.134 A 
ATOM     88  C   UNL A   1      36.782  32.188  29.530  1.00  0.00     0.134 A 
ATOM     89  F   UNL A   1      36.249  30.881  32.867  1.00  0.00    -0.206 F 
ATOM     90  C   UNL A   1      34.950  32.360  31.595  1.00  0.00     0.040 A 
ATOM     91  C   UNL A   1      35.661  33.015  29.402  1.00  0.00     0.040 A 
ATOM     92  F   UNL A   1      37.667  32.218  28.522  1.00  0.00    -0.206 F 
ATOM     93  C   UNL A   1      34.746  33.115  30.442  1.00  0.00     0.006 A 
ENDBRANCH  65  86
BRANCH  77  94
ATOM     94  C   UNL A   1      42.150  29.483  33.877  1.00  0.00     0.057 A 
ATOM     95  C   UNL A   1      41.917  28.153  33.501  1.00  0.00     0.134 A 
ATOM     96  C   UNL A   1      42.275  29.744  35.247  1.00  0.00     0.134 A 
ATOM     97  F   UNL A   1      41.851  27.798  32.212  1.00  0.00    -0.206 F 
ATOM     98  C   UNL A   1      41.797  27.134  34.450  1.00  0.00     0.040 A 
ATOM     99  C   UNL A   1      42.190  28.732  36.202  1.00  0.00     0.040 A 
ATOM    100  F   UNL A   1      42.538  30.990  35.673  1.00  0.00    -0.206 F 
ATOM    101  C   UNL A   1      41.945  27.421  35.805  1.00  0.00     0.006 A 
ENDBRANCH  77  94
ENDBRANCH  51  52
ENDBRANCH  43  46
ENDBRANCH  41  42
ENDBRANCH  40  41
ENDBRANCH  39  40
ENDBRANCH   1  39
TORSDOF 17
ENDMDL
MODEL 2
REMARK VINA RESULT:     -12.8      1.829      5.732
REMARK SMILES COc1cc([C@@H]2CC(=O)Nc3c(C(=O)NCCCCCCNC(=O)c4ccc(-c5c6nc(c(-c7c(F)cccc7F)c7ccc([nH]7)c(-c7c(F)cccc7F)c7nc(c(-c8c(F)cccc8F)c8ccc5[nH]8)C=C7)C=C6)cc4)cn(-c4ccc(F)cc4)c32)c(OC)c2c1OCO2
REMARK SMILES IDX 18 1 17 2 16 3 15 4 13 5 14 6 12 8 6 9 7 10 88 11 8 12 11 13
REMARK SMILES IDX 80 14 9 15 10 16 79 17 5 19 3 20 4 21 93 22 92 23 94 24
REMARK SMILES IDX 89 25 96 26 95 27 2 28 1 29 90 30 91 31 81 32 82 33 87 34
REMARK SMILES IDX 83 35 86 36 84 37 85 38 19 39 20 40 21 41 22 42 23 43 24 45
REMARK SMILES IDX 25 46 26 47 78 48 27 49 77 50 28 51 29 52 30 53 71 54 31 55
REMARK SMILES IDX 76 56 70 57 72 58 32 59 75 60 69 61 68 62 33 64 59 65 42 66
REMARK SMILES IDX 58 67 43 68 46 69 57 70 73 71 44 72 45 73 56 75 74 76 47 77
REMARK SMILES IDX 34 78 35 79 40 80 36 81 37 82 39 83 41 84 38 85 60 86 61 87
REMARK SMILES IDX 66 88 62 89 63 90 65 91 67 92 64 93 48 94 49 95 54 96 50 97
REMARK SMILES IDX 51 98 53 99 55 100 52 101
REMARK H PARENT 15 7 10 18 22 44 72 63 46 74
REMARK Flexibility Score: inf
ROOT
ATOM      1  C   UNL A   1      37.193  21.667  24.533  1.00  0.00     0.002 C 
ENDROOT
BRANCH   1   2
ATOM      2  C   UNL A   1      36.629  22.690  23.547  1.00  0.00     0.021 C 
BRANCH   2   3
ATOM      3  C   UNL A   1      35.096  22.691  23.469  1.00  0.00     0.116 C 
BRANCH   3   4
ATOM      4  N   UNL A   1      34.540  22.650  24.798  1.00  0.00    -0.352 N 
ATOM      5  C   UNL A   1      33.936  23.591  25.584  1.00  0.00     0.254 C 
ATOM      6  O   UNL A   1      33.591  23.195  26.702  1.00  0.00    -0.269 OA
ATOM      7  H   UNL A   1      34.610  21.765  25.226  1.00  0.00     0.163 HD
BRANCH   5   8
ATOM      8  C   UNL A   1      33.628  24.957  25.150  1.00  0.00     0.081 A 
ATOM      9  C   UNL A   1      32.590  27.960  23.175  1.00  0.00     0.082 C 
ATOM     10  C   UNL A   1      33.111  27.551  21.793  1.00  0.00     0.115 C 
ATOM     11  C   UNL A   1      32.984  26.941  24.209  1.00  0.00     0.055 A 
ATOM     12  C   UNL A   1      33.120  26.059  21.546  1.00  0.00     0.225 C 
ATOM     13  C   UNL A   1      33.357  25.641  23.926  1.00  0.00     0.076 A 
ATOM     14  N   UNL A   1      33.206  27.160  25.552  1.00  0.00    -0.317 N 
ATOM     15  O   UNL A   1      33.031  25.582  20.414  1.00  0.00    -0.275 OA
ATOM     16  N   UNL A   1      33.397  25.243  22.611  1.00  0.00    -0.324 N 
ATOM     17  C   UNL A   1      33.621  25.975  26.104  1.00  0.00     0.107 A 
ATOM     18  H   UNL A   1      33.642  24.310  22.421  1.00  0.00     0.170 HD
BRANCH   9  19
ATOM     19  C   UNL A   1      31.101  28.306  23.121  1.00  0.00     0.012 A 
ATOM     20  C   UNL A   1      29.457  30.059  22.607  1.00  0.00     0.165 A 
ATOM     21  C   UNL A   1      30.768  29.592  22.614  1.00  0.00     0.059 A 
ATOM     22  C   UNL A   1      28.464  29.191  23.008  1.00  0.00     0.211 A 
ATOM     23  C   UNL A   1      28.756  27.914  23.453  1.00  0.00     0.211 A 
ATOM     24  O   UNL A   1      27.127  29.450  23.005  1.00  0.00    -0.449 OA
ATOM     25  C   UNL A   1      30.062  27.440  23.535  1.00  0.00     0.168 A 
ATOM     26  O   UNL A   1      27.615  27.241  23.788  1.00  0.00    -0.449 OA
ATOM     27  C   UNL A   1      26.597  28.180  23.408  1.00  0.00     0.468 C 
BRANCH  20  28
ATOM     28  O   UNL A   1      29.258  31.334  22.167  1.00  0.00    -0.493 OA
ATOM     29  C   UNL A   1      28.881  32.220  23.221  1.00  0.00     0.278 C 
ENDBRANCH  20  28
BRANCH  25  30
ATOM     30  O   UNL A   1      30.442  26.208  23.979  1.00  0.00    -0.492 OA
ATOM     31  C   UNL A   1      29.869  25.702  25.175  1.00  0.00     0.278 C 
ENDBRANCH  25  30
ENDBRANCH   9  19
BRANCH  14  32
ATOM     32  C   UNL A   1      33.176  28.396  26.231  1.00  0.00     0.046 A 
ATOM     33  C   UNL A   1      31.984  29.117  26.319  1.00  0.00     0.029 A 
ATOM     34  C   UNL A   1      34.369  28.926  26.738  1.00  0.00     0.029 A 
ATOM     35  C   UNL A   1      31.999  30.420  26.811  1.00  0.00     0.041 A 
ATOM     36  C   UNL A   1      34.377  30.230  27.232  1.00  0.00     0.041 A 
ATOM     37  C   UNL A   1      33.199  30.972  27.243  1.00  0.00     0.123 A 
ATOM     38  F   UNL A   1      33.221  32.240  27.672  1.00  0.00    -0.207 F 
ENDBRANCH  14  32
ENDBRANCH   5   8
ENDBRANCH   3   4
ENDBRANCH   2   3
ENDBRANCH   1   2
BRANCH   1  39
ATOM     39  C   UNL A   1      38.015  22.268  25.685  1.00  0.00     0.002 C 
BRANCH  39  40
ATOM     40  C   UNL A   1      37.711  23.730  26.053  1.00  0.00     0.021 C 
BRANCH  40  41
ATOM     41  C   UNL A   1      38.809  24.387  26.873  1.00  0.00     0.116 C 
BRANCH  41  42
ATOM     42  N   UNL A   1      39.974  24.725  26.047  1.00  0.00    -0.352 N 
ATOM     43  C   UNL A   1      40.743  25.874  26.013  1.00  0.00     0.251 C 
ATOM     44  H   UNL A   1      40.252  24.022  25.417  1.00  0.00     0.163 HD
ATOM     45  O   UNL A   1      41.445  26.132  25.051  1.00  0.00    -0.269 OA
BRANCH  43  46
ATOM     46  C   UNL A   1      40.709  26.781  27.173  1.00  0.00     0.039 A 
ATOM     47  C   UNL A   1      41.005  26.350  28.470  1.00  0.00     0.014 A 
ATOM     48  C   UNL A   1      40.383  28.106  26.927  1.00  0.00     0.014 A 
ATOM     49  C   UNL A   1      41.008  27.293  29.494  1.00  0.00     0.010 A 
ATOM     50  C   UNL A   1      40.671  29.054  27.858  1.00  0.00     0.010 A 
ATOM     51  C   UNL A   1      40.841  28.647  29.168  1.00  0.00    -0.014 A 
BRANCH  51  52
ATOM     52  C   UNL A   1      40.914  29.705  30.160  1.00  0.00     0.031 A 
ATOM     53  C   UNL A   1      39.604  30.344  30.411  1.00  0.00     0.074 A 
ATOM     54  C   UNL A   1      42.000  29.885  30.946  1.00  0.00     0.049 A 
ATOM     55  N   UNL A   1      39.204  31.499  30.002  1.00  0.00    -0.248 NA
ATOM     56  C   UNL A   1      38.538  29.519  31.007  1.00  0.00     0.031 C 
ATOM     57  C   UNL A   1      43.206  29.043  31.029  1.00  0.00     0.029 A 
ATOM     58  N   UNL A   1      42.216  30.802  31.929  1.00  0.00    -0.354 N 
ATOM     59  C   UNL A   1      37.929  31.652  30.541  1.00  0.00     0.074 A 
ATOM     60  C   UNL A   1      37.486  30.335  30.901  1.00  0.00     0.031 C 
ATOM     61  C   UNL A   1      43.899  29.341  32.149  1.00  0.00     0.029 A 
ATOM     62  C   UNL A   1      43.298  30.512  32.756  1.00  0.00     0.049 A 
ATOM     63  H   UNL A   1      41.654  31.602  32.045  1.00  0.00     0.167 HD
ATOM     64  C   UNL A   1      37.519  32.876  30.977  1.00  0.00     0.037 A 
ATOM     65  C   UNL A   1      43.661  31.187  33.873  1.00  0.00     0.037 A 
ATOM     66  C   UNL A   1      38.435  33.897  30.526  1.00  0.00     0.049 A 
ATOM     67  C   UNL A   1      43.041  32.529  33.789  1.00  0.00     0.074 A 
ATOM     68  C   UNL A   1      38.766  34.486  29.327  1.00  0.00     0.029 A 
ATOM     69  N   UNL A   1      39.470  34.118  31.396  1.00  0.00    -0.354 N 
ATOM     70  N   UNL A   1      43.355  33.413  32.881  1.00  0.00    -0.248 NA
ATOM     71  C   UNL A   1      41.776  32.763  34.474  1.00  0.00     0.031 C 
ATOM     72  C   UNL A   1      40.130  34.888  29.454  1.00  0.00     0.029 A 
ATOM     73  C   UNL A   1      40.576  34.585  30.741  1.00  0.00     0.049 A 
ATOM     74  H   UNL A   1      39.425  33.963  32.367  1.00  0.00     0.167 HD
ATOM     75  C   UNL A   1      42.162  34.046  32.587  1.00  0.00     0.074 A 
ATOM     76  C   UNL A   1      41.277  33.733  33.703  1.00  0.00     0.031 C 
ATOM     77  C   UNL A   1      41.899  34.484  31.320  1.00  0.00     0.037 A 
BRANCH  64  78
ATOM     78  C   UNL A   1      36.662  33.118  32.205  1.00  0.00     0.057 A 
ATOM     79  C   UNL A   1      35.506  33.912  32.068  1.00  0.00     0.134 A 
ATOM     80  C   UNL A   1      37.070  32.893  33.536  1.00  0.00     0.134 A 
ATOM     81  F   UNL A   1      35.018  34.212  30.856  1.00  0.00    -0.206 F 
ATOM     82  C   UNL A   1      34.860  34.498  33.164  1.00  0.00     0.040 A 
ATOM     83  C   UNL A   1      36.403  33.434  34.640  1.00  0.00     0.040 A 
ATOM     84  F   UNL A   1      38.190  32.235  33.851  1.00  0.00    -0.206 F 
ATOM     85  C   UNL A   1      35.312  34.266  34.456  1.00  0.00     0.006 A 
ENDBRANCH  64  78
BRANCH  65  86
ATOM     86  C   UNL A   1      44.260  30.659  35.118  1.00  0.00     0.057 A 
ATOM     87  C   UNL A   1      43.556  29.789  35.962  1.00  0.00     0.134 A 
ATOM     88  C   UNL A   1      45.640  30.774  35.364  1.00  0.00     0.134 A 
ATOM     89  F   UNL A   1      42.244  29.583  35.783  1.00  0.00    -0.206 F 
ATOM     90  C   UNL A   1      44.191  29.054  36.974  1.00  0.00     0.040 A 
ATOM     91  C   UNL A   1      46.287  30.048  36.370  1.00  0.00     0.040 A 
ATOM     92  F   UNL A   1      46.420  31.526  34.572  1.00  0.00    -0.206 F 
ATOM     93  C   UNL A   1      45.565  29.173  37.172  1.00  0.00     0.006 A 
ENDBRANCH  65  86
BRANCH  77  94
ATOM     94  C   UNL A   1      43.063  34.721  30.406  1.00  0.00     0.057 A 
ATOM     95  C   UNL A   1      43.486  33.842  29.400  1.00  0.00     0.134 A 
ATOM     96  C   UNL A   1      43.696  35.969  30.469  1.00  0.00     0.134 A 
ATOM     97  F   UNL A   1      42.893  32.656  29.222  1.00  0.00    -0.206 F 
ATOM     98  C   UNL A   1      44.506  34.186  28.508  1.00  0.00     0.040 A 
ATOM     99  C   UNL A   1      44.691  36.337  29.564  1.00  0.00     0.040 A 
ATOM    100  F   UNL A   1      43.311  36.874  31.383  1.00  0.00    -0.206 F 
ATOM    101  C   UNL A   1      45.104  35.442  28.582  1.00  0.00     0.006 A 
ENDBRANCH  77  94
ENDBRANCH  51  52
ENDBRANCH  43  46
ENDBRANCH  41  42
ENDBRANCH  40  41
ENDBRANCH  39  40
ENDBRANCH   1  39
TORSDOF 17
ENDMDL
MODEL 3
REMARK VINA RESULT:     -12.8      3.561      8.510
REMARK SMILES COc1cc([C@@H]2CC(=O)Nc3c(C(=O)NCCCCCCNC(=O)c4ccc(-c5c6nc(c(-c7c(F)cccc7F)c7ccc([nH]7)c(-c7c(F)cccc7F)c7nc(c(-c8c(F)cccc8F)c8ccc5[nH]8)C=C7)C=C6)cc4)cn(-c4ccc(F)cc4)c32)c(OC)c2c1OCO2
REMARK SMILES IDX 18 1 17 2 16 3 15 4 13 5 14 6 12 8 6 9 7 10 88 11 8 12 11 13
REMARK SMILES IDX 80 14 9 15 10 16 79 17 5 19 3 20 4 21 93 22 92 23 94 24
REMARK SMILES IDX 89 25 96 26 95 27 2 28 1 29 90 30 91 31 81 32 82 33 87 34
REMARK SMILES IDX 83 35 86 36 84 37 85 38 19 39 20 40 21 41 22 42 23 43 24 45
REMARK SMILES IDX 25 46 26 47 78 48 27 49 77 50 28 51 29 52 30 53 71 54 31 55
REMARK SMILES IDX 76 56 70 57 72 58 32 59 75 60 69 61 68 62 33 64 59 65 42 66
REMARK SMILES IDX 58 67 43 68 46 69 57 70 73 71 44 72 45 73 56 75 74 76 47 77
REMARK SMILES IDX 34 78 35 79 40 80 36 81 37 82 39 83 41 84 38 85 60 86 61 87
REMARK SMILES IDX 66 88 62 89 63 90 65 91 67 92 64 93 48 94 49 95 54 96 50 97
REMARK SMILES IDX 51 98 53 99 55 100 52 101
REMARK H PARENT 15 7 10 18 22 44 72 63 46 74
REMARK Flexibility Score: inf
ROOT
ATOM      1  C   UNL A   1      31.721  29.774  26.959  1.00  0.00     0.002 C 
ENDROOT
BRANCH   1   2
ATOM      2  C   UNL A   1      31.602  28.275  27.238  1.00  0.00     0.021 C 
BRANCH   2   3
ATOM      3  C   UNL A   1      31.093  27.463  26.040  1.00  0.00     0.116 C 
BRANCH   3   4
ATOM      4  N   UNL A   1      31.971  27.654  24.913  1.00  0.00    -0.352 N 
ATOM      5  C   UNL A   1      32.990  26.909  24.390  1.00  0.00     0.254 C 
ATOM      6  O   UNL A   1      33.546  27.402  23.403  1.00  0.00    -0.269 OA
ATOM      7  H   UNL A   1      31.802  28.490  24.420  1.00  0.00     0.163 HD
BRANCH   5   8
ATOM      8  C   UNL A   1      33.381  25.583  24.879  1.00  0.00     0.081 A 
ATOM      9  C   UNL A   1      33.364  22.101  26.246  1.00  0.00     0.082 C 
ATOM     10  C   UNL A   1      32.220  22.227  27.258  1.00  0.00     0.115 C 
ATOM     11  C   UNL A   1      33.658  23.433  25.612  1.00  0.00     0.055 A 
ATOM     12  C   UNL A   1      31.157  23.231  26.875  1.00  0.00     0.225 C 
ATOM     13  C   UNL A   1      32.781  24.501  25.592  1.00  0.00     0.076 A 
ATOM     14  N   UNL A   1      34.866  23.871  25.115  1.00  0.00    -0.317 N 
ATOM     15  O   UNL A   1      29.993  23.132  27.265  1.00  0.00    -0.275 OA
ATOM     16  N   UNL A   1      31.561  24.358  26.209  1.00  0.00    -0.324 N 
ATOM     17  C   UNL A   1      34.702  25.170  24.706  1.00  0.00     0.107 A 
ATOM     18  H   UNL A   1      30.934  25.115  26.169  1.00  0.00     0.170 HD
BRANCH   9  19
ATOM     19  C   UNL A   1      33.112  20.947  25.273  1.00  0.00     0.012 A 
ATOM     20  C   UNL A   1      33.249  18.514  24.952  1.00  0.00     0.165 A 
ATOM     21  C   UNL A   1      33.349  19.636  25.770  1.00  0.00     0.059 A 
ATOM     22  C   UNL A   1      32.804  18.698  23.661  1.00  0.00     0.211 A 
ATOM     23  C   UNL A   1      32.512  19.958  23.170  1.00  0.00     0.211 A 
ATOM     24  O   UNL A   1      32.584  17.716  22.744  1.00  0.00    -0.449 OA
ATOM     25  C   UNL A   1      32.665  21.106  23.940  1.00  0.00     0.168 A 
ATOM     26  O   UNL A   1      32.085  19.889  21.873  1.00  0.00    -0.449 OA
ATOM     27  C   UNL A   1      32.039  18.471  21.653  1.00  0.00     0.468 C 
BRANCH  20  28
ATOM     28  O   UNL A   1      33.570  17.312  25.511  1.00  0.00    -0.493 OA
ATOM     29  C   UNL A   1      34.771  16.764  24.970  1.00  0.00     0.278 C 
ENDBRANCH  20  28
BRANCH  25  30
ATOM     30  O   UNL A   1      32.422  22.385  23.533  1.00  0.00    -0.492 OA
ATOM     31  C   UNL A   1      32.925  22.813  22.277  1.00  0.00     0.278 C 
ENDBRANCH  25  30
ENDBRANCH   9  19
BRANCH  14  32
ATOM     32  C   UNL A   1      36.102  23.191  25.154  1.00  0.00     0.046 A 
ATOM     33  C   UNL A   1      36.256  21.982  24.473  1.00  0.00     0.029 A 
ATOM     34  C   UNL A   1      37.137  23.699  25.949  1.00  0.00     0.029 A 
ATOM     35  C   UNL A   1      37.402  21.217  24.674  1.00  0.00     0.041 A 
ATOM     36  C   UNL A   1      38.283  22.929  26.143  1.00  0.00     0.041 A 
ATOM     37  C   UNL A   1      38.396  21.687  25.524  1.00  0.00     0.123 A 
ATOM     38  F   UNL A   1      39.476  20.930  25.753  1.00  0.00    -0.207 F 
ENDBRANCH  14  32
ENDBRANCH   5   8
ENDBRANCH   3   4
ENDBRANCH   2   3
ENDBRANCH   1   2
BRANCH   1  39
ATOM     39  C   UNL A   1      33.132  30.354  27.146  1.00  0.00     0.002 C 
BRANCH  39  40
ATOM     40  C   UNL A   1      34.294  29.345  27.138  1.00  0.00     0.021 C 
BRANCH  40  41
ATOM     41  C   UNL A   1      35.614  29.940  27.602  1.00  0.00     0.116 C 
BRANCH  41  42
ATOM     42  N   UNL A   1      35.646  30.119  29.058  1.00  0.00    -0.352 N 
ATOM     43  C   UNL A   1      36.535  29.631  29.999  1.00  0.00     0.251 C 
ATOM     44  H   UNL A   1      34.920  30.674  29.424  1.00  0.00     0.163 HD
ATOM     45  O   UNL A   1      36.235  29.580  31.178  1.00  0.00    -0.269 OA
BRANCH  43  46
ATOM     46  C   UNL A   1      37.864  29.183  29.549  1.00  0.00     0.039 A 
ATOM     47  C   UNL A   1      38.539  29.790  28.486  1.00  0.00     0.014 A 
ATOM     48  C   UNL A   1      38.441  28.129  30.241  1.00  0.00     0.014 A 
ATOM     49  C   UNL A   1      39.818  29.339  28.172  1.00  0.00     0.010 A 
ATOM     50  C   UNL A   1      39.775  27.897  30.124  1.00  0.00     0.010 A 
ATOM     51  C   UNL A   1      40.424  28.390  29.008  1.00  0.00    -0.014 A 
BRANCH  51  52
ATOM     52  C   UNL A   1      41.786  27.925  28.806  1.00  0.00     0.031 A 
ATOM     53  C   UNL A   1      41.852  26.682  28.008  1.00  0.00     0.074 A 
ATOM     54  C   UNL A   1      42.861  28.697  29.085  1.00  0.00     0.049 A 
ATOM     55  N   UNL A   1      42.088  25.489  28.435  1.00  0.00    -0.248 NA
ATOM     56  C   UNL A   1      41.399  26.737  26.607  1.00  0.00     0.031 C 
ATOM     57  C   UNL A   1      42.876  30.104  29.522  1.00  0.00     0.029 A 
ATOM     58  N   UNL A   1      44.186  28.424  28.932  1.00  0.00    -0.354 N 
ATOM     59  C   UNL A   1      42.089  24.690  27.295  1.00  0.00     0.074 A 
ATOM     60  C   UNL A   1      41.410  25.443  26.278  1.00  0.00     0.031 C 
ATOM     61  C   UNL A   1      44.114  30.620  29.368  1.00  0.00     0.029 A 
ATOM     62  C   UNL A   1      45.013  29.541  29.008  1.00  0.00     0.049 A 
ATOM     63  H   UNL A   1      44.530  27.515  28.779  1.00  0.00     0.167 HD
ATOM     64  C   UNL A   1      42.968  23.654  27.193  1.00  0.00     0.037 A 
ATOM     65  C   UNL A   1      46.347  29.573  28.777  1.00  0.00     0.037 A 
ATOM     66  C   UNL A   1      43.584  23.398  28.473  1.00  0.00     0.049 A 
ATOM     67  C   UNL A   1      46.844  28.184  28.916  1.00  0.00     0.074 A 
ATOM     68  C   UNL A   1      43.192  22.885  29.688  1.00  0.00     0.029 A 
ATOM     69  N   UNL A   1      44.726  24.127  28.679  1.00  0.00    -0.354 N 
ATOM     70  N   UNL A   1      46.827  27.522  30.041  1.00  0.00    -0.248 NA
ATOM     71  C   UNL A   1      47.002  27.371  27.716  1.00  0.00     0.031 C 
ATOM     72  C   UNL A   1      44.028  23.510  30.663  1.00  0.00     0.029 A 
ATOM     73  C   UNL A   1      44.941  24.341  30.012  1.00  0.00     0.049 A 
ATOM     74  H   UNL A   1      45.316  24.455  27.962  1.00  0.00     0.167 HD
ATOM     75  C   UNL A   1      46.543  26.220  29.672  1.00  0.00     0.074 A 
ATOM     76  C   UNL A   1      46.831  26.155  28.244  1.00  0.00     0.031 C 
ATOM     77  C   UNL A   1      45.792  25.416  30.480  1.00  0.00     0.037 A 
BRANCH  64  78
ATOM     78  C   UNL A   1      43.672  23.235  25.916  1.00  0.00     0.057 A 
ATOM     79  C   UNL A   1      43.643  21.875  25.551  1.00  0.00     0.134 A 
ATOM     80  C   UNL A   1      44.623  24.013  25.222  1.00  0.00     0.134 A 
ATOM     81  F   UNL A   1      42.794  21.022  26.143  1.00  0.00    -0.206 F 
ATOM     82  C   UNL A   1      44.540  21.323  24.628  1.00  0.00     0.040 A 
ATOM     83  C   UNL A   1      45.490  23.480  24.263  1.00  0.00     0.040 A 
ATOM     84  F   UNL A   1      44.848  25.301  25.498  1.00  0.00    -0.206 F 
ATOM     85  C   UNL A   1      45.473  22.124  23.986  1.00  0.00     0.006 A 
ENDBRANCH  64  78
BRANCH  65  86
ATOM     86  C   UNL A   1      47.156  30.655  28.172  1.00  0.00     0.057 A 
ATOM     87  C   UNL A   1      46.807  31.236  26.946  1.00  0.00     0.134 A 
ATOM     88  C   UNL A   1      48.132  31.335  28.922  1.00  0.00     0.134 A 
ATOM     89  F   UNL A   1      45.859  30.683  26.177  1.00  0.00    -0.206 F 
ATOM     90  C   UNL A   1      47.375  32.440  26.503  1.00  0.00     0.040 A 
ATOM     91  C   UNL A   1      48.708  32.535  28.492  1.00  0.00     0.040 A 
ATOM     92  F   UNL A   1      48.489  30.902  30.141  1.00  0.00    -0.206 F 
ATOM     93  C   UNL A   1      48.320  33.101  27.284  1.00  0.00     0.006 A 
ENDBRANCH  65  86
BRANCH  77  94
ATOM     94  C   UNL A   1      45.708  25.767  31.935  1.00  0.00     0.057 A 
ATOM     95  C   UNL A   1      46.738  25.578  32.867  1.00  0.00     0.134 A 
ATOM     96  C   UNL A   1      44.570  26.454  32.374  1.00  0.00     0.134 A 
ATOM     97  F   UNL A   1      47.889  24.992  32.519  1.00  0.00    -0.206 F 
ATOM     98  C   UNL A   1      46.628  26.041  34.182  1.00  0.00     0.040 A 
ATOM     99  C   UNL A   1      44.462  26.950  33.673  1.00  0.00     0.040 A 
ATOM    100  F   UNL A   1      43.563  26.703  31.521  1.00  0.00    -0.206 F 
ATOM    101  C   UNL A   1      45.493  26.739  34.584  1.00  0.00     0.006 A 
ENDBRANCH  77  94
ENDBRANCH  51  52
ENDBRANCH  43  46
ENDBRANCH  41  42
ENDBRANCH  40  41
ENDBRANCH  39  40
ENDBRANCH   1  39
TORSDOF 17
ENDMDL
