MODEL 1
REMARK VINA RESULT:     -12.4      0.000      0.000
REMARK SMILES Cc1ccc(CN(CC(=O)NCCCCCCNC(=O)c2ccc(-c3c4nc(c(-c5c(F)cccc5F)c5ccc([nH]5)c(-c5c(F)cccc5F)c5nc(c(-c6c(F)cccc6F)c6ccc3[nH]6)C=C5)C=C4)cc2)C(=O)c2cc3c(s2)CCOC3)cc1
REMARK SMILES IDX 14 1 13 2 12 3 11 4 9 5 10 6 8 8 7 9 6 10 5 11 1 12 2 13
REMARK SMILES IDX 3 14 87 15 4 16 86 17 75 18 76 19 77 20 78 21 81 22 79 23
REMARK SMILES IDX 80 24 85 25 82 26 84 27 83 28 15 29 16 30 17 31 18 32 19 33
REMARK SMILES IDX 20 35 21 36 22 37 74 38 23 39 73 40 24 41 25 42 26 43 67 44
REMARK SMILES IDX 27 45 72 46 66 47 68 48 28 49 71 50 65 51 64 52 29 54 55 55
REMARK SMILES IDX 38 56 54 57 39 58 42 59 53 60 69 61 40 62 41 63 52 65 70 66
REMARK SMILES IDX 43 67 30 68 31 69 36 70 32 71 33 72 35 73 37 74 34 75 56 76
REMARK SMILES IDX 57 77 62 78 58 79 59 80 61 81 63 82 60 83 44 84 45 85 50 86
REMARK SMILES IDX 46 87 47 88 49 89 51 90 48 91
REMARK H PARENT 11 7 18 34 68 53 42 64
REMARK Flexibility Score: inf
ROOT
ATOM      1  C   UNL A   1      35.874  23.157  25.237  1.00  0.00     0.002 C 
ENDROOT
BRANCH   1   2
ATOM      2  C   UNL A   1      34.932  22.667  26.345  1.00  0.00     0.021 C 
BRANCH   2   3
ATOM      3  C   UNL A   1      33.532  22.240  25.904  1.00  0.00     0.116 C 
BRANCH   3   4
ATOM      4  N   UNL A   1      32.470  22.710  26.760  1.00  0.00    -0.355 N 
ATOM      5  C   UNL A   1      31.333  23.395  26.442  1.00  0.00     0.239 C 
ATOM      6  O   UNL A   1      30.401  23.329  27.251  1.00  0.00    -0.273 OA
ATOM      7  H   UNL A   1      32.581  22.506  27.717  1.00  0.00     0.163 HD
BRANCH   5   8
ATOM      8  C   UNL A   1      31.145  24.121  25.096  1.00  0.00     0.220 C 
BRANCH   8   9
ATOM      9  N   UNL A   1      31.954  25.326  24.876  1.00  0.00    -0.324 N 
BRANCH   9  10
ATOM     10  C   UNL A   1      32.922  25.697  25.904  1.00  0.00     0.156 C 
BRANCH  10  11
ATOM     11  C   UNL A   1      32.922  27.168  26.250  1.00  0.00    -0.029 A 
ATOM     12  C   UNL A   1      32.855  31.352  27.328  1.00  0.00     0.044 C 
ATOM     13  C   UNL A   1      32.880  29.896  26.969  1.00  0.00    -0.051 A 
ATOM     14  C   UNL A   1      34.001  29.344  26.339  1.00  0.00     0.004 A 
ATOM     15  C   UNL A   1      31.780  29.077  27.236  1.00  0.00     0.004 A 
ATOM     16  C   UNL A   1      34.024  27.991  25.986  1.00  0.00     0.006 A 
ATOM     17  C   UNL A   1      31.802  27.728  26.881  1.00  0.00     0.006 A 
ENDBRANCH  10  11
ENDBRANCH   9  10
BRANCH   9  18
ATOM     18  C   UNL A   1      31.991  26.041  23.665  1.00  0.00     0.264 C 
ATOM     19  O   UNL A   1      32.810  25.754  22.791  1.00  0.00    -0.268 OA
BRANCH  18  20
ATOM     20  C   UNL A   1      31.012  27.098  23.478  1.00  0.00     0.093 A 
ATOM     21  C   UNL A   1      29.665  27.133  23.786  1.00  0.00     0.032 A 
ATOM     22  S   UNL A   1      31.530  28.576  22.770  1.00  0.00    -0.135 S 
ATOM     23  C   UNL A   1      29.017  28.270  23.221  1.00  0.00    -0.008 A 
ATOM     24  C   UNL A   1      29.937  29.147  22.687  1.00  0.00     0.013 A 
ATOM     25  C   UNL A   1      27.546  28.535  23.126  1.00  0.00     0.196 C 
ATOM     26  C   UNL A   1      29.539  30.451  22.081  1.00  0.00     0.075 C 
ATOM     27  O   UNL A   1      27.240  29.882  22.702  1.00  0.00    -0.376 OA
ATOM     28  C   UNL A   1      28.078  30.321  21.619  1.00  0.00     0.166 C 
ENDBRANCH  18  20
ENDBRANCH   9  18
ENDBRANCH   8   9
ENDBRANCH   5   8
ENDBRANCH   3   4
ENDBRANCH   2   3
ENDBRANCH   1   2
BRANCH   1  29
ATOM     29  C   UNL A   1      37.281  23.612  25.653  1.00  0.00     0.002 C 
BRANCH  29  30
ATOM     30  C   UNL A   1      38.401  22.574  25.556  1.00  0.00     0.021 C 
BRANCH  30  31
ATOM     31  C   UNL A   1      39.230  22.405  26.820  1.00  0.00     0.116 C 
BRANCH  31  32
ATOM     32  N   UNL A   1      40.633  22.765  26.670  1.00  0.00    -0.352 N 
ATOM     33  C   UNL A   1      41.230  24.018  26.600  1.00  0.00     0.251 C 
ATOM     34  H   UNL A   1      41.254  22.004  26.609  1.00  0.00     0.163 HD
ATOM     35  O   UNL A   1      42.422  24.111  26.417  1.00  0.00    -0.269 OA
BRANCH  33  36
ATOM     36  C   UNL A   1      40.422  25.234  26.901  1.00  0.00     0.039 A 
ATOM     37  C   UNL A   1      40.719  26.396  26.177  1.00  0.00     0.014 A 
ATOM     38  C   UNL A   1      39.574  25.302  27.999  1.00  0.00     0.014 A 
ATOM     39  C   UNL A   1      40.405  27.640  26.721  1.00  0.00     0.010 A 
ATOM     40  C   UNL A   1      39.357  26.527  28.596  1.00  0.00     0.010 A 
ATOM     41  C   UNL A   1      39.845  27.690  27.994  1.00  0.00    -0.014 A 
BRANCH  41  42
ATOM     42  C   UNL A   1      39.860  28.883  28.832  1.00  0.00     0.031 A 
ATOM     43  C   UNL A   1      38.814  29.915  28.703  1.00  0.00     0.074 A 
ATOM     44  C   UNL A   1      40.770  28.971  29.827  1.00  0.00     0.049 A 
ATOM     45  N   UNL A   1      38.928  31.119  29.146  1.00  0.00    -0.248 NA
ATOM     46  C   UNL A   1      37.548  29.666  28.029  1.00  0.00     0.031 C 
ATOM     47  C   UNL A   1      40.774  29.904  30.950  1.00  0.00     0.029 A 
ATOM     48  N   UNL A   1      42.021  28.343  29.894  1.00  0.00    -0.354 N 
ATOM     49  C   UNL A   1      37.691  31.715  29.078  1.00  0.00     0.074 A 
ATOM     50  C   UNL A   1      36.881  30.787  28.320  1.00  0.00     0.031 C 
ATOM     51  C   UNL A   1      42.032  30.024  31.403  1.00  0.00     0.029 A 
ATOM     52  C   UNL A   1      42.890  29.285  30.494  1.00  0.00     0.049 A 
ATOM     53  H   UNL A   1      42.249  27.435  29.587  1.00  0.00     0.167 HD
ATOM     54  C   UNL A   1      37.469  32.869  29.772  1.00  0.00     0.037 A 
ATOM     55  C   UNL A   1      43.932  29.813  29.788  1.00  0.00     0.037 A 
ATOM     56  C   UNL A   1      38.692  33.353  30.416  1.00  0.00     0.049 A 
ATOM     57  C   UNL A   1      43.856  31.312  29.569  1.00  0.00     0.074 A 
ATOM     58  C   UNL A   1      39.201  33.311  31.705  1.00  0.00     0.029 A 
ATOM     59  N   UNL A   1      39.742  33.757  29.612  1.00  0.00    -0.354 N 
ATOM     60  N   UNL A   1      42.874  32.070  29.972  1.00  0.00    -0.248 NA
ATOM     61  C   UNL A   1      44.847  32.058  28.790  1.00  0.00     0.031 C 
ATOM     62  C   UNL A   1      40.574  33.692  31.657  1.00  0.00     0.029 A 
ATOM     63  C   UNL A   1      40.897  33.962  30.340  1.00  0.00     0.049 A 
ATOM     64  H   UNL A   1      39.674  33.883  28.639  1.00  0.00     0.167 HD
ATOM     65  C   UNL A   1      43.039  33.333  29.468  1.00  0.00     0.074 A 
ATOM     66  C   UNL A   1      44.297  33.283  28.748  1.00  0.00     0.031 C 
ATOM     67  C   UNL A   1      42.111  34.319  29.629  1.00  0.00     0.037 A 
BRANCH  54  68
ATOM     68  C   UNL A   1      36.097  33.438  30.058  1.00  0.00     0.057 A 
ATOM     69  C   UNL A   1      35.312  33.984  29.021  1.00  0.00     0.134 A 
ATOM     70  C   UNL A   1      35.504  33.524  31.329  1.00  0.00     0.134 A 
ATOM     71  F   UNL A   1      35.667  33.877  27.735  1.00  0.00    -0.206 F 
ATOM     72  C   UNL A   1      34.112  34.670  29.251  1.00  0.00     0.040 A 
ATOM     73  C   UNL A   1      34.335  34.256  31.582  1.00  0.00     0.040 A 
ATOM     74  F   UNL A   1      35.985  32.843  32.376  1.00  0.00    -0.206 F 
ATOM     75  C   UNL A   1      33.641  34.849  30.541  1.00  0.00     0.006 A 
ENDBRANCH  54  68
BRANCH  55  76
ATOM     76  C   UNL A   1      44.528  28.837  28.838  1.00  0.00     0.057 A 
ATOM     77  C   UNL A   1      45.372  27.834  29.346  1.00  0.00     0.134 A 
ATOM     78  C   UNL A   1      44.000  28.639  27.559  1.00  0.00     0.134 A 
ATOM     79  F   UNL A   1      45.912  27.962  30.569  1.00  0.00    -0.206 F 
ATOM     80  C   UNL A   1      45.583  26.633  28.667  1.00  0.00     0.040 A 
ATOM     81  C   UNL A   1      44.219  27.446  26.862  1.00  0.00     0.040 A 
ATOM     82  F   UNL A   1      43.167  29.538  27.016  1.00  0.00    -0.206 F 
ATOM     83  C   UNL A   1      44.976  26.423  27.432  1.00  0.00     0.006 A 
ENDBRANCH  55  76
BRANCH  67  84
ATOM     84  C   UNL A   1      42.282  35.713  29.098  1.00  0.00     0.057 A 
ATOM     85  C   UNL A   1      41.663  36.147  27.918  1.00  0.00     0.134 A 
ATOM     86  C   UNL A   1      43.181  36.622  29.689  1.00  0.00     0.134 A 
ATOM     87  F   UNL A   1      40.824  35.346  27.244  1.00  0.00    -0.206 F 
ATOM     88  C   UNL A   1      41.901  37.415  27.376  1.00  0.00     0.040 A 
ATOM     89  C   UNL A   1      43.465  37.871  29.131  1.00  0.00     0.040 A 
ATOM     90  F   UNL A   1      43.805  36.343  30.842  1.00  0.00    -0.206 F 
ATOM     91  C   UNL A   1      42.817  38.276  27.974  1.00  0.00     0.006 A 
ENDBRANCH  67  84
ENDBRANCH  41  42
ENDBRANCH  33  36
ENDBRANCH  31  32
ENDBRANCH  30  31
ENDBRANCH  29  30
ENDBRANCH   1  29
TORSDOF 18
ENDMDL
MODEL 2
REMARK VINA RESULT:     -12.2      3.858      9.430
REMARK SMILES Cc1ccc(CN(CC(=O)NCCCCCCNC(=O)c2ccc(-c3c4nc(c(-c5c(F)cccc5F)c5ccc([nH]5)c(-c5c(F)cccc5F)c5nc(c(-c6c(F)cccc6F)c6ccc3[nH]6)C=C5)C=C4)cc2)C(=O)c2cc3c(s2)CCOC3)cc1
REMARK SMILES IDX 14 1 13 2 12 3 11 4 9 5 10 6 8 8 7 9 6 10 5 11 1 12 2 13
REMARK SMILES IDX 3 14 87 15 4 16 86 17 75 18 76 19 77 20 78 21 81 22 79 23
REMARK SMILES IDX 80 24 85 25 82 26 84 27 83 28 15 29 16 30 17 31 18 32 19 33
REMARK SMILES IDX 20 35 21 36 22 37 74 38 23 39 73 40 24 41 25 42 26 43 67 44
REMARK SMILES IDX 27 45 72 46 66 47 68 48 28 49 71 50 65 51 64 52 29 54 55 55
REMARK SMILES IDX 38 56 54 57 39 58 42 59 53 60 69 61 40 62 41 63 52 65 70 66
REMARK SMILES IDX 43 67 30 68 31 69 36 70 32 71 33 72 35 73 37 74 34 75 56 76
REMARK SMILES IDX 57 77 62 78 58 79 59 80 61 81 63 82 60 83 44 84 45 85 50 86
REMARK SMILES IDX 46 87 47 88 49 89 51 90 48 91
REMARK H PARENT 11 7 18 34 68 53 42 64
REMARK Flexibility Score: inf
ROOT
ATOM      1  C   UNL A   1      32.665  28.806  26.269  1.00  0.00     0.002 C 
ENDROOT
BRANCH   1   2
ATOM      2  C   UNL A   1      33.493  28.614  24.990  1.00  0.00     0.021 C 
BRANCH   2   3
ATOM      3  C   UNL A   1      33.693  27.172  24.524  1.00  0.00     0.116 C 
BRANCH   3   4
ATOM      4  N   UNL A   1      33.749  26.204  25.592  1.00  0.00    -0.355 N 
ATOM      5  C   UNL A   1      33.855  24.845  25.532  1.00  0.00     0.239 C 
ATOM      6  O   UNL A   1      34.289  24.277  26.540  1.00  0.00    -0.273 OA
ATOM      7  H   UNL A   1      33.704  26.579  26.501  1.00  0.00     0.163 HD
BRANCH   5   8
ATOM      8  C   UNL A   1      33.574  24.041  24.246  1.00  0.00     0.220 C 
BRANCH   8   9
ATOM      9  N   UNL A   1      32.300  23.315  24.187  1.00  0.00    -0.324 N 
BRANCH   9  10
ATOM     10  C   UNL A   1      31.328  23.719  23.175  1.00  0.00     0.156 C 
BRANCH  10  11
ATOM     11  C   UNL A   1      30.954  25.181  23.226  1.00  0.00    -0.029 A 
ATOM     12  C   UNL A   1      29.879  29.367  23.260  1.00  0.00     0.044 C 
ATOM     13  C   UNL A   1      30.241  27.912  23.236  1.00  0.00    -0.051 A 
ATOM     14  C   UNL A   1      29.863  27.074  24.292  1.00  0.00     0.004 A 
ATOM     15  C   UNL A   1      30.978  27.377  22.177  1.00  0.00     0.004 A 
ATOM     16  C   UNL A   1      30.213  25.720  24.286  1.00  0.00     0.006 A 
ATOM     17  C   UNL A   1      31.329  26.027  22.172  1.00  0.00     0.006 A 
ENDBRANCH  10  11
ENDBRANCH   9  10
BRANCH   9  18
ATOM     18  C   UNL A   1      32.026  22.143  24.915  1.00  0.00     0.264 C 
ATOM     19  O   UNL A   1      31.273  22.170  25.889  1.00  0.00    -0.268 OA
BRANCH  18  20
ATOM     20  C   UNL A   1      32.636  20.907  24.455  1.00  0.00     0.093 A 
ATOM     21  C   UNL A   1      32.250  20.041  23.449  1.00  0.00     0.032 A 
ATOM     22  S   UNL A   1      34.071  20.365  25.229  1.00  0.00    -0.135 S 
ATOM     23  C   UNL A   1      32.989  18.823  23.481  1.00  0.00    -0.008 A 
ATOM     24  C   UNL A   1      34.035  18.903  24.374  1.00  0.00     0.013 A 
ATOM     25  C   UNL A   1      32.709  17.560  22.724  1.00  0.00     0.196 C 
ATOM     26  C   UNL A   1      35.009  17.789  24.567  1.00  0.00     0.075 C 
ATOM     27  O   UNL A   1      33.783  16.598  22.814  1.00  0.00    -0.376 OA
ATOM     28  C   UNL A   1      34.310  16.485  24.148  1.00  0.00     0.166 C 
ENDBRANCH  18  20
ENDBRANCH   9  18
ENDBRANCH   8   9
ENDBRANCH   5   8
ENDBRANCH   3   4
ENDBRANCH   2   3
ENDBRANCH   1   2
BRANCH   1  29
ATOM     29  C   UNL A   1      32.146  30.220  26.571  1.00  0.00     0.002 C 
BRANCH  29  30
ATOM     30  C   UNL A   1      33.109  31.173  27.283  1.00  0.00     0.021 C 
BRANCH  30  31
ATOM     31  C   UNL A   1      34.304  30.502  27.943  1.00  0.00     0.116 C 
BRANCH  31  32
ATOM     32  N   UNL A   1      35.210  31.419  28.619  1.00  0.00    -0.352 N 
ATOM     33  C   UNL A   1      36.478  31.196  29.143  1.00  0.00     0.251 C 
ATOM     34  H   UNL A   1      34.872  32.338  28.722  1.00  0.00     0.163 HD
ATOM     35  O   UNL A   1      37.057  32.086  29.724  1.00  0.00    -0.269 OA
BRANCH  33  36
ATOM     36  C   UNL A   1      37.177  29.912  28.853  1.00  0.00     0.039 A 
ATOM     37  C   UNL A   1      37.311  29.003  29.910  1.00  0.00     0.014 A 
ATOM     38  C   UNL A   1      37.872  29.703  27.668  1.00  0.00     0.014 A 
ATOM     39  C   UNL A   1      38.344  28.068  29.881  1.00  0.00     0.010 A 
ATOM     40  C   UNL A   1      38.962  28.857  27.680  1.00  0.00     0.010 A 
ATOM     41  C   UNL A   1      39.244  28.099  28.819  1.00  0.00    -0.014 A 
BRANCH  41  42
ATOM     42  C   UNL A   1      40.568  27.493  28.870  1.00  0.00     0.031 A 
ATOM     43  C   UNL A   1      40.766  26.072  28.525  1.00  0.00     0.074 A 
ATOM     44  C   UNL A   1      41.639  28.281  29.106  1.00  0.00     0.049 A 
ATOM     45  N   UNL A   1      41.805  25.386  28.856  1.00  0.00    -0.248 NA
ATOM     46  C   UNL A   1      39.775  25.299  27.791  1.00  0.00     0.031 C 
ATOM     47  C   UNL A   1      43.048  27.953  28.904  1.00  0.00     0.029 A 
ATOM     48  N   UNL A   1      41.663  29.501  29.796  1.00  0.00    -0.354 N 
ATOM     49  C   UNL A   1      41.766  24.198  28.165  1.00  0.00     0.074 A 
ATOM     50  C   UNL A   1      40.452  24.170  27.562  1.00  0.00     0.031 C 
ATOM     51  C   UNL A   1      43.790  28.744  29.694  1.00  0.00     0.029 A 
ATOM     52  C   UNL A   1      42.874  29.501  30.529  1.00  0.00     0.049 A 
ATOM     53  H   UNL A   1      40.980  30.209  29.776  1.00  0.00     0.167 HD
ATOM     54  C   UNL A   1      42.895  23.435  28.089  1.00  0.00     0.037 A 
ATOM     55  C   UNL A   1      42.856  29.487  31.894  1.00  0.00     0.037 A 
ATOM     56  C   UNL A   1      43.979  23.997  28.897  1.00  0.00     0.049 A 
ATOM     57  C   UNL A   1      43.479  28.257  32.525  1.00  0.00     0.074 A 
ATOM     58  C   UNL A   1      45.115  24.743  28.625  1.00  0.00     0.029 A 
ATOM     59  N   UNL A   1      43.818  24.049  30.269  1.00  0.00    -0.354 N 
ATOM     60  N   UNL A   1      43.969  27.249  31.856  1.00  0.00    -0.248 NA
ATOM     61  C   UNL A   1      43.509  28.027  33.971  1.00  0.00     0.031 C 
ATOM     62  C   UNL A   1      45.627  25.246  29.856  1.00  0.00     0.029 A 
ATOM     63  C   UNL A   1      44.800  24.806  30.874  1.00  0.00     0.049 A 
ATOM     64  H   UNL A   1      43.090  23.600  30.756  1.00  0.00     0.167 HD
ATOM     65  C   UNL A   1      44.294  26.242  32.726  1.00  0.00     0.074 A 
ATOM     66  C   UNL A   1      44.005  26.780  34.041  1.00  0.00     0.031 C 
ATOM     67  C   UNL A   1      44.729  25.018  32.309  1.00  0.00     0.037 A 
BRANCH  54  68
ATOM     68  C   UNL A   1      43.091  22.302  27.105  1.00  0.00     0.057 A 
ATOM     69  C   UNL A   1      42.330  21.120  27.205  1.00  0.00     0.134 A 
ATOM     70  C   UNL A   1      44.038  22.287  26.067  1.00  0.00     0.134 A 
ATOM     71  F   UNL A   1      41.301  21.011  28.055  1.00  0.00    -0.206 F 
ATOM     72  C   UNL A   1      42.581  19.981  26.429  1.00  0.00     0.040 A 
ATOM     73  C   UNL A   1      44.341  21.137  25.322  1.00  0.00     0.040 A 
ATOM     74  F   UNL A   1      44.666  23.400  25.672  1.00  0.00    -0.206 F 
ATOM     75  C   UNL A   1      43.621  19.969  25.513  1.00  0.00     0.006 A 
ENDBRANCH  54  68
BRANCH  55  76
ATOM     76  C   UNL A   1      41.713  30.253  32.456  1.00  0.00     0.057 A 
ATOM     77  C   UNL A   1      40.557  29.550  32.838  1.00  0.00     0.134 A 
ATOM     78  C   UNL A   1      41.872  31.544  32.966  1.00  0.00     0.134 A 
ATOM     79  F   UNL A   1      40.343  28.304  32.385  1.00  0.00    -0.206 F 
ATOM     80  C   UNL A   1      39.661  30.059  33.781  1.00  0.00     0.040 A 
ATOM     81  C   UNL A   1      40.971  32.072  33.898  1.00  0.00     0.040 A 
ATOM     82  F   UNL A   1      42.960  32.268  32.667  1.00  0.00    -0.206 F 
ATOM     83  C   UNL A   1      39.888  31.314  34.340  1.00  0.00     0.006 A 
ENDBRANCH  55  76
BRANCH  67  84
ATOM     84  C   UNL A   1      45.106  23.908  33.246  1.00  0.00     0.057 A 
ATOM     85  C   UNL A   1      44.188  22.935  33.663  1.00  0.00     0.134 A 
ATOM     86  C   UNL A   1      46.371  23.862  33.863  1.00  0.00     0.134 A 
ATOM     87  F   UNL A   1      42.937  22.913  33.178  1.00  0.00    -0.206 F 
ATOM     88  C   UNL A   1      44.518  21.960  34.611  1.00  0.00     0.040 A 
ATOM     89  C   UNL A   1      46.696  22.925  34.846  1.00  0.00     0.040 A 
ATOM     90  F   UNL A   1      47.350  24.711  33.522  1.00  0.00    -0.206 F 
ATOM     91  C   UNL A   1      45.770  21.962  35.218  1.00  0.00     0.006 A 
ENDBRANCH  67  84
ENDBRANCH  41  42
ENDBRANCH  33  36
ENDBRANCH  31  32
ENDBRANCH  30  31
ENDBRANCH  29  30
ENDBRANCH   1  29
TORSDOF 18
ENDMDL
MODEL 3
REMARK VINA RESULT:     -11.9      3.458      8.732
REMARK SMILES Cc1ccc(CN(CC(=O)NCCCCCCNC(=O)c2ccc(-c3c4nc(c(-c5c(F)cccc5F)c5ccc([nH]5)c(-c5c(F)cccc5F)c5nc(c(-c6c(F)cccc6F)c6ccc3[nH]6)C=C5)C=C4)cc2)C(=O)c2cc3c(s2)CCOC3)cc1
REMARK SMILES IDX 14 1 13 2 12 3 11 4 9 5 10 6 8 8 7 9 6 10 5 11 1 12 2 13
REMARK SMILES IDX 3 14 87 15 4 16 86 17 75 18 76 19 77 20 78 21 81 22 79 23
REMARK SMILES IDX 80 24 85 25 82 26 84 27 83 28 15 29 16 30 17 31 18 32 19 33
REMARK SMILES IDX 20 35 21 36 22 37 74 38 23 39 73 40 24 41 25 42 26 43 67 44
REMARK SMILES IDX 27 45 72 46 66 47 68 48 28 49 71 50 65 51 64 52 29 54 55 55
REMARK SMILES IDX 38 56 54 57 39 58 42 59 53 60 69 61 40 62 41 63 52 65 70 66
REMARK SMILES IDX 43 67 30 68 31 69 36 70 32 71 33 72 35 73 37 74 34 75 56 76
REMARK SMILES IDX 57 77 62 78 58 79 59 80 61 81 63 82 60 83 44 84 45 85 50 86
REMARK SMILES IDX 46 87 47 88 49 89 51 90 48 91
REMARK H PARENT 11 7 18 34 68 53 42 64
REMARK Flexibility Score: inf
ROOT
ATOM      1  C   UNL A   1      32.233  30.376  26.329  1.00  0.00     0.002 C 
ENDROOT
BRANCH   1   2
ATOM      2  C   UNL A   1      31.714  28.947  26.118  1.00  0.00     0.021 C 
BRANCH   2   3
ATOM      3  C   UNL A   1      32.224  27.890  27.097  1.00  0.00     0.116 C 
BRANCH   3   4
ATOM      4  N   UNL A   1      31.694  26.566  26.874  1.00  0.00    -0.355 N 
ATOM      5  C   UNL A   1      32.246  25.506  26.217  1.00  0.00     0.239 C 
ATOM      6  O   UNL A   1      31.805  24.387  26.500  1.00  0.00    -0.273 OA
ATOM      7  H   UNL A   1      30.799  26.404  27.252  1.00  0.00     0.163 HD
BRANCH   5   8
ATOM      8  C   UNL A   1      33.444  25.649  25.257  1.00  0.00     0.220 C 
BRANCH   8   9
ATOM      9  N   UNL A   1      33.219  25.260  23.859  1.00  0.00    -0.324 N 
BRANCH   9  10
ATOM     10  C   UNL A   1      33.039  23.842  23.564  1.00  0.00     0.156 C 
BRANCH  10  11
ATOM     11  C   UNL A   1      34.230  22.981  23.913  1.00  0.00    -0.029 A 
ATOM     12  C   UNL A   1      37.705  20.609  24.898  1.00  0.00     0.044 C 
ATOM     13  C   UNL A   1      36.506  21.445  24.565  1.00  0.00    -0.051 A 
ATOM     14  C   UNL A   1      35.268  21.169  25.156  1.00  0.00     0.004 A 
ATOM     15  C   UNL A   1      36.599  22.492  23.645  1.00  0.00     0.004 A 
ATOM     16  C   UNL A   1      34.140  21.932  24.837  1.00  0.00     0.006 A 
ATOM     17  C   UNL A   1      35.473  23.252  23.324  1.00  0.00     0.006 A 
ENDBRANCH  10  11
ENDBRANCH   9  10
BRANCH   9  18
ATOM     18  C   UNL A   1      32.985  26.173  22.814  1.00  0.00     0.264 C 
ATOM     19  O   UNL A   1      33.730  26.209  21.834  1.00  0.00    -0.268 OA
BRANCH  18  20
ATOM     20  C   UNL A   1      31.823  27.037  22.924  1.00  0.00     0.093 A 
ATOM     21  C   UNL A   1      30.537  26.756  23.346  1.00  0.00     0.032 A 
ATOM     22  S   UNL A   1      31.987  28.689  22.481  1.00  0.00    -0.135 S 
ATOM     23  C   UNL A   1      29.638  27.828  23.074  1.00  0.00    -0.008 A 
ATOM     24  C   UNL A   1      30.321  28.947  22.648  1.00  0.00     0.013 A 
ATOM     25  C   UNL A   1      28.142  27.816  23.160  1.00  0.00     0.196 C 
ATOM     26  C   UNL A   1      29.633  30.237  22.348  1.00  0.00     0.075 C 
ATOM     27  O   UNL A   1      27.559  29.132  23.038  1.00  0.00    -0.376 OA
ATOM     28  C   UNL A   1      28.172  29.912  21.995  1.00  0.00     0.166 C 
ENDBRANCH  18  20
ENDBRANCH   9  18
ENDBRANCH   8   9
ENDBRANCH   5   8
ENDBRANCH   3   4
ENDBRANCH   2   3
ENDBRANCH   1   2
BRANCH   1  29
ATOM     29  C   UNL A   1      33.369  30.573  27.344  1.00  0.00     0.002 C 
BRANCH  29  30
ATOM     30  C   UNL A   1      33.728  32.016  27.709  1.00  0.00     0.021 C 
BRANCH  30  31
ATOM     31  C   UNL A   1      35.171  32.228  28.140  1.00  0.00     0.116 C 
BRANCH  31  32
ATOM     32  N   UNL A   1      35.362  32.306  29.581  1.00  0.00    -0.352 N 
ATOM     33  C   UNL A   1      36.024  31.439  30.442  1.00  0.00     0.251 C 
ATOM     34  H   UNL A   1      34.960  33.094  30.013  1.00  0.00     0.163 HD
ATOM     35  O   UNL A   1      36.027  31.653  31.633  1.00  0.00    -0.269 OA
BRANCH  33  36
ATOM     36  C   UNL A   1      36.854  30.336  29.877  1.00  0.00     0.039 A 
ATOM     37  C   UNL A   1      37.034  29.198  30.674  1.00  0.00     0.014 A 
ATOM     38  C   UNL A   1      37.612  30.501  28.725  1.00  0.00     0.014 A 
ATOM     39  C   UNL A   1      38.153  28.392  30.472  1.00  0.00     0.010 A 
ATOM     40  C   UNL A   1      38.777  29.775  28.588  1.00  0.00     0.010 A 
ATOM     41  C   UNL A   1      39.086  28.773  29.511  1.00  0.00    -0.014 A 
BRANCH  41  42
ATOM     42  C   UNL A   1      40.459  28.285  29.488  1.00  0.00     0.031 A 
ATOM     43  C   UNL A   1      40.795  26.990  28.868  1.00  0.00     0.074 A 
ATOM     44  C   UNL A   1      41.448  29.097  29.922  1.00  0.00     0.049 A 
ATOM     45  N   UNL A   1      41.886  26.342  29.091  1.00  0.00    -0.248 NA
ATOM     46  C   UNL A   1      39.894  26.304  27.952  1.00  0.00     0.031 C 
ATOM     47  C   UNL A   1      42.885  28.941  29.712  1.00  0.00     0.029 A 
ATOM     48  N   UNL A   1      41.345  30.144  30.848  1.00  0.00    -0.354 N 
ATOM     49  C   UNL A   1      41.971  25.325  28.170  1.00  0.00     0.074 A 
ATOM     50  C   UNL A   1      40.677  25.309  27.523  1.00  0.00     0.031 C 
ATOM     51  C   UNL A   1      43.534  29.612  30.676  1.00  0.00     0.029 A 
ATOM     52  C   UNL A   1      42.535  30.097  31.612  1.00  0.00     0.049 A 
ATOM     53  H   UNL A   1      40.599  30.780  30.947  1.00  0.00     0.167 HD
ATOM     54  C   UNL A   1      43.167  24.694  27.983  1.00  0.00     0.037 A 
ATOM     55  C   UNL A   1      42.491  29.798  32.943  1.00  0.00     0.037 A 
ATOM     56  C   UNL A   1      44.178  25.169  28.930  1.00  0.00     0.049 A 
ATOM     57  C   UNL A   1      43.212  28.522  33.332  1.00  0.00     0.074 A 
ATOM     58  C   UNL A   1      45.245  26.050  28.861  1.00  0.00     0.029 A 
ATOM     59  N   UNL A   1      43.985  24.920  30.277  1.00  0.00    -0.354 N 
ATOM     60  N   UNL A   1      43.807  27.722  32.491  1.00  0.00    -0.248 NA
ATOM     61  C   UNL A   1      43.234  28.001  34.700  1.00  0.00     0.031 C 
ATOM     62  C   UNL A   1      45.683  26.328  30.189  1.00  0.00     0.029 A 
ATOM     63  C   UNL A   1      44.881  25.617  31.062  1.00  0.00     0.049 A 
ATOM     64  H   UNL A   1      43.292  24.319  30.632  1.00  0.00     0.167 HD
ATOM     65  C   UNL A   1      44.207  26.588  33.147  1.00  0.00     0.074 A 
ATOM     66  C   UNL A   1      43.842  26.814  34.533  1.00  0.00     0.031 C 
ATOM     67  C   UNL A   1      44.761  25.520  32.506  1.00  0.00     0.037 A 
BRANCH  54  68
ATOM     68  C   UNL A   1      43.487  23.812  26.796  1.00  0.00     0.057 A 
ATOM     69  C   UNL A   1      43.341  22.412  26.878  1.00  0.00     0.134 A 
ATOM     70  C   UNL A   1      43.984  24.265  25.562  1.00  0.00     0.134 A 
ATOM     71  F   UNL A   1      42.766  21.822  27.933  1.00  0.00    -0.206 F 
ATOM     72  C   UNL A   1      43.776  21.539  25.873  1.00  0.00     0.040 A 
ATOM     73  C   UNL A   1      44.477  23.402  24.571  1.00  0.00     0.040 A 
ATOM     74  F   UNL A   1      43.950  25.558  25.222  1.00  0.00    -0.206 F 
ATOM     75  C   UNL A   1      44.390  22.029  24.732  1.00  0.00     0.006 A 
ENDBRANCH  54  68
BRANCH  55  76
ATOM     76  C   UNL A   1      41.271  30.329  33.605  1.00  0.00     0.057 A 
ATOM     77  C   UNL A   1      41.224  31.696  33.931  1.00  0.00     0.134 A 
ATOM     78  C   UNL A   1      40.056  29.640  33.570  1.00  0.00     0.134 A 
ATOM     79  F   UNL A   1      42.356  32.417  33.981  1.00  0.00    -0.206 F 
ATOM     80  C   UNL A   1      40.015  32.375  34.093  1.00  0.00     0.040 A 
ATOM     81  C   UNL A   1      38.839  30.307  33.748  1.00  0.00     0.040 A 
ATOM     82  F   UNL A   1      40.015  28.341  33.243  1.00  0.00    -0.206 F 
ATOM     83  C   UNL A   1      38.814  31.684  33.968  1.00  0.00     0.006 A 
ENDBRANCH  55  76
BRANCH  67  84
ATOM     84  C   UNL A   1      45.220  24.276  33.210  1.00  0.00     0.057 A 
ATOM     85  C   UNL A   1      44.391  23.159  33.373  1.00  0.00     0.134 A 
ATOM     86  C   UNL A   1      46.468  24.216  33.861  1.00  0.00     0.134 A 
ATOM     87  F   UNL A   1      43.162  23.127  32.838  1.00  0.00    -0.206 F 
ATOM     88  C   UNL A   1      44.790  22.039  34.114  1.00  0.00     0.040 A 
ATOM     89  C   UNL A   1      46.857  23.126  34.642  1.00  0.00     0.040 A 
ATOM     90  F   UNL A   1      47.368  25.202  33.748  1.00  0.00    -0.206 F 
ATOM     91  C   UNL A   1      46.020  22.027  34.765  1.00  0.00     0.006 A 
ENDBRANCH  67  84
ENDBRANCH  41  42
ENDBRANCH  33  36
ENDBRANCH  31  32
ENDBRANCH  30  31
ENDBRANCH  29  30
ENDBRANCH   1  29
TORSDOF 18
ENDMDL
