MODEL 1
REMARK VINA RESULT:     -10.1      0.000      0.000
REMARK SMILES CC1(C)CC[C@@]2(C(=O)NCCCCCCNC(=O)c3ccc(-c4c5nc(c(-c6c(F)cccc6F)c6ccc([nH]6)c(-c6c(F)cccc6F)c6nc(c(-c7c(F)cccc7F)c7ccc4[nH]7)C=C6)C=C5)cc3)CC[C@@]3(C)C(=CC[C@H]4[C@@]5(C)CC[C@H](O)C(C)(C)[C@@H]5CC[C@]43C)[C@@H]2C1
REMARK SMILES IDX 13 1 12 2 11 3 10 4 9 5 7 6 8 7 6 9 1 10 2 11 3 12 4 13
REMARK SMILES IDX 96 14 5 15 95 16 77 17 73 18 75 19 78 20 74 21 76 22 93 23
REMARK SMILES IDX 79 24 80 25 92 26 94 27 81 28 91 29 82 30 83 31 90 32 84 33
REMARK SMILES IDX 87 34 85 35 88 36 89 37 86 38 14 40 15 41 16 42 17 43 18 45
REMARK SMILES IDX 19 46 20 47 72 48 21 49 71 50 22 51 23 52 24 53 65 54 25 55
REMARK SMILES IDX 70 56 64 57 66 58 26 59 69 60 63 61 62 62 27 64 53 65 36 66
REMARK SMILES IDX 52 67 37 68 40 69 51 70 67 71 38 72 39 73 50 75 68 76 41 77
REMARK SMILES IDX 28 78 29 79 34 80 30 81 31 82 33 83 35 84 32 85 54 86 55 87
REMARK SMILES IDX 60 88 56 89 57 90 59 91 61 92 58 93 42 94 43 95 48 96 44 97
REMARK SMILES IDX 45 98 47 99 49 100 46 101
REMARK H PARENT 9 8 86 39 16 44 66 63 40 74
REMARK Flexibility Score: inf
ROOT
ATOM      1  C   UNL A   1      45.283  22.403  34.980  1.00  0.00     0.002 C 
ENDROOT
BRANCH   1   2
ATOM      2  C   UNL A   1      44.156  23.006  34.137  1.00  0.00     0.002 C 
BRANCH   2   3
ATOM      3  C   UNL A   1      44.431  23.694  32.793  1.00  0.00     0.021 C 
BRANCH   3   4
ATOM      4  C   UNL A   1      44.518  25.231  32.675  1.00  0.00     0.116 C 
BRANCH   4   5
ATOM      5  N   UNL A   1      45.827  25.818  32.743  1.00  0.00    -0.356 N 
ATOM      6  C   UNL A   1      46.647  25.952  31.647  1.00  0.00     0.226 C 
ATOM      7  O   UNL A   1      46.606  25.160  30.706  1.00  0.00    -0.274 OA
ATOM      8  H   UNL A   1      46.154  26.140  33.614  1.00  0.00     0.163 HD
BRANCH   6   9
ATOM      9  C   UNL A   1      47.486  27.265  31.585  1.00  0.00     0.056 C 
ATOM     10  C   UNL A   1      51.476  26.774  31.964  1.00  0.00     0.011 C 
ATOM     11  C   UNL A   1      50.218  25.925  31.728  1.00  0.00    -0.035 C 
ATOM     12  C   UNL A   1      50.684  24.451  31.602  1.00  0.00     0.011 C 
ATOM     13  C   UNL A   1      49.274  26.037  32.938  1.00  0.00     0.007 C 
ATOM     14  C   UNL A   1      49.562  26.349  30.390  1.00  0.00     0.015 C 
ATOM     15  C   UNL A   1      48.346  27.251  32.878  1.00  0.00     0.018 C 
ATOM     16  C   UNL A   1      48.436  27.425  30.381  1.00  0.00     0.031 C 
ATOM     17  C   UNL A   1      47.646  27.513  29.049  1.00  0.00    -0.064 C 
ATOM     18  C   UNL A   1      46.580  28.508  31.602  1.00  0.00     0.018 C 
ATOM     19  C   UNL A   1      46.321  28.309  28.959  1.00  0.00    -0.006 C 
ATOM     20  C   UNL A   1      48.142  26.967  27.926  1.00  0.00    -0.027 C 
ATOM     21  C   UNL A   1      45.674  28.603  30.373  1.00  0.00     0.013 C 
ATOM     22  C   UNL A   1      46.739  29.709  28.408  1.00  0.00     0.017 C 
ATOM     23  C   UNL A   1      45.238  27.566  27.931  1.00  0.00    -0.020 C 
ATOM     24  C   UNL A   1      47.458  26.957  26.613  1.00  0.00     0.032 C 
ATOM     25  C   UNL A   1      45.918  26.840  26.660  1.00  0.00     0.006 C 
ATOM     26  C   UNL A   1      44.329  26.600  28.748  1.00  0.00     0.008 C 
ATOM     27  C   UNL A   1      44.258  28.639  27.360  1.00  0.00     0.012 C 
ATOM     28  C   UNL A   1      45.273  25.425  26.128  1.00  0.00    -0.025 C 
ATOM     29  C   UNL A   1      43.583  25.509  28.010  1.00  0.00     0.005 C 
ATOM     30  C   UNL A   1      44.276  25.826  25.003  1.00  0.00     0.012 C 
ATOM     31  C   UNL A   1      46.312  24.475  25.458  1.00  0.00     0.010 C 
ATOM     32  C   UNL A   1      44.579  24.619  27.278  1.00  0.00     0.003 C 
ATOM     33  C   UNL A   1      45.801  23.078  25.091  1.00  0.00     0.033 C 
ATOM     34  C   UNL A   1      44.005  23.183  26.931  1.00  0.00    -0.006 C 
ATOM     35  C   UNL A   1      45.119  22.349  26.248  1.00  0.00     0.120 C 
ATOM     36  C   UNL A   1      42.729  23.183  26.065  1.00  0.00     0.014 C 
ATOM     37  C   UNL A   1      43.611  22.449  28.249  1.00  0.00     0.014 C 
BRANCH  35  38
ATOM     38  O   UNL A   1      44.615  21.099  25.776  1.00  0.00    -0.393 OA
ATOM     39  H   UNL A   1      45.354  20.537  25.495  1.00  0.00     0.210 HD
ENDBRANCH  35  38
ENDBRANCH   6   9
ENDBRANCH   4   5
ENDBRANCH   3   4
ENDBRANCH   2   3
ENDBRANCH   1   2
BRANCH   1  40
ATOM     40  C   UNL A   1      45.795  23.221  36.153  1.00  0.00     0.021 C 
BRANCH  40  41
ATOM     41  C   UNL A   1      46.589  24.463  35.803  1.00  0.00     0.116 C 
BRANCH  41  42
ATOM     42  N   UNL A   1      46.855  25.379  36.902  1.00  0.00    -0.352 N 
ATOM     43  C   UNL A   1      46.211  26.582  37.120  1.00  0.00     0.251 C 
ATOM     44  H   UNL A   1      47.554  25.119  37.545  1.00  0.00     0.163 HD
ATOM     45  O   UNL A   1      46.458  27.280  38.096  1.00  0.00    -0.269 OA
BRANCH  43  46
ATOM     46  C   UNL A   1      45.249  27.027  36.088  1.00  0.00     0.039 A 
ATOM     47  C   UNL A   1      43.935  26.563  36.157  1.00  0.00     0.014 A 
ATOM     48  C   UNL A   1      45.600  28.068  35.224  1.00  0.00     0.014 A 
ATOM     49  C   UNL A   1      42.942  27.223  35.430  1.00  0.00     0.010 A 
ATOM     50  C   UNL A   1      44.596  28.780  34.579  1.00  0.00     0.010 A 
ATOM     51  C   UNL A   1      43.256  28.373  34.686  1.00  0.00    -0.014 A 
BRANCH  51  52
ATOM     52  C   UNL A   1      42.192  29.175  34.029  1.00  0.00     0.031 A 
ATOM     53  C   UNL A   1      41.682  28.774  32.674  1.00  0.00     0.074 A 
ATOM     54  C   UNL A   1      41.725  30.292  34.621  1.00  0.00     0.049 A 
ATOM     55  N   UNL A   1      40.772  29.348  31.930  1.00  0.00    -0.248 NA
ATOM     56  C   UNL A   1      42.301  27.589  32.062  1.00  0.00     0.031 C 
ATOM     57  C   UNL A   1      42.179  30.825  35.908  1.00  0.00     0.029 A 
ATOM     58  N   UNL A   1      40.760  31.182  34.219  1.00  0.00    -0.354 N 
ATOM     59  C   UNL A   1      40.717  28.599  30.763  1.00  0.00     0.074 A 
ATOM     60  C   UNL A   1      41.735  27.577  30.867  1.00  0.00     0.031 C 
ATOM     61  C   UNL A   1      41.460  31.918  36.211  1.00  0.00     0.029 A 
ATOM     62  C   UNL A   1      40.517  32.183  35.128  1.00  0.00     0.049 A 
ATOM     63  H   UNL A   1      40.287  31.109  33.358  1.00  0.00     0.167 HD
ATOM     64  C   UNL A   1      39.873  28.725  29.711  1.00  0.00     0.037 A 
ATOM     65  C   UNL A   1      39.624  33.191  35.098  1.00  0.00     0.037 A 
ATOM     66  C   UNL A   1      38.850  29.731  29.615  1.00  0.00     0.049 A 
ATOM     67  C   UNL A   1      38.704  33.322  33.915  1.00  0.00     0.074 A 
ATOM     68  C   UNL A   1      37.910  29.915  28.617  1.00  0.00     0.029 A 
ATOM     69  N   UNL A   1      38.637  30.728  30.556  1.00  0.00    -0.354 N 
ATOM     70  N   UNL A   1      38.612  32.561  32.852  1.00  0.00    -0.248 NA
ATOM     71  C   UNL A   1      37.763  34.451  33.932  1.00  0.00     0.031 C 
ATOM     72  C   UNL A   1      37.151  31.047  28.936  1.00  0.00     0.029 A 
ATOM     73  C   UNL A   1      37.593  31.544  30.153  1.00  0.00     0.049 A 
ATOM     74  H   UNL A   1      39.153  30.839  31.387  1.00  0.00     0.167 HD
ATOM     75  C   UNL A   1      37.585  33.098  32.087  1.00  0.00     0.074 A 
ATOM     76  C   UNL A   1      37.080  34.246  32.814  1.00  0.00     0.031 C 
ATOM     77  C   UNL A   1      37.101  32.678  30.892  1.00  0.00     0.037 A 
BRANCH  64  78
ATOM     78  C   UNL A   1      40.035  27.738  28.593  1.00  0.00     0.057 A 
ATOM     79  C   UNL A   1      39.549  26.426  28.693  1.00  0.00     0.134 A 
ATOM     80  C   UNL A   1      40.709  28.089  27.418  1.00  0.00     0.134 A 
ATOM     81  F   UNL A   1      38.910  26.022  29.800  1.00  0.00    -0.206 F 
ATOM     82  C   UNL A   1      39.767  25.487  27.684  1.00  0.00     0.040 A 
ATOM     83  C   UNL A   1      40.908  27.166  26.388  1.00  0.00     0.040 A 
ATOM     84  F   UNL A   1      41.197  29.328  27.255  1.00  0.00    -0.206 F 
ATOM     85  C   UNL A   1      40.447  25.858  26.526  1.00  0.00     0.006 A 
ENDBRANCH  64  78
BRANCH  65  86
ATOM     86  C   UNL A   1      39.512  34.121  36.249  1.00  0.00     0.057 A 
ATOM     87  C   UNL A   1      38.769  33.767  37.383  1.00  0.00     0.134 A 
ATOM     88  C   UNL A   1      40.136  35.373  36.253  1.00  0.00     0.134 A 
ATOM     89  F   UNL A   1      38.132  32.587  37.429  1.00  0.00    -0.206 F 
ATOM     90  C   UNL A   1      38.640  34.627  38.474  1.00  0.00     0.040 A 
ATOM     91  C   UNL A   1      40.033  36.237  37.346  1.00  0.00     0.040 A 
ATOM     92  F   UNL A   1      40.867  35.769  35.201  1.00  0.00    -0.206 F 
ATOM     93  C   UNL A   1      39.278  35.866  38.458  1.00  0.00     0.006 A 
ENDBRANCH  65  86
BRANCH  77  94
ATOM     94  C   UNL A   1      35.950  33.444  30.312  1.00  0.00     0.057 A 
ATOM     95  C   UNL A   1      34.649  33.313  30.812  1.00  0.00     0.134 A 
ATOM     96  C   UNL A   1      36.155  34.355  29.268  1.00  0.00     0.134 A 
ATOM     97  F   UNL A   1      34.385  32.447  31.802  1.00  0.00    -0.206 F 
ATOM     98  C   UNL A   1      33.588  34.049  30.281  1.00  0.00     0.040 A 
ATOM     99  C   UNL A   1      35.107  35.114  28.746  1.00  0.00     0.040 A 
ATOM    100  F   UNL A   1      37.380  34.532  28.748  1.00  0.00    -0.206 F 
ATOM    101  C   UNL A   1      33.818  34.958  29.250  1.00  0.00     0.006 A 
ENDBRANCH  77  94
ENDBRANCH  51  52
ENDBRANCH  43  46
ENDBRANCH  41  42
ENDBRANCH  40  41
ENDBRANCH   1  40
TORSDOF 14
ENDMDL
MODEL 2
REMARK VINA RESULT:     -10.0      0.461      5.803
REMARK SMILES CC1(C)CC[C@@]2(C(=O)NCCCCCCNC(=O)c3ccc(-c4c5nc(c(-c6c(F)cccc6F)c6ccc([nH]6)c(-c6c(F)cccc6F)c6nc(c(-c7c(F)cccc7F)c7ccc4[nH]7)C=C6)C=C5)cc3)CC[C@@]3(C)C(=CC[C@H]4[C@@]5(C)CC[C@H](O)C(C)(C)[C@@H]5CC[C@]43C)[C@@H]2C1
REMARK SMILES IDX 13 1 12 2 11 3 10 4 9 5 7 6 8 7 6 9 1 10 2 11 3 12 4 13
REMARK SMILES IDX 96 14 5 15 95 16 77 17 73 18 75 19 78 20 74 21 76 22 93 23
REMARK SMILES IDX 79 24 80 25 92 26 94 27 81 28 91 29 82 30 83 31 90 32 84 33
REMARK SMILES IDX 87 34 85 35 88 36 89 37 86 38 14 40 15 41 16 42 17 43 18 45
REMARK SMILES IDX 19 46 20 47 72 48 21 49 71 50 22 51 23 52 24 53 65 54 25 55
REMARK SMILES IDX 70 56 64 57 66 58 26 59 69 60 63 61 62 62 27 64 53 65 36 66
REMARK SMILES IDX 52 67 37 68 40 69 51 70 67 71 38 72 39 73 50 75 68 76 41 77
REMARK SMILES IDX 28 78 29 79 34 80 30 81 31 82 33 83 35 84 32 85 54 86 55 87
REMARK SMILES IDX 60 88 56 89 57 90 59 91 61 92 58 93 42 94 43 95 48 96 44 97
REMARK SMILES IDX 45 98 47 99 49 100 46 101
REMARK H PARENT 9 8 86 39 16 44 66 63 40 74
REMARK Flexibility Score: inf
ROOT
ATOM      1  C   UNL A   1      45.847  23.311  35.615  1.00  0.00     0.002 C 
ENDROOT
BRANCH   1   2
ATOM      2  C   UNL A   1      44.515  23.838  35.073  1.00  0.00     0.002 C 
BRANCH   2   3
ATOM      3  C   UNL A   1      44.290  24.073  33.573  1.00  0.00     0.021 C 
BRANCH   3   4
ATOM      4  C   UNL A   1      44.508  25.460  32.931  1.00  0.00     0.116 C 
BRANCH   4   5
ATOM      5  N   UNL A   1      45.848  25.978  32.932  1.00  0.00    -0.356 N 
ATOM      6  C   UNL A   1      46.623  26.056  31.799  1.00  0.00     0.226 C 
ATOM      7  O   UNL A   1      46.496  25.258  30.872  1.00  0.00    -0.274 OA
ATOM      8  H   UNL A   1      46.230  26.291  33.784  1.00  0.00     0.163 HD
BRANCH   6   9
ATOM      9  C   UNL A   1      47.526  27.321  31.682  1.00  0.00     0.056 C 
ATOM     10  C   UNL A   1      51.490  26.643  32.045  1.00  0.00     0.011 C 
ATOM     11  C   UNL A   1      50.189  25.850  31.851  1.00  0.00    -0.035 C 
ATOM     12  C   UNL A   1      50.578  24.352  31.774  1.00  0.00     0.011 C 
ATOM     13  C   UNL A   1      49.264  26.054  33.064  1.00  0.00     0.007 C 
ATOM     14  C   UNL A   1      49.541  26.259  30.504  1.00  0.00     0.015 C 
ATOM     15  C   UNL A   1      48.397  27.311  32.968  1.00  0.00     0.018 C 
ATOM     16  C   UNL A   1      48.470  27.390  30.465  1.00  0.00     0.031 C 
ATOM     17  C   UNL A   1      47.672  27.470  29.138  1.00  0.00    -0.064 C 
ATOM     18  C   UNL A   1      46.684  28.609  31.661  1.00  0.00     0.018 C 
ATOM     19  C   UNL A   1      46.388  28.328  29.030  1.00  0.00    -0.006 C 
ATOM     20  C   UNL A   1      48.129  26.859  28.031  1.00  0.00    -0.027 C 
ATOM     21  C   UNL A   1      45.771  28.706  30.438  1.00  0.00     0.013 C 
ATOM     22  C   UNL A   1      46.871  29.685  28.425  1.00  0.00     0.017 C 
ATOM     23  C   UNL A   1      45.259  27.605  28.038  1.00  0.00    -0.020 C 
ATOM     24  C   UNL A   1      47.432  26.837  26.725  1.00  0.00     0.032 C 
ATOM     25  C   UNL A   1      45.888  26.800  26.789  1.00  0.00     0.006 C 
ATOM     26  C   UNL A   1      44.311  26.716  28.898  1.00  0.00     0.008 C 
ATOM     27  C   UNL A   1      44.328  28.705  27.438  1.00  0.00     0.012 C 
ATOM     28  C   UNL A   1      45.168  25.402  26.314  1.00  0.00    -0.025 C 
ATOM     29  C   UNL A   1      43.503  25.639  28.206  1.00  0.00     0.005 C 
ATOM     30  C   UNL A   1      44.180  25.812  25.184  1.00  0.00     0.012 C 
ATOM     31  C   UNL A   1      46.150  24.377  25.671  1.00  0.00     0.010 C 
ATOM     32  C   UNL A   1      44.445  24.674  27.499  1.00  0.00     0.003 C 
ATOM     33  C   UNL A   1      45.566  22.995  25.359  1.00  0.00     0.033 C 
ATOM     34  C   UNL A   1      43.797  23.257  27.209  1.00  0.00    -0.006 C 
ATOM     35  C   UNL A   1      44.860  22.344  26.547  1.00  0.00     0.120 C 
ATOM     36  C   UNL A   1      42.513  23.291  26.355  1.00  0.00     0.014 C 
ATOM     37  C   UNL A   1      43.379  22.592  28.556  1.00  0.00     0.014 C 
BRANCH  35  38
ATOM     38  O   UNL A   1      44.288  21.104  26.126  1.00  0.00    -0.393 OA
ATOM     39  H   UNL A   1      44.067  21.155  25.183  1.00  0.00     0.210 HD
ENDBRANCH  35  38
ENDBRANCH   6   9
ENDBRANCH   4   5
ENDBRANCH   3   4
ENDBRANCH   2   3
ENDBRANCH   1   2
BRANCH   1  40
ATOM     40  C   UNL A   1      46.541  24.132  36.689  1.00  0.00     0.021 C 
BRANCH  40  41
ATOM     41  C   UNL A   1      47.236  25.393  36.219  1.00  0.00     0.116 C 
BRANCH  41  42
ATOM     42  N   UNL A   1      47.425  26.429  37.223  1.00  0.00    -0.352 N 
ATOM     43  C   UNL A   1      46.657  27.570  37.355  1.00  0.00     0.251 C 
ATOM     44  H   UNL A   1      48.162  26.305  37.863  1.00  0.00     0.163 HD
ATOM     45  O   UNL A   1      46.848  28.376  38.257  1.00  0.00    -0.269 OA
BRANCH  43  46
ATOM     46  C   UNL A   1      45.628  27.812  36.320  1.00  0.00     0.039 A 
ATOM     47  C   UNL A   1      44.356  27.268  36.504  1.00  0.00     0.014 A 
ATOM     48  C   UNL A   1      45.867  28.759  35.321  1.00  0.00     0.014 A 
ATOM     49  C   UNL A   1      43.291  27.758  35.746  1.00  0.00     0.010 A 
ATOM     50  C   UNL A   1      44.790  29.312  34.640  1.00  0.00     0.010 A 
ATOM     51  C   UNL A   1      43.489  28.827  34.855  1.00  0.00    -0.014 A 
BRANCH  51  52
ATOM     52  C   UNL A   1      42.344  29.462  34.153  1.00  0.00     0.031 A 
ATOM     53  C   UNL A   1      41.623  30.615  34.788  1.00  0.00     0.074 A 
ATOM     54  C   UNL A   1      41.917  28.965  32.975  1.00  0.00     0.049 A 
ATOM     55  N   UNL A   1      40.596  31.294  34.345  1.00  0.00    -0.248 NA
ATOM     56  C   UNL A   1      42.102  31.043  36.111  1.00  0.00     0.031 C 
ATOM     57  C   UNL A   1      42.491  27.811  32.279  1.00  0.00     0.029 A 
ATOM     58  N   UNL A   1      40.898  29.374  32.149  1.00  0.00    -0.354 N 
ATOM     59  C   UNL A   1      40.303  32.218  35.338  1.00  0.00     0.074 A 
ATOM     60  C   UNL A   1      41.212  31.966  36.434  1.00  0.00     0.031 C 
ATOM     61  C   UNL A   1      41.849  27.636  31.112  1.00  0.00     0.029 A 
ATOM     62  C   UNL A   1      40.800  28.643  30.989  1.00  0.00     0.049 A 
ATOM     63  H   UNL A   1      40.295  30.121  32.368  1.00  0.00     0.167 HD
ATOM     64  C   UNL A   1      39.384  33.214  35.327  1.00  0.00     0.037 A 
ATOM     65  C   UNL A   1      39.966  28.780  29.940  1.00  0.00     0.037 A 
ATOM     66  C   UNL A   1      38.491  33.475  34.231  1.00  0.00     0.049 A 
ATOM     67  C   UNL A   1      38.944  29.882  29.954  1.00  0.00     0.074 A 
ATOM     68  C   UNL A   1      37.558  34.487  34.098  1.00  0.00     0.029 A 
ATOM     69  N   UNL A   1      38.420  32.710  33.075  1.00  0.00    -0.354 N 
ATOM     70  N   UNL A   1      38.728  30.798  30.866  1.00  0.00    -0.248 NA
ATOM     71  C   UNL A   1      38.053  29.971  28.788  1.00  0.00     0.031 C 
ATOM     72  C   UNL A   1      36.897  34.314  32.877  1.00  0.00     0.029 A 
ATOM     73  C   UNL A   1      37.446  33.216  32.232  1.00  0.00     0.049 A 
ATOM     74  H   UNL A   1      38.981  31.924  32.884  1.00  0.00     0.167 HD
ATOM     75  C   UNL A   1      37.699  31.590  30.375  1.00  0.00     0.074 A 
ATOM     76  C   UNL A   1      37.339  31.050  29.079  1.00  0.00     0.031 C 
ATOM     77  C   UNL A   1      37.106  32.669  30.944  1.00  0.00     0.037 A 
BRANCH  64  78
ATOM     78  C   UNL A   1      39.317  34.084  36.548  1.00  0.00     0.057 A 
ATOM     79  C   UNL A   1      39.975  35.322  36.605  1.00  0.00     0.134 A 
ATOM     80  C   UNL A   1      38.618  33.672  37.687  1.00  0.00     0.134 A 
ATOM     81  F   UNL A   1      40.679  35.766  35.553  1.00  0.00    -0.206 F 
ATOM     82  C   UNL A   1      39.976  36.096  37.766  1.00  0.00     0.040 A 
ATOM     83  C   UNL A   1      38.586  34.451  38.845  1.00  0.00     0.040 A 
ATOM     84  F   UNL A   1      37.963  32.500  37.699  1.00  0.00    -0.206 F 
ATOM     85  C   UNL A   1      39.278  35.661  38.891  1.00  0.00     0.006 A 
ENDBRANCH  64  78
BRANCH  65  86
ATOM     86  C   UNL A   1      40.102  27.889  28.761  1.00  0.00     0.057 A 
ATOM     87  C   UNL A   1      40.785  28.319  27.616  1.00  0.00     0.134 A 
ATOM     88  C   UNL A   1      39.563  26.598  28.743  1.00  0.00     0.134 A 
ATOM     89  F   UNL A   1      41.307  29.554  27.567  1.00  0.00    -0.206 F 
ATOM     90  C   UNL A   1      40.917  27.503  26.491  1.00  0.00     0.040 A 
ATOM     91  C   UNL A   1      39.705  25.763  27.632  1.00  0.00     0.040 A 
ATOM     92  F   UNL A   1      38.903  26.124  29.809  1.00  0.00    -0.206 F 
ATOM     93  C   UNL A   1      40.379  26.218  26.500  1.00  0.00     0.006 A 
ENDBRANCH  65  86
BRANCH  77  94
ATOM     94  C   UNL A   1      36.030  33.354  30.155  1.00  0.00     0.057 A 
ATOM     95  C   UNL A   1      36.327  34.198  29.079  1.00  0.00     0.134 A 
ATOM     96  C   UNL A   1      34.679  33.132  30.452  1.00  0.00     0.134 A 
ATOM     97  F   UNL A   1      37.602  34.462  28.753  1.00  0.00    -0.206 F 
ATOM     98  C   UNL A   1      35.318  34.812  28.335  1.00  0.00     0.040 A 
ATOM     99  C   UNL A   1      33.661  33.721  29.701  1.00  0.00     0.040 A 
ATOM    100  F   UNL A   1      34.327  32.328  31.467  1.00  0.00    -0.206 F 
ATOM    101  C   UNL A   1      33.980  34.568  28.642  1.00  0.00     0.006 A 
ENDBRANCH  77  94
ENDBRANCH  51  52
ENDBRANCH  43  46
ENDBRANCH  41  42
ENDBRANCH  40  41
ENDBRANCH   1  40
TORSDOF 14
ENDMDL
MODEL 3
REMARK VINA RESULT:      -9.6      3.297      7.043
REMARK SMILES CC1(C)CC[C@@]2(C(=O)NCCCCCCNC(=O)c3ccc(-c4c5nc(c(-c6c(F)cccc6F)c6ccc([nH]6)c(-c6c(F)cccc6F)c6nc(c(-c7c(F)cccc7F)c7ccc4[nH]7)C=C6)C=C5)cc3)CC[C@@]3(C)C(=CC[C@H]4[C@@]5(C)CC[C@H](O)C(C)(C)[C@@H]5CC[C@]43C)[C@@H]2C1
REMARK SMILES IDX 13 1 12 2 11 3 10 4 9 5 7 6 8 7 6 9 1 10 2 11 3 12 4 13
REMARK SMILES IDX 96 14 5 15 95 16 77 17 73 18 75 19 78 20 74 21 76 22 93 23
REMARK SMILES IDX 79 24 80 25 92 26 94 27 81 28 91 29 82 30 83 31 90 32 84 33
REMARK SMILES IDX 87 34 85 35 88 36 89 37 86 38 14 40 15 41 16 42 17 43 18 45
REMARK SMILES IDX 19 46 20 47 72 48 21 49 71 50 22 51 23 52 24 53 65 54 25 55
REMARK SMILES IDX 70 56 64 57 66 58 26 59 69 60 63 61 62 62 27 64 53 65 36 66
REMARK SMILES IDX 52 67 37 68 40 69 51 70 67 71 38 72 39 73 50 75 68 76 41 77
REMARK SMILES IDX 28 78 29 79 34 80 30 81 31 82 33 83 35 84 32 85 54 86 55 87
REMARK SMILES IDX 60 88 56 89 57 90 59 91 61 92 58 93 42 94 43 95 48 96 44 97
REMARK SMILES IDX 45 98 47 99 49 100 46 101
REMARK H PARENT 9 8 86 39 16 44 66 63 40 74
REMARK Flexibility Score: inf
ROOT
ATOM      1  C   UNL A   1      48.971  27.978  34.659  1.00  0.00     0.002 C 
ENDROOT
BRANCH   1   2
ATOM      2  C   UNL A   1      48.164  27.056  35.577  1.00  0.00     0.002 C 
BRANCH   2   3
ATOM      3  C   UNL A   1      48.178  27.224  37.103  1.00  0.00     0.021 C 
BRANCH   3   4
ATOM      4  C   UNL A   1      47.219  28.202  37.817  1.00  0.00     0.116 C 
BRANCH   4   5
ATOM      5  N   UNL A   1      45.978  28.499  37.156  1.00  0.00    -0.356 N 
ATOM      6  C   UNL A   1      45.094  29.448  37.614  1.00  0.00     0.226 C 
ATOM      7  O   UNL A   1      44.991  29.714  38.810  1.00  0.00    -0.274 OA
ATOM      8  H   UNL A   1      45.750  28.001  36.339  1.00  0.00     0.163 HD
BRANCH   6   9
ATOM      9  C   UNL A   1      44.377  30.291  36.515  1.00  0.00     0.056 C 
ATOM     10  C   UNL A   1      46.768  32.796  34.440  1.00  0.00     0.011 C 
ATOM     11  C   UNL A   1      46.890  31.620  35.420  1.00  0.00    -0.035 C 
ATOM     12  C   UNL A   1      48.404  31.362  35.633  1.00  0.00     0.011 C 
ATOM     13  C   UNL A   1      46.263  31.998  36.774  1.00  0.00     0.007 C 
ATOM     14  C   UNL A   1      46.262  30.358  34.779  1.00  0.00     0.015 C 
ATOM     15  C   UNL A   1      44.752  31.764  36.834  1.00  0.00     0.018 C 
ATOM     16  C   UNL A   1      44.770  30.002  35.053  1.00  0.00     0.031 C 
ATOM     17  C   UNL A   1      44.367  28.565  34.635  1.00  0.00    -0.064 C 
ATOM     18  C   UNL A   1      42.848  30.137  36.601  1.00  0.00     0.018 C 
ATOM     19  C   UNL A   1      43.023  27.948  35.094  1.00  0.00    -0.006 C 
ATOM     20  C   UNL A   1      45.143  27.857  33.796  1.00  0.00    -0.027 C 
ATOM     21  C   UNL A   1      42.376  28.709  36.322  1.00  0.00     0.013 C 
ATOM     22  C   UNL A   1      42.046  28.202  33.903  1.00  0.00     0.017 C 
ATOM     23  C   UNL A   1      43.179  26.315  35.396  1.00  0.00    -0.020 C 
ATOM     24  C   UNL A   1      44.876  26.467  33.363  1.00  0.00     0.032 C 
ATOM     25  C   UNL A   1      44.209  25.552  34.415  1.00  0.00     0.006 C 
ATOM     26  C   UNL A   1      43.522  26.098  36.900  1.00  0.00     0.008 C 
ATOM     27  C   UNL A   1      41.790  25.627  35.207  1.00  0.00     0.012 C 
ATOM     28  C   UNL A   1      45.140  24.350  35.038  1.00  0.00    -0.025 C 
ATOM     29  C   UNL A   1      44.132  24.778  37.320  1.00  0.00     0.005 C 
ATOM     30  C   UNL A   1      44.352  23.036  34.763  1.00  0.00     0.012 C 
ATOM     31  C   UNL A   1      46.512  24.182  34.319  1.00  0.00     0.010 C 
ATOM     32  C   UNL A   1      45.435  24.557  36.563  1.00  0.00     0.003 C 
ATOM     33  C   UNL A   1      47.486  23.188  34.959  1.00  0.00     0.033 C 
ATOM     34  C   UNL A   1      46.411  23.529  37.272  1.00  0.00    -0.006 C 
ATOM     35  C   UNL A   1      47.721  23.430  36.449  1.00  0.00     0.120 C 
ATOM     36  C   UNL A   1      45.818  22.124  37.506  1.00  0.00     0.014 C 
ATOM     37  C   UNL A   1      46.784  24.060  38.689  1.00  0.00     0.014 C 
BRANCH  35  38
ATOM     38  O   UNL A   1      48.576  22.406  36.958  1.00  0.00    -0.393 OA
ATOM     39  H   UNL A   1      48.952  22.690  37.806  1.00  0.00     0.210 HD
ENDBRANCH  35  38
ENDBRANCH   6   9
ENDBRANCH   4   5
ENDBRANCH   3   4
ENDBRANCH   2   3
ENDBRANCH   1   2
BRANCH   1  40
ATOM     40  C   UNL A   1      50.476  27.781  34.614  1.00  0.00     0.021 C 
BRANCH  40  41
ATOM     41  C   UNL A   1      51.163  28.180  33.323  1.00  0.00     0.116 C 
BRANCH  41  42
ATOM     42  N   UNL A   1      52.131  27.230  32.797  1.00  0.00    -0.352 N 
ATOM     43  C   UNL A   1      51.921  26.377  31.729  1.00  0.00     0.251 C 
ATOM     44  H   UNL A   1      53.010  27.192  33.238  1.00  0.00     0.163 HD
ATOM     45  O   UNL A   1      52.802  25.635  31.312  1.00  0.00    -0.269 OA
BRANCH  43  46
ATOM     46  C   UNL A   1      50.562  26.351  31.146  1.00  0.00     0.039 A 
ATOM     47  C   UNL A   1      49.546  25.704  31.851  1.00  0.00     0.014 A 
ATOM     48  C   UNL A   1      50.270  27.161  30.046  1.00  0.00     0.014 A 
ATOM     49  C   UNL A   1      48.216  25.959  31.513  1.00  0.00     0.010 A 
ATOM     50  C   UNL A   1      48.947  27.487  29.777  1.00  0.00     0.010 A 
ATOM     51  C   UNL A   1      47.907  26.900  30.516  1.00  0.00    -0.014 A 
BRANCH  51  52
ATOM     52  C   UNL A   1      46.501  27.296  30.245  1.00  0.00     0.031 A 
ATOM     53  C   UNL A   1      45.577  26.343  29.540  1.00  0.00     0.074 A 
ATOM     54  C   UNL A   1      46.071  28.529  30.578  1.00  0.00     0.049 A 
ATOM     55  N   UNL A   1      44.325  26.505  29.200  1.00  0.00    -0.248 NA
ATOM     56  C   UNL A   1      46.148  25.050  29.138  1.00  0.00     0.031 C 
ATOM     57  C   UNL A   1      46.883  29.570  31.212  1.00  0.00     0.029 A 
ATOM     58  N   UNL A   1      44.838  29.116  30.434  1.00  0.00    -0.354 N 
ATOM     59  C   UNL A   1      43.964  25.340  28.538  1.00  0.00     0.074 A 
ATOM     60  C   UNL A   1      45.147  24.512  28.461  1.00  0.00     0.031 C 
ATOM     61  C   UNL A   1      46.115  30.647  31.446  1.00  0.00     0.029 A 
ATOM     62  C   UNL A   1      44.766  30.387  30.952  1.00  0.00     0.049 A 
ATOM     63  H   UNL A   1      44.076  28.667  30.000  1.00  0.00     0.167 HD
ATOM     64  C   UNL A   1      42.748  24.972  28.067  1.00  0.00     0.037 A 
ATOM     65  C   UNL A   1      43.726  31.239  31.032  1.00  0.00     0.037 A 
ATOM     66  C   UNL A   1      41.568  25.788  28.158  1.00  0.00     0.049 A 
ATOM     67  C   UNL A   1      42.388  30.817  30.491  1.00  0.00     0.074 A 
ATOM     68  C   UNL A   1      40.278  25.489  27.759  1.00  0.00     0.029 A 
ATOM     69  N   UNL A   1      41.537  27.070  28.688  1.00  0.00    -0.354 N 
ATOM     70  N   UNL A   1      42.042  29.681  29.935  1.00  0.00    -0.248 NA
ATOM     71  C   UNL A   1      41.296  31.796  30.592  1.00  0.00     0.031 C 
ATOM     72  C   UNL A   1      39.473  26.606  28.012  1.00  0.00     0.029 A 
ATOM     73  C   UNL A   1      40.254  27.585  28.607  1.00  0.00     0.049 A 
ATOM     74  H   UNL A   1      42.314  27.544  29.065  1.00  0.00     0.167 HD
ATOM     75  C   UNL A   1      40.688  29.795  29.648  1.00  0.00     0.074 A 
ATOM     76  C   UNL A   1      40.275  31.109  30.098  1.00  0.00     0.031 C 
ATOM     77  C   UNL A   1      39.861  28.893  29.065  1.00  0.00     0.037 A 
BRANCH  64  78
ATOM     78  C   UNL A   1      42.656  23.623  27.417  1.00  0.00     0.057 A 
ATOM     79  C   UNL A   1      42.805  23.464  26.031  1.00  0.00     0.134 A 
ATOM     80  C   UNL A   1      42.385  22.478  28.173  1.00  0.00     0.134 A 
ATOM     81  F   UNL A   1      43.047  24.524  25.247  1.00  0.00    -0.206 F 
ATOM     82  C   UNL A   1      42.643  22.220  25.417  1.00  0.00     0.040 A 
ATOM     83  C   UNL A   1      42.250  21.223  27.574  1.00  0.00     0.040 A 
ATOM     84  F   UNL A   1      42.235  22.559  29.504  1.00  0.00    -0.206 F 
ATOM     85  C   UNL A   1      42.367  21.095  26.190  1.00  0.00     0.006 A 
ENDBRANCH  64  78
BRANCH  65  86
ATOM     86  C   UNL A   1      43.890  32.553  31.703  1.00  0.00     0.057 A 
ATOM     87  C   UNL A   1      43.419  32.752  33.007  1.00  0.00     0.134 A 
ATOM     88  C   UNL A   1      44.516  33.633  31.072  1.00  0.00     0.134 A 
ATOM     89  F   UNL A   1      42.794  31.758  33.656  1.00  0.00    -0.206 F 
ATOM     90  C   UNL A   1      43.553  33.980  33.656  1.00  0.00     0.040 A 
ATOM     91  C   UNL A   1      44.675  34.862  31.716  1.00  0.00     0.040 A 
ATOM     92  F   UNL A   1      44.994  33.506  29.826  1.00  0.00    -0.206 F 
ATOM     93  C   UNL A   1      44.187  35.039  33.010  1.00  0.00     0.006 A 
ENDBRANCH  65  86
BRANCH  77  94
ATOM     94  C   UNL A   1      38.422  29.283  28.911  1.00  0.00     0.057 A 
ATOM     95  C   UNL A   1      37.896  29.697  27.682  1.00  0.00     0.134 A 
ATOM     96  C   UNL A   1      37.542  29.203  29.999  1.00  0.00     0.134 A 
ATOM     97  F   UNL A   1      38.689  29.808  26.606  1.00  0.00    -0.206 F 
ATOM     98  C   UNL A   1      36.548  30.035  27.543  1.00  0.00     0.040 A 
ATOM     99  C   UNL A   1      36.189  29.515  29.867  1.00  0.00     0.040 A 
ATOM    100  F   UNL A   1      37.982  28.807  31.203  1.00  0.00    -0.206 F 
ATOM    101  C   UNL A   1      35.690  29.937  28.637  1.00  0.00     0.006 A 
ENDBRANCH  77  94
ENDBRANCH  51  52
ENDBRANCH  43  46
ENDBRANCH  41  42
ENDBRANCH  40  41
ENDBRANCH   1  40
TORSDOF 14
ENDMDL
