MODEL 1
REMARK VINA RESULT:     -12.2      0.000      0.000
REMARK SMILES COc1ccc([C@@H](C(=O)NCCCCCCNC(=O)c2ccc(-c3c4nc(c(-c5c(F)cccc5F)c5ccc([nH]5)c(-c5c(F)cccc5F)c5nc(c(-c6c(F)cccc6F)c6ccc3[nH]6)C=C5)C=C4)cc2)[NH+]2CCC(C(N)=O)CC2)c(C)c1
REMARK SMILES IDX 13 1 12 2 11 3 10 4 8 5 9 6 7 8 6 9 3 10 4 11 85 12 5 13
REMARK SMILES IDX 83 14 84 15 2 16 1 17 74 18 75 19 82 20 76 22 81 23 77 24
REMARK SMILES IDX 78 25 79 26 80 27 14 30 15 31 16 32 17 33 18 34 19 36 20 37
REMARK SMILES IDX 21 38 73 39 22 40 72 41 23 42 24 43 25 44 66 45 26 46 71 47
REMARK SMILES IDX 65 48 67 49 27 50 70 51 64 52 63 53 28 55 54 56 37 57 53 58
REMARK SMILES IDX 38 59 41 60 52 61 68 62 39 63 40 64 51 66 69 67 42 68 29 69
REMARK SMILES IDX 30 70 35 71 31 72 32 73 34 74 36 75 33 76 55 77 56 78 61 79
REMARK SMILES IDX 57 80 58 81 60 82 62 83 59 84 43 85 44 86 49 87 45 88 46 89
REMARK SMILES IDX 48 90 50 91 47 92
REMARK H PARENT 10 7 74 21 79 28 79 29 17 35 67 54 41 65
REMARK Flexibility Score: inf
ROOT
ATOM      1  C   UNL A   1      32.096  27.479  25.892  1.00  0.00     0.002 C 
ENDROOT
BRANCH   1   2
ATOM      2  C   UNL A   1      31.060  26.365  26.111  1.00  0.00     0.021 C 
BRANCH   2   3
ATOM      3  C   UNL A   1      31.572  25.119  26.837  1.00  0.00     0.116 C 
BRANCH   3   4
ATOM      4  N   UNL A   1      30.647  24.010  26.751  1.00  0.00    -0.351 N 
ATOM      5  C   UNL A   1      30.800  22.771  26.184  1.00  0.00     0.283 C 
ATOM      6  O   UNL A   1      29.848  21.997  26.330  1.00  0.00    -0.268 OA
ATOM      7  H   UNL A   1      29.769  24.170  27.166  1.00  0.00     0.163 HD
BRANCH   5   8
ATOM      8  C   UNL A   1      32.134  22.392  25.467  1.00  0.00     0.305 C 
BRANCH   8   9
ATOM      9  C   UNL A   1      32.645  23.407  24.427  1.00  0.00     0.022 A 
ATOM     10  C   UNL A   1      33.265  25.374  22.478  1.00  0.00     0.119 A 
ATOM     11  C   UNL A   1      32.006  24.794  22.491  1.00  0.00     0.047 A 
ATOM     12  C   UNL A   1      34.225  24.941  23.391  1.00  0.00     0.050 A 
ATOM     13  C   UNL A   1      31.702  23.833  23.457  1.00  0.00     0.014 A 
ATOM     14  C   UNL A   1      33.944  23.960  24.367  1.00  0.00    -0.038 A 
ATOM     15  C   UNL A   1      35.076  23.634  25.304  1.00  0.00     0.045 C 
BRANCH  10  16
ATOM     16  O   UNL A   1      33.667  26.338  21.598  1.00  0.00    -0.497 OA
ATOM     17  C   UNL A   1      33.631  27.665  22.118  1.00  0.00     0.278 C 
ENDBRANCH  10  16
ENDBRANCH   8   9
BRANCH   8  18
ATOM     18  N   UNL A   1      32.166  20.957  25.021  1.00  0.00    -0.321 N 
ATOM     19  C   UNL A   1      32.535  20.769  23.614  1.00  0.00     0.263 C 
ATOM     20  C   UNL A   1      32.964  20.111  25.921  1.00  0.00     0.263 C 
ATOM     21  H   UNL A   1      31.198  20.642  25.085  1.00  0.00     0.349 HD
ATOM     22  C   UNL A   1      32.452  19.303  23.187  1.00  0.00     0.075 C 
ATOM     23  C   UNL A   1      32.910  18.632  25.533  1.00  0.00     0.075 C 
ATOM     24  C   UNL A   1      33.350  18.454  24.083  1.00  0.00     0.089 C 
BRANCH  24  25
ATOM     25  C   UNL A   1      33.301  17.002  23.658  1.00  0.00     0.220 C 
ATOM     26  N   UNL A   1      32.563  16.195  24.474  1.00  0.00    -0.369 N 
ATOM     27  O   UNL A   1      33.881  16.543  22.681  1.00  0.00    -0.275 OA
ATOM     28  H   UNL A   1      32.101  16.576  25.256  1.00  0.00     0.159 HD
ATOM     29  H   UNL A   1      32.491  15.232  24.281  1.00  0.00     0.159 HD
ENDBRANCH  24  25
ENDBRANCH   8  18
ENDBRANCH   5   8
ENDBRANCH   3   4
ENDBRANCH   2   3
ENDBRANCH   1   2
BRANCH   1  30
ATOM     30  C   UNL A   1      31.974  28.724  26.784  1.00  0.00     0.002 C 
BRANCH  30  31
ATOM     31  C   UNL A   1      33.201  29.074  27.631  1.00  0.00     0.021 C 
BRANCH  31  32
ATOM     32  C   UNL A   1      33.954  30.315  27.173  1.00  0.00     0.116 C 
BRANCH  32  33
ATOM     33  N   UNL A   1      34.439  31.153  28.263  1.00  0.00    -0.352 N 
ATOM     34  C   UNL A   1      35.578  31.016  29.039  1.00  0.00     0.251 C 
ATOM     35  H   UNL A   1      33.874  31.929  28.479  1.00  0.00     0.163 HD
ATOM     36  O   UNL A   1      35.815  31.818  29.928  1.00  0.00    -0.269 OA
BRANCH  34  37
ATOM     37  C   UNL A   1      36.580  29.977  28.687  1.00  0.00     0.039 A 
ATOM     38  C   UNL A   1      36.815  28.965  29.625  1.00  0.00     0.014 A 
ATOM     39  C   UNL A   1      37.418  30.117  27.585  1.00  0.00     0.014 A 
ATOM     40  C   UNL A   1      38.029  28.285  29.604  1.00  0.00     0.010 A 
ATOM     41  C   UNL A   1      38.660  29.512  27.611  1.00  0.00     0.010 A 
ATOM     42  C   UNL A   1      38.994  28.659  28.668  1.00  0.00    -0.014 A 
BRANCH  42  43
ATOM     43  C   UNL A   1      40.409  28.360  28.846  1.00  0.00     0.031 A 
ATOM     44  C   UNL A   1      41.024  27.154  28.261  1.00  0.00     0.074 A 
ATOM     45  C   UNL A   1      41.180  29.246  29.516  1.00  0.00     0.049 A 
ATOM     46  N   UNL A   1      42.059  26.557  28.753  1.00  0.00    -0.248 NA
ATOM     47  C   UNL A   1      40.487  26.500  27.077  1.00  0.00     0.031 C 
ATOM     48  C   UNL A   1      42.637  29.279  29.589  1.00  0.00     0.029 A 
ATOM     49  N   UNL A   1      40.760  30.202  30.451  1.00  0.00    -0.354 N 
ATOM     50  C   UNL A   1      42.487  25.633  27.826  1.00  0.00     0.074 A 
ATOM     51  C   UNL A   1      41.435  25.590  26.832  1.00  0.00     0.031 C 
ATOM     52  C   UNL A   1      42.999  29.981  30.674  1.00  0.00     0.029 A 
ATOM     53  C   UNL A   1      41.787  30.295  31.412  1.00  0.00     0.049 A 
ATOM     54  H   UNL A   1      39.916  30.708  30.438  1.00  0.00     0.167 HD
ATOM     55  C   UNL A   1      43.745  25.111  27.918  1.00  0.00     0.037 A 
ATOM     56  C   UNL A   1      41.567  29.981  32.721  1.00  0.00     0.037 A 
ATOM     57  C   UNL A   1      44.457  25.630  29.082  1.00  0.00     0.049 A 
ATOM     58  C   UNL A   1      42.438  28.864  33.244  1.00  0.00     0.074 A 
ATOM     59  C   UNL A   1      45.364  26.669  29.224  1.00  0.00     0.029 A 
ATOM     60  N   UNL A   1      44.053  25.283  30.366  1.00  0.00    -0.354 N 
ATOM     61  N   UNL A   1      43.081  28.027  32.481  1.00  0.00    -0.248 NA
ATOM     62  C   UNL A   1      42.601  28.565  34.666  1.00  0.00     0.031 C 
ATOM     63  C   UNL A   1      45.468  26.981  30.599  1.00  0.00     0.029 A 
ATOM     64  C   UNL A   1      44.633  26.126  31.296  1.00  0.00     0.049 A 
ATOM     65  H   UNL A   1      43.442  24.543  30.582  1.00  0.00     0.167 HD
ATOM     66  C   UNL A   1      43.673  27.067  33.259  1.00  0.00     0.074 A 
ATOM     67  C   UNL A   1      43.374  27.466  34.621  1.00  0.00     0.031 C 
ATOM     68  C   UNL A   1      44.332  26.005  32.713  1.00  0.00     0.037 A 
BRANCH  55  69
ATOM     69  C   UNL A   1      44.429  24.407  26.765  1.00  0.00     0.057 A 
ATOM     70  C   UNL A   1      44.470  23.000  26.688  1.00  0.00     0.134 A 
ATOM     71  C   UNL A   1      45.119  25.060  25.730  1.00  0.00     0.134 A 
ATOM     72  F   UNL A   1      43.753  22.225  27.512  1.00  0.00    -0.206 F 
ATOM     73  C   UNL A   1      45.256  22.308  25.759  1.00  0.00     0.040 A 
ATOM     74  C   UNL A   1      45.952  24.384  24.825  1.00  0.00     0.040 A 
ATOM     75  F   UNL A   1      44.979  26.377  25.523  1.00  0.00    -0.206 F 
ATOM     76  C   UNL A   1      46.040  23.001  24.852  1.00  0.00     0.006 A 
ENDBRANCH  55  69
BRANCH  56  77
ATOM     77  C   UNL A   1      40.174  30.226  33.172  1.00  0.00     0.057 A 
ATOM     78  C   UNL A   1      39.774  31.540  33.468  1.00  0.00     0.134 A 
ATOM     79  C   UNL A   1      39.164  29.277  32.986  1.00  0.00     0.134 A 
ATOM     80  F   UNL A   1      40.694  32.499  33.657  1.00  0.00    -0.206 F 
ATOM     81  C   UNL A   1      38.428  31.916  33.480  1.00  0.00     0.040 A 
ATOM     82  C   UNL A   1      37.813  29.641  33.004  1.00  0.00     0.040 A 
ATOM     83  F   UNL A   1      39.467  28.009  32.677  1.00  0.00    -0.206 F 
ATOM     84  C   UNL A   1      37.443  30.969  33.216  1.00  0.00     0.006 A 
ENDBRANCH  56  77
BRANCH  68  85
ATOM     85  C   UNL A   1      44.823  24.804  33.475  1.00  0.00     0.057 A 
ATOM     86  C   UNL A   1      44.283  23.518  33.336  1.00  0.00     0.134 A 
ATOM     87  C   UNL A   1      45.976  24.895  34.282  1.00  0.00     0.134 A 
ATOM     88  F   UNL A   1      43.252  23.276  32.516  1.00  0.00    -0.206 F 
ATOM     89  C   UNL A   1      44.819  22.406  34.002  1.00  0.00     0.040 A 
ATOM     90  C   UNL A   1      46.546  23.785  34.912  1.00  0.00     0.040 A 
ATOM     91  F   UNL A   1      46.607  26.063  34.477  1.00  0.00    -0.206 F 
ATOM     92  C   UNL A   1      45.959  22.535  34.785  1.00  0.00     0.006 A 
ENDBRANCH  68  85
ENDBRANCH  42  43
ENDBRANCH  34  37
ENDBRANCH  32  33
ENDBRANCH  31  32
ENDBRANCH  30  31
ENDBRANCH   1  30
TORSDOF 17
ENDMDL
MODEL 2
REMARK VINA RESULT:     -12.0      1.409      2.008
REMARK SMILES COc1ccc([C@@H](C(=O)NCCCCCCNC(=O)c2ccc(-c3c4nc(c(-c5c(F)cccc5F)c5ccc([nH]5)c(-c5c(F)cccc5F)c5nc(c(-c6c(F)cccc6F)c6ccc3[nH]6)C=C5)C=C4)cc2)[NH+]2CCC(C(N)=O)CC2)c(C)c1
REMARK SMILES IDX 13 1 12 2 11 3 10 4 8 5 9 6 7 8 6 9 3 10 4 11 85 12 5 13
REMARK SMILES IDX 83 14 84 15 2 16 1 17 74 18 75 19 82 20 76 22 81 23 77 24
REMARK SMILES IDX 78 25 79 26 80 27 14 30 15 31 16 32 17 33 18 34 19 36 20 37
REMARK SMILES IDX 21 38 73 39 22 40 72 41 23 42 24 43 25 44 66 45 26 46 71 47
REMARK SMILES IDX 65 48 67 49 27 50 70 51 64 52 63 53 28 55 54 56 37 57 53 58
REMARK SMILES IDX 38 59 41 60 52 61 68 62 39 63 40 64 51 66 69 67 42 68 29 69
REMARK SMILES IDX 30 70 35 71 31 72 32 73 34 74 36 75 33 76 55 77 56 78 61 79
REMARK SMILES IDX 57 80 58 81 60 82 62 83 59 84 43 85 44 86 49 87 45 88 46 89
REMARK SMILES IDX 48 90 50 91 47 92
REMARK H PARENT 10 7 74 21 79 28 79 29 17 35 67 54 41 65
REMARK Flexibility Score: inf
ROOT
ATOM      1  C   UNL A   1      32.002  28.336  26.069  1.00  0.00     0.002 C 
ENDROOT
BRANCH   1   2
ATOM      2  C   UNL A   1      33.250  27.508  26.409  1.00  0.00     0.021 C 
BRANCH   2   3
ATOM      3  C   UNL A   1      33.146  26.007  26.127  1.00  0.00     0.116 C 
BRANCH   3   4
ATOM      4  N   UNL A   1      34.350  25.471  25.532  1.00  0.00    -0.351 N 
ATOM      5  C   UNL A   1      34.511  24.648  24.447  1.00  0.00     0.283 C 
ATOM      6  O   UNL A   1      35.681  24.413  24.126  1.00  0.00    -0.268 OA
ATOM      7  H   UNL A   1      35.187  25.740  25.975  1.00  0.00     0.163 HD
BRANCH   5   8
ATOM      8  C   UNL A   1      33.267  24.123  23.664  1.00  0.00     0.305 C 
BRANCH   8   9
ATOM      9  C   UNL A   1      32.132  25.143  23.452  1.00  0.00     0.022 A 
ATOM     10  C   UNL A   1      29.902  26.893  23.340  1.00  0.00     0.119 A 
ATOM     11  C   UNL A   1      29.777  25.661  23.963  1.00  0.00     0.047 A 
ATOM     12  C   UNL A   1      31.109  27.229  22.730  1.00  0.00     0.050 A 
ATOM     13  C   UNL A   1      30.878  24.807  24.025  1.00  0.00     0.014 A 
ATOM     14  C   UNL A   1      32.232  26.373  22.766  1.00  0.00    -0.038 A 
ATOM     15  C   UNL A   1      33.471  26.901  22.095  1.00  0.00     0.045 C 
BRANCH  10  16
ATOM     16  O   UNL A   1      28.902  27.819  23.241  1.00  0.00    -0.497 OA
ATOM     17  C   UNL A   1      29.279  29.027  22.583  1.00  0.00     0.278 C 
ENDBRANCH  10  16
ENDBRANCH   8   9
BRANCH   8  18
ATOM     18  N   UNL A   1      32.821  22.764  24.127  1.00  0.00    -0.321 N 
ATOM     19  C   UNL A   1      32.845  21.733  23.084  1.00  0.00     0.263 C 
ATOM     20  C   UNL A   1      33.517  22.334  25.348  1.00  0.00     0.263 C 
ATOM     21  H   UNL A   1      31.835  22.880  24.361  1.00  0.00     0.349 HD
ATOM     22  C   UNL A   1      32.285  20.398  23.579  1.00  0.00     0.075 C 
ATOM     23  C   UNL A   1      32.989  21.001  25.883  1.00  0.00     0.075 C 
ATOM     24  C   UNL A   1      33.074  19.931  24.799  1.00  0.00     0.089 C 
BRANCH  24  25
ATOM     25  C   UNL A   1      32.550  18.597  25.289  1.00  0.00     0.220 C 
ATOM     26  N   UNL A   1      32.811  18.331  26.602  1.00  0.00    -0.369 N 
ATOM     27  O   UNL A   1      31.956  17.785  24.591  1.00  0.00    -0.275 OA
ATOM     28  H   UNL A   1      33.289  18.992  27.153  1.00  0.00     0.159 HD
ATOM     29  H   UNL A   1      32.521  17.478  26.998  1.00  0.00     0.159 HD
ENDBRANCH  24  25
ENDBRANCH   8  18
ENDBRANCH   5   8
ENDBRANCH   3   4
ENDBRANCH   2   3
ENDBRANCH   1   2
BRANCH   1  30
ATOM     30  C   UNL A   1      32.182  29.860  25.986  1.00  0.00     0.002 C 
BRANCH  30  31
ATOM     31  C   UNL A   1      32.651  30.558  27.265  1.00  0.00     0.021 C 
BRANCH  31  32
ATOM     32  C   UNL A   1      34.130  30.917  27.286  1.00  0.00     0.116 C 
BRANCH  32  33
ATOM     33  N   UNL A   1      34.564  31.583  28.508  1.00  0.00    -0.352 N 
ATOM     34  C   UNL A   1      35.593  31.252  29.373  1.00  0.00     0.251 C 
ATOM     35  H   UNL A   1      34.051  32.386  28.754  1.00  0.00     0.163 HD
ATOM     36  O   UNL A   1      35.801  31.928  30.367  1.00  0.00    -0.269 OA
BRANCH  34  37
ATOM     37  C   UNL A   1      36.532  30.160  29.007  1.00  0.00     0.039 A 
ATOM     38  C   UNL A   1      36.756  29.157  29.958  1.00  0.00     0.014 A 
ATOM     39  C   UNL A   1      37.331  30.236  27.870  1.00  0.00     0.014 A 
ATOM     40  C   UNL A   1      37.935  28.420  29.905  1.00  0.00     0.010 A 
ATOM     41  C   UNL A   1      38.543  29.574  27.862  1.00  0.00     0.010 A 
ATOM     42  C   UNL A   1      38.879  28.729  28.924  1.00  0.00    -0.014 A 
BRANCH  42  43
ATOM     43  C   UNL A   1      40.285  28.367  29.054  1.00  0.00     0.031 A 
ATOM     44  C   UNL A   1      40.819  27.122  28.474  1.00  0.00     0.074 A 
ATOM     45  C   UNL A   1      41.122  29.230  29.675  1.00  0.00     0.049 A 
ATOM     46  N   UNL A   1      41.844  26.487  28.939  1.00  0.00    -0.248 NA
ATOM     47  C   UNL A   1      40.206  26.469  27.326  1.00  0.00     0.031 C 
ATOM     48  C   UNL A   1      42.580  29.194  29.691  1.00  0.00     0.029 A 
ATOM     49  N   UNL A   1      40.784  30.223  30.603  1.00  0.00    -0.354 N 
ATOM     50  C   UNL A   1      42.191  25.524  28.017  1.00  0.00     0.074 A 
ATOM     51  C   UNL A   1      41.100  25.511  27.066  1.00  0.00     0.031 C 
ATOM     52  C   UNL A   1      43.017  29.901  30.745  1.00  0.00     0.029 A 
ATOM     53  C   UNL A   1      41.851  30.287  31.522  1.00  0.00     0.049 A 
ATOM     54  H   UNL A   1      39.964  30.768  30.612  1.00  0.00     0.167 HD
ATOM     55  C   UNL A   1      43.427  24.945  28.072  1.00  0.00     0.037 A 
ATOM     56  C   UNL A   1      41.668  30.011  32.845  1.00  0.00     0.037 A 
ATOM     57  C   UNL A   1      44.208  25.454  29.196  1.00  0.00     0.049 A 
ATOM     58  C   UNL A   1      42.506  28.865  33.359  1.00  0.00     0.074 A 
ATOM     59  C   UNL A   1      45.167  26.452  29.280  1.00  0.00     0.029 A 
ATOM     60  N   UNL A   1      43.839  25.153  30.502  1.00  0.00    -0.354 N 
ATOM     61  N   UNL A   1      43.080  27.983  32.591  1.00  0.00    -0.248 NA
ATOM     62  C   UNL A   1      42.712  28.588  34.780  1.00  0.00     0.031 C 
ATOM     63  C   UNL A   1      45.339  26.787  30.643  1.00  0.00     0.029 A 
ATOM     64  C   UNL A   1      44.494  25.987  31.390  1.00  0.00     0.049 A 
ATOM     65  H   UNL A   1      43.203  24.447  30.758  1.00  0.00     0.167 HD
ATOM     66  C   UNL A   1      43.656  27.012  33.367  1.00  0.00     0.074 A 
ATOM     67  C   UNL A   1      43.430  27.453  34.730  1.00  0.00     0.031 C 
ATOM     68  C   UNL A   1      44.243  25.909  32.820  1.00  0.00     0.037 A 
BRANCH  55  69
ATOM     69  C   UNL A   1      44.031  24.186  26.910  1.00  0.00     0.057 A 
ATOM     70  C   UNL A   1      43.798  22.807  26.737  1.00  0.00     0.134 A 
ATOM     71  C   UNL A   1      44.903  24.746  25.961  1.00  0.00     0.134 A 
ATOM     72  F   UNL A   1      42.889  22.146  27.466  1.00  0.00    -0.206 F 
ATOM     73  C   UNL A   1      44.490  22.025  25.804  1.00  0.00     0.040 A 
ATOM     74  C   UNL A   1      45.643  23.969  25.056  1.00  0.00     0.040 A 
ATOM     75  F   UNL A   1      45.041  26.073  25.840  1.00  0.00    -0.206 F 
ATOM     76  C   UNL A   1      45.453  22.597  24.990  1.00  0.00     0.006 A 
ENDBRANCH  55  69
BRANCH  56  77
ATOM     77  C   UNL A   1      40.307  30.330  33.344  1.00  0.00     0.057 A 
ATOM     78  C   UNL A   1      39.989  31.664  33.652  1.00  0.00     0.134 A 
ATOM     79  C   UNL A   1      39.242  29.439  33.193  1.00  0.00     0.134 A 
ATOM     80  F   UNL A   1      40.967  32.571  33.808  1.00  0.00    -0.206 F 
ATOM     81  C   UNL A   1      38.668  32.113  33.710  1.00  0.00     0.040 A 
ATOM     82  C   UNL A   1      37.913  29.875  33.258  1.00  0.00     0.040 A 
ATOM     83  F   UNL A   1      39.464  28.156  32.874  1.00  0.00    -0.206 F 
ATOM     84  C   UNL A   1      37.624  31.221  33.481  1.00  0.00     0.006 A 
ENDBRANCH  56  77
BRANCH  68  85
ATOM     85  C   UNL A   1      44.708  24.703  33.589  1.00  0.00     0.057 A 
ATOM     86  C   UNL A   1      46.053  24.320  33.702  1.00  0.00     0.134 A 
ATOM     87  C   UNL A   1      43.799  23.961  34.371  1.00  0.00     0.134 A 
ATOM     88  F   UNL A   1      47.029  25.007  33.095  1.00  0.00    -0.206 F 
ATOM     89  C   UNL A   1      46.458  23.236  34.493  1.00  0.00     0.040 A 
ATOM     90  C   UNL A   1      44.198  22.908  35.199  1.00  0.00     0.040 A 
ATOM     91  F   UNL A   1      42.487  24.240  34.375  1.00  0.00    -0.206 F 
ATOM     92  C   UNL A   1      45.532  22.533  35.253  1.00  0.00     0.006 A 
ENDBRANCH  68  85
ENDBRANCH  42  43
ENDBRANCH  34  37
ENDBRANCH  32  33
ENDBRANCH  31  32
ENDBRANCH  30  31
ENDBRANCH   1  30
TORSDOF 17
ENDMDL
MODEL 3
REMARK VINA RESULT:     -11.9      3.761      8.544
REMARK SMILES COc1ccc([C@@H](C(=O)NCCCCCCNC(=O)c2ccc(-c3c4nc(c(-c5c(F)cccc5F)c5ccc([nH]5)c(-c5c(F)cccc5F)c5nc(c(-c6c(F)cccc6F)c6ccc3[nH]6)C=C5)C=C4)cc2)[NH+]2CCC(C(N)=O)CC2)c(C)c1
REMARK SMILES IDX 13 1 12 2 11 3 10 4 8 5 9 6 7 8 6 9 3 10 4 11 85 12 5 13
REMARK SMILES IDX 83 14 84 15 2 16 1 17 74 18 75 19 82 20 76 22 81 23 77 24
REMARK SMILES IDX 78 25 79 26 80 27 14 30 15 31 16 32 17 33 18 34 19 36 20 37
REMARK SMILES IDX 21 38 73 39 22 40 72 41 23 42 24 43 25 44 66 45 26 46 71 47
REMARK SMILES IDX 65 48 67 49 27 50 70 51 64 52 63 53 28 55 54 56 37 57 53 58
REMARK SMILES IDX 38 59 41 60 52 61 68 62 39 63 40 64 51 66 69 67 42 68 29 69
REMARK SMILES IDX 30 70 35 71 31 72 32 73 34 74 36 75 33 76 55 77 56 78 61 79
REMARK SMILES IDX 57 80 58 81 60 82 62 83 59 84 43 85 44 86 49 87 45 88 46 89
REMARK SMILES IDX 48 90 50 91 47 92
REMARK H PARENT 10 7 74 21 79 28 79 29 17 35 67 54 41 65
REMARK Flexibility Score: inf
ROOT
ATOM      1  C   UNL A   1      36.836  21.969  25.293  1.00  0.00     0.002 C 
ENDROOT
BRANCH   1   2
ATOM      2  C   UNL A   1      36.350  22.456  23.920  1.00  0.00     0.021 C 
BRANCH   2   3
ATOM      3  C   UNL A   1      35.957  23.933  23.842  1.00  0.00     0.116 C 
BRANCH   3   4
ATOM      4  N   UNL A   1      35.274  24.387  25.034  1.00  0.00    -0.351 N 
ATOM      5  C   UNL A   1      33.937  24.580  25.270  1.00  0.00     0.283 C 
ATOM      6  O   UNL A   1      33.642  24.909  26.424  1.00  0.00    -0.268 OA
ATOM      7  H   UNL A   1      35.863  24.590  25.797  1.00  0.00     0.163 HD
BRANCH   5   8
ATOM      8  C   UNL A   1      32.892  24.323  24.140  1.00  0.00     0.305 C 
BRANCH   8   9
ATOM      9  C   UNL A   1      31.755  25.357  24.034  1.00  0.00     0.022 A 
ATOM     10  C   UNL A   1      29.753  27.300  23.517  1.00  0.00     0.119 A 
ATOM     11  C   UNL A   1      30.918  27.299  22.767  1.00  0.00     0.047 A 
ATOM     12  C   UNL A   1      29.608  26.377  24.551  1.00  0.00     0.050 A 
ATOM     13  C   UNL A   1      31.897  26.336  23.018  1.00  0.00     0.014 A 
ATOM     14  C   UNL A   1      30.591  25.404  24.833  1.00  0.00    -0.038 A 
ATOM     15  C   UNL A   1      30.263  24.456  25.955  1.00  0.00     0.045 C 
BRANCH  10  16
ATOM     16  O   UNL A   1      28.719  28.176  23.346  1.00  0.00    -0.497 OA
ATOM     17  C   UNL A   1      28.919  29.130  22.305  1.00  0.00     0.278 C 
ENDBRANCH  10  16
ENDBRANCH   8   9
BRANCH   8  18
ATOM     18  N   UNL A   1      32.453  22.887  24.069  1.00  0.00    -0.321 N 
ATOM     19  C   UNL A   1      32.682  22.249  22.769  1.00  0.00     0.263 C 
ATOM     20  C   UNL A   1      32.984  22.086  25.182  1.00  0.00     0.263 C 
ATOM     21  H   UNL A   1      31.439  22.920  24.172  1.00  0.00     0.349 HD
ATOM     22  C   UNL A   1      32.125  20.825  22.719  1.00  0.00     0.075 C 
ATOM     23  C   UNL A   1      32.452  20.651  25.174  1.00  0.00     0.075 C 
ATOM     24  C   UNL A   1      32.750  19.989  23.833  1.00  0.00     0.089 C 
BRANCH  24  25
ATOM     25  C   UNL A   1      32.229  18.568  23.783  1.00  0.00     0.220 C 
ATOM     26  N   UNL A   1      32.002  18.089  22.525  1.00  0.00    -0.369 N 
ATOM     27  O   UNL A   1      31.996  17.878  24.768  1.00  0.00    -0.275 OA
ATOM     28  H   UNL A   1      32.193  18.654  21.741  1.00  0.00     0.159 HD
ATOM     29  H   UNL A   1      31.647  17.179  22.401  1.00  0.00     0.159 HD
ENDBRANCH  24  25
ENDBRANCH   8  18
ENDBRANCH   5   8
ENDBRANCH   3   4
ENDBRANCH   2   3
ENDBRANCH   1   2
BRANCH   1  30
ATOM     30  C   UNL A   1      37.824  20.793  25.303  1.00  0.00     0.002 C 
BRANCH  30  31
ATOM     31  C   UNL A   1      39.214  21.079  25.879  1.00  0.00     0.021 C 
BRANCH  31  32
ATOM     32  C   UNL A   1      39.453  22.531  26.267  1.00  0.00     0.116 C 
BRANCH  32  33
ATOM     33  N   UNL A   1      40.856  22.868  26.477  1.00  0.00    -0.352 N 
ATOM     34  C   UNL A   1      41.433  24.093  26.765  1.00  0.00     0.251 C 
ATOM     35  H   UNL A   1      41.484  22.115  26.402  1.00  0.00     0.163 HD
ATOM     36  O   UNL A   1      42.643  24.187  26.893  1.00  0.00    -0.269 OA
BRANCH  34  37
ATOM     37  C   UNL A   1      40.561  25.259  27.062  1.00  0.00     0.039 A 
ATOM     38  C   UNL A   1      40.776  26.429  26.324  1.00  0.00     0.014 A 
ATOM     39  C   UNL A   1      39.722  25.277  28.173  1.00  0.00     0.014 A 
ATOM     40  C   UNL A   1      40.378  27.652  26.855  1.00  0.00     0.010 A 
ATOM     41  C   UNL A   1      39.406  26.493  28.748  1.00  0.00     0.010 A 
ATOM     42  C   UNL A   1      39.808  27.679  28.128  1.00  0.00    -0.014 A 
BRANCH  42  43
ATOM     43  C   UNL A   1      39.787  28.886  28.947  1.00  0.00     0.031 A 
ATOM     44  C   UNL A   1      38.748  29.917  28.777  1.00  0.00     0.074 A 
ATOM     45  C   UNL A   1      40.715  29.024  29.921  1.00  0.00     0.049 A 
ATOM     46  N   UNL A   1      38.916  31.168  29.053  1.00  0.00    -0.248 NA
ATOM     47  C   UNL A   1      37.428  29.615  28.242  1.00  0.00     0.031 C 
ATOM     48  C   UNL A   1      40.727  30.002  31.004  1.00  0.00     0.029 A 
ATOM     49  N   UNL A   1      41.969  28.403  29.996  1.00  0.00    -0.354 N 
ATOM     50  C   UNL A   1      37.682  31.776  29.002  1.00  0.00     0.074 A 
ATOM     51  C   UNL A   1      36.802  30.781  28.427  1.00  0.00     0.031 C 
ATOM     52  C   UNL A   1      41.982  30.122  31.463  1.00  0.00     0.029 A 
ATOM     53  C   UNL A   1      42.840  29.336  30.592  1.00  0.00     0.049 A 
ATOM     54  H   UNL A   1      42.196  27.494  29.693  1.00  0.00     0.167 HD
ATOM     55  C   UNL A   1      37.502  32.998  29.583  1.00  0.00     0.037 A 
ATOM     56  C   UNL A   1      43.929  29.819  29.927  1.00  0.00     0.037 A 
ATOM     57  C   UNL A   1      38.742  33.502  30.168  1.00  0.00     0.049 A 
ATOM     58  C   UNL A   1      43.930  31.318  29.746  1.00  0.00     0.074 A 
ATOM     59  C   UNL A   1      39.238  33.460  31.463  1.00  0.00     0.029 A 
ATOM     60  N   UNL A   1      39.803  33.875  29.353  1.00  0.00    -0.354 N 
ATOM     61  N   UNL A   1      42.870  32.065  29.872  1.00  0.00    -0.248 NA
ATOM     62  C   UNL A   1      45.110  32.083  29.349  1.00  0.00     0.031 C 
ATOM     63  C   UNL A   1      40.619  33.761  31.417  1.00  0.00     0.029 A 
ATOM     64  C   UNL A   1      40.962  33.998  30.098  1.00  0.00     0.049 A 
ATOM     65  H   UNL A   1      39.740  34.030  28.383  1.00  0.00     0.167 HD
ATOM     66  C   UNL A   1      43.179  33.353  29.524  1.00  0.00     0.074 A 
ATOM     67  C   UNL A   1      44.601  33.323  29.239  1.00  0.00     0.031 C 
ATOM     68  C   UNL A   1      42.230  34.331  29.469  1.00  0.00     0.037 A 
BRANCH  55  69
ATOM     69  C   UNL A   1      36.134  33.558  29.914  1.00  0.00     0.057 A 
ATOM     70  C   UNL A   1      35.296  34.081  28.908  1.00  0.00     0.134 A 
ATOM     71  C   UNL A   1      35.612  33.668  31.213  1.00  0.00     0.134 A 
ATOM     72  F   UNL A   1      35.577  33.935  27.607  1.00  0.00    -0.206 F 
ATOM     73  C   UNL A   1      34.119  34.787  29.185  1.00  0.00     0.040 A 
ATOM     74  C   UNL A   1      34.463  34.417  31.511  1.00  0.00     0.040 A 
ATOM     75  F   UNL A   1      36.166  33.014  32.244  1.00  0.00    -0.206 F 
ATOM     76  C   UNL A   1      33.722  35.000  30.494  1.00  0.00     0.006 A 
ENDBRANCH  55  69
BRANCH  56  77
ATOM     77  C   UNL A   1      44.505  28.866  28.945  1.00  0.00     0.057 A 
ATOM     78  C   UNL A   1      45.378  27.863  29.399  1.00  0.00     0.134 A 
ATOM     79  C   UNL A   1      43.958  28.707  27.668  1.00  0.00     0.134 A 
ATOM     80  F   UNL A   1      45.936  27.955  30.617  1.00  0.00    -0.206 F 
ATOM     81  C   UNL A   1      45.618  26.704  28.657  1.00  0.00     0.040 A 
ATOM     82  C   UNL A   1      44.199  27.554  26.913  1.00  0.00     0.040 A 
ATOM     83  F   UNL A   1      43.098  29.609  27.177  1.00  0.00    -0.206 F 
ATOM     84  C   UNL A   1      45.002  26.533  27.422  1.00  0.00     0.006 A 
ENDBRANCH  56  77
BRANCH  68  85
ATOM     85  C   UNL A   1      42.434  35.708  28.900  1.00  0.00     0.057 A 
ATOM     86  C   UNL A   1      41.870  36.145  27.693  1.00  0.00     0.134 A 
ATOM     87  C   UNL A   1      43.109  36.696  29.647  1.00  0.00     0.134 A 
ATOM     88  F   UNL A   1      41.115  35.335  26.940  1.00  0.00    -0.206 F 
ATOM     89  C   UNL A   1      42.015  37.461  27.232  1.00  0.00     0.040 A 
ATOM     90  C   UNL A   1      43.220  38.022  29.220  1.00  0.00     0.040 A 
ATOM     91  F   UNL A   1      43.673  36.416  30.832  1.00  0.00    -0.206 F 
ATOM     92  C   UNL A   1      42.683  38.407  28.000  1.00  0.00     0.006 A 
ENDBRANCH  68  85
ENDBRANCH  42  43
ENDBRANCH  34  37
ENDBRANCH  32  33
ENDBRANCH  31  32
ENDBRANCH  30  31
ENDBRANCH   1  30
TORSDOF 17
ENDMDL
