MODEL 1
REMARK VINA RESULT:     -12.4      0.000      0.000
REMARK SMILES Cc1ccnc(C(=O)c2[nH]c3cc(F)ccc3c2CC(=O)NCCCCCCNC(=O)c2ccc(-c3c4nc(c(-c5c(F)cccc5F)c5ccc([nH]5)c(-c5c(F)cccc5F)c5nc(c(-c6c(F)cccc6F)c6ccc3[nH]6)C=C5)C=C4)cc2)c1
REMARK SMILES IDX 25 1 24 2 23 3 22 4 20 5 21 6 19 8 18 9 9 10 10 11 11 12
REMARK SMILES IDX 17 14 12 15 16 16 13 17 15 18 14 19 7 20 8 21 6 22 1 23 2 24
REMARK SMILES IDX 3 25 86 26 4 27 5 28 26 29 27 30 28 31 29 32 30 33 31 35
REMARK SMILES IDX 32 36 33 37 85 38 34 39 84 40 35 41 36 42 37 43 78 44 38 45
REMARK SMILES IDX 83 46 77 47 79 48 39 49 82 50 76 51 75 52 40 54 66 55 49 56
REMARK SMILES IDX 65 57 50 58 53 59 64 60 80 61 51 62 52 63 63 65 81 66 54 67
REMARK SMILES IDX 41 68 42 69 47 70 43 71 44 72 46 73 48 74 45 75 67 76 68 77
REMARK SMILES IDX 73 78 69 79 70 80 72 81 74 82 71 83 55 84 56 85 61 86 57 87
REMARK SMILES IDX 58 88 60 89 62 90 59 91
REMARK H PARENT 22 7 10 13 29 34 79 53 53 64
REMARK Flexibility Score: inf
ROOT
ATOM      1  C   UNL A   1      32.121  29.637  25.652  1.00  0.00     0.002 C 
ENDROOT
BRANCH   1   2
ATOM      2  C   UNL A   1      31.603  28.469  26.501  1.00  0.00     0.021 C 
BRANCH   2   3
ATOM      3  C   UNL A   1      32.379  27.163  26.334  1.00  0.00     0.116 C 
BRANCH   3   4
ATOM      4  N   UNL A   1      31.629  26.011  26.791  1.00  0.00    -0.356 N 
ATOM      5  C   UNL A   1      31.864  24.683  26.584  1.00  0.00     0.224 C 
ATOM      6  O   UNL A   1      31.146  23.868  27.170  1.00  0.00    -0.275 OA
ATOM      7  H   UNL A   1      30.832  26.217  27.332  1.00  0.00     0.163 HD
BRANCH   5   8
ATOM      8  C   UNL A   1      33.059  24.216  25.766  1.00  0.00     0.138 C 
BRANCH   8   9
ATOM      9  C   UNL A   1      32.732  23.580  24.443  1.00  0.00    -0.002 A 
ATOM     10  C   UNL A   1      32.480  24.220  23.234  1.00  0.00     0.093 A 
ATOM     11  N   UNL A   1      32.299  23.246  22.281  1.00  0.00    -0.351 N 
ATOM     12  C   UNL A   1      32.303  21.999  22.853  1.00  0.00     0.049 A 
ATOM     13  H   UNL A   1      32.182  23.420  21.318  1.00  0.00     0.167 HD
ATOM     14  C   UNL A   1      32.559  22.173  24.213  1.00  0.00     0.004 A 
ATOM     15  C   UNL A   1      32.113  20.740  22.272  1.00  0.00     0.066 A 
ATOM     16  C   UNL A   1      32.614  21.026  25.038  1.00  0.00     0.013 A 
ATOM     17  C   UNL A   1      32.180  19.632  23.115  1.00  0.00     0.125 A 
ATOM     18  C   UNL A   1      32.423  19.760  24.475  1.00  0.00     0.040 A 
ATOM     19  F   UNL A   1      32.004  18.410  22.596  1.00  0.00    -0.207 F 
BRANCH  10  20
ATOM     20  C   UNL A   1      32.484  25.640  22.921  1.00  0.00     0.227 C 
ATOM     21  O   UNL A   1      33.506  26.191  22.526  1.00  0.00    -0.285 OA
BRANCH  20  22
ATOM     22  C   UNL A   1      31.187  26.409  23.042  1.00  0.00     0.113 A 
ATOM     23  C   UNL A   1      29.622  29.773  22.229  1.00  0.00     0.044 C 
ATOM     24  C   UNL A   1      29.822  28.371  22.722  1.00  0.00    -0.047 A 
ATOM     25  C   UNL A   1      28.791  27.709  23.386  1.00  0.00     0.023 A 
ATOM     26  C   UNL A   1      31.036  27.700  22.530  1.00  0.00     0.036 A 
ATOM     27  C   UNL A   1      29.016  26.422  23.846  1.00  0.00     0.112 A 
ATOM     28  N   UNL A   1      30.188  25.770  23.703  1.00  0.00    -0.253 NA
ENDBRANCH  20  22
ENDBRANCH  10  20
ENDBRANCH   8   9
ENDBRANCH   5   8
ENDBRANCH   3   4
ENDBRANCH   2   3
ENDBRANCH   1   2
BRANCH   1  29
ATOM     29  C   UNL A   1      31.141  30.798  25.443  1.00  0.00     0.002 C 
BRANCH  29  30
ATOM     30  C   UNL A   1      31.111  31.858  26.549  1.00  0.00     0.021 C 
BRANCH  30  31
ATOM     31  C   UNL A   1      32.466  32.455  26.924  1.00  0.00     0.116 C 
BRANCH  31  32
ATOM     32  N   UNL A   1      32.355  33.818  27.418  1.00  0.00    -0.352 N 
ATOM     33  C   UNL A   1      33.073  34.455  28.399  1.00  0.00     0.251 C 
ATOM     34  H   UNL A   1      31.661  34.365  26.985  1.00  0.00     0.163 HD
ATOM     35  O   UNL A   1      32.732  35.571  28.782  1.00  0.00    -0.269 OA
BRANCH  33  36
ATOM     36  C   UNL A   1      34.251  33.803  29.019  1.00  0.00     0.039 A 
ATOM     37  C   UNL A   1      35.526  34.284  28.699  1.00  0.00     0.014 A 
ATOM     38  C   UNL A   1      34.114  32.697  29.862  1.00  0.00     0.014 A 
ATOM     39  C   UNL A   1      36.659  33.693  29.266  1.00  0.00     0.010 A 
ATOM     40  C   UNL A   1      35.243  32.130  30.457  1.00  0.00     0.010 A 
ATOM     41  C   UNL A   1      36.523  32.624  30.164  1.00  0.00    -0.014 A 
BRANCH  41  42
ATOM     42  C   UNL A   1      37.711  32.005  30.803  1.00  0.00     0.031 A 
ATOM     43  C   UNL A   1      38.490  30.942  30.083  1.00  0.00     0.074 A 
ATOM     44  C   UNL A   1      38.055  32.356  32.057  1.00  0.00     0.049 A 
ATOM     45  N   UNL A   1      39.483  30.208  30.517  1.00  0.00    -0.248 NA
ATOM     46  C   UNL A   1      38.087  30.655  28.697  1.00  0.00     0.031 C 
ATOM     47  C   UNL A   1      37.367  33.356  32.875  1.00  0.00     0.029 A 
ATOM     48  N   UNL A   1      39.062  31.896  32.866  1.00  0.00    -0.354 N 
ATOM     49  C   UNL A   1      39.807  29.356  29.470  1.00  0.00     0.074 A 
ATOM     50  C   UNL A   1      38.897  29.653  28.384  1.00  0.00     0.031 C 
ATOM     51  C   UNL A   1      37.975  33.435  34.071  1.00  0.00     0.029 A 
ATOM     52  C   UNL A   1      39.076  32.477  34.110  1.00  0.00     0.049 A 
ATOM     53  H   UNL A   1      39.713  31.214  32.583  1.00  0.00     0.167 HD
ATOM     54  C   UNL A   1      40.779  28.415  29.416  1.00  0.00     0.037 A 
ATOM     55  C   UNL A   1      39.880  32.256  35.166  1.00  0.00     0.037 A 
ATOM     56  C   UNL A   1      41.708  28.135  30.479  1.00  0.00     0.049 A 
ATOM     57  C   UNL A   1      40.976  31.234  35.067  1.00  0.00     0.074 A 
ATOM     58  C   UNL A   1      42.741  27.213  30.503  1.00  0.00     0.029 A 
ATOM     59  N   UNL A   1      41.722  28.784  31.702  1.00  0.00    -0.354 N 
ATOM     60  N   UNL A   1      41.277  30.444  34.067  1.00  0.00    -0.248 NA
ATOM     61  C   UNL A   1      41.844  31.076  36.244  1.00  0.00     0.031 C 
ATOM     62  C   UNL A   1      43.375  27.299  31.748  1.00  0.00     0.029 A 
ATOM     63  C   UNL A   1      42.747  28.287  32.489  1.00  0.00     0.049 A 
ATOM     64  H   UNL A   1      41.095  29.493  31.973  1.00  0.00     0.167 HD
ATOM     65  C   UNL A   1      42.376  29.707  34.484  1.00  0.00     0.074 A 
ATOM     66  C   UNL A   1      42.697  30.149  35.826  1.00  0.00     0.031 C 
ATOM     67  C   UNL A   1      43.059  28.747  33.816  1.00  0.00     0.037 A 
BRANCH  54  68
ATOM     68  C   UNL A   1      40.887  27.614  28.156  1.00  0.00     0.057 A 
ATOM     69  C   UNL A   1      40.222  26.392  28.007  1.00  0.00     0.134 A 
ATOM     70  C   UNL A   1      41.639  28.084  27.072  1.00  0.00     0.134 A 
ATOM     71  F   UNL A   1      39.498  25.885  29.016  1.00  0.00    -0.206 F 
ATOM     72  C   UNL A   1      40.312  25.655  26.825  1.00  0.00     0.040 A 
ATOM     73  C   UNL A   1      41.723  27.363  25.880  1.00  0.00     0.040 A 
ATOM     74  F   UNL A   1      42.298  29.250  27.154  1.00  0.00    -0.206 F 
ATOM     75  C   UNL A   1      41.061  26.144  25.756  1.00  0.00     0.006 A 
ENDBRANCH  54  68
BRANCH  55  76
ATOM     76  C   UNL A   1      39.689  33.031  36.413  1.00  0.00     0.057 A 
ATOM     77  C   UNL A   1      38.794  32.601  37.398  1.00  0.00     0.134 A 
ATOM     78  C   UNL A   1      40.391  34.219  36.645  1.00  0.00     0.134 A 
ATOM     79  F   UNL A   1      38.082  31.479  37.217  1.00  0.00    -0.206 F 
ATOM     80  C   UNL A   1      38.594  33.330  38.569  1.00  0.00     0.040 A 
ATOM     81  C   UNL A   1      40.210  34.952  37.819  1.00  0.00     0.040 A 
ATOM     82  F   UNL A   1      41.263  34.680  35.737  1.00  0.00    -0.206 F 
ATOM     83  C   UNL A   1      39.307  34.510  38.784  1.00  0.00     0.006 A 
ENDBRANCH  55  76
BRANCH  67  84
ATOM     84  C   UNL A   1      44.232  28.134  34.513  1.00  0.00     0.057 A 
ATOM     85  C   UNL A   1      44.099  26.976  35.287  1.00  0.00     0.134 A 
ATOM     86  C   UNL A   1      45.510  28.690  34.382  1.00  0.00     0.134 A 
ATOM     87  F   UNL A   1      42.897  26.407  35.458  1.00  0.00    -0.206 F 
ATOM     88  C   UNL A   1      45.200  26.395  35.917  1.00  0.00     0.040 A 
ATOM     89  C   UNL A   1      46.620  28.112  34.999  1.00  0.00     0.040 A 
ATOM     90  F   UNL A   1      45.699  29.800  33.652  1.00  0.00    -0.206 F 
ATOM     91  C   UNL A   1      46.466  26.960  35.770  1.00  0.00     0.006 A 
ENDBRANCH  67  84
ENDBRANCH  41  42
ENDBRANCH  33  36
ENDBRANCH  31  32
ENDBRANCH  30  31
ENDBRANCH  29  30
ENDBRANCH   1  29
TORSDOF 16
ENDMDL
MODEL 2
REMARK VINA RESULT:     -12.3      4.358      9.266
REMARK SMILES Cc1ccnc(C(=O)c2[nH]c3cc(F)ccc3c2CC(=O)NCCCCCCNC(=O)c2ccc(-c3c4nc(c(-c5c(F)cccc5F)c5ccc([nH]5)c(-c5c(F)cccc5F)c5nc(c(-c6c(F)cccc6F)c6ccc3[nH]6)C=C5)C=C4)cc2)c1
REMARK SMILES IDX 25 1 24 2 23 3 22 4 20 5 21 6 19 8 18 9 9 10 10 11 11 12
REMARK SMILES IDX 17 14 12 15 16 16 13 17 15 18 14 19 7 20 8 21 6 22 1 23 2 24
REMARK SMILES IDX 3 25 86 26 4 27 5 28 26 29 27 30 28 31 29 32 30 33 31 35
REMARK SMILES IDX 32 36 33 37 85 38 34 39 84 40 35 41 36 42 37 43 78 44 38 45
REMARK SMILES IDX 83 46 77 47 79 48 39 49 82 50 76 51 75 52 40 54 66 55 49 56
REMARK SMILES IDX 65 57 50 58 53 59 64 60 80 61 51 62 52 63 63 65 81 66 54 67
REMARK SMILES IDX 41 68 42 69 47 70 43 71 44 72 46 73 48 74 45 75 67 76 68 77
REMARK SMILES IDX 73 78 69 79 70 80 72 81 74 82 71 83 55 84 56 85 61 86 57 87
REMARK SMILES IDX 58 88 60 89 62 90 59 91
REMARK H PARENT 22 7 10 13 29 34 79 53 53 64
REMARK Flexibility Score: inf
ROOT
ATOM      1  C   UNL A   1      36.182  21.985  24.905  1.00  0.00     0.002 C 
ENDROOT
BRANCH   1   2
ATOM      2  C   UNL A   1      35.366  22.663  26.014  1.00  0.00     0.021 C 
BRANCH   2   3
ATOM      3  C   UNL A   1      35.019  24.128  25.750  1.00  0.00     0.116 C 
BRANCH   3   4
ATOM      4  N   UNL A   1      34.738  24.386  24.353  1.00  0.00    -0.356 N 
ATOM      5  C   UNL A   1      33.925  25.327  23.790  1.00  0.00     0.224 C 
ATOM      6  O   UNL A   1      33.927  25.435  22.561  1.00  0.00    -0.275 OA
ATOM      7  H   UNL A   1      35.204  23.797  23.715  1.00  0.00     0.163 HD
BRANCH   5   8
ATOM      8  C   UNL A   1      33.143  26.305  24.652  1.00  0.00     0.138 C 
BRANCH   8   9
ATOM      9  C   UNL A   1      31.646  26.199  24.562  1.00  0.00    -0.002 A 
ATOM     10  C   UNL A   1      30.837  25.179  25.053  1.00  0.00     0.093 A 
ATOM     11  N   UNL A   1      29.531  25.532  24.806  1.00  0.00    -0.351 N 
ATOM     12  C   UNL A   1      29.470  26.685  24.064  1.00  0.00     0.049 A 
ATOM     13  H   UNL A   1      28.746  25.027  25.119  1.00  0.00     0.167 HD
ATOM     14  C   UNL A   1      30.782  27.123  23.880  1.00  0.00     0.004 A 
ATOM     15  C   UNL A   1      28.363  27.373  23.555  1.00  0.00     0.066 A 
ATOM     16  C   UNL A   1      30.997  28.306  23.137  1.00  0.00     0.013 A 
ATOM     17  C   UNL A   1      28.613  28.537  22.832  1.00  0.00     0.125 A 
ATOM     18  C   UNL A   1      29.902  29.004  22.618  1.00  0.00     0.040 A 
ATOM     19  F   UNL A   1      27.579  29.224  22.330  1.00  0.00    -0.207 F 
BRANCH  10  20
ATOM     20  C   UNL A   1      31.205  23.980  25.788  1.00  0.00     0.227 C 
ATOM     21  O   UNL A   1      31.136  23.951  27.012  1.00  0.00    -0.285 OA
BRANCH  20  22
ATOM     22  C   UNL A   1      31.624  22.754  25.006  1.00  0.00     0.113 A 
ATOM     23  C   UNL A   1      32.822  19.181  25.470  1.00  0.00     0.044 C 
ATOM     24  C   UNL A   1      32.397  20.477  24.847  1.00  0.00    -0.047 A 
ATOM     25  C   UNL A   1      32.420  20.627  23.461  1.00  0.00     0.023 A 
ATOM     26  C   UNL A   1      31.972  21.555  25.631  1.00  0.00     0.036 A 
ATOM     27  C   UNL A   1      32.040  21.844  22.919  1.00  0.00     0.112 A 
ATOM     28  N   UNL A   1      31.660  22.907  23.657  1.00  0.00    -0.253 NA
ENDBRANCH  20  22
ENDBRANCH  10  20
ENDBRANCH   8   9
ENDBRANCH   5   8
ENDBRANCH   3   4
ENDBRANCH   2   3
ENDBRANCH   1   2
BRANCH   1  29
ATOM     29  C   UNL A   1      36.256  20.455  24.969  1.00  0.00     0.002 C 
BRANCH  29  30
ATOM     30  C   UNL A   1      37.638  19.840  24.722  1.00  0.00     0.021 C 
BRANCH  30  31
ATOM     31  C   UNL A   1      38.734  20.274  25.693  1.00  0.00     0.116 C 
BRANCH  31  32
ATOM     32  N   UNL A   1      39.860  19.355  25.707  1.00  0.00    -0.352 N 
ATOM     33  C   UNL A   1      41.172  19.583  26.039  1.00  0.00     0.251 C 
ATOM     34  H   UNL A   1      39.650  18.432  25.437  1.00  0.00     0.163 HD
ATOM     35  O   UNL A   1      42.014  18.710  25.844  1.00  0.00    -0.269 OA
BRANCH  33  36
ATOM     36  C   UNL A   1      41.592  20.881  26.615  1.00  0.00     0.039 A 
ATOM     37  C   UNL A   1      42.011  21.894  25.745  1.00  0.00     0.014 A 
ATOM     38  C   UNL A   1      41.629  21.089  27.997  1.00  0.00     0.014 A 
ATOM     39  C   UNL A   1      42.413  23.132  26.255  1.00  0.00     0.010 A 
ATOM     40  C   UNL A   1      41.995  22.337  28.504  1.00  0.00     0.010 A 
ATOM     41  C   UNL A   1      42.390  23.368  27.637  1.00  0.00    -0.014 A 
BRANCH  41  42
ATOM     42  C   UNL A   1      42.780  24.687  28.197  1.00  0.00     0.031 A 
ATOM     43  C   UNL A   1      41.739  25.739  28.448  1.00  0.00     0.074 A 
ATOM     44  C   UNL A   1      44.079  24.959  28.422  1.00  0.00     0.049 A 
ATOM     45  N   UNL A   1      41.896  26.983  28.825  1.00  0.00    -0.248 NA
ATOM     46  C   UNL A   1      40.338  25.346  28.231  1.00  0.00     0.031 C 
ATOM     47  C   UNL A   1      45.190  24.033  28.196  1.00  0.00     0.029 A 
ATOM     48  N   UNL A   1      44.684  26.103  28.878  1.00  0.00    -0.354 N 
ATOM     49  C   UNL A   1      40.621  27.528  28.866  1.00  0.00     0.074 A 
ATOM     50  C   UNL A   1      39.701  26.486  28.462  1.00  0.00     0.031 C 
ATOM     51  C   UNL A   1      46.343  24.647  28.516  1.00  0.00     0.029 A 
ATOM     52  C   UNL A   1      46.052  26.011  28.946  1.00  0.00     0.049 A 
ATOM     53  H   UNL A   1      44.184  26.912  29.133  1.00  0.00     0.167 HD
ATOM     54  C   UNL A   1      40.248  28.782  29.215  1.00  0.00     0.037 A 
ATOM     55  C   UNL A   1      46.970  26.928  29.306  1.00  0.00     0.037 A 
ATOM     56  C   UNL A   1      41.152  29.815  29.648  1.00  0.00     0.049 A 
ATOM     57  C   UNL A   1      46.527  28.300  29.726  1.00  0.00     0.074 A 
ATOM     58  C   UNL A   1      40.860  31.110  30.042  1.00  0.00     0.029 A 
ATOM     59  N   UNL A   1      42.525  29.664  29.754  1.00  0.00    -0.354 N 
ATOM     60  N   UNL A   1      45.317  28.797  29.770  1.00  0.00    -0.248 NA
ATOM     61  C   UNL A   1      47.580  29.236  30.148  1.00  0.00     0.031 C 
ATOM     62  C   UNL A   1      42.061  31.747  30.378  1.00  0.00     0.029 A 
ATOM     63  C   UNL A   1      43.095  30.840  30.210  1.00  0.00     0.049 A 
ATOM     64  H   UNL A   1      43.022  28.843  29.536  1.00  0.00     0.167 HD
ATOM     65  C   UNL A   1      45.458  30.096  30.237  1.00  0.00     0.074 A 
ATOM     66  C   UNL A   1      46.871  30.309  30.473  1.00  0.00     0.031 C 
ATOM     67  C   UNL A   1      44.501  31.030  30.451  1.00  0.00     0.037 A 
BRANCH  54  68
ATOM     68  C   UNL A   1      38.789  29.109  29.141  1.00  0.00     0.057 A 
ATOM     69  C   UNL A   1      37.962  29.021  30.266  1.00  0.00     0.134 A 
ATOM     70  C   UNL A   1      38.213  29.543  27.940  1.00  0.00     0.134 A 
ATOM     71  F   UNL A   1      38.455  28.598  31.439  1.00  0.00    -0.206 F 
ATOM     72  C   UNL A   1      36.605  29.342  30.198  1.00  0.00     0.040 A 
ATOM     73  C   UNL A   1      36.862  29.881  27.864  1.00  0.00     0.040 A 
ATOM     74  F   UNL A   1      38.956  29.649  26.828  1.00  0.00    -0.206 F 
ATOM     75  C   UNL A   1      36.054  29.778  28.994  1.00  0.00     0.006 A 
ENDBRANCH  54  68
BRANCH  55  76
ATOM     76  C   UNL A   1      48.407  26.572  29.299  1.00  0.00     0.057 A 
ATOM     77  C   UNL A   1      49.214  26.860  28.194  1.00  0.00     0.134 A 
ATOM     78  C   UNL A   1      49.003  25.935  30.393  1.00  0.00     0.134 A 
ATOM     79  F   UNL A   1      48.689  27.452  27.112  1.00  0.00    -0.206 F 
ATOM     80  C   UNL A   1      50.565  26.516  28.170  1.00  0.00     0.040 A 
ATOM     81  C   UNL A   1      50.357  25.598  30.388  1.00  0.00     0.040 A 
ATOM     82  F   UNL A   1      48.279  25.636  31.481  1.00  0.00    -0.206 F 
ATOM     83  C   UNL A   1      51.142  25.886  29.272  1.00  0.00     0.006 A 
ENDBRANCH  55  76
BRANCH  67  84
ATOM     84  C   UNL A   1      44.948  32.352  30.990  1.00  0.00     0.057 A 
ATOM     85  C   UNL A   1      45.293  33.409  30.141  1.00  0.00     0.134 A 
ATOM     86  C   UNL A   1      45.001  32.578  32.371  1.00  0.00     0.134 A 
ATOM     87  F   UNL A   1      45.273  33.246  28.810  1.00  0.00    -0.206 F 
ATOM     88  C   UNL A   1      45.688  34.647  30.648  1.00  0.00     0.040 A 
ATOM     89  C   UNL A   1      45.384  33.816  32.889  1.00  0.00     0.040 A 
ATOM     90  F   UNL A   1      44.681  31.603  33.234  1.00  0.00    -0.206 F 
ATOM     91  C   UNL A   1      45.730  34.855  32.026  1.00  0.00     0.006 A 
ENDBRANCH  67  84
ENDBRANCH  41  42
ENDBRANCH  33  36
ENDBRANCH  31  32
ENDBRANCH  30  31
ENDBRANCH  29  30
ENDBRANCH   1  29
TORSDOF 16
ENDMDL
MODEL 3
REMARK VINA RESULT:     -12.2      0.404      6.001
REMARK SMILES Cc1ccnc(C(=O)c2[nH]c3cc(F)ccc3c2CC(=O)NCCCCCCNC(=O)c2ccc(-c3c4nc(c(-c5c(F)cccc5F)c5ccc([nH]5)c(-c5c(F)cccc5F)c5nc(c(-c6c(F)cccc6F)c6ccc3[nH]6)C=C5)C=C4)cc2)c1
REMARK SMILES IDX 25 1 24 2 23 3 22 4 20 5 21 6 19 8 18 9 9 10 10 11 11 12
REMARK SMILES IDX 17 14 12 15 16 16 13 17 15 18 14 19 7 20 8 21 6 22 1 23 2 24
REMARK SMILES IDX 3 25 86 26 4 27 5 28 26 29 27 30 28 31 29 32 30 33 31 35
REMARK SMILES IDX 32 36 33 37 85 38 34 39 84 40 35 41 36 42 37 43 78 44 38 45
REMARK SMILES IDX 83 46 77 47 79 48 39 49 82 50 76 51 75 52 40 54 66 55 49 56
REMARK SMILES IDX 65 57 50 58 53 59 64 60 80 61 51 62 52 63 63 65 81 66 54 67
REMARK SMILES IDX 41 68 42 69 47 70 43 71 44 72 46 73 48 74 45 75 67 76 68 77
REMARK SMILES IDX 73 78 69 79 70 80 72 81 74 82 71 83 55 84 56 85 61 86 57 87
REMARK SMILES IDX 58 88 60 89 62 90 59 91
REMARK H PARENT 22 7 10 13 29 34 79 53 53 64
REMARK Flexibility Score: inf
ROOT
ATOM      1  C   UNL A   1      32.087  29.768  25.556  1.00  0.00     0.002 C 
ENDROOT
BRANCH   1   2
ATOM      2  C   UNL A   1      31.663  28.585  26.435  1.00  0.00     0.021 C 
BRANCH   2   3
ATOM      3  C   UNL A   1      32.430  27.288  26.177  1.00  0.00     0.116 C 
BRANCH   3   4
ATOM      4  N   UNL A   1      31.743  26.126  26.703  1.00  0.00    -0.356 N 
ATOM      5  C   UNL A   1      32.028  24.801  26.540  1.00  0.00     0.224 C 
ATOM      6  O   UNL A   1      31.364  23.982  27.180  1.00  0.00    -0.275 OA
ATOM      7  H   UNL A   1      30.956  26.321  27.261  1.00  0.00     0.163 HD
BRANCH   5   8
ATOM      8  C   UNL A   1      33.215  24.351  25.702  1.00  0.00     0.138 C 
BRANCH   8   9
ATOM      9  C   UNL A   1      32.879  23.532  24.486  1.00  0.00    -0.002 A 
ATOM     10  C   UNL A   1      32.624  23.991  23.198  1.00  0.00     0.093 A 
ATOM     11  N   UNL A   1      32.434  22.890  22.396  1.00  0.00    -0.351 N 
ATOM     12  C   UNL A   1      32.436  21.739  23.143  1.00  0.00     0.049 A 
ATOM     13  H   UNL A   1      32.313  22.923  21.420  1.00  0.00     0.167 HD
ATOM     14  C   UNL A   1      32.699  22.107  24.462  1.00  0.00     0.004 A 
ATOM     15  C   UNL A   1      32.238  20.410  22.751  1.00  0.00     0.066 A 
ATOM     16  C   UNL A   1      32.753  21.091  25.444  1.00  0.00     0.013 A 
ATOM     17  C   UNL A   1      32.304  19.436  23.746  1.00  0.00     0.125 A 
ATOM     18  C   UNL A   1      32.555  19.759  25.072  1.00  0.00     0.040 A 
ATOM     19  F   UNL A   1      32.121  18.152  23.410  1.00  0.00    -0.207 F 
BRANCH  10  20
ATOM     20  C   UNL A   1      32.632  25.351  22.682  1.00  0.00     0.227 C 
ATOM     21  O   UNL A   1      33.598  25.778  22.059  1.00  0.00    -0.285 OA
BRANCH  20  22
ATOM     22  C   UNL A   1      31.402  26.208  22.887  1.00  0.00     0.113 A 
ATOM     23  C   UNL A   1      29.995  29.649  22.110  1.00  0.00     0.044 C 
ATOM     24  C   UNL A   1      30.145  28.248  22.624  1.00  0.00    -0.047 A 
ATOM     25  C   UNL A   1      29.131  27.671  23.389  1.00  0.00     0.023 A 
ATOM     26  C   UNL A   1      31.292  27.493  22.353  1.00  0.00     0.036 A 
ATOM     27  C   UNL A   1      29.311  26.383  23.865  1.00  0.00     0.112 A 
ATOM     28  N   UNL A   1      30.422  25.651  23.645  1.00  0.00    -0.253 NA
ENDBRANCH  20  22
ENDBRANCH  10  20
ENDBRANCH   8   9
ENDBRANCH   5   8
ENDBRANCH   3   4
ENDBRANCH   2   3
ENDBRANCH   1   2
BRANCH   1  29
ATOM     29  C   UNL A   1      31.058  30.895  25.410  1.00  0.00     0.002 C 
BRANCH  29  30
ATOM     30  C   UNL A   1      31.065  31.957  26.515  1.00  0.00     0.021 C 
BRANCH  30  31
ATOM     31  C   UNL A   1      32.442  32.488  26.909  1.00  0.00     0.116 C 
BRANCH  31  32
ATOM     32  N   UNL A   1      32.391  33.856  27.399  1.00  0.00    -0.352 N 
ATOM     33  C   UNL A   1      33.151  34.469  28.364  1.00  0.00     0.251 C 
ATOM     34  H   UNL A   1      31.709  34.426  26.977  1.00  0.00     0.163 HD
ATOM     35  O   UNL A   1      32.859  35.598  28.749  1.00  0.00    -0.269 OA
BRANCH  33  36
ATOM     36  C   UNL A   1      34.316  33.777  28.962  1.00  0.00     0.039 A 
ATOM     37  C   UNL A   1      34.082  32.740  29.873  1.00  0.00     0.014 A 
ATOM     38  C   UNL A   1      35.626  34.173  28.678  1.00  0.00     0.014 A 
ATOM     39  C   UNL A   1      35.158  32.065  30.456  1.00  0.00     0.010 A 
ATOM     40  C   UNL A   1      36.701  33.475  29.232  1.00  0.00     0.010 A 
ATOM     41  C   UNL A   1      36.475  32.415  30.125  1.00  0.00    -0.014 A 
BRANCH  41  42
ATOM     42  C   UNL A   1      37.631  31.688  30.707  1.00  0.00     0.031 A 
ATOM     43  C   UNL A   1      38.125  32.031  32.083  1.00  0.00     0.074 A 
ATOM     44  C   UNL A   1      38.275  30.761  29.973  1.00  0.00     0.049 A 
ATOM     45  N   UNL A   1      39.183  31.589  32.715  1.00  0.00    -0.248 NA
ATOM     46  C   UNL A   1      37.335  33.014  32.841  1.00  0.00     0.031 C 
ATOM     47  C   UNL A   1      37.913  30.353  28.615  1.00  0.00     0.029 A 
ATOM     48  N   UNL A   1      39.382  30.005  30.266  1.00  0.00    -0.354 N 
ATOM     49  C   UNL A   1      39.200  32.256  33.932  1.00  0.00     0.074 A 
ATOM     50  C   UNL A   1      38.056  33.144  33.945  1.00  0.00     0.031 C 
ATOM     51  C   UNL A   1      38.781  29.418  28.193  1.00  0.00     0.029 A 
ATOM     52  C   UNL A   1      39.771  29.180  29.239  1.00  0.00     0.049 A 
ATOM     53  H   UNL A   1      39.852  30.048  31.130  1.00  0.00     0.167 HD
ATOM     54  C   UNL A   1      40.085  32.136  34.949  1.00  0.00     0.037 A 
ATOM     55  C   UNL A   1      40.815  28.335  29.148  1.00  0.00     0.037 A 
ATOM     56  C   UNL A   1      41.207  31.234  34.957  1.00  0.00     0.049 A 
ATOM     57  C   UNL A   1      41.760  28.191  30.306  1.00  0.00     0.074 A 
ATOM     58  C   UNL A   1      42.144  31.029  35.955  1.00  0.00     0.029 A 
ATOM     59  N   UNL A   1      41.534  30.377  33.919  1.00  0.00    -0.354 N 
ATOM     60  N   UNL A   1      41.757  28.821  31.455  1.00  0.00    -0.248 NA
ATOM     61  C   UNL A   1      42.851  27.218  30.154  1.00  0.00     0.031 C 
ATOM     62  C   UNL A   1      43.047  30.053  35.515  1.00  0.00     0.029 A 
ATOM     63  C   UNL A   1      42.657  29.639  34.252  1.00  0.00     0.049 A 
ATOM     64  H   UNL A   1      41.042  30.305  33.069  1.00  0.00     0.167 HD
ATOM     65  C   UNL A   1      42.832  28.311  32.168  1.00  0.00     0.074 A 
ATOM     66  C   UNL A   1      43.461  27.313  31.328  1.00  0.00     0.031 C 
ATOM     67  C   UNL A   1      43.261  28.642  33.409  1.00  0.00     0.037 A 
BRANCH  54  68
ATOM     68  C   UNL A   1      39.875  33.008  36.147  1.00  0.00     0.057 A 
ATOM     69  C   UNL A   1      39.005  32.636  37.179  1.00  0.00     0.134 A 
ATOM     70  C   UNL A   1      40.570  34.216  36.284  1.00  0.00     0.134 A 
ATOM     71  F   UNL A   1      38.302  31.497  37.097  1.00  0.00    -0.206 F 
ATOM     72  C   UNL A   1      38.823  33.444  38.303  1.00  0.00     0.040 A 
ATOM     73  C   UNL A   1      40.408  35.024  37.410  1.00  0.00     0.040 A 
ATOM     74  F   UNL A   1      41.419  34.625  35.329  1.00  0.00    -0.206 F 
ATOM     75  C   UNL A   1      39.530  34.640  38.421  1.00  0.00     0.006 A 
ENDBRANCH  54  68
BRANCH  55  76
ATOM     76  C   UNL A   1      41.014  27.543  27.914  1.00  0.00     0.057 A 
ATOM     77  C   UNL A   1      40.448  26.272  27.775  1.00  0.00     0.134 A 
ATOM     78  C   UNL A   1      41.777  28.035  26.849  1.00  0.00     0.134 A 
ATOM     79  F   UNL A   1      39.724  25.745  28.773  1.00  0.00    -0.206 F 
ATOM     80  C   UNL A   1      40.641  25.509  26.624  1.00  0.00     0.040 A 
ATOM     81  C   UNL A   1      41.968  27.289  25.685  1.00  0.00     0.040 A 
ATOM     82  F   UNL A   1      42.343  29.248  26.924  1.00  0.00    -0.206 F 
ATOM     83  C   UNL A   1      41.401  26.020  25.572  1.00  0.00     0.006 A 
ENDBRANCH  55  76
BRANCH  67  84
ATOM     84  C   UNL A   1      44.447  27.900  33.940  1.00  0.00     0.057 A 
ATOM     85  C   UNL A   1      45.749  28.387  33.776  1.00  0.00     0.134 A 
ATOM     86  C   UNL A   1      44.281  26.705  34.651  1.00  0.00     0.134 A 
ATOM     87  F   UNL A   1      45.968  29.519  33.092  1.00  0.00    -0.206 F 
ATOM     88  C   UNL A   1      46.849  27.703  34.292  1.00  0.00     0.040 A 
ATOM     89  C   UNL A   1      45.373  26.019  35.182  1.00  0.00     0.040 A 
ATOM     90  F   UNL A   1      43.057  26.190  34.842  1.00  0.00    -0.206 F 
ATOM     91  C   UNL A   1      46.663  26.517  35.002  1.00  0.00     0.006 A 
ENDBRANCH  67  84
ENDBRANCH  41  42
ENDBRANCH  33  36
ENDBRANCH  31  32
ENDBRANCH  30  31
ENDBRANCH  29  30
ENDBRANCH   1  29
TORSDOF 16
ENDMDL
