MODEL 1
REMARK VINA RESULT:     -10.5      0.000      0.000
REMARK SMILES CCN(CCC(=O)NCCCCCCNC(=O)c1ccc(-c2c3nc(c(-c4c(F)cccc4F)c4ccc([nH]4)c(-c4c(F)cccc4F)c4nc(c(-c5c(F)cccc5F)c5ccc2[nH]5)C=C4)C=C3)cc1)C(=O)N1C[C@H](C(=O)OC)[C@@H](C)C1
REMARK SMILES IDX 9 1 8 2 6 3 7 4 5 6 4 7 3 8 2 9 1 10 72 11 73 12 74 13 75 14
REMARK SMILES IDX 83 15 76 16 81 17 82 18 77 19 78 20 79 21 80 22 10 23 11 24
REMARK SMILES IDX 12 25 13 26 14 27 15 28 16 29 17 31 18 32 19 33 71 34 20 35
REMARK SMILES IDX 70 36 21 37 22 38 23 39 64 40 24 41 69 42 63 43 65 44 25 45
REMARK SMILES IDX 68 46 62 47 61 48 26 50 52 51 35 52 51 53 36 54 39 55 50 56
REMARK SMILES IDX 66 57 37 58 38 59 49 61 67 62 40 63 27 64 28 65 33 66 29 67
REMARK SMILES IDX 30 68 32 69 34 70 31 71 53 72 54 73 59 74 55 75 56 76 58 77
REMARK SMILES IDX 60 78 57 79 41 80 42 81 47 82 43 83 44 84 46 85 48 86 45 87
REMARK H PARENT 8 5 15 30 65 49 39 60
REMARK Flexibility Score: inf
ROOT
ATOM      1  C   UNL A   1      33.209  20.166  24.979  1.00  0.00     0.116 C 
ENDROOT
BRANCH   1   2
ATOM      2  N   UNL A   1      32.615  20.090  23.657  1.00  0.00    -0.356 N 
ATOM      3  C   UNL A   1      32.243  21.084  22.801  1.00  0.00     0.221 C 
ATOM      4  O   UNL A   1      31.801  20.763  21.694  1.00  0.00    -0.275 OA
ATOM      5  H   UNL A   1      32.456  19.177  23.326  1.00  0.00     0.163 HD
BRANCH   3   6
ATOM      6  C   UNL A   1      32.355  22.542  23.180  1.00  0.00     0.121 C 
BRANCH   6   7
ATOM      7  C   UNL A   1      33.688  23.218  22.847  1.00  0.00     0.131 C 
BRANCH   7   8
ATOM      8  N   UNL A   1      33.867  24.588  23.342  1.00  0.00    -0.324 N 
BRANCH   8   9
ATOM      9  C   UNL A   1      34.666  24.630  24.593  1.00  0.00     0.118 C 
ATOM     10  C   UNL A   1      34.054  24.319  25.950  1.00  0.00     0.027 C 
ENDBRANCH   8   9
BRANCH   8  11
ATOM     11  C   UNL A   1      33.359  25.757  22.789  1.00  0.00     0.320 C 
ATOM     12  O   UNL A   1      33.850  26.221  21.753  1.00  0.00    -0.248 OA
BRANCH  11  13
ATOM     13  N   UNL A   1      32.394  26.516  23.419  1.00  0.00    -0.323 N 
ATOM     14  C   UNL A   1      32.326  27.888  23.911  1.00  0.00     0.137 C 
ATOM     15  C   UNL A   1      31.078  25.888  23.624  1.00  0.00     0.125 C 
ATOM     16  C   UNL A   1      31.191  27.902  24.922  1.00  0.00     0.123 C 
ATOM     17  C   UNL A   1      30.179  26.949  24.289  1.00  0.00     0.021 C 
ATOM     18  C   UNL A   1      29.305  27.691  23.261  1.00  0.00     0.010 C 
BRANCH  16  19
ATOM     19  C   UNL A   1      31.781  27.502  26.259  1.00  0.00     0.310 C 
ATOM     20  O   UNL A   1      31.105  27.376  27.274  1.00  0.00    -0.252 OA
BRANCH  19  21
ATOM     21  O   UNL A   1      33.138  27.496  26.233  1.00  0.00    -0.469 OA
ATOM     22  C   UNL A   1      33.747  28.545  26.984  1.00  0.00     0.282 C 
ENDBRANCH  19  21
ENDBRANCH  16  19
ENDBRANCH  11  13
ENDBRANCH   8  11
ENDBRANCH   7   8
ENDBRANCH   6   7
ENDBRANCH   3   6
ENDBRANCH   1   2
BRANCH   1  23
ATOM     23  C   UNL A   1      34.721  19.979  24.952  1.00  0.00     0.021 C 
BRANCH  23  24
ATOM     24  C   UNL A   1      35.560  21.185  25.367  1.00  0.00     0.002 C 
BRANCH  24  25
ATOM     25  C   UNL A   1      36.936  21.277  24.715  1.00  0.00     0.002 C 
BRANCH  25  26
ATOM     26  C   UNL A   1      37.862  20.098  25.007  1.00  0.00     0.021 C 
BRANCH  26  27
ATOM     27  C   UNL A   1      39.122  20.474  25.780  1.00  0.00     0.116 C 
BRANCH  27  28
ATOM     28  N   UNL A   1      40.068  19.369  25.838  1.00  0.00    -0.352 N 
ATOM     29  C   UNL A   1      41.424  19.418  26.039  1.00  0.00     0.251 C 
ATOM     30  H   UNL A   1      39.685  18.470  25.718  1.00  0.00     0.163 HD
ATOM     31  O   UNL A   1      42.137  18.441  25.818  1.00  0.00    -0.269 OA
BRANCH  29  32
ATOM     32  C   UNL A   1      42.022  20.680  26.511  1.00  0.00     0.039 A 
ATOM     33  C   UNL A   1      42.571  21.576  25.593  1.00  0.00     0.014 A 
ATOM     34  C   UNL A   1      41.978  20.991  27.872  1.00  0.00     0.014 A 
ATOM     35  C   UNL A   1      43.017  22.824  26.035  1.00  0.00     0.010 A 
ATOM     36  C   UNL A   1      42.339  22.263  28.295  1.00  0.00     0.010 A 
ATOM     37  C   UNL A   1      42.872  23.190  27.383  1.00  0.00    -0.014 A 
BRANCH  37  38
ATOM     38  C   UNL A   1      43.298  24.516  27.893  1.00  0.00     0.031 A 
ATOM     39  C   UNL A   1      42.248  25.542  28.231  1.00  0.00     0.074 A 
ATOM     40  C   UNL A   1      44.606  24.837  27.955  1.00  0.00     0.049 A 
ATOM     41  N   UNL A   1      42.390  26.810  28.515  1.00  0.00    -0.248 NA
ATOM     42  C   UNL A   1      40.848  25.084  28.209  1.00  0.00     0.031 C 
ATOM     43  C   UNL A   1      45.719  23.943  27.626  1.00  0.00     0.029 A 
ATOM     44  N   UNL A   1      45.221  26.018  28.290  1.00  0.00    -0.354 N 
ATOM     45  C   UNL A   1      41.101  27.305  28.670  1.00  0.00     0.074 A 
ATOM     46  C   UNL A   1      40.190  26.215  28.406  1.00  0.00     0.031 C 
ATOM     47  C   UNL A   1      46.877  24.605  27.781  1.00  0.00     0.029 A 
ATOM     48  C   UNL A   1      46.591  25.983  28.170  1.00  0.00     0.049 A 
ATOM     49  H   UNL A   1      44.729  26.816  28.589  1.00  0.00     0.167 HD
ATOM     50  C   UNL A   1      40.715  28.553  29.019  1.00  0.00     0.037 A 
ATOM     51  C   UNL A   1      47.507  26.959  28.331  1.00  0.00     0.037 A 
ATOM     52  C   UNL A   1      41.627  29.621  29.325  1.00  0.00     0.049 A 
ATOM     53  C   UNL A   1      47.046  28.341  28.713  1.00  0.00     0.074 A 
ATOM     54  C   UNL A   1      41.335  30.902  29.757  1.00  0.00     0.029 A 
ATOM     55  N   UNL A   1      43.007  29.529  29.236  1.00  0.00    -0.354 N 
ATOM     56  N   UNL A   1      45.826  28.780  28.917  1.00  0.00    -0.248 NA
ATOM     57  C   UNL A   1      48.086  29.366  28.891  1.00  0.00     0.031 C 
ATOM     58  C   UNL A   1      42.537  31.603  29.879  1.00  0.00     0.029 A 
ATOM     59  C   UNL A   1      43.579  30.738  29.586  1.00  0.00     0.049 A 
ATOM     60  H   UNL A   1      43.505  28.724  28.965  1.00  0.00     0.167 HD
ATOM     61  C   UNL A   1      45.959  30.111  29.294  1.00  0.00     0.074 A 
ATOM     62  C   UNL A   1      47.374  30.411  29.291  1.00  0.00     0.031 C 
ATOM     63  C   UNL A   1      44.993  31.004  29.619  1.00  0.00     0.037 A 
BRANCH  50  64
ATOM     64  C   UNL A   1      39.244  28.841  29.096  1.00  0.00     0.057 A 
ATOM     65  C   UNL A   1      38.518  28.672  30.281  1.00  0.00     0.134 A 
ATOM     66  C   UNL A   1      38.564  29.364  27.989  1.00  0.00     0.134 A 
ATOM     67  F   UNL A   1      39.107  28.163  31.373  1.00  0.00    -0.206 F 
ATOM     68  C   UNL A   1      37.164  29.001  30.359  1.00  0.00     0.040 A 
ATOM     69  C   UNL A   1      37.218  29.724  28.063  1.00  0.00     0.040 A 
ATOM     70  F   UNL A   1      39.202  29.557  26.825  1.00  0.00    -0.206 F 
ATOM     71  C   UNL A   1      36.513  29.540  29.251  1.00  0.00     0.006 A 
ENDBRANCH  50  64
BRANCH  51  72
ATOM     72  C   UNL A   1      48.954  26.681  28.128  1.00  0.00     0.057 A 
ATOM     73  C   UNL A   1      49.560  26.876  26.880  1.00  0.00     0.134 A 
ATOM     74  C   UNL A   1      49.753  26.162  29.154  1.00  0.00     0.134 A 
ATOM     75  F   UNL A   1      48.845  27.353  25.851  1.00  0.00    -0.206 F 
ATOM     76  C   UNL A   1      50.892  26.528  26.649  1.00  0.00     0.040 A 
ATOM     77  C   UNL A   1      51.095  25.840  28.946  1.00  0.00     0.040 A 
ATOM     78  F   UNL A   1      49.239  25.959  30.376  1.00  0.00    -0.206 F 
ATOM     79  C   UNL A   1      51.664  26.009  27.686  1.00  0.00     0.006 A 
ENDBRANCH  51  72
BRANCH  63  80
ATOM     80  C   UNL A   1      45.425  32.366  30.078  1.00  0.00     0.057 A 
ATOM     81  C   UNL A   1      45.544  33.447  29.198  1.00  0.00     0.134 A 
ATOM     82  C   UNL A   1      45.636  32.612  31.442  1.00  0.00     0.134 A 
ATOM     83  F   UNL A   1      45.365  33.275  27.880  1.00  0.00    -0.206 F 
ATOM     84  C   UNL A   1      45.868  34.724  29.658  1.00  0.00     0.040 A 
ATOM     85  C   UNL A   1      45.932  33.890  31.915  1.00  0.00     0.040 A 
ATOM     86  F   UNL A   1      45.525  31.620  32.338  1.00  0.00    -0.206 F 
ATOM     87  C   UNL A   1      46.052  34.950  31.021  1.00  0.00     0.006 A 
ENDBRANCH  63  80
ENDBRANCH  37  38
ENDBRANCH  29  32
ENDBRANCH  27  28
ENDBRANCH  26  27
ENDBRANCH  25  26
ENDBRANCH  24  25
ENDBRANCH  23  24
ENDBRANCH   1  23
TORSDOF 20
ENDMDL
MODEL 2
REMARK VINA RESULT:     -10.1      4.641      9.256
REMARK SMILES CCN(CCC(=O)NCCCCCCNC(=O)c1ccc(-c2c3nc(c(-c4c(F)cccc4F)c4ccc([nH]4)c(-c4c(F)cccc4F)c4nc(c(-c5c(F)cccc5F)c5ccc2[nH]5)C=C4)C=C3)cc1)C(=O)N1C[C@H](C(=O)OC)[C@@H](C)C1
REMARK SMILES IDX 9 1 8 2 6 3 7 4 5 6 4 7 3 8 2 9 1 10 72 11 73 12 74 13 75 14
REMARK SMILES IDX 83 15 76 16 81 17 82 18 77 19 78 20 79 21 80 22 10 23 11 24
REMARK SMILES IDX 12 25 13 26 14 27 15 28 16 29 17 31 18 32 19 33 71 34 20 35
REMARK SMILES IDX 70 36 21 37 22 38 23 39 64 40 24 41 69 42 63 43 65 44 25 45
REMARK SMILES IDX 68 46 62 47 61 48 26 50 52 51 35 52 51 53 36 54 39 55 50 56
REMARK SMILES IDX 66 57 37 58 38 59 49 61 67 62 40 63 27 64 28 65 33 66 29 67
REMARK SMILES IDX 30 68 32 69 34 70 31 71 53 72 54 73 59 74 55 75 56 76 58 77
REMARK SMILES IDX 60 78 57 79 41 80 42 81 47 82 43 83 44 84 46 85 48 86 45 87
REMARK H PARENT 8 5 15 30 65 49 39 60
REMARK Flexibility Score: inf
ROOT
ATOM      1  C   UNL A   1      33.653  28.385  26.148  1.00  0.00     0.116 C 
ENDROOT
BRANCH   1   2
ATOM      2  N   UNL A   1      32.878  27.291  26.705  1.00  0.00    -0.356 N 
ATOM      3  C   UNL A   1      31.750  26.685  26.238  1.00  0.00     0.221 C 
ATOM      4  O   UNL A   1      31.299  25.727  26.873  1.00  0.00    -0.275 OA
ATOM      5  H   UNL A   1      33.222  26.931  27.554  1.00  0.00     0.163 HD
BRANCH   3   6
ATOM      6  C   UNL A   1      31.055  27.160  24.984  1.00  0.00     0.121 C 
BRANCH   6   7
ATOM      7  C   UNL A   1      31.186  26.247  23.761  1.00  0.00     0.131 C 
BRANCH   7   8
ATOM      8  N   UNL A   1      32.330  26.501  22.877  1.00  0.00    -0.324 N 
BRANCH   8   9
ATOM      9  C   UNL A   1      32.572  27.952  22.678  1.00  0.00     0.118 C 
ATOM     10  C   UNL A   1      33.974  28.522  22.527  1.00  0.00     0.027 C 
ENDBRANCH   8   9
BRANCH   8  11
ATOM     11  C   UNL A   1      33.127  25.559  22.238  1.00  0.00     0.320 C 
ATOM     12  O   UNL A   1      33.278  25.600  21.011  1.00  0.00    -0.248 OA
BRANCH  11  13
ATOM     13  N   UNL A   1      33.671  24.477  22.900  1.00  0.00    -0.323 N 
ATOM     14  C   UNL A   1      33.405  23.042  22.913  1.00  0.00     0.137 C 
ATOM     15  C   UNL A   1      34.832  24.737  23.767  1.00  0.00     0.125 C 
ATOM     16  C   UNL A   1      34.010  22.528  24.209  1.00  0.00     0.123 C 
ATOM     17  C   UNL A   1      35.274  23.376  24.338  1.00  0.00     0.021 C 
ATOM     18  C   UNL A   1      36.427  22.757  23.526  1.00  0.00     0.010 C 
BRANCH  16  19
ATOM     19  C   UNL A   1      32.955  22.684  25.285  1.00  0.00     0.310 C 
ATOM     20  O   UNL A   1      33.224  22.986  26.442  1.00  0.00    -0.252 OA
BRANCH  19  21
ATOM     21  O   UNL A   1      31.735  22.267  24.863  1.00  0.00    -0.469 OA
ATOM     22  C   UNL A   1      30.666  22.563  25.761  1.00  0.00     0.282 C 
ENDBRANCH  19  21
ENDBRANCH  16  19
ENDBRANCH  11  13
ENDBRANCH   8  11
ENDBRANCH   7   8
ENDBRANCH   6   7
ENDBRANCH   3   6
ENDBRANCH   1   2
BRANCH   1  23
ATOM     23  C   UNL A   1      34.386  29.186  27.217  1.00  0.00     0.021 C 
BRANCH  23  24
ATOM     24  C   UNL A   1      33.791  30.548  27.568  1.00  0.00     0.002 C 
BRANCH  24  25
ATOM     25  C   UNL A   1      32.353  30.769  27.113  1.00  0.00     0.002 C 
BRANCH  25  26
ATOM     26  C   UNL A   1      31.916  32.231  27.059  1.00  0.00     0.021 C 
BRANCH  26  27
ATOM     27  C   UNL A   1      33.073  33.224  27.003  1.00  0.00     0.116 C 
BRANCH  27  28
ATOM     28  N   UNL A   1      32.725  34.493  27.625  1.00  0.00    -0.352 N 
ATOM     29  C   UNL A   1      33.091  34.965  28.860  1.00  0.00     0.251 C 
ATOM     30  H   UNL A   1      32.154  35.090  27.090  1.00  0.00     0.163 HD
ATOM     31  O   UNL A   1      32.529  35.937  29.362  1.00  0.00    -0.269 OA
BRANCH  29  32
ATOM     32  C   UNL A   1      34.167  34.271  29.590  1.00  0.00     0.039 A 
ATOM     33  C   UNL A   1      33.848  33.377  30.614  1.00  0.00     0.014 A 
ATOM     34  C   UNL A   1      35.495  34.473  29.208  1.00  0.00     0.014 A 
ATOM     35  C   UNL A   1      34.865  32.629  31.212  1.00  0.00     0.010 A 
ATOM     36  C   UNL A   1      36.490  33.666  29.740  1.00  0.00     0.010 A 
ATOM     37  C   UNL A   1      36.188  32.742  30.755  1.00  0.00    -0.014 A 
BRANCH  37  38
ATOM     38  C   UNL A   1      37.296  31.943  31.334  1.00  0.00     0.031 A 
ATOM     39  C   UNL A   1      37.829  32.310  32.694  1.00  0.00     0.074 A 
ATOM     40  C   UNL A   1      37.889  30.972  30.612  1.00  0.00     0.049 A 
ATOM     41  N   UNL A   1      38.896  31.876  33.311  1.00  0.00    -0.248 NA
ATOM     42  C   UNL A   1      37.076  33.331  33.444  1.00  0.00     0.031 C 
ATOM     43  C   UNL A   1      37.488  30.542  29.270  1.00  0.00     0.029 A 
ATOM     44  N   UNL A   1      38.979  30.186  30.896  1.00  0.00    -0.354 N 
ATOM     45  C   UNL A   1      38.960  32.594  34.499  1.00  0.00     0.074 A 
ATOM     46  C   UNL A   1      37.852  33.521  34.499  1.00  0.00     0.031 C 
ATOM     47  C   UNL A   1      38.315  29.569  28.853  1.00  0.00     0.029 A 
ATOM     48  C   UNL A   1      39.335  29.340  29.872  1.00  0.00     0.049 A 
ATOM     49  H   UNL A   1      39.461  30.224  31.754  1.00  0.00     0.167 HD
ATOM     50  C   UNL A   1      39.854  32.475  35.507  1.00  0.00     0.037 A 
ATOM     51  C   UNL A   1      40.380  28.496  29.759  1.00  0.00     0.037 A 
ATOM     52  C   UNL A   1      40.927  31.519  35.522  1.00  0.00     0.049 A 
ATOM     53  C   UNL A   1      41.363  28.391  30.896  1.00  0.00     0.074 A 
ATOM     54  C   UNL A   1      41.844  31.274  36.528  1.00  0.00     0.029 A 
ATOM     55  N   UNL A   1      41.223  30.650  34.484  1.00  0.00    -0.354 N 
ATOM     56  N   UNL A   1      41.376  29.031  32.041  1.00  0.00    -0.248 NA
ATOM     57  C   UNL A   1      42.477  27.445  30.730  1.00  0.00     0.031 C 
ATOM     58  C   UNL A   1      42.729  30.291  36.078  1.00  0.00     0.029 A 
ATOM     59  C   UNL A   1      42.323  29.880  34.819  1.00  0.00     0.049 A 
ATOM     60  H   UNL A   1      40.726  30.590  33.637  1.00  0.00     0.167 HD
ATOM     61  C   UNL A   1      42.463  28.530  32.746  1.00  0.00     0.074 A 
ATOM     62  C   UNL A   1      43.088  27.534  31.903  1.00  0.00     0.031 C 
ATOM     63  C   UNL A   1      42.903  28.862  33.983  1.00  0.00     0.037 A 
BRANCH  50  64
ATOM     64  C   UNL A   1      39.715  33.395  36.684  1.00  0.00     0.057 A 
ATOM     65  C   UNL A   1      40.382  34.624  36.746  1.00  0.00     0.134 A 
ATOM     66  C   UNL A   1      38.844  33.077  37.734  1.00  0.00     0.134 A 
ATOM     67  F   UNL A   1      41.240  34.983  35.780  1.00  0.00    -0.206 F 
ATOM     68  C   UNL A   1      40.198  35.500  37.818  1.00  0.00     0.040 A 
ATOM     69  C   UNL A   1      38.630  33.957  38.796  1.00  0.00     0.040 A 
ATOM     70  F   UNL A   1      38.169  31.918  37.734  1.00  0.00    -0.206 F 
ATOM     71  C   UNL A   1      39.310  35.172  38.841  1.00  0.00     0.006 A 
ENDBRANCH  50  64
BRANCH  51  72
ATOM     72  C   UNL A   1      40.568  27.682  28.529  1.00  0.00     0.057 A 
ATOM     73  C   UNL A   1      41.348  28.151  27.463  1.00  0.00     0.134 A 
ATOM     74  C   UNL A   1      39.931  26.447  28.361  1.00  0.00     0.134 A 
ATOM     75  F   UNL A   1      41.970  29.336  27.554  1.00  0.00    -0.206 F 
ATOM     76  C   UNL A   1      41.455  27.443  26.265  1.00  0.00     0.040 A 
ATOM     77  C   UNL A   1      40.055  25.713  27.180  1.00  0.00     0.040 A 
ATOM     78  F   UNL A   1      39.176  25.934  29.344  1.00  0.00    -0.206 F 
ATOM     79  C   UNL A   1      40.807  26.218  26.121  1.00  0.00     0.006 A 
ENDBRANCH  51  72
BRANCH  63  80
ATOM     80  C   UNL A   1      44.063  28.094  34.545  1.00  0.00     0.057 A 
ATOM     81  C   UNL A   1      43.896  26.883  35.227  1.00  0.00     0.134 A 
ATOM     82  C   UNL A   1      45.374  28.534  34.315  1.00  0.00     0.134 A 
ATOM     83  F   UNL A   1      42.668  26.413  35.488  1.00  0.00    -0.206 F 
ATOM     84  C   UNL A   1      44.993  26.143  35.671  1.00  0.00     0.040 A 
ATOM     85  C   UNL A   1      46.477  27.789  34.729  1.00  0.00     0.040 A 
ATOM     86  F   UNL A   1      45.601  29.681  33.657  1.00  0.00    -0.206 F 
ATOM     87  C   UNL A   1      46.288  26.590  35.412  1.00  0.00     0.006 A 
ENDBRANCH  63  80
ENDBRANCH  37  38
ENDBRANCH  29  32
ENDBRANCH  27  28
ENDBRANCH  26  27
ENDBRANCH  25  26
ENDBRANCH  24  25
ENDBRANCH  23  24
ENDBRANCH   1  23
TORSDOF 20
ENDMDL
MODEL 3
REMARK VINA RESULT:     -10.1      2.106      6.959
REMARK SMILES CCN(CCC(=O)NCCCCCCNC(=O)c1ccc(-c2c3nc(c(-c4c(F)cccc4F)c4ccc([nH]4)c(-c4c(F)cccc4F)c4nc(c(-c5c(F)cccc5F)c5ccc2[nH]5)C=C4)C=C3)cc1)C(=O)N1C[C@H](C(=O)OC)[C@@H](C)C1
REMARK SMILES IDX 9 1 8 2 6 3 7 4 5 6 4 7 3 8 2 9 1 10 72 11 73 12 74 13 75 14
REMARK SMILES IDX 83 15 76 16 81 17 82 18 77 19 78 20 79 21 80 22 10 23 11 24
REMARK SMILES IDX 12 25 13 26 14 27 15 28 16 29 17 31 18 32 19 33 71 34 20 35
REMARK SMILES IDX 70 36 21 37 22 38 23 39 64 40 24 41 69 42 63 43 65 44 25 45
REMARK SMILES IDX 68 46 62 47 61 48 26 50 52 51 35 52 51 53 36 54 39 55 50 56
REMARK SMILES IDX 66 57 37 58 38 59 49 61 67 62 40 63 27 64 28 65 33 66 29 67
REMARK SMILES IDX 30 68 32 69 34 70 31 71 53 72 54 73 59 74 55 75 56 76 58 77
REMARK SMILES IDX 60 78 57 79 41 80 42 81 47 82 43 83 44 84 46 85 48 86 45 87
REMARK H PARENT 8 5 15 30 65 49 39 60
REMARK Flexibility Score: inf
ROOT
ATOM      1  C   UNL A   1      39.046  21.631  26.271  1.00  0.00     0.116 C 
ENDROOT
BRANCH   1   2
ATOM      2  N   UNL A   1      38.436  21.936  24.990  1.00  0.00    -0.356 N 
ATOM      3  C   UNL A   1      37.147  22.257  24.683  1.00  0.00     0.221 C 
ATOM      4  O   UNL A   1      36.879  22.528  23.509  1.00  0.00    -0.275 OA
ATOM      5  H   UNL A   1      39.050  21.906  24.221  1.00  0.00     0.163 HD
BRANCH   3   6
ATOM      6  C   UNL A   1      36.063  22.281  25.735  1.00  0.00     0.121 C 
BRANCH   6   7
ATOM      7  C   UNL A   1      35.055  23.429  25.629  1.00  0.00     0.131 C 
BRANCH   7   8
ATOM      8  N   UNL A   1      33.883  23.192  24.778  1.00  0.00    -0.324 N 
BRANCH   8   9
ATOM      9  C   UNL A   1      33.228  21.893  25.078  1.00  0.00     0.118 C 
ATOM     10  C   UNL A   1      32.814  20.927  23.978  1.00  0.00     0.027 C 
ENDBRANCH   8   9
BRANCH   8  11
ATOM     11  C   UNL A   1      33.392  24.013  23.770  1.00  0.00     0.320 C 
ATOM     12  O   UNL A   1      34.051  24.195  22.739  1.00  0.00    -0.248 OA
BRANCH  11  13
ATOM     13  N   UNL A   1      32.238  24.756  23.915  1.00  0.00    -0.323 N 
ATOM     14  C   UNL A   1      30.954  24.803  23.224  1.00  0.00     0.137 C 
ATOM     15  C   UNL A   1      32.187  25.698  25.045  1.00  0.00     0.125 C 
ATOM     16  C   UNL A   1      30.360  26.160  23.562  1.00  0.00     0.123 C 
ATOM     17  C   UNL A   1      30.792  26.353  25.014  1.00  0.00     0.021 C 
ATOM     18  C   UNL A   1      29.807  25.656  25.970  1.00  0.00     0.010 C 
BRANCH  16  19
ATOM     19  C   UNL A   1      30.891  27.145  22.541  1.00  0.00     0.310 C 
ATOM     20  O   UNL A   1      31.179  26.825  21.394  1.00  0.00    -0.252 OA
BRANCH  19  21
ATOM     21  O   UNL A   1      31.185  28.346  23.101  1.00  0.00    -0.469 OA
ATOM     22  C   UNL A   1      32.484  28.844  22.782  1.00  0.00     0.282 C 
ENDBRANCH  19  21
ENDBRANCH  16  19
ENDBRANCH  11  13
ENDBRANCH   8  11
ENDBRANCH   7   8
ENDBRANCH   6   7
ENDBRANCH   3   6
ENDBRANCH   1   2
BRANCH   1  23
ATOM     23  C   UNL A   1      40.156  22.609  26.636  1.00  0.00     0.021 C 
BRANCH  23  24
ATOM     24  C   UNL A   1      41.584  22.071  26.563  1.00  0.00     0.002 C 
BRANCH  24  25
ATOM     25  C   UNL A   1      41.928  20.994  27.587  1.00  0.00     0.002 C 
BRANCH  25  26
ATOM     26  C   UNL A   1      42.383  19.665  26.989  1.00  0.00     0.021 C 
BRANCH  26  27
ATOM     27  C   UNL A   1      42.399  19.643  25.463  1.00  0.00     0.116 C 
BRANCH  27  28
ATOM     28  N   UNL A   1      43.582  18.971  24.946  1.00  0.00    -0.352 N 
ATOM     29  C   UNL A   1      44.749  19.530  24.491  1.00  0.00     0.251 C 
ATOM     30  H   UNL A   1      43.540  17.987  24.922  1.00  0.00     0.163 HD
ATOM     31  O   UNL A   1      45.566  18.869  23.854  1.00  0.00    -0.269 OA
BRANCH  29  32
ATOM     32  C   UNL A   1      45.001  20.956  24.765  1.00  0.00     0.039 A 
ATOM     33  C   UNL A   1      44.628  21.921  23.827  1.00  0.00     0.014 A 
ATOM     34  C   UNL A   1      45.559  21.331  25.989  1.00  0.00     0.014 A 
ATOM     35  C   UNL A   1      44.753  23.275  24.148  1.00  0.00     0.010 A 
ATOM     36  C   UNL A   1      45.598  22.673  26.340  1.00  0.00     0.010 A 
ATOM     37  C   UNL A   1      45.205  23.660  25.421  1.00  0.00    -0.014 A 
BRANCH  37  38
ATOM     38  C   UNL A   1      45.321  25.084  25.822  1.00  0.00     0.031 A 
ATOM     39  C   UNL A   1      46.670  25.750  25.770  1.00  0.00     0.074 A 
ATOM     40  C   UNL A   1      44.257  25.741  26.325  1.00  0.00     0.049 A 
ATOM     41  N   UNL A   1      47.039  26.913  26.239  1.00  0.00    -0.248 NA
ATOM     42  C   UNL A   1      47.760  24.986  25.137  1.00  0.00     0.031 C 
ATOM     43  C   UNL A   1      42.904  25.197  26.457  1.00  0.00     0.029 A 
ATOM     44  N   UNL A   1      44.155  27.007  26.848  1.00  0.00    -0.354 N 
ATOM     45  C   UNL A   1      48.402  27.003  25.989  1.00  0.00     0.074 A 
ATOM     46  C   UNL A   1      48.806  25.762  25.368  1.00  0.00     0.031 C 
ATOM     47  C   UNL A   1      42.109  26.124  27.017  1.00  0.00     0.029 A 
ATOM     48  C   UNL A   1      42.903  27.307  27.332  1.00  0.00     0.049 A 
ATOM     49  H   UNL A   1      44.907  27.641  26.875  1.00  0.00     0.167 HD
ATOM     50  C   UNL A   1      49.238  28.037  26.239  1.00  0.00     0.037 A 
ATOM     51  C   UNL A   1      42.456  28.403  27.977  1.00  0.00     0.037 A 
ATOM     52  C   UNL A   1      48.821  29.286  26.814  1.00  0.00     0.049 A 
ATOM     53  C   UNL A   1      43.412  29.536  28.247  1.00  0.00     0.074 A 
ATOM     54  C   UNL A   1      49.579  30.421  27.043  1.00  0.00     0.029 A 
ATOM     55  N   UNL A   1      47.534  29.565  27.246  1.00  0.00    -0.354 N 
ATOM     56  N   UNL A   1      44.686  29.632  27.950  1.00  0.00    -0.248 NA
ATOM     57  C   UNL A   1      42.872  30.715  28.942  1.00  0.00     0.031 C 
ATOM     58  C   UNL A   1      48.762  31.370  27.662  1.00  0.00     0.029 A 
ATOM     59  C   UNL A   1      47.482  30.849  27.760  1.00  0.00     0.049 A 
ATOM     60  H   UNL A   1      46.773  28.944  27.196  1.00  0.00     0.167 HD
ATOM     61  C   UNL A   1      45.082  30.895  28.373  1.00  0.00     0.074 A 
ATOM     62  C   UNL A   1      43.917  31.530  28.950  1.00  0.00     0.031 C 
ATOM     63  C   UNL A   1      46.301  31.479  28.288  1.00  0.00     0.037 A 
BRANCH  50  64
ATOM     64  C   UNL A   1      50.688  27.872  25.891  1.00  0.00     0.057 A 
ATOM     65  C   UNL A   1      51.165  28.075  24.591  1.00  0.00     0.134 A 
ATOM     66  C   UNL A   1      51.628  27.577  26.886  1.00  0.00     0.134 A 
ATOM     67  F   UNL A   1      50.315  28.347  23.589  1.00  0.00    -0.206 F 
ATOM     68  C   UNL A   1      52.524  27.979  24.289  1.00  0.00     0.040 A 
ATOM     69  C   UNL A   1      52.993  27.508  26.603  1.00  0.00     0.040 A 
ATOM     70  F   UNL A   1      51.239  27.377  28.155  1.00  0.00    -0.206 F 
ATOM     71  C   UNL A   1      53.444  27.707  25.300  1.00  0.00     0.006 A 
ENDBRANCH  50  64
BRANCH  51  72
ATOM     72  C   UNL A   1      41.041  28.495  28.424  1.00  0.00     0.057 A 
ATOM     73  C   UNL A   1      40.665  28.114  29.720  1.00  0.00     0.134 A 
ATOM     74  C   UNL A   1      40.022  28.909  27.558  1.00  0.00     0.134 A 
ATOM     75  F   UNL A   1      41.591  27.691  30.593  1.00  0.00    -0.206 F 
ATOM     76  C   UNL A   1      39.328  28.102  30.123  1.00  0.00     0.040 A 
ATOM     77  C   UNL A   1      38.684  28.932  27.958  1.00  0.00     0.040 A 
ATOM     78  F   UNL A   1      40.312  29.295  26.307  1.00  0.00    -0.206 F 
ATOM     79  C   UNL A   1      38.333  28.514  29.239  1.00  0.00     0.006 A 
ENDBRANCH  51  72
BRANCH  63  80
ATOM     80  C   UNL A   1      46.431  32.901  28.750  1.00  0.00     0.057 A 
ATOM     81  C   UNL A   1      46.770  33.229  30.068  1.00  0.00     0.134 A 
ATOM     82  C   UNL A   1      46.302  33.952  27.832  1.00  0.00     0.134 A 
ATOM     83  F   UNL A   1      46.898  32.271  30.997  1.00  0.00    -0.206 F 
ATOM     84  C   UNL A   1      46.965  34.555  30.458  1.00  0.00     0.040 A 
ATOM     85  C   UNL A   1      46.522  35.277  28.204  1.00  0.00     0.040 A 
ATOM     86  F   UNL A   1      45.990  33.702  26.551  1.00  0.00    -0.206 F 
ATOM     87  C   UNL A   1      46.853  35.582  29.522  1.00  0.00     0.006 A 
ENDBRANCH  63  80
ENDBRANCH  37  38
ENDBRANCH  29  32
ENDBRANCH  27  28
ENDBRANCH  26  27
ENDBRANCH  25  26
ENDBRANCH  24  25
ENDBRANCH  23  24
ENDBRANCH   1  23
TORSDOF 20
ENDMDL
