MODEL 1
REMARK VINA RESULT:     -12.2      0.000      0.000
REMARK SMILES O=C(CCC(=O)/[NH+]=C1\S[C@H]2CS(=O)(=O)C[C@@H]2N1c1ccc(Oc2ccccc2)cc1)NCCCCCCNC(=O)c1ccc(-c2c3nc(c(-c4c(F)cccc4F)c4ccc([nH]4)c(-c4c(F)cccc4F)c4nc(c(-c5c(F)cccc5F)c5ccc2[nH]5)C=C4)C=C3)cc1
REMARK SMILES IDX 33 1 32 2 31 3 2 4 1 5 3 7 4 8 5 9 6 10 7 11 8 12 9 14 17 15
REMARK SMILES IDX 10 16 16 17 11 18 15 19 12 20 13 21 14 22 18 23 19 24 30 25
REMARK SMILES IDX 20 26 29 27 21 28 22 29 23 30 24 31 28 32 25 33 27 34 26 35
REMARK SMILES IDX 34 36 35 37 36 38 37 39 38 40 39 41 40 43 41 44 42 45 94 46
REMARK SMILES IDX 43 47 93 48 44 49 45 50 46 51 87 52 47 53 92 54 86 55 88 56
REMARK SMILES IDX 48 57 91 58 85 59 84 60 49 62 75 63 58 64 74 65 59 66 62 67
REMARK SMILES IDX 73 68 89 69 60 70 61 71 72 73 90 74 63 75 50 76 51 77 56 78
REMARK SMILES IDX 52 79 53 80 55 81 57 82 54 83 76 84 77 85 82 86 78 87 79 88
REMARK SMILES IDX 81 89 83 90 80 91 64 92 65 93 70 94 66 95 67 96 69 97 71 98
REMARK SMILES IDX 68 99
REMARK H PARENT 31 6 7 13 38 42 88 61 62 72
REMARK Flexibility Score: inf
ROOT
ATOM      1  C   UNL A   1      34.007  28.499  25.435  1.00  0.00     0.021 C 
ENDROOT
BRANCH   1   2
ATOM      2  C   UNL A   1      32.841  28.055  24.556  1.00  0.00     0.116 C 
BRANCH   2   3
ATOM      3  N   UNL A   1      33.271  27.547  23.264  1.00  0.00    -0.356 N 
ATOM      4  C   UNL A   1      33.039  26.351  22.668  1.00  0.00     0.220 C 
ATOM      5  O   UNL A   1      33.608  26.091  21.606  1.00  0.00    -0.275 OA
ATOM      6  H   UNL A   1      33.817  28.172  22.736  1.00  0.00     0.163 HD
BRANCH   4   7
ATOM      7  C   UNL A   1      32.069  25.386  23.287  1.00  0.00     0.112 C 
BRANCH   7   8
ATOM      8  C   UNL A   1      32.597  24.067  23.832  1.00  0.00     0.138 C 
BRANCH   8   9
ATOM      9  C   UNL A   1      33.677  23.941  24.911  1.00  0.00     0.308 C 
ATOM     10  O   UNL A   1      33.694  24.785  25.809  1.00  0.00    -0.247 OA
ATOM     11  N   UNL A   1      34.629  22.953  24.872  1.00  0.00    -0.204 N 
ATOM     12  C   UNL A   1      34.344  21.708  25.038  1.00  0.00     0.319 C 
ATOM     13  H   UNL A   1      35.566  23.206  24.711  1.00  0.00     0.316 HD
ATOM     14  S   UNL A   1      32.661  21.117  25.217  1.00  0.00    -0.029 SA
ATOM     15  N   UNL A   1      35.223  20.617  24.982  1.00  0.00    -0.217 N 
ATOM     16  C   UNL A   1      33.202  19.411  25.172  1.00  0.00     0.120 C 
ATOM     17  C   UNL A   1      34.550  19.440  24.439  1.00  0.00     0.212 C 
ATOM     18  C   UNL A   1      32.401  18.372  24.435  1.00  0.00     0.156 C 
ATOM     19  C   UNL A   1      35.080  18.037  24.652  1.00  0.00     0.188 C 
ATOM     20  S   UNL A   1      33.606  17.037  24.357  1.00  0.00     0.155 S 
ATOM     21  O   UNL A   1      33.408  16.176  25.501  1.00  0.00    -0.229 OA
ATOM     22  O   UNL A   1      33.652  16.532  23.001  1.00  0.00    -0.229 OA
BRANCH  15  23
ATOM     23  C   UNL A   1      36.614  20.647  25.160  1.00  0.00     0.128 A 
ATOM     24  C   UNL A   1      37.419  19.511  24.981  1.00  0.00     0.056 A 
ATOM     25  C   UNL A   1      37.275  21.821  25.557  1.00  0.00     0.056 A 
ATOM     26  C   UNL A   1      38.792  19.521  25.269  1.00  0.00     0.051 A 
ATOM     27  C   UNL A   1      38.661  21.842  25.831  1.00  0.00     0.051 A 
ATOM     28  C   UNL A   1      39.419  20.676  25.734  1.00  0.00     0.127 A 
BRANCH  28  29
ATOM     29  O   UNL A   1      40.765  20.531  25.994  1.00  0.00    -0.457 OA
BRANCH  29  30
ATOM     30  C   UNL A   1      41.494  21.537  26.578  1.00  0.00     0.127 A 
ATOM     31  C   UNL A   1      41.203  21.825  27.912  1.00  0.00     0.047 A 
ATOM     32  C   UNL A   1      42.404  22.340  25.897  1.00  0.00     0.047 A 
ATOM     33  C   UNL A   1      41.927  22.787  28.615  1.00  0.00     0.004 A 
ATOM     34  C   UNL A   1      43.115  23.327  26.589  1.00  0.00     0.004 A 
ATOM     35  C   UNL A   1      42.899  23.529  27.954  1.00  0.00     0.000 A 
ENDBRANCH  29  30
ENDBRANCH  28  29
ENDBRANCH  15  23
ENDBRANCH   8   9
ENDBRANCH   7   8
ENDBRANCH   4   7
ENDBRANCH   2   3
ENDBRANCH   1   2
BRANCH   1  36
ATOM     36  C   UNL A   1      33.588  28.859  26.861  1.00  0.00     0.002 C 
BRANCH  36  37
ATOM     37  C   UNL A   1      34.563  29.774  27.594  1.00  0.00     0.002 C 
BRANCH  37  38
ATOM     38  C   UNL A   1      34.336  31.251  27.295  1.00  0.00     0.021 C 
BRANCH  38  39
ATOM     39  C   UNL A   1      32.973  31.748  27.766  1.00  0.00     0.116 C 
BRANCH  39  40
ATOM     40  N   UNL A   1      32.871  33.183  27.555  1.00  0.00    -0.352 N 
ATOM     41  C   UNL A   1      33.283  34.109  28.480  1.00  0.00     0.251 C 
ATOM     42  H   UNL A   1      32.489  33.505  26.707  1.00  0.00     0.163 HD
ATOM     43  O   UNL A   1      32.577  35.062  28.784  1.00  0.00    -0.269 OA
BRANCH  41  44
ATOM     44  C   UNL A   1      34.574  33.886  29.161  1.00  0.00     0.039 A 
ATOM     45  C   UNL A   1      34.567  33.191  30.370  1.00  0.00     0.014 A 
ATOM     46  C   UNL A   1      35.780  34.264  28.560  1.00  0.00     0.014 A 
ATOM     47  C   UNL A   1      35.771  32.755  30.906  1.00  0.00     0.010 A 
ATOM     48  C   UNL A   1      36.965  33.725  29.027  1.00  0.00     0.010 A 
ATOM     49  C   UNL A   1      36.965  32.945  30.191  1.00  0.00    -0.014 A 
BRANCH  49  50
ATOM     50  C   UNL A   1      38.206  32.270  30.625  1.00  0.00     0.031 A 
ATOM     51  C   UNL A   1      39.032  32.854  31.728  1.00  0.00     0.074 A 
ATOM     52  C   UNL A   1      38.600  31.161  29.970  1.00  0.00     0.049 A 
ATOM     53  N   UNL A   1      40.148  32.405  32.243  1.00  0.00    -0.248 NA
ATOM     54  C   UNL A   1      38.567  34.123  32.312  1.00  0.00     0.031 C 
ATOM     55  C   UNL A   1      37.903  30.556  28.829  1.00  0.00     0.029 A 
ATOM     56  N   UNL A   1      39.675  30.336  30.170  1.00  0.00    -0.354 N 
ATOM     57  C   UNL A   1      40.516  33.337  33.202  1.00  0.00     0.074 A 
ATOM     58  C   UNL A   1      39.549  34.409  33.152  1.00  0.00     0.031 C 
ATOM     59  C   UNL A   1      38.539  29.431  28.469  1.00  0.00     0.029 A 
ATOM     60  C   UNL A   1      39.711  29.260  29.318  1.00  0.00     0.049 A 
ATOM     61  H   UNL A   1      40.359  30.500  30.860  1.00  0.00     0.167 HD
ATOM     62  C   UNL A   1      41.555  33.283  34.067  1.00  0.00     0.037 A 
ATOM     63  C   UNL A   1      40.593  28.247  29.236  1.00  0.00     0.037 A 
ATOM     64  C   UNL A   1      42.500  32.200  34.110  1.00  0.00     0.049 A 
ATOM     65  C   UNL A   1      41.739  28.216  30.207  1.00  0.00     0.074 A 
ATOM     66  C   UNL A   1      43.556  32.013  34.982  1.00  0.00     0.029 A 
ATOM     67  N   UNL A   1      42.504  31.122  33.235  1.00  0.00    -0.354 N 
ATOM     68  N   UNL A   1      42.029  29.057  31.171  1.00  0.00    -0.248 NA
ATOM     69  C   UNL A   1      42.679  27.095  30.083  1.00  0.00     0.031 C 
ATOM     70  C   UNL A   1      44.233  30.850  34.601  1.00  0.00     0.029 A 
ATOM     71  C   UNL A   1      43.562  30.281  33.529  1.00  0.00     0.049 A 
ATOM     72  H   UNL A   1      41.851  30.978  32.513  1.00  0.00     0.167 HD
ATOM     73  C   UNL A   1      43.165  28.552  31.787  1.00  0.00     0.074 A 
ATOM     74  C   UNL A   1      43.501  27.323  31.097  1.00  0.00     0.031 C 
ATOM     75  C   UNL A   1      43.870  29.058  32.829  1.00  0.00     0.037 A 
BRANCH  62  76
ATOM     76  C   UNL A   1      41.716  34.426  35.025  1.00  0.00     0.057 A 
ATOM     77  C   UNL A   1      41.038  34.465  36.252  1.00  0.00     0.134 A 
ATOM     78  C   UNL A   1      42.570  35.494  34.727  1.00  0.00     0.134 A 
ATOM     79  F   UNL A   1      40.191  33.482  36.594  1.00  0.00    -0.206 F 
ATOM     80  C   UNL A   1      41.184  35.537  37.135  1.00  0.00     0.040 A 
ATOM     81  C   UNL A   1      42.747  36.557  35.615  1.00  0.00     0.040 A 
ATOM     82  F   UNL A   1      43.249  35.521  33.571  1.00  0.00    -0.206 F 
ATOM     83  C   UNL A   1      42.046  36.584  36.819  1.00  0.00     0.006 A 
ENDBRANCH  62  76
BRANCH  63  84
ATOM     84  C   UNL A   1      40.412  27.173  28.226  1.00  0.00     0.057 A 
ATOM     85  C   UNL A   1      41.046  27.237  26.979  1.00  0.00     0.134 A 
ATOM     86  C   UNL A   1      39.594  26.063  28.474  1.00  0.00     0.134 A 
ATOM     87  F   UNL A   1      41.832  28.280  26.675  1.00  0.00    -0.206 F 
ATOM     88  C   UNL A   1      40.853  26.254  26.007  1.00  0.00     0.040 A 
ATOM     89  C   UNL A   1      39.415  25.058  27.523  1.00  0.00     0.040 A 
ATOM     90  F   UNL A   1      38.969  25.932  29.653  1.00  0.00    -0.206 F 
ATOM     91  C   UNL A   1      40.038  25.158  26.280  1.00  0.00     0.006 A 
ENDBRANCH  63  84
BRANCH  75  92
ATOM     92  C   UNL A   1      45.048  28.261  33.308  1.00  0.00     0.057 A 
ATOM     93  C   UNL A   1      46.347  28.513  32.849  1.00  0.00     0.134 A 
ATOM     94  C   UNL A   1      44.881  27.258  34.271  1.00  0.00     0.134 A 
ATOM     95  F   UNL A   1      46.571  29.451  31.917  1.00  0.00    -0.206 F 
ATOM     96  C   UNL A   1      47.437  27.775  33.315  1.00  0.00     0.040 A 
ATOM     97  C   UNL A   1      45.968  26.536  34.766  1.00  0.00     0.040 A 
ATOM     98  F   UNL A   1      43.663  26.975  34.758  1.00  0.00    -0.206 F 
ATOM     99  C   UNL A   1      47.250  26.790  34.282  1.00  0.00     0.006 A 
ENDBRANCH  75  92
ENDBRANCH  49  50
ENDBRANCH  41  44
ENDBRANCH  39  40
ENDBRANCH  38  39
ENDBRANCH  37  38
ENDBRANCH  36  37
ENDBRANCH   1  36
TORSDOF 18
ENDMDL
MODEL 2
REMARK VINA RESULT:     -11.9      0.560      5.828
REMARK SMILES O=C(CCC(=O)/[NH+]=C1\S[C@H]2CS(=O)(=O)C[C@@H]2N1c1ccc(Oc2ccccc2)cc1)NCCCCCCNC(=O)c1ccc(-c2c3nc(c(-c4c(F)cccc4F)c4ccc([nH]4)c(-c4c(F)cccc4F)c4nc(c(-c5c(F)cccc5F)c5ccc2[nH]5)C=C4)C=C3)cc1
REMARK SMILES IDX 33 1 32 2 31 3 2 4 1 5 3 7 4 8 5 9 6 10 7 11 8 12 9 14 17 15
REMARK SMILES IDX 10 16 16 17 11 18 15 19 12 20 13 21 14 22 18 23 19 24 30 25
REMARK SMILES IDX 20 26 29 27 21 28 22 29 23 30 24 31 28 32 25 33 27 34 26 35
REMARK SMILES IDX 34 36 35 37 36 38 37 39 38 40 39 41 40 43 41 44 42 45 94 46
REMARK SMILES IDX 43 47 93 48 44 49 45 50 46 51 87 52 47 53 92 54 86 55 88 56
REMARK SMILES IDX 48 57 91 58 85 59 84 60 49 62 75 63 58 64 74 65 59 66 62 67
REMARK SMILES IDX 73 68 89 69 60 70 61 71 72 73 90 74 63 75 50 76 51 77 56 78
REMARK SMILES IDX 52 79 53 80 55 81 57 82 54 83 76 84 77 85 82 86 78 87 79 88
REMARK SMILES IDX 81 89 83 90 80 91 64 92 65 93 70 94 66 95 67 96 69 97 71 98
REMARK SMILES IDX 68 99
REMARK H PARENT 31 6 7 13 38 42 88 61 62 72
REMARK Flexibility Score: inf
ROOT
ATOM      1  C   UNL A   1      33.393  28.333  25.775  1.00  0.00     0.021 C 
ENDROOT
BRANCH   1   2
ATOM      2  C   UNL A   1      32.018  27.804  25.375  1.00  0.00     0.116 C 
BRANCH   2   3
ATOM      3  N   UNL A   1      31.892  27.591  23.942  1.00  0.00    -0.356 N 
ATOM      4  C   UNL A   1      31.747  26.444  23.234  1.00  0.00     0.220 C 
ATOM      5  O   UNL A   1      31.778  26.493  22.003  1.00  0.00    -0.275 OA
ATOM      6  H   UNL A   1      31.914  28.411  23.400  1.00  0.00     0.163 HD
BRANCH   4   7
ATOM      7  C   UNL A   1      31.513  25.147  23.956  1.00  0.00     0.112 C 
BRANCH   7   8
ATOM      8  C   UNL A   1      32.614  24.096  23.945  1.00  0.00     0.138 C 
BRANCH   8   9
ATOM      9  C   UNL A   1      33.695  23.957  25.021  1.00  0.00     0.308 C 
ATOM     10  O   UNL A   1      33.703  24.781  25.938  1.00  0.00    -0.247 OA
ATOM     11  N   UNL A   1      34.657  22.982  24.959  1.00  0.00    -0.204 N 
ATOM     12  C   UNL A   1      34.386  21.730  25.097  1.00  0.00     0.319 C 
ATOM     13  H   UNL A   1      35.592  23.248  24.804  1.00  0.00     0.316 HD
ATOM     14  S   UNL A   1      32.710  21.117  25.262  1.00  0.00    -0.029 SA
ATOM     15  N   UNL A   1      35.278  20.650  25.015  1.00  0.00    -0.217 N 
ATOM     16  C   UNL A   1      33.270  19.417  25.178  1.00  0.00     0.120 C 
ATOM     17  C   UNL A   1      34.617  19.478  24.446  1.00  0.00     0.212 C 
ATOM     18  C   UNL A   1      32.480  18.387  24.416  1.00  0.00     0.156 C 
ATOM     19  C   UNL A   1      35.162  18.077  24.626  1.00  0.00     0.188 C 
ATOM     20  S   UNL A   1      33.699  17.068  24.308  1.00  0.00     0.155 S 
ATOM     21  O   UNL A   1      33.511  16.179  25.432  1.00  0.00    -0.229 OA
ATOM     22  O   UNL A   1      33.750  16.594  22.940  1.00  0.00    -0.229 OA
BRANCH  15  23
ATOM     23  C   UNL A   1      36.668  20.691  25.194  1.00  0.00     0.128 A 
ATOM     24  C   UNL A   1      37.483  19.565  25.000  1.00  0.00     0.056 A 
ATOM     25  C   UNL A   1      37.318  21.866  25.607  1.00  0.00     0.056 A 
ATOM     26  C   UNL A   1      38.856  19.585  25.289  1.00  0.00     0.051 A 
ATOM     27  C   UNL A   1      38.703  21.896  25.882  1.00  0.00     0.051 A 
ATOM     28  C   UNL A   1      39.472  20.740  25.769  1.00  0.00     0.127 A 
BRANCH  28  29
ATOM     29  O   UNL A   1      40.819  20.604  26.027  1.00  0.00    -0.457 OA
BRANCH  29  30
ATOM     30  C   UNL A   1      41.548  21.626  26.584  1.00  0.00     0.127 A 
ATOM     31  C   UNL A   1      41.323  21.887  27.936  1.00  0.00     0.047 A 
ATOM     32  C   UNL A   1      42.392  22.466  25.865  1.00  0.00     0.047 A 
ATOM     33  C   UNL A   1      42.056  22.863  28.612  1.00  0.00     0.004 A 
ATOM     34  C   UNL A   1      43.110  23.467  26.531  1.00  0.00     0.004 A 
ATOM     35  C   UNL A   1      42.965  23.644  27.909  1.00  0.00     0.000 A 
ENDBRANCH  29  30
ENDBRANCH  28  29
ENDBRANCH  15  23
ENDBRANCH   8   9
ENDBRANCH   7   8
ENDBRANCH   4   7
ENDBRANCH   2   3
ENDBRANCH   1   2
BRANCH   1  36
ATOM     36  C   UNL A   1      33.474  28.760  27.242  1.00  0.00     0.002 C 
BRANCH  36  37
ATOM     37  C   UNL A   1      34.676  29.636  27.579  1.00  0.00     0.002 C 
BRANCH  37  38
ATOM     38  C   UNL A   1      34.451  31.108  27.254  1.00  0.00     0.021 C 
BRANCH  38  39
ATOM     39  C   UNL A   1      33.055  31.592  27.630  1.00  0.00     0.116 C 
BRANCH  39  40
ATOM     40  N   UNL A   1      32.952  33.025  27.406  1.00  0.00    -0.352 N 
ATOM     41  C   UNL A   1      33.271  33.959  28.360  1.00  0.00     0.251 C 
ATOM     42  H   UNL A   1      32.639  33.340  26.527  1.00  0.00     0.163 HD
ATOM     43  O   UNL A   1      32.529  34.903  28.600  1.00  0.00    -0.269 OA
BRANCH  41  44
ATOM     44  C   UNL A   1      34.502  33.754  29.149  1.00  0.00     0.039 A 
ATOM     45  C   UNL A   1      34.410  33.027  30.334  1.00  0.00     0.014 A 
ATOM     46  C   UNL A   1      35.744  34.185  28.669  1.00  0.00     0.014 A 
ATOM     47  C   UNL A   1      35.574  32.611  30.965  1.00  0.00     0.010 A 
ATOM     48  C   UNL A   1      36.900  33.668  29.227  1.00  0.00     0.010 A 
ATOM     49  C   UNL A   1      36.820  32.855  30.366  1.00  0.00    -0.014 A 
BRANCH  49  50
ATOM     50  C   UNL A   1      38.038  32.206  30.893  1.00  0.00     0.031 A 
ATOM     51  C   UNL A   1      38.570  30.966  30.245  1.00  0.00     0.074 A 
ATOM     52  C   UNL A   1      38.619  32.721  31.994  1.00  0.00     0.049 A 
ATOM     53  N   UNL A   1      39.622  30.259  30.565  1.00  0.00    -0.248 NA
ATOM     54  C   UNL A   1      37.806  30.427  29.107  1.00  0.00     0.031 C 
ATOM     55  C   UNL A   1      38.132  33.884  32.745  1.00  0.00     0.029 A 
ATOM     56  N   UNL A   1      39.747  32.343  32.672  1.00  0.00    -0.354 N 
ATOM     57  C   UNL A   1      39.641  29.194  29.676  1.00  0.00     0.074 A 
ATOM     58  C   UNL A   1      38.461  29.306  28.849  1.00  0.00     0.031 C 
ATOM     59  C   UNL A   1      38.987  34.153  33.745  1.00  0.00     0.029 A 
ATOM     60  C   UNL A   1      40.052  33.158  33.735  1.00  0.00     0.049 A 
ATOM     61  H   UNL A   1      40.289  31.559  32.422  1.00  0.00     0.167 HD
ATOM     62  C   UNL A   1      40.578  28.228  29.545  1.00  0.00     0.037 A 
ATOM     63  C   UNL A   1      41.079  33.107  34.601  1.00  0.00     0.037 A 
ATOM     64  C   UNL A   1      41.753  28.141  30.370  1.00  0.00     0.049 A 
ATOM     65  C   UNL A   1      42.103  32.020  34.434  1.00  0.00     0.074 A 
ATOM     66  C   UNL A   1      42.798  27.240  30.288  1.00  0.00     0.029 A 
ATOM     67  N   UNL A   1      42.033  28.987  31.434  1.00  0.00    -0.354 N 
ATOM     68  N   UNL A   1      42.160  31.070  33.532  1.00  0.00    -0.248 NA
ATOM     69  C   UNL A   1      43.207  31.999  35.401  1.00  0.00     0.031 C 
ATOM     70  C   UNL A   1      43.683  27.505  31.338  1.00  0.00     0.029 A 
ATOM     71  C   UNL A   1      43.220  28.611  32.036  1.00  0.00     0.049 A 
ATOM     72  H   UNL A   1      41.470  29.743  31.718  1.00  0.00     0.167 HD
ATOM     73  C   UNL A   1      43.318  30.356  33.803  1.00  0.00     0.074 A 
ATOM     74  C   UNL A   1      43.942  30.996  34.944  1.00  0.00     0.031 C 
ATOM     75  C   UNL A   1      43.824  29.270  33.168  1.00  0.00     0.037 A 
BRANCH  62  76
ATOM     76  C   UNL A   1      40.363  27.197  28.477  1.00  0.00     0.057 A 
ATOM     77  C   UNL A   1      40.993  27.283  27.227  1.00  0.00     0.134 A 
ATOM     78  C   UNL A   1      39.529  26.096  28.703  1.00  0.00     0.134 A 
ATOM     79  F   UNL A   1      41.792  28.322  26.936  1.00  0.00    -0.206 F 
ATOM     80  C   UNL A   1      40.780  26.326  26.233  1.00  0.00     0.040 A 
ATOM     81  C   UNL A   1      39.332  25.117  27.728  1.00  0.00     0.040 A 
ATOM     82  F   UNL A   1      38.895  25.952  29.876  1.00  0.00    -0.206 F 
ATOM     83  C   UNL A   1      39.952  25.235  26.486  1.00  0.00     0.006 A 
ENDBRANCH  62  76
BRANCH  63  84
ATOM     84  C   UNL A   1      41.207  34.124  35.676  1.00  0.00     0.057 A 
ATOM     85  C   UNL A   1      41.869  35.337  35.451  1.00  0.00     0.134 A 
ATOM     86  C   UNL A   1      40.683  33.908  36.957  1.00  0.00     0.134 A 
ATOM     87  F   UNL A   1      42.405  35.600  34.249  1.00  0.00    -0.206 F 
ATOM     88  C   UNL A   1      42.030  36.284  36.463  1.00  0.00     0.040 A 
ATOM     89  C   UNL A   1      40.811  34.858  37.971  1.00  0.00     0.040 A 
ATOM     90  F   UNL A   1      40.025  32.773  37.237  1.00  0.00    -0.206 F 
ATOM     91  C   UNL A   1      41.496  36.047  37.728  1.00  0.00     0.006 A 
ENDBRANCH  63  84
BRANCH  75  92
ATOM     92  C   UNL A   1      45.130  28.732  33.670  1.00  0.00     0.057 A 
ATOM     93  C   UNL A   1      45.193  27.712  34.628  1.00  0.00     0.134 A 
ATOM     94  C   UNL A   1      46.340  29.213  33.155  1.00  0.00     0.134 A 
ATOM     95  F   UNL A   1      44.069  27.217  35.170  1.00  0.00    -0.206 F 
ATOM     96  C   UNL A   1      46.416  27.208  35.075  1.00  0.00     0.040 A 
ATOM     97  C   UNL A   1      47.567  28.695  33.571  1.00  0.00     0.040 A 
ATOM     98  F   UNL A   1      46.350  30.183  32.227  1.00  0.00    -0.206 F 
ATOM     99  C   UNL A   1      47.606  27.694  34.540  1.00  0.00     0.006 A 
ENDBRANCH  75  92
ENDBRANCH  49  50
ENDBRANCH  41  44
ENDBRANCH  39  40
ENDBRANCH  38  39
ENDBRANCH  37  38
ENDBRANCH  36  37
ENDBRANCH   1  36
TORSDOF 18
ENDMDL
MODEL 3
REMARK VINA RESULT:     -11.8      3.567      9.971
REMARK SMILES O=C(CCC(=O)/[NH+]=C1\S[C@H]2CS(=O)(=O)C[C@@H]2N1c1ccc(Oc2ccccc2)cc1)NCCCCCCNC(=O)c1ccc(-c2c3nc(c(-c4c(F)cccc4F)c4ccc([nH]4)c(-c4c(F)cccc4F)c4nc(c(-c5c(F)cccc5F)c5ccc2[nH]5)C=C4)C=C3)cc1
REMARK SMILES IDX 33 1 32 2 31 3 2 4 1 5 3 7 4 8 5 9 6 10 7 11 8 12 9 14 17 15
REMARK SMILES IDX 10 16 16 17 11 18 15 19 12 20 13 21 14 22 18 23 19 24 30 25
REMARK SMILES IDX 20 26 29 27 21 28 22 29 23 30 24 31 28 32 25 33 27 34 26 35
REMARK SMILES IDX 34 36 35 37 36 38 37 39 38 40 39 41 40 43 41 44 42 45 94 46
REMARK SMILES IDX 43 47 93 48 44 49 45 50 46 51 87 52 47 53 92 54 86 55 88 56
REMARK SMILES IDX 48 57 91 58 85 59 84 60 49 62 75 63 58 64 74 65 59 66 62 67
REMARK SMILES IDX 73 68 89 69 60 70 61 71 72 73 90 74 63 75 50 76 51 77 56 78
REMARK SMILES IDX 52 79 53 80 55 81 57 82 54 83 76 84 77 85 82 86 78 87 79 88
REMARK SMILES IDX 81 89 83 90 80 91 64 92 65 93 70 94 66 95 67 96 69 97 71 98
REMARK SMILES IDX 68 99
REMARK H PARENT 31 6 7 13 38 42 88 61 62 72
REMARK Flexibility Score: inf
ROOT
ATOM      1  C   UNL A   1      34.640  22.997  25.519  1.00  0.00     0.021 C 
ENDROOT
BRANCH   1   2
ATOM      2  C   UNL A   1      33.349  22.453  26.127  1.00  0.00     0.116 C 
BRANCH   2   3
ATOM      3  N   UNL A   1      32.571  23.478  26.805  1.00  0.00    -0.356 N 
ATOM      4  C   UNL A   1      31.669  24.364  26.316  1.00  0.00     0.220 C 
ATOM      5  O   UNL A   1      31.213  25.229  27.065  1.00  0.00    -0.275 OA
ATOM      6  H   UNL A   1      32.723  23.537  27.775  1.00  0.00     0.163 HD
BRANCH   4   7
ATOM      7  C   UNL A   1      31.213  24.251  24.889  1.00  0.00     0.112 C 
BRANCH   7   8
ATOM      8  C   UNL A   1      31.746  25.250  23.871  1.00  0.00     0.138 C 
BRANCH   8   9
ATOM      9  C   UNL A   1      32.786  26.333  24.176  1.00  0.00     0.308 C 
ATOM     10  O   UNL A   1      33.967  26.080  23.933  1.00  0.00    -0.247 OA
ATOM     11  N   UNL A   1      32.438  27.532  24.743  1.00  0.00    -0.204 N 
ATOM     12  C   UNL A   1      31.731  28.413  24.123  1.00  0.00     0.319 C 
ATOM     13  H   UNL A   1      32.740  27.729  25.659  1.00  0.00     0.316 HD
ATOM     14  S   UNL A   1      31.023  28.119  22.503  1.00  0.00    -0.029 SA
ATOM     15  N   UNL A   1      31.287  29.650  24.614  1.00  0.00    -0.217 N 
ATOM     16  C   UNL A   1      30.120  29.664  22.561  1.00  0.00     0.120 C 
ATOM     17  C   UNL A   1      29.980  29.987  24.054  1.00  0.00     0.212 C 
ATOM     18  C   UNL A   1      28.714  29.750  22.029  1.00  0.00     0.156 C 
ATOM     19  C   UNL A   1      29.448  31.405  24.045  1.00  0.00     0.188 C 
ATOM     20  S   UNL A   1      28.202  31.322  22.741  1.00  0.00     0.155 S 
ATOM     21  O   UNL A   1      28.479  32.369  21.783  1.00  0.00    -0.229 OA
ATOM     22  O   UNL A   1      26.900  31.152  23.353  1.00  0.00    -0.229 OA
BRANCH  15  23
ATOM     23  C   UNL A   1      31.839  30.381  25.676  1.00  0.00     0.128 A 
ATOM     24  C   UNL A   1      31.227  31.535  26.191  1.00  0.00     0.056 A 
ATOM     25  C   UNL A   1      33.058  30.007  26.265  1.00  0.00     0.056 A 
ATOM     26  C   UNL A   1      31.841  32.323  27.176  1.00  0.00     0.051 A 
ATOM     27  C   UNL A   1      33.671  30.788  27.270  1.00  0.00     0.051 A 
ATOM     28  C   UNL A   1      33.087  31.978  27.698  1.00  0.00     0.127 A 
BRANCH  28  29
ATOM     29  O   UNL A   1      33.574  32.856  28.642  1.00  0.00    -0.457 OA
BRANCH  29  30
ATOM     30  C   UNL A   1      34.913  32.922  28.935  1.00  0.00     0.127 A 
ATOM     31  C   UNL A   1      35.262  32.837  30.284  1.00  0.00     0.047 A 
ATOM     32  C   UNL A   1      35.908  33.175  27.995  1.00  0.00     0.047 A 
ATOM     33  C   UNL A   1      36.598  32.832  30.682  1.00  0.00     0.004 A 
ATOM     34  C   UNL A   1      37.250  33.200  28.392  1.00  0.00     0.004 A 
ATOM     35  C   UNL A   1      37.596  32.998  29.730  1.00  0.00     0.000 A 
ENDBRANCH  29  30
ENDBRANCH  28  29
ENDBRANCH  15  23
ENDBRANCH   8   9
ENDBRANCH   7   8
ENDBRANCH   4   7
ENDBRANCH   2   3
ENDBRANCH   1   2
BRANCH   1  36
ATOM     36  C   UNL A   1      35.450  21.936  24.772  1.00  0.00     0.002 C 
BRANCH  36  37
ATOM     37  C   UNL A   1      36.467  21.196  25.633  1.00  0.00     0.002 C 
BRANCH  37  38
ATOM     38  C   UNL A   1      37.749  20.854  24.883  1.00  0.00     0.021 C 
BRANCH  38  39
ATOM     39  C   UNL A   1      39.007  21.209  25.667  1.00  0.00     0.116 C 
BRANCH  39  40
ATOM     40  N   UNL A   1      39.683  19.995  26.095  1.00  0.00    -0.352 N 
ATOM     41  C   UNL A   1      41.048  19.855  26.092  1.00  0.00     0.251 C 
ATOM     42  H   UNL A   1      39.134  19.238  26.402  1.00  0.00     0.163 HD
ATOM     43  O   UNL A   1      41.584  18.857  25.627  1.00  0.00    -0.269 OA
BRANCH  41  44
ATOM     44  C   UNL A   1      41.864  20.977  26.596  1.00  0.00     0.039 A 
ATOM     45  C   UNL A   1      42.421  21.854  25.667  1.00  0.00     0.014 A 
ATOM     46  C   UNL A   1      41.986  21.218  27.970  1.00  0.00     0.014 A 
ATOM     47  C   UNL A   1      42.980  23.045  26.110  1.00  0.00     0.010 A 
ATOM     48  C   UNL A   1      42.430  22.455  28.401  1.00  0.00     0.010 A 
ATOM     49  C   UNL A   1      42.907  23.388  27.471  1.00  0.00    -0.014 A 
BRANCH  49  50
ATOM     50  C   UNL A   1      43.270  24.750  27.913  1.00  0.00     0.031 A 
ATOM     51  C   UNL A   1      42.200  25.760  28.191  1.00  0.00     0.074 A 
ATOM     52  C   UNL A   1      44.574  25.073  28.005  1.00  0.00     0.049 A 
ATOM     53  N   UNL A   1      42.325  26.999  28.587  1.00  0.00    -0.248 NA
ATOM     54  C   UNL A   1      40.808  25.337  27.966  1.00  0.00     0.031 C 
ATOM     55  C   UNL A   1      45.694  24.181  27.681  1.00  0.00     0.029 A 
ATOM     56  N   UNL A   1      45.184  26.233  28.403  1.00  0.00    -0.354 N 
ATOM     57  C   UNL A   1      41.033  27.502  28.652  1.00  0.00     0.074 A 
ATOM     58  C   UNL A   1      40.145  26.460  28.190  1.00  0.00     0.031 C 
ATOM     59  C   UNL A   1      46.850  24.810  27.946  1.00  0.00     0.029 A 
ATOM     60  C   UNL A   1      46.556  26.160  28.411  1.00  0.00     0.049 A 
ATOM     61  H   UNL A   1      44.687  27.043  28.660  1.00  0.00     0.167 HD
ATOM     62  C   UNL A   1      40.628  28.716  29.089  1.00  0.00     0.037 A 
ATOM     63  C   UNL A   1      47.472  27.082  28.758  1.00  0.00     0.037 A 
ATOM     64  C   UNL A   1      41.527  29.735  29.558  1.00  0.00     0.049 A 
ATOM     65  C   UNL A   1      46.992  28.423  29.235  1.00  0.00     0.074 A 
ATOM     66  C   UNL A   1      41.224  30.979  30.078  1.00  0.00     0.029 A 
ATOM     67  N   UNL A   1      42.911  29.626  29.557  1.00  0.00    -0.354 N 
ATOM     68  N   UNL A   1      45.763  28.858  29.378  1.00  0.00    -0.248 NA
ATOM     69  C   UNL A   1      48.023  29.401  29.602  1.00  0.00     0.031 C 
ATOM     70  C   UNL A   1      42.424  31.646  30.340  1.00  0.00     0.029 A 
ATOM     71  C   UNL A   1      43.476  30.793  30.040  1.00  0.00     0.049 A 
ATOM     72  H   UNL A   1      43.415  28.836  29.257  1.00  0.00     0.167 HD
ATOM     73  C   UNL A   1      45.872  30.147  29.879  1.00  0.00     0.074 A 
ATOM     74  C   UNL A   1      47.287  30.416  30.031  1.00  0.00     0.031 C 
ATOM     75  C   UNL A   1      44.891  31.032  30.188  1.00  0.00     0.037 A 
BRANCH  62  76
ATOM     76  C   UNL A   1      39.155  28.998  29.073  1.00  0.00     0.057 A 
ATOM     77  C   UNL A   1      38.361  28.856  30.221  1.00  0.00     0.134 A 
ATOM     78  C   UNL A   1      38.522  29.434  27.904  1.00  0.00     0.134 A 
ATOM     79  F   UNL A   1      38.900  28.426  31.373  1.00  0.00    -0.206 F 
ATOM     80  C   UNL A   1      36.988  29.110  30.197  1.00  0.00     0.040 A 
ATOM     81  C   UNL A   1      37.156  29.720  27.875  1.00  0.00     0.040 A 
ATOM     82  F   UNL A   1      39.221  29.592  26.770  1.00  0.00    -0.206 F 
ATOM     83  C   UNL A   1      36.384  29.550  29.022  1.00  0.00     0.006 A 
ENDBRANCH  62  76
BRANCH  63  84
ATOM     84  C   UNL A   1      48.921  26.762  28.696  1.00  0.00     0.057 A 
ATOM     85  C   UNL A   1      49.602  26.267  29.816  1.00  0.00     0.134 A 
ATOM     86  C   UNL A   1      49.666  26.951  27.525  1.00  0.00     0.134 A 
ATOM     87  F   UNL A   1      48.948  26.075  30.971  1.00  0.00    -0.206 F 
ATOM     88  C   UNL A   1      50.971  25.999  29.782  1.00  0.00     0.040 A 
ATOM     89  C   UNL A   1      51.029  26.660  27.469  1.00  0.00     0.040 A 
ATOM     90  F   UNL A   1      49.073  27.410  26.413  1.00  0.00    -0.206 F 
ATOM     91  C   UNL A   1      51.688  26.192  28.604  1.00  0.00     0.006 A 
ENDBRANCH  63  84
BRANCH  75  92
ATOM     92  C   UNL A   1      45.317  32.354  30.754  1.00  0.00     0.057 A 
ATOM     93  C   UNL A   1      45.521  32.541  32.127  1.00  0.00     0.134 A 
ATOM     94  C   UNL A   1      45.566  33.441  29.906  1.00  0.00     0.134 A 
ATOM     95  F   UNL A   1      45.286  31.543  32.993  1.00  0.00    -0.206 F 
ATOM     96  C   UNL A   1      45.933  33.773  32.639  1.00  0.00     0.040 A 
ATOM     97  C   UNL A   1      46.009  34.667  30.404  1.00  0.00     0.040 A 
ATOM     98  F   UNL A   1      45.399  33.324  28.580  1.00  0.00    -0.206 F 
ATOM     99  C   UNL A   1      46.186  34.836  31.776  1.00  0.00     0.006 A 
ENDBRANCH  75  92
ENDBRANCH  49  50
ENDBRANCH  41  44
ENDBRANCH  39  40
ENDBRANCH  38  39
ENDBRANCH  37  38
ENDBRANCH  36  37
ENDBRANCH   1  36
TORSDOF 18
ENDMDL
