MODEL 1
REMARK VINA RESULT:     -10.6      0.000      0.000
REMARK SMILES CC[C@@](O)(C(=O)NCCCCCCNC(=O)c1ccc(-c2c3nc(c(-c4c(F)cccc4F)c4ccc([nH]4)c(-c4c(F)cccc4F)c4nc(c(-c5c(F)cccc5F)c5ccc2[nH]5)C=C4)C=C3)cc1)[C@@H](C)c1ccc(OC(C)C)cc1
REMARK SMILES IDX 9 1 8 2 7 3 5 4 6 5 3 7 2 8 1 9 4 10 71 12 72 13 73 14 74 15
REMARK SMILES IDX 82 16 75 17 81 18 76 19 77 20 78 21 79 22 80 23 10 24 11 25
REMARK SMILES IDX 12 26 13 27 14 28 15 29 16 31 17 32 18 33 70 34 19 35 69 36
REMARK SMILES IDX 20 37 21 38 22 39 63 40 23 41 68 42 62 43 64 44 24 45 67 46
REMARK SMILES IDX 61 47 60 48 25 50 51 51 34 52 50 53 35 54 38 55 49 56 65 57
REMARK SMILES IDX 36 58 37 59 48 61 66 62 39 63 26 64 27 65 32 66 28 67 29 68
REMARK SMILES IDX 31 69 33 70 30 71 52 72 53 73 58 74 54 75 55 76 57 77 59 78
REMARK SMILES IDX 56 79 40 80 41 81 46 82 42 83 43 84 45 85 47 86 44 87
REMARK H PARENT 7 6 4 11 14 30 64 49 38 60
REMARK Flexibility Score: inf
ROOT
ATOM      1  C   UNL A   1      35.916  23.282  25.994  1.00  0.00     0.021 C 
ENDROOT
BRANCH   1   2
ATOM      2  C   UNL A   1      34.948  24.283  25.358  1.00  0.00     0.116 C 
BRANCH   2   3
ATOM      3  N   UNL A   1      33.766  24.439  26.178  1.00  0.00    -0.354 N 
ATOM      4  C   UNL A   1      32.450  24.549  25.836  1.00  0.00     0.252 C 
ATOM      5  O   UNL A   1      31.665  24.667  26.782  1.00  0.00    -0.272 OA
ATOM      6  H   UNL A   1      33.942  24.473  27.147  1.00  0.00     0.163 HD
BRANCH   4   7
ATOM      7  C   UNL A   1      31.976  24.471  24.348  1.00  0.00     0.149 C 
BRANCH   7   8
ATOM      8  C   UNL A   1      32.314  23.114  23.668  1.00  0.00     0.043 C 
ATOM      9  C   UNL A   1      32.005  21.860  24.491  1.00  0.00     0.007 C 
ENDBRANCH   7   8
BRANCH   7  10
ATOM     10  O   UNL A   1      30.537  24.606  24.480  1.00  0.00    -0.379 OA
ATOM     11  H   UNL A   1      30.331  25.090  25.295  1.00  0.00     0.212 HD
ENDBRANCH   7  10
BRANCH   7  12
ATOM     12  C   UNL A   1      32.551  25.718  23.555  1.00  0.00     0.057 C 
ATOM     13  C   UNL A   1      32.885  25.451  22.074  1.00  0.00     0.016 C 
BRANCH  12  14
ATOM     14  C   UNL A   1      31.642  26.943  23.690  1.00  0.00    -0.042 A 
ATOM     15  C   UNL A   1      31.704  27.808  24.788  1.00  0.00     0.008 A 
ATOM     16  C   UNL A   1      30.789  27.279  22.630  1.00  0.00     0.008 A 
ATOM     17  C   UNL A   1      31.035  29.032  24.761  1.00  0.00     0.047 A 
ATOM     18  C   UNL A   1      30.101  28.495  22.622  1.00  0.00     0.047 A 
ATOM     19  C   UNL A   1      30.254  29.401  23.665  1.00  0.00     0.119 A 
BRANCH  19  20
ATOM     20  O   UNL A   1      29.750  30.662  23.750  1.00  0.00    -0.491 OA
BRANCH  20  21
ATOM     21  C   UNL A   1      28.650  31.123  22.963  1.00  0.00     0.167 C 
ATOM     22  C   UNL A   1      27.278  30.723  23.501  1.00  0.00     0.052 C 
ATOM     23  C   UNL A   1      28.791  32.586  22.557  1.00  0.00     0.052 C 
ENDBRANCH  20  21
ENDBRANCH  19  20
ENDBRANCH  12  14
ENDBRANCH   7  12
ENDBRANCH   4   7
ENDBRANCH   2   3
ENDBRANCH   1   2
BRANCH   1  24
ATOM     24  C   UNL A   1      35.782  21.857  25.445  1.00  0.00     0.002 C 
BRANCH  24  25
ATOM     25  C   UNL A   1      36.868  21.452  24.446  1.00  0.00     0.002 C 
BRANCH  25  26
ATOM     26  C   UNL A   1      37.661  20.205  24.839  1.00  0.00     0.021 C 
BRANCH  26  27
ATOM     27  C   UNL A   1      38.840  20.482  25.764  1.00  0.00     0.116 C 
BRANCH  27  28
ATOM     28  N   UNL A   1      39.777  19.369  25.798  1.00  0.00    -0.352 N 
ATOM     29  C   UNL A   1      41.139  19.398  25.958  1.00  0.00     0.251 C 
ATOM     30  H   UNL A   1      39.380  18.474  25.691  1.00  0.00     0.163 HD
ATOM     31  O   UNL A   1      41.816  18.394  25.755  1.00  0.00    -0.269 OA
BRANCH  29  32
ATOM     32  C   UNL A   1      41.789  20.660  26.360  1.00  0.00     0.039 A 
ATOM     33  C   UNL A   1      42.161  21.579  25.375  1.00  0.00     0.014 A 
ATOM     34  C   UNL A   1      42.003  20.943  27.711  1.00  0.00     0.014 A 
ATOM     35  C   UNL A   1      42.694  22.812  25.753  1.00  0.00     0.010 A 
ATOM     36  C   UNL A   1      42.459  22.200  28.086  1.00  0.00     0.010 A 
ATOM     37  C   UNL A   1      42.813  23.146  27.112  1.00  0.00    -0.014 A 
BRANCH  37  38
ATOM     38  C   UNL A   1      43.307  24.477  27.544  1.00  0.00     0.031 A 
ATOM     39  C   UNL A   1      42.331  25.539  27.961  1.00  0.00     0.074 A 
ATOM     40  C   UNL A   1      44.621  24.758  27.471  1.00  0.00     0.049 A 
ATOM     41  N   UNL A   1      42.549  26.794  28.260  1.00  0.00    -0.248 NA
ATOM     42  C   UNL A   1      40.913  25.144  28.017  1.00  0.00     0.031 C 
ATOM     43  C   UNL A   1      45.663  23.828  27.033  1.00  0.00     0.029 A 
ATOM     44  N   UNL A   1      45.303  25.919  27.739  1.00  0.00    -0.354 N 
ATOM     45  C   UNL A   1      41.298  27.341  28.516  1.00  0.00     0.074 A 
ATOM     46  C   UNL A   1      40.323  26.299  28.283  1.00  0.00     0.031 C 
ATOM     47  C   UNL A   1      46.851  24.453  27.065  1.00  0.00     0.029 A 
ATOM     48  C   UNL A   1      46.650  25.837  27.483  1.00  0.00     0.049 A 
ATOM     49  H   UNL A   1      44.868  26.733  28.081  1.00  0.00     0.167 HD
ATOM     50  C   UNL A   1      40.992  28.596  28.926  1.00  0.00     0.037 A 
ATOM     51  C   UNL A   1      47.613  26.776  27.554  1.00  0.00     0.037 A 
ATOM     52  C   UNL A   1      41.970  29.623  29.170  1.00  0.00     0.049 A 
ATOM     53  C   UNL A   1      47.254  28.165  28.004  1.00  0.00     0.074 A 
ATOM     54  C   UNL A   1      41.772  30.903  29.657  1.00  0.00     0.029 A 
ATOM     55  N   UNL A   1      43.331  29.491  28.932  1.00  0.00    -0.354 N 
ATOM     56  N   UNL A   1      46.078  28.651  28.322  1.00  0.00    -0.248 NA
ATOM     57  C   UNL A   1      48.352  29.134  28.111  1.00  0.00     0.031 C 
ATOM     58  C   UNL A   1      43.004  31.566  29.656  1.00  0.00     0.029 A 
ATOM     59  C   UNL A   1      43.979  30.678  29.229  1.00  0.00     0.049 A 
ATOM     60  H   UNL A   1      43.770  28.675  28.601  1.00  0.00     0.167 HD
ATOM     61  C   UNL A   1      46.297  29.972  28.691  1.00  0.00     0.074 A 
ATOM     62  C   UNL A   1      47.720  30.209  28.565  1.00  0.00     0.031 C 
ATOM     63  C   UNL A   1      45.399  30.901  29.101  1.00  0.00     0.037 A 
BRANCH  50  64
ATOM     64  C   UNL A   1      39.538  28.922  29.117  1.00  0.00     0.057 A 
ATOM     65  C   UNL A   1      38.730  29.368  28.062  1.00  0.00     0.134 A 
ATOM     66  C   UNL A   1      38.935  28.785  30.374  1.00  0.00     0.134 A 
ATOM     67  F   UNL A   1      39.244  29.531  26.833  1.00  0.00    -0.206 F 
ATOM     68  C   UNL A   1      37.390  29.710  28.261  1.00  0.00     0.040 A 
ATOM     69  C   UNL A   1      37.588  29.090  30.577  1.00  0.00     0.040 A 
ATOM     70  F   UNL A   1      39.646  28.354  31.428  1.00  0.00    -0.206 F 
ATOM     71  C   UNL A   1      36.815  29.566  29.521  1.00  0.00     0.006 A 
ENDBRANCH  50  64
BRANCH  51  72
ATOM     72  C   UNL A   1      49.008  26.422  27.191  1.00  0.00     0.057 A 
ATOM     73  C   UNL A   1      49.905  25.934  28.148  1.00  0.00     0.134 A 
ATOM     74  C   UNL A   1      49.467  26.532  25.873  1.00  0.00     0.134 A 
ATOM     75  F   UNL A   1      49.530  25.821  29.430  1.00  0.00    -0.206 F 
ATOM     76  C   UNL A   1      51.213  25.578  27.809  1.00  0.00     0.040 A 
ATOM     77  C   UNL A   1      50.763  26.155  25.515  1.00  0.00     0.040 A 
ATOM     78  F   UNL A   1      48.652  26.982  24.907  1.00  0.00    -0.206 F 
ATOM     79  C   UNL A   1      51.641  25.681  26.487  1.00  0.00     0.006 A 
ENDBRANCH  51  72
BRANCH  63  80
ATOM     80  C   UNL A   1      45.925  32.255  29.479  1.00  0.00     0.057 A 
ATOM     81  C   UNL A   1      46.395  32.537  30.768  1.00  0.00     0.134 A 
ATOM     82  C   UNL A   1      46.029  33.269  28.517  1.00  0.00     0.134 A 
ATOM     83  F   UNL A   1      46.312  31.614  31.739  1.00  0.00    -0.206 F 
ATOM     84  C   UNL A   1      46.938  33.782  31.089  1.00  0.00     0.040 A 
ATOM     85  C   UNL A   1      46.597  34.507  28.818  1.00  0.00     0.040 A 
ATOM     86  F   UNL A   1      45.606  33.062  27.260  1.00  0.00    -0.206 F 
ATOM     87  C   UNL A   1      47.050  34.767  30.109  1.00  0.00     0.006 A 
ENDBRANCH  63  80
ENDBRANCH  37  38
ENDBRANCH  29  32
ENDBRANCH  27  28
ENDBRANCH  26  27
ENDBRANCH  25  26
ENDBRANCH  24  25
ENDBRANCH   1  24
TORSDOF 19
ENDMDL
MODEL 2
REMARK VINA RESULT:     -10.6      1.416      2.456
REMARK SMILES CC[C@@](O)(C(=O)NCCCCCCNC(=O)c1ccc(-c2c3nc(c(-c4c(F)cccc4F)c4ccc([nH]4)c(-c4c(F)cccc4F)c4nc(c(-c5c(F)cccc5F)c5ccc2[nH]5)C=C4)C=C3)cc1)[C@@H](C)c1ccc(OC(C)C)cc1
REMARK SMILES IDX 9 1 8 2 7 3 5 4 6 5 3 7 2 8 1 9 4 10 71 12 72 13 73 14 74 15
REMARK SMILES IDX 82 16 75 17 81 18 76 19 77 20 78 21 79 22 80 23 10 24 11 25
REMARK SMILES IDX 12 26 13 27 14 28 15 29 16 31 17 32 18 33 70 34 19 35 69 36
REMARK SMILES IDX 20 37 21 38 22 39 63 40 23 41 68 42 62 43 64 44 24 45 67 46
REMARK SMILES IDX 61 47 60 48 25 50 51 51 34 52 50 53 35 54 38 55 49 56 65 57
REMARK SMILES IDX 36 58 37 59 48 61 66 62 39 63 26 64 27 65 32 66 28 67 29 68
REMARK SMILES IDX 31 69 33 70 30 71 52 72 53 73 58 74 54 75 55 76 57 77 59 78
REMARK SMILES IDX 56 79 40 80 41 81 46 82 42 83 43 84 45 85 47 86 44 87
REMARK H PARENT 7 6 4 11 14 30 64 49 38 60
REMARK Flexibility Score: inf
ROOT
ATOM      1  C   UNL A   1      34.244  21.477  24.908  1.00  0.00     0.021 C 
ENDROOT
BRANCH   1   2
ATOM      2  C   UNL A   1      34.418  22.649  25.878  1.00  0.00     0.116 C 
BRANCH   2   3
ATOM      3  N   UNL A   1      33.234  22.814  26.693  1.00  0.00    -0.354 N 
ATOM      4  C   UNL A   1      32.283  23.792  26.697  1.00  0.00     0.252 C 
ATOM      5  O   UNL A   1      31.376  23.645  27.522  1.00  0.00    -0.272 OA
ATOM      6  H   UNL A   1      33.092  22.102  27.358  1.00  0.00     0.163 HD
BRANCH   4   7
ATOM      7  C   UNL A   1      32.318  24.981  25.681  1.00  0.00     0.149 C 
BRANCH   7   8
ATOM      8  C   UNL A   1      33.757  25.498  25.395  1.00  0.00     0.043 C 
ATOM      9  C   UNL A   1      34.058  25.860  23.938  1.00  0.00     0.007 C 
ENDBRANCH   7   8
BRANCH   7  10
ATOM     10  O   UNL A   1      31.770  24.373  24.483  1.00  0.00    -0.379 OA
ATOM     11  H   UNL A   1      32.396  24.480  23.750  1.00  0.00     0.212 HD
ENDBRANCH   7  10
BRANCH   7  12
ATOM     12  C   UNL A   1      31.341  26.123  26.187  1.00  0.00     0.057 C 
ATOM     13  C   UNL A   1      32.013  27.237  27.012  1.00  0.00     0.016 C 
BRANCH  12  14
ATOM     14  C   UNL A   1      30.527  26.721  25.037  1.00  0.00    -0.042 A 
ATOM     15  C   UNL A   1      29.282  26.210  24.650  1.00  0.00     0.008 A 
ATOM     16  C   UNL A   1      30.985  27.889  24.412  1.00  0.00     0.008 A 
ATOM     17  C   UNL A   1      28.470  26.921  23.766  1.00  0.00     0.047 A 
ATOM     18  C   UNL A   1      30.176  28.582  23.507  1.00  0.00     0.047 A 
ATOM     19  C   UNL A   1      28.896  28.130  23.212  1.00  0.00     0.119 A 
BRANCH  19  20
ATOM     20  O   UNL A   1      27.952  28.746  22.450  1.00  0.00    -0.491 OA
BRANCH  20  21
ATOM     21  C   UNL A   1      27.872  30.164  22.294  1.00  0.00     0.167 C 
ATOM     22  C   UNL A   1      27.640  30.929  23.596  1.00  0.00     0.052 C 
ATOM     23  C   UNL A   1      28.974  30.719  21.399  1.00  0.00     0.052 C 
ENDBRANCH  20  21
ENDBRANCH  19  20
ENDBRANCH  12  14
ENDBRANCH   7  12
ENDBRANCH   4   7
ENDBRANCH   2   3
ENDBRANCH   1   2
BRANCH   1  24
ATOM     24  C   UNL A   1      35.380  20.450  24.970  1.00  0.00     0.002 C 
BRANCH  24  25
ATOM     25  C   UNL A   1      36.754  20.991  24.565  1.00  0.00     0.002 C 
BRANCH  25  26
ATOM     26  C   UNL A   1      37.884  19.963  24.620  1.00  0.00     0.021 C 
BRANCH  26  27
ATOM     27  C   UNL A   1      38.665  19.965  25.930  1.00  0.00     0.116 C 
BRANCH  27  28
ATOM     28  N   UNL A   1      39.890  19.186  25.833  1.00  0.00    -0.352 N 
ATOM     29  C   UNL A   1      41.186  19.596  26.021  1.00  0.00     0.251 C 
ATOM     30  H   UNL A   1      39.773  18.236  25.601  1.00  0.00     0.163 HD
ATOM     31  O   UNL A   1      42.124  18.873  25.699  1.00  0.00    -0.269 OA
BRANCH  29  32
ATOM     32  C   UNL A   1      41.441  20.929  26.598  1.00  0.00     0.039 A 
ATOM     33  C   UNL A   1      41.515  21.068  27.986  1.00  0.00     0.014 A 
ATOM     34  C   UNL A   1      41.632  22.033  25.764  1.00  0.00     0.014 A 
ATOM     35  C   UNL A   1      41.843  22.308  28.537  1.00  0.00     0.010 A 
ATOM     36  C   UNL A   1      42.037  23.245  26.309  1.00  0.00     0.010 A 
ATOM     37  C   UNL A   1      42.142  23.396  27.700  1.00  0.00    -0.014 A 
BRANCH  37  38
ATOM     38  C   UNL A   1      42.566  24.707  28.253  1.00  0.00     0.031 A 
ATOM     39  C   UNL A   1      41.550  25.788  28.480  1.00  0.00     0.074 A 
ATOM     40  C   UNL A   1      43.874  24.954  28.458  1.00  0.00     0.049 A 
ATOM     41  N   UNL A   1      41.731  27.033  28.842  1.00  0.00    -0.248 NA
ATOM     42  C   UNL A   1      40.144  25.431  28.233  1.00  0.00     0.031 C 
ATOM     43  C   UNL A   1      44.962  24.002  28.227  1.00  0.00     0.029 A 
ATOM     44  N   UNL A   1      44.513  26.092  28.885  1.00  0.00    -0.354 N 
ATOM     45  C   UNL A   1      40.468  27.610  28.844  1.00  0.00     0.074 A 
ATOM     46  C   UNL A   1      39.538  26.598  28.394  1.00  0.00     0.031 C 
ATOM     47  C   UNL A   1      46.131  24.594  28.517  1.00  0.00     0.029 A 
ATOM     48  C   UNL A   1      45.881  25.977  28.911  1.00  0.00     0.049 A 
ATOM     49  H   UNL A   1      44.035  26.912  29.146  1.00  0.00     0.167 HD
ATOM     50  C   UNL A   1      40.113  28.866  29.208  1.00  0.00     0.037 A 
ATOM     51  C   UNL A   1      46.830  26.888  29.199  1.00  0.00     0.037 A 
ATOM     52  C   UNL A   1      41.043  29.863  29.670  1.00  0.00     0.049 A 
ATOM     53  C   UNL A   1      46.418  28.280  29.592  1.00  0.00     0.074 A 
ATOM     54  C   UNL A   1      40.778  31.140  30.131  1.00  0.00     0.029 A 
ATOM     55  N   UNL A   1      42.420  29.698  29.715  1.00  0.00    -0.354 N 
ATOM     56  N   UNL A   1      45.213  28.792  29.670  1.00  0.00    -0.248 NA
ATOM     57  C   UNL A   1      47.493  29.218  29.944  1.00  0.00     0.031 C 
ATOM     58  C   UNL A   1      41.998  31.769  30.398  1.00  0.00     0.029 A 
ATOM     59  C   UNL A   1      43.020  30.862  30.164  1.00  0.00     0.049 A 
ATOM     60  H   UNL A   1      42.899  28.875  29.466  1.00  0.00     0.167 HD
ATOM     61  C   UNL A   1      45.382  30.101  30.103  1.00  0.00     0.074 A 
ATOM     62  C   UNL A   1      46.805  30.302  30.279  1.00  0.00     0.031 C 
ATOM     63  C   UNL A   1      44.440  31.048  30.337  1.00  0.00     0.037 A 
BRANCH  50  64
ATOM     64  C   UNL A   1      38.659  29.229  29.101  1.00  0.00     0.057 A 
ATOM     65  C   UNL A   1      37.794  29.175  30.202  1.00  0.00     0.134 A 
ATOM     66  C   UNL A   1      38.116  29.643  27.877  1.00  0.00     0.134 A 
ATOM     67  F   UNL A   1      38.245  28.778  31.402  1.00  0.00    -0.206 F 
ATOM     68  C   UNL A   1      36.435  29.473  30.081  1.00  0.00     0.040 A 
ATOM     69  C   UNL A   1      36.766  29.978  27.752  1.00  0.00     0.040 A 
ATOM     70  F   UNL A   1      38.886  29.728  26.783  1.00  0.00    -0.206 F 
ATOM     71  C   UNL A   1      35.919  29.881  28.854  1.00  0.00     0.006 A 
ENDBRANCH  50  64
BRANCH  51  72
ATOM     72  C   UNL A   1      48.261  26.502  29.125  1.00  0.00     0.057 A 
ATOM     73  C   UNL A   1      49.000  26.676  27.950  1.00  0.00     0.134 A 
ATOM     74  C   UNL A   1      48.932  25.981  30.239  1.00  0.00     0.134 A 
ATOM     75  F   UNL A   1      48.410  27.155  26.845  1.00  0.00    -0.206 F 
ATOM     76  C   UNL A   1      50.353  26.335  27.881  1.00  0.00     0.040 A 
ATOM     77  C   UNL A   1      50.291  25.661  30.191  1.00  0.00     0.040 A 
ATOM     78  F   UNL A   1      48.282  25.802  31.398  1.00  0.00    -0.206 F 
ATOM     79  C   UNL A   1      51.003  25.834  29.007  1.00  0.00     0.006 A 
ENDBRANCH  51  72
BRANCH  63  80
ATOM     80  C   UNL A   1      44.908  32.382  30.843  1.00  0.00     0.057 A 
ATOM     81  C   UNL A   1      45.189  33.447  29.979  1.00  0.00     0.134 A 
ATOM     82  C   UNL A   1      45.007  32.623  32.220  1.00  0.00     0.134 A 
ATOM     83  F   UNL A   1      45.125  33.279  28.649  1.00  0.00    -0.206 F 
ATOM     84  C   UNL A   1      45.564  34.701  30.466  1.00  0.00     0.040 A 
ATOM     85  C   UNL A   1      45.352  33.879  32.720  1.00  0.00     0.040 A 
ATOM     86  F   UNL A   1      44.743  31.648  33.103  1.00  0.00    -0.206 F 
ATOM     87  C   UNL A   1      45.635  34.922  31.840  1.00  0.00     0.006 A 
ENDBRANCH  63  80
ENDBRANCH  37  38
ENDBRANCH  29  32
ENDBRANCH  27  28
ENDBRANCH  26  27
ENDBRANCH  25  26
ENDBRANCH  24  25
ENDBRANCH   1  24
TORSDOF 19
ENDMDL
MODEL 3
REMARK VINA RESULT:     -10.6      1.902      4.103
REMARK SMILES CC[C@@](O)(C(=O)NCCCCCCNC(=O)c1ccc(-c2c3nc(c(-c4c(F)cccc4F)c4ccc([nH]4)c(-c4c(F)cccc4F)c4nc(c(-c5c(F)cccc5F)c5ccc2[nH]5)C=C4)C=C3)cc1)[C@@H](C)c1ccc(OC(C)C)cc1
REMARK SMILES IDX 9 1 8 2 7 3 5 4 6 5 3 7 2 8 1 9 4 10 71 12 72 13 73 14 74 15
REMARK SMILES IDX 82 16 75 17 81 18 76 19 77 20 78 21 79 22 80 23 10 24 11 25
REMARK SMILES IDX 12 26 13 27 14 28 15 29 16 31 17 32 18 33 70 34 19 35 69 36
REMARK SMILES IDX 20 37 21 38 22 39 63 40 23 41 68 42 62 43 64 44 24 45 67 46
REMARK SMILES IDX 61 47 60 48 25 50 51 51 34 52 50 53 35 54 38 55 49 56 65 57
REMARK SMILES IDX 36 58 37 59 48 61 66 62 39 63 26 64 27 65 32 66 28 67 29 68
REMARK SMILES IDX 31 69 33 70 30 71 52 72 53 73 58 74 54 75 55 76 57 77 59 78
REMARK SMILES IDX 56 79 40 80 41 81 46 82 42 83 43 84 45 85 47 86 44 87
REMARK H PARENT 7 6 4 11 14 30 64 49 38 60
REMARK Flexibility Score: inf
ROOT
ATOM      1  C   UNL A   1      35.945  22.921  26.111  1.00  0.00     0.021 C 
ENDROOT
BRANCH   1   2
ATOM      2  C   UNL A   1      35.769  23.883  24.933  1.00  0.00     0.116 C 
BRANCH   2   3
ATOM      3  N   UNL A   1      34.957  25.016  25.320  1.00  0.00    -0.354 N 
ATOM      4  C   UNL A   1      33.800  25.507  24.789  1.00  0.00     0.252 C 
ATOM      5  O   UNL A   1      33.337  26.502  25.357  1.00  0.00    -0.272 OA
ATOM      6  H   UNL A   1      35.296  25.518  26.097  1.00  0.00     0.163 HD
BRANCH   4   7
ATOM      7  C   UNL A   1      33.088  24.815  23.581  1.00  0.00     0.149 C 
BRANCH   7   8
ATOM      8  C   UNL A   1      32.661  25.814  22.468  1.00  0.00     0.043 C 
ATOM      9  C   UNL A   1      32.846  25.329  21.028  1.00  0.00     0.007 C 
ENDBRANCH   7   8
BRANCH   7  10
ATOM     10  O   UNL A   1      34.130  23.939  23.077  1.00  0.00    -0.379 OA
ATOM     11  H   UNL A   1      34.795  24.464  22.605  1.00  0.00     0.212 HD
ENDBRANCH   7  10
BRANCH   7  12
ATOM     12  C   UNL A   1      31.881  23.940  24.122  1.00  0.00     0.057 C 
ATOM     13  C   UNL A   1      30.523  24.217  23.448  1.00  0.00     0.016 C 
BRANCH  12  14
ATOM     14  C   UNL A   1      32.206  22.445  24.087  1.00  0.00    -0.042 A 
ATOM     15  C   UNL A   1      32.465  21.704  25.246  1.00  0.00     0.008 A 
ATOM     16  C   UNL A   1      32.137  21.761  22.866  1.00  0.00     0.008 A 
ATOM     17  C   UNL A   1      32.520  20.311  25.196  1.00  0.00     0.047 A 
ATOM     18  C   UNL A   1      32.219  20.366  22.820  1.00  0.00     0.047 A 
ATOM     19  C   UNL A   1      32.364  19.627  23.988  1.00  0.00     0.119 A 
BRANCH  19  20
ATOM     20  O   UNL A   1      32.344  18.274  24.123  1.00  0.00    -0.491 OA
BRANCH  20  21
ATOM     21  C   UNL A   1      33.510  17.494  24.395  1.00  0.00     0.167 C 
ATOM     22  C   UNL A   1      33.343  16.484  25.528  1.00  0.00     0.052 C 
ATOM     23  C   UNL A   1      34.162  16.951  23.128  1.00  0.00     0.052 C 
ENDBRANCH  20  21
ENDBRANCH  19  20
ENDBRANCH  12  14
ENDBRANCH   7  12
ENDBRANCH   4   7
ENDBRANCH   2   3
ENDBRANCH   1   2
BRANCH   1  24
ATOM     24  C   UNL A   1      35.972  21.444  25.703  1.00  0.00     0.002 C 
BRANCH  24  25
ATOM     25  C   UNL A   1      37.005  21.096  24.628  1.00  0.00     0.002 C 
BRANCH  25  26
ATOM     26  C   UNL A   1      37.921  19.924  24.982  1.00  0.00     0.021 C 
BRANCH  26  27
ATOM     27  C   UNL A   1      39.164  20.321  25.770  1.00  0.00     0.116 C 
BRANCH  27  28
ATOM     28  N   UNL A   1      40.122  19.230  25.861  1.00  0.00    -0.352 N 
ATOM     29  C   UNL A   1      41.476  19.290  26.074  1.00  0.00     0.251 C 
ATOM     30  H   UNL A   1      39.747  18.325  25.755  1.00  0.00     0.163 HD
ATOM     31  O   UNL A   1      42.180  18.297  25.916  1.00  0.00    -0.269 OA
BRANCH  29  32
ATOM     32  C   UNL A   1      42.083  20.572  26.478  1.00  0.00     0.039 A 
ATOM     33  C   UNL A   1      42.598  21.422  25.496  1.00  0.00     0.014 A 
ATOM     34  C   UNL A   1      42.116  20.943  27.825  1.00  0.00     0.014 A 
ATOM     35  C   UNL A   1      43.093  22.675  25.861  1.00  0.00     0.010 A 
ATOM     36  C   UNL A   1      42.535  22.220  28.176  1.00  0.00     0.010 A 
ATOM     37  C   UNL A   1      43.031  23.097  27.199  1.00  0.00    -0.014 A 
BRANCH  37  38
ATOM     38  C   UNL A   1      43.481  24.451  27.608  1.00  0.00     0.031 A 
ATOM     39  C   UNL A   1      42.470  25.489  28.000  1.00  0.00     0.074 A 
ATOM     40  C   UNL A   1      44.786  24.772  27.534  1.00  0.00     0.049 A 
ATOM     41  N   UNL A   1      42.647  26.756  28.275  1.00  0.00    -0.248 NA
ATOM     42  C   UNL A   1      41.065  25.051  28.058  1.00  0.00     0.031 C 
ATOM     43  C   UNL A   1      45.859  23.867  27.119  1.00  0.00     0.029 A 
ATOM     44  N   UNL A   1      45.430  25.959  27.783  1.00  0.00    -0.354 N 
ATOM     45  C   UNL A   1      41.378  27.269  28.515  1.00  0.00     0.074 A 
ATOM     46  C   UNL A   1      40.438  26.192  28.298  1.00  0.00     0.031 C 
ATOM     47  C   UNL A   1      47.026  24.530  27.144  1.00  0.00     0.029 A 
ATOM     48  C   UNL A   1      46.780  25.915  27.534  1.00  0.00     0.049 A 
ATOM     49  H   UNL A   1      44.968  26.765  28.107  1.00  0.00     0.167 HD
ATOM     50  C   UNL A   1      41.031  28.521  28.900  1.00  0.00     0.037 A 
ATOM     51  C   UNL A   1      47.712  26.884  27.590  1.00  0.00     0.037 A 
ATOM     52  C   UNL A   1      41.976  29.583  29.127  1.00  0.00     0.049 A 
ATOM     53  C   UNL A   1      47.308  28.270  28.011  1.00  0.00     0.074 A 
ATOM     54  C   UNL A   1      41.735  30.865  29.589  1.00  0.00     0.029 A 
ATOM     55  N   UNL A   1      43.340  29.490  28.897  1.00  0.00    -0.354 N 
ATOM     56  N   UNL A   1      46.116  28.724  28.315  1.00  0.00    -0.248 NA
ATOM     57  C   UNL A   1      48.375  29.276  28.104  1.00  0.00     0.031 C 
ATOM     58  C   UNL A   1      42.945  31.566  29.579  1.00  0.00     0.029 A 
ATOM     59  C   UNL A   1      43.950  30.702  29.174  1.00  0.00     0.049 A 
ATOM     60  H   UNL A   1      43.807  28.681  28.584  1.00  0.00     0.167 HD
ATOM     61  C   UNL A   1      46.291  30.059  28.659  1.00  0.00     0.074 A 
ATOM     62  C   UNL A   1      47.707  30.339  28.534  1.00  0.00     0.031 C 
ATOM     63  C   UNL A   1      45.363  30.967  29.048  1.00  0.00     0.037 A 
BRANCH  50  64
ATOM     64  C   UNL A   1      39.567  28.805  29.078  1.00  0.00     0.057 A 
ATOM     65  C   UNL A   1      38.759  29.247  28.021  1.00  0.00     0.134 A 
ATOM     66  C   UNL A   1      38.953  28.630  30.325  1.00  0.00     0.134 A 
ATOM     67  F   UNL A   1      39.283  29.445  26.802  1.00  0.00    -0.206 F 
ATOM     68  C   UNL A   1      37.409  29.549  28.209  1.00  0.00     0.040 A 
ATOM     69  C   UNL A   1      37.596  28.896  30.517  1.00  0.00     0.040 A 
ATOM     70  F   UNL A   1      39.662  28.200  31.380  1.00  0.00    -0.206 F 
ATOM     71  C   UNL A   1      36.823  29.369  29.459  1.00  0.00     0.006 A 
ENDBRANCH  50  64
BRANCH  51  72
ATOM     72  C   UNL A   1      49.120  26.568  27.240  1.00  0.00     0.057 A 
ATOM     73  C   UNL A   1      49.998  26.026  28.185  1.00  0.00     0.134 A 
ATOM     74  C   UNL A   1      49.609  26.769  25.944  1.00  0.00     0.134 A 
ATOM     75  F   UNL A   1      49.593  25.825  29.447  1.00  0.00    -0.206 F 
ATOM     76  C   UNL A   1      51.317  25.705  27.856  1.00  0.00     0.040 A 
ATOM     77  C   UNL A   1      50.918  26.428  25.595  1.00  0.00     0.040 A 
ATOM     78  F   UNL A   1      48.814  27.274  24.990  1.00  0.00    -0.206 F 
ATOM     79  C   UNL A   1      51.777  25.899  26.555  1.00  0.00     0.006 A 
ENDBRANCH  51  72
BRANCH  63  80
ATOM     80  C   UNL A   1      45.844  32.344  29.401  1.00  0.00     0.057 A 
ATOM     81  C   UNL A   1      45.884  33.381  28.461  1.00  0.00     0.134 A 
ATOM     82  C   UNL A   1      46.203  32.653  30.721  1.00  0.00     0.134 A 
ATOM     83  F   UNL A   1      45.564  33.149  27.179  1.00  0.00    -0.206 F 
ATOM     84  C   UNL A   1      46.275  34.673  28.818  1.00  0.00     0.040 A 
ATOM     85  C   UNL A   1      46.568  33.946  31.095  1.00  0.00     0.040 A 
ATOM     86  F   UNL A   1      46.178  31.707  31.672  1.00  0.00    -0.206 F 
ATOM     87  C   UNL A   1      46.607  34.960  30.141  1.00  0.00     0.006 A 
ENDBRANCH  63  80
ENDBRANCH  37  38
ENDBRANCH  29  32
ENDBRANCH  27  28
ENDBRANCH  26  27
ENDBRANCH  25  26
ENDBRANCH  24  25
ENDBRANCH   1  24
TORSDOF 19
ENDMDL
