MODEL 1
REMARK VINA RESULT:     -12.0      0.000      0.000
REMARK SMILES CC(C)CSc1cc2c(cc1Cl)C=C(C(=O)NCCCCCCNC(=O)c1ccc(-c3c4nc(c(-c5c(F)cccc5F)c5ccc([nH]5)c(-c5c(F)cccc5F)c5nc(c(-c6c(F)cccc6F)c6ccc3[nH]6)C=C5)C=C4)cc1)[C@H](C(F)(F)F)O2
REMARK SMILES IDX 20 1 19 2 18 3 17 4 15 5 16 6 14 8 6 9 7 10 11 11 8 12 10 13
REMARK SMILES IDX 12 14 9 15 86 16 13 17 81 18 5 19 4 20 2 21 1 22 3 23 82 24
REMARK SMILES IDX 83 25 84 26 85 27 21 28 22 29 23 30 24 31 25 32 26 34 27 35
REMARK SMILES IDX 28 36 80 37 29 38 79 39 30 40 31 41 32 42 73 43 33 44 78 45
REMARK SMILES IDX 72 46 74 47 34 48 77 49 71 50 70 51 35 53 61 54 44 55 60 56
REMARK SMILES IDX 45 57 48 58 59 59 75 60 46 61 47 62 58 64 76 65 49 66 36 67
REMARK SMILES IDX 37 68 42 69 38 70 39 71 41 72 43 73 40 74 62 75 63 76 68 77
REMARK SMILES IDX 64 78 65 79 67 80 69 81 66 82 50 83 51 84 56 85 52 86 53 87
REMARK SMILES IDX 55 88 57 89 54 90
REMARK H PARENT 17 7 24 33 74 52 48 63
REMARK Flexibility Score: inf
ROOT
ATOM      1  C   UNL A   1      37.624  22.235  25.138  1.00  0.00     0.002 C 
ENDROOT
BRANCH   1   2
ATOM      2  C   UNL A   1      36.591  23.347  24.928  1.00  0.00     0.021 C 
BRANCH   2   3
ATOM      3  C   UNL A   1      35.895  23.800  26.210  1.00  0.00     0.116 C 
BRANCH   3   4
ATOM      4  N   UNL A   1      34.732  22.980  26.486  1.00  0.00    -0.352 N 
ATOM      5  C   UNL A   1      33.423  22.970  26.150  1.00  0.00     0.251 C 
ATOM      6  O   UNL A   1      32.767  22.044  26.641  1.00  0.00    -0.270 OA
ATOM      7  H   UNL A   1      34.955  22.228  27.081  1.00  0.00     0.163 HD
BRANCH   5   8
ATOM      8  C   UNL A   1      32.748  23.956  25.252  1.00  0.00     0.067 C 
ATOM      9  C   UNL A   1      30.881  28.267  23.394  1.00  0.00     0.030 A 
ATOM     10  C   UNL A   1      30.899  26.938  22.952  1.00  0.00     0.063 A 
ATOM     11  C   UNL A   1      31.386  28.561  24.673  1.00  0.00     0.055 A 
ATOM     12  C   UNL A   1      31.472  25.937  23.737  1.00  0.00     0.129 A 
ATOM     13  C   UNL A   1      31.957  27.552  25.456  1.00  0.00     0.033 A 
ATOM     14  Cl  UNL A   1      31.386  30.163  25.327  1.00  0.00    -0.083 Cl
ATOM     15  C   UNL A   1      32.012  26.240  24.983  1.00  0.00     0.019 A 
ATOM     16  O   UNL A   1      31.440  24.676  23.225  1.00  0.00    -0.475 OA
ATOM     17  C   UNL A   1      32.612  25.185  25.781  1.00  0.00     0.025 C 
ATOM     18  C   UNL A   1      32.288  23.668  23.848  1.00  0.00     0.314 C 
BRANCH   9  19
ATOM     19  S   UNL A   1      30.227  29.518  22.299  1.00  0.00    -0.124 SA
BRANCH  19  20
ATOM     20  C   UNL A   1      28.423  29.253  22.505  1.00  0.00     0.078 C 
BRANCH  20  21
ATOM     21  C   UNL A   1      27.575  30.537  22.404  1.00  0.00    -0.007 C 
ATOM     22  C   UNL A   1      27.731  31.453  23.621  1.00  0.00     0.008 C 
ATOM     23  C   UNL A   1      27.984  31.323  21.153  1.00  0.00     0.008 C 
ENDBRANCH  20  21
ENDBRANCH  19  20
ENDBRANCH   9  19
BRANCH  18  24
ATOM     24  C   UNL A   1      33.432  23.317  22.875  1.00  0.00     0.429 C 
ATOM     25  F   UNL A   1      34.384  24.285  22.898  1.00  0.00    -0.167 F 
ATOM     26  F   UNL A   1      34.045  22.152  23.192  1.00  0.00    -0.167 F 
ATOM     27  F   UNL A   1      33.024  23.207  21.591  1.00  0.00    -0.167 F 
ENDBRANCH  18  24
ENDBRANCH   5   8
ENDBRANCH   3   4
ENDBRANCH   2   3
ENDBRANCH   1   2
BRANCH   1  28
ATOM     28  C   UNL A   1      37.234  20.862  24.577  1.00  0.00     0.002 C 
BRANCH  28  29
ATOM     29  C   UNL A   1      38.102  19.692  25.041  1.00  0.00     0.021 C 
BRANCH  29  30
ATOM     30  C   UNL A   1      39.364  20.093  25.796  1.00  0.00     0.116 C 
BRANCH  30  31
ATOM     31  N   UNL A   1      40.336  19.014  25.865  1.00  0.00    -0.352 N 
ATOM     32  C   UNL A   1      41.691  19.073  26.097  1.00  0.00     0.251 C 
ATOM     33  H   UNL A   1      39.972  18.110  25.726  1.00  0.00     0.163 HD
ATOM     34  O   UNL A   1      42.390  18.080  25.949  1.00  0.00    -0.269 OA
BRANCH  32  35
ATOM     35  C   UNL A   1      42.305  20.360  26.494  1.00  0.00     0.039 A 
ATOM     36  C   UNL A   1      42.252  20.791  27.821  1.00  0.00     0.014 A 
ATOM     37  C   UNL A   1      42.912  21.155  25.520  1.00  0.00     0.014 A 
ATOM     38  C   UNL A   1      42.648  22.085  28.139  1.00  0.00     0.010 A 
ATOM     39  C   UNL A   1      43.391  22.423  25.860  1.00  0.00     0.010 A 
ATOM     40  C   UNL A   1      43.213  22.921  27.160  1.00  0.00    -0.014 A 
BRANCH  40  41
ATOM     41  C   UNL A   1      43.581  24.315  27.518  1.00  0.00     0.031 A 
ATOM     42  C   UNL A   1      45.004  24.792  27.390  1.00  0.00     0.074 A 
ATOM     43  C   UNL A   1      42.617  25.176  27.900  1.00  0.00     0.049 A 
ATOM     44  N   UNL A   1      45.503  25.981  27.628  1.00  0.00    -0.248 NA
ATOM     45  C   UNL A   1      45.999  23.807  26.938  1.00  0.00     0.031 C 
ATOM     46  C   UNL A   1      41.200  24.840  28.052  1.00  0.00     0.029 A 
ATOM     47  N   UNL A   1      42.677  26.511  28.204  1.00  0.00    -0.354 N 
ATOM     48  C   UNL A   1      46.866  25.881  27.373  1.00  0.00     0.074 A 
ATOM     49  C   UNL A   1      47.123  24.508  26.994  1.00  0.00     0.031 C 
ATOM     50  C   UNL A   1      40.518  25.950  28.372  1.00  0.00     0.029 A 
ATOM     51  C   UNL A   1      41.455  27.060  28.505  1.00  0.00     0.049 A 
ATOM     52  H   UNL A   1      43.516  27.027  28.207  1.00  0.00     0.167 HD
ATOM     53  C   UNL A   1      47.815  26.846  27.435  1.00  0.00     0.037 A 
ATOM     54  C   UNL A   1      41.126  28.315  28.862  1.00  0.00     0.037 A 
ATOM     55  C   UNL A   1      47.558  28.216  27.798  1.00  0.00     0.049 A 
ATOM     56  C   UNL A   1      42.207  29.353  28.969  1.00  0.00     0.074 A 
ATOM     57  C   UNL A   1      48.450  29.272  27.876  1.00  0.00     0.029 A 
ATOM     58  N   UNL A   1      46.313  28.721  28.146  1.00  0.00    -0.354 N 
ATOM     59  N   UNL A   1      43.486  29.246  28.711  1.00  0.00    -0.248 NA
ATOM     60  C   UNL A   1      41.793  30.687  29.425  1.00  0.00     0.031 C 
ATOM     61  C   UNL A   1      47.753  30.405  28.309  1.00  0.00     0.029 A 
ATOM     62  C   UNL A   1      46.418  30.067  28.457  1.00  0.00     0.049 A 
ATOM     63  H   UNL A   1      45.479  28.199  28.170  1.00  0.00     0.167 HD
ATOM     64  C   UNL A   1      44.029  30.501  28.954  1.00  0.00     0.074 A 
ATOM     65  C   UNL A   1      42.933  31.358  29.358  1.00  0.00     0.031 C 
ATOM     66  C   UNL A   1      45.318  30.907  28.856  1.00  0.00     0.037 A 
BRANCH  53  67
ATOM     67  C   UNL A   1      49.227  26.447  27.116  1.00  0.00     0.057 A 
ATOM     68  C   UNL A   1      50.084  25.987  28.124  1.00  0.00     0.134 A 
ATOM     69  C   UNL A   1      49.749  26.539  25.819  1.00  0.00     0.134 A 
ATOM     70  F   UNL A   1      49.652  25.880  29.389  1.00  0.00    -0.206 F 
ATOM     71  C   UNL A   1      51.407  25.631  27.854  1.00  0.00     0.040 A 
ATOM     72  C   UNL A   1      51.064  26.163  25.532  1.00  0.00     0.040 A 
ATOM     73  F   UNL A   1      48.978  26.958  24.805  1.00  0.00    -0.206 F 
ATOM     74  C   UNL A   1      51.898  25.713  26.552  1.00  0.00     0.006 A 
ENDBRANCH  53  67
BRANCH  54  75
ATOM     75  C   UNL A   1      39.713  28.662  29.155  1.00  0.00     0.057 A 
ATOM     76  C   UNL A   1      38.869  29.178  28.164  1.00  0.00     0.134 A 
ATOM     77  C   UNL A   1      39.168  28.462  30.428  1.00  0.00     0.134 A 
ATOM     78  F   UNL A   1      39.333  29.397  26.925  1.00  0.00    -0.206 F 
ATOM     79  C   UNL A   1      37.536  29.489  28.430  1.00  0.00     0.040 A 
ATOM     80  C   UNL A   1      37.829  28.742  30.701  1.00  0.00     0.040 A 
ATOM     81  F   UNL A   1      39.922  27.952  31.413  1.00  0.00    -0.206 F 
ATOM     82  C   UNL A   1      37.009  29.261  29.700  1.00  0.00     0.006 A 
ENDBRANCH  54  75
BRANCH  66  83
ATOM     83  C   UNL A   1      45.598  32.350  29.158  1.00  0.00     0.057 A 
ATOM     84  C   UNL A   1      45.517  33.317  28.150  1.00  0.00     0.134 A 
ATOM     85  C   UNL A   1      45.950  32.781  30.444  1.00  0.00     0.134 A 
ATOM     86  F   UNL A   1      45.191  32.970  26.895  1.00  0.00    -0.206 F 
ATOM     87  C   UNL A   1      45.770  34.665  28.410  1.00  0.00     0.040 A 
ATOM     88  C   UNL A   1      46.179  34.129  30.722  1.00  0.00     0.040 A 
ATOM     89  F   UNL A   1      46.028  31.905  31.457  1.00  0.00    -0.206 F 
ATOM     90  C   UNL A   1      46.093  35.075  29.702  1.00  0.00     0.006 A 
ENDBRANCH  66  83
ENDBRANCH  40  41
ENDBRANCH  32  35
ENDBRANCH  30  31
ENDBRANCH  29  30
ENDBRANCH  28  29
ENDBRANCH   1  28
TORSDOF 17
ENDMDL
MODEL 2
REMARK VINA RESULT:     -11.9      1.428      2.069
REMARK SMILES CC(C)CSc1cc2c(cc1Cl)C=C(C(=O)NCCCCCCNC(=O)c1ccc(-c3c4nc(c(-c5c(F)cccc5F)c5ccc([nH]5)c(-c5c(F)cccc5F)c5nc(c(-c6c(F)cccc6F)c6ccc3[nH]6)C=C5)C=C4)cc1)[C@H](C(F)(F)F)O2
REMARK SMILES IDX 20 1 19 2 18 3 17 4 15 5 16 6 14 8 6 9 7 10 11 11 8 12 10 13
REMARK SMILES IDX 12 14 9 15 86 16 13 17 81 18 5 19 4 20 2 21 1 22 3 23 82 24
REMARK SMILES IDX 83 25 84 26 85 27 21 28 22 29 23 30 24 31 25 32 26 34 27 35
REMARK SMILES IDX 28 36 80 37 29 38 79 39 30 40 31 41 32 42 73 43 33 44 78 45
REMARK SMILES IDX 72 46 74 47 34 48 77 49 71 50 70 51 35 53 61 54 44 55 60 56
REMARK SMILES IDX 45 57 48 58 59 59 75 60 46 61 47 62 58 64 76 65 49 66 36 67
REMARK SMILES IDX 37 68 42 69 38 70 39 71 41 72 43 73 40 74 62 75 63 76 68 77
REMARK SMILES IDX 64 78 65 79 67 80 69 81 66 82 50 83 51 84 56 85 52 86 53 87
REMARK SMILES IDX 55 88 57 89 54 90
REMARK H PARENT 17 7 24 33 74 52 48 63
REMARK Flexibility Score: inf
ROOT
ATOM      1  C   UNL A   1      36.872  22.602  25.663  1.00  0.00     0.002 C 
ENDROOT
BRANCH   1   2
ATOM      2  C   UNL A   1      35.472  23.206  25.820  1.00  0.00     0.021 C 
BRANCH   2   3
ATOM      3  C   UNL A   1      34.652  22.590  26.952  1.00  0.00     0.116 C 
BRANCH   3   4
ATOM      4  N   UNL A   1      33.674  21.654  26.433  1.00  0.00    -0.352 N 
ATOM      5  C   UNL A   1      32.586  21.698  25.632  1.00  0.00     0.251 C 
ATOM      6  O   UNL A   1      32.027  20.610  25.456  1.00  0.00    -0.270 OA
ATOM      7  H   UNL A   1      33.848  20.739  26.753  1.00  0.00     0.163 HD
BRANCH   5   8
ATOM      8  C   UNL A   1      32.048  22.921  24.963  1.00  0.00     0.067 C 
ATOM      9  C   UNL A   1      30.760  27.719  24.045  1.00  0.00     0.030 A 
ATOM     10  C   UNL A   1      30.607  26.514  23.346  1.00  0.00     0.063 A 
ATOM     11  C   UNL A   1      31.294  27.684  25.344  1.00  0.00     0.055 A 
ATOM     12  C   UNL A   1      31.043  25.311  23.903  1.00  0.00     0.129 A 
ATOM     13  C   UNL A   1      31.728  26.475  25.898  1.00  0.00     0.033 A 
ATOM     14  Cl  UNL A   1      31.500  29.109  26.304  1.00  0.00    -0.083 Cl
ATOM     15  C   UNL A   1      31.614  25.288  25.172  1.00  0.00     0.019 A 
ATOM     16  O   UNL A   1      30.849  24.193  23.152  1.00  0.00    -0.475 OA
ATOM     17  C   UNL A   1      32.070  24.026  25.730  1.00  0.00     0.025 C 
ATOM     18  C   UNL A   1      31.558  22.982  23.542  1.00  0.00     0.314 C 
BRANCH   9  19
ATOM     19  S   UNL A   1      30.276  29.237  23.236  1.00  0.00    -0.124 SA
BRANCH  19  20
ATOM     20  C   UNL A   1      28.502  28.906  22.904  1.00  0.00     0.078 C 
BRANCH  20  21
ATOM     21  C   UNL A   1      27.674  30.159  22.558  1.00  0.00    -0.007 C 
ATOM     22  C   UNL A   1      27.782  31.258  23.618  1.00  0.00     0.008 C 
ATOM     23  C   UNL A   1      28.149  30.732  21.218  1.00  0.00     0.008 C 
ENDBRANCH  20  21
ENDBRANCH  19  20
ENDBRANCH   9  19
BRANCH  18  24
ATOM     24  C   UNL A   1      32.650  22.689  22.492  1.00  0.00     0.429 C 
ATOM     25  F   UNL A   1      32.783  23.743  21.646  1.00  0.00    -0.167 F 
ATOM     26  F   UNL A   1      33.863  22.474  23.050  1.00  0.00    -0.167 F 
ATOM     27  F   UNL A   1      32.375  21.610  21.725  1.00  0.00    -0.167 F 
ENDBRANCH  18  24
ENDBRANCH   5   8
ENDBRANCH   3   4
ENDBRANCH   2   3
ENDBRANCH   1   2
BRANCH   1  28
ATOM     28  C   UNL A   1      37.037  21.623  24.495  1.00  0.00     0.002 C 
BRANCH  28  29
ATOM     29  C   UNL A   1      37.804  20.340  24.817  1.00  0.00     0.021 C 
BRANCH  29  30
ATOM     30  C   UNL A   1      38.861  20.484  25.905  1.00  0.00     0.116 C 
BRANCH  30  31
ATOM     31  N   UNL A   1      39.907  19.480  25.799  1.00  0.00    -0.352 N 
ATOM     32  C   UNL A   1      41.261  19.603  26.011  1.00  0.00     0.251 C 
ATOM     33  H   UNL A   1      39.603  18.581  25.538  1.00  0.00     0.163 HD
ATOM     34  O   UNL A   1      42.022  18.695  25.708  1.00  0.00    -0.269 OA
BRANCH  32  35
ATOM     35  C   UNL A   1      41.796  20.861  26.579  1.00  0.00     0.039 A 
ATOM     36  C   UNL A   1      41.808  21.068  27.960  1.00  0.00     0.014 A 
ATOM     37  C   UNL A   1      42.261  21.855  25.715  1.00  0.00     0.014 A 
ATOM     38  C   UNL A   1      42.120  22.325  28.463  1.00  0.00     0.010 A 
ATOM     39  C   UNL A   1      42.658  23.091  26.231  1.00  0.00     0.010 A 
ATOM     40  C   UNL A   1      42.539  23.355  27.605  1.00  0.00    -0.014 A 
BRANCH  40  41
ATOM     41  C   UNL A   1      42.817  24.703  28.166  1.00  0.00     0.031 A 
ATOM     42  C   UNL A   1      44.228  25.127  28.483  1.00  0.00     0.074 A 
ATOM     43  C   UNL A   1      41.801  25.572  28.332  1.00  0.00     0.049 A 
ATOM     44  N   UNL A   1      44.662  26.273  28.950  1.00  0.00    -0.248 NA
ATOM     45  C   UNL A   1      45.290  24.138  28.248  1.00  0.00     0.031 C 
ATOM     46  C   UNL A   1      40.393  25.286  28.052  1.00  0.00     0.029 A 
ATOM     47  N   UNL A   1      41.799  26.877  28.751  1.00  0.00    -0.354 N 
ATOM     48  C   UNL A   1      46.038  26.135  29.080  1.00  0.00     0.074 A 
ATOM     49  C   UNL A   1      46.366  24.784  28.676  1.00  0.00     0.031 C 
ATOM     50  C   UNL A   1      39.670  26.397  28.259  1.00  0.00     0.029 A 
ATOM     51  C   UNL A   1      40.552  27.453  28.741  1.00  0.00     0.049 A 
ATOM     52  H   UNL A   1      42.612  27.356  29.032  1.00  0.00     0.167 HD
ATOM     53  C   UNL A   1      46.949  27.053  29.486  1.00  0.00     0.037 A 
ATOM     54  C   UNL A   1      40.161  28.691  29.095  1.00  0.00     0.037 A 
ATOM     55  C   UNL A   1      46.627  28.401  29.875  1.00  0.00     0.049 A 
ATOM     56  C   UNL A   1      41.186  29.671  29.588  1.00  0.00     0.074 A 
ATOM     57  C   UNL A   1      47.481  29.410  30.288  1.00  0.00     0.029 A 
ATOM     58  N   UNL A   1      45.345  28.930  29.901  1.00  0.00    -0.354 N 
ATOM     59  N   UNL A   1      42.484  29.530  29.692  1.00  0.00    -0.248 NA
ATOM     60  C   UNL A   1      40.686  30.984  30.019  1.00  0.00     0.031 C 
ATOM     61  C   UNL A   1      46.712  30.536  30.601  1.00  0.00     0.029 A 
ATOM     62  C   UNL A   1      45.383  30.244  30.340  1.00  0.00     0.049 A 
ATOM     63  H   UNL A   1      44.528  28.444  29.646  1.00  0.00     0.167 HD
ATOM     64  C   UNL A   1      42.959  30.739  30.181  1.00  0.00     0.074 A 
ATOM     65  C   UNL A   1      41.811  31.610  30.331  1.00  0.00     0.031 C 
ATOM     66  C   UNL A   1      44.232  31.097  30.483  1.00  0.00     0.037 A 
BRANCH  53  67
ATOM     67  C   UNL A   1      48.386  26.619  29.544  1.00  0.00     0.057 A 
ATOM     68  C   UNL A   1      48.905  26.018  30.699  1.00  0.00     0.134 A 
ATOM     69  C   UNL A   1      49.265  26.816  28.470  1.00  0.00     0.134 A 
ATOM     70  F   UNL A   1      48.122  25.806  31.767  1.00  0.00    -0.206 F 
ATOM     71  C   UNL A   1      50.243  25.628  30.782  1.00  0.00     0.040 A 
ATOM     72  C   UNL A   1      50.599  26.407  28.533  1.00  0.00     0.040 A 
ATOM     73  F   UNL A   1      48.830  27.372  27.330  1.00  0.00    -0.206 F 
ATOM     74  C   UNL A   1      51.092  25.816  29.694  1.00  0.00     0.006 A 
ENDBRANCH  53  67
BRANCH  54  75
ATOM     75  C   UNL A   1      38.729  29.074  29.008  1.00  0.00     0.057 A 
ATOM     76  C   UNL A   1      37.885  29.000  30.122  1.00  0.00     0.134 A 
ATOM     77  C   UNL A   1      38.179  29.546  27.811  1.00  0.00     0.134 A 
ATOM     78  F   UNL A   1      38.351  28.550  31.297  1.00  0.00    -0.206 F 
ATOM     79  C   UNL A   1      36.544  29.375  30.049  1.00  0.00     0.040 A 
ATOM     80  C   UNL A   1      36.846  29.952  27.731  1.00  0.00     0.040 A 
ATOM     81  F   UNL A   1      38.942  29.659  26.714  1.00  0.00    -0.206 F 
ATOM     82  C   UNL A   1      36.023  29.862  28.852  1.00  0.00     0.006 A 
ENDBRANCH  54  75
BRANCH  66  83
ATOM     83  C   UNL A   1      44.442  32.501  30.970  1.00  0.00     0.057 A 
ATOM     84  C   UNL A   1      44.406  32.792  32.339  1.00  0.00     0.134 A 
ATOM     85  C   UNL A   1      44.676  33.563  30.087  1.00  0.00     0.134 A 
ATOM     86  F   UNL A   1      44.180  31.821  33.237  1.00  0.00    -0.206 F 
ATOM     87  C   UNL A   1      44.603  34.090  32.814  1.00  0.00     0.040 A 
ATOM     88  C   UNL A   1      44.900  34.860  30.551  1.00  0.00     0.040 A 
ATOM     89  F   UNL A   1      44.739  33.347  28.764  1.00  0.00    -0.206 F 
ATOM     90  C   UNL A   1      44.859  35.126  31.918  1.00  0.00     0.006 A 
ENDBRANCH  66  83
ENDBRANCH  40  41
ENDBRANCH  32  35
ENDBRANCH  30  31
ENDBRANCH  29  30
ENDBRANCH  28  29
ENDBRANCH   1  28
TORSDOF 17
ENDMDL
MODEL 3
REMARK VINA RESULT:     -11.4      4.966      8.672
REMARK SMILES CC(C)CSc1cc2c(cc1Cl)C=C(C(=O)NCCCCCCNC(=O)c1ccc(-c3c4nc(c(-c5c(F)cccc5F)c5ccc([nH]5)c(-c5c(F)cccc5F)c5nc(c(-c6c(F)cccc6F)c6ccc3[nH]6)C=C5)C=C4)cc1)[C@H](C(F)(F)F)O2
REMARK SMILES IDX 20 1 19 2 18 3 17 4 15 5 16 6 14 8 6 9 7 10 11 11 8 12 10 13
REMARK SMILES IDX 12 14 9 15 86 16 13 17 81 18 5 19 4 20 2 21 1 22 3 23 82 24
REMARK SMILES IDX 83 25 84 26 85 27 21 28 22 29 23 30 24 31 25 32 26 34 27 35
REMARK SMILES IDX 28 36 80 37 29 38 79 39 30 40 31 41 32 42 73 43 33 44 78 45
REMARK SMILES IDX 72 46 74 47 34 48 77 49 71 50 70 51 35 53 61 54 44 55 60 56
REMARK SMILES IDX 45 57 48 58 59 59 75 60 46 61 47 62 58 64 76 65 49 66 36 67
REMARK SMILES IDX 37 68 42 69 38 70 39 71 41 72 43 73 40 74 62 75 63 76 68 77
REMARK SMILES IDX 64 78 65 79 67 80 69 81 66 82 50 83 51 84 56 85 52 86 53 87
REMARK SMILES IDX 55 88 57 89 54 90
REMARK H PARENT 17 7 24 33 74 52 48 63
REMARK Flexibility Score: inf
ROOT
ATOM      1  C   UNL A   1      37.475  21.331  24.621  1.00  0.00     0.002 C 
ENDROOT
BRANCH   1   2
ATOM      2  C   UNL A   1      36.346  22.237  24.116  1.00  0.00     0.021 C 
BRANCH   2   3
ATOM      3  C   UNL A   1      34.946  21.662  24.322  1.00  0.00     0.116 C 
BRANCH   3   4
ATOM      4  N   UNL A   1      34.651  21.510  25.734  1.00  0.00    -0.352 N 
ATOM      5  C   UNL A   1      33.959  22.182  26.680  1.00  0.00     0.251 C 
ATOM      6  O   UNL A   1      33.982  21.667  27.804  1.00  0.00    -0.270 OA
ATOM      7  H   UNL A   1      35.069  20.698  26.102  1.00  0.00     0.163 HD
BRANCH   5   8
ATOM      8  C   UNL A   1      33.192  23.446  26.463  1.00  0.00     0.067 C 
ATOM      9  C   UNL A   1      31.879  28.050  24.853  1.00  0.00     0.030 A 
ATOM     10  C   UNL A   1      31.283  27.101  25.694  1.00  0.00     0.063 A 
ATOM     11  C   UNL A   1      33.176  27.807  24.370  1.00  0.00     0.055 A 
ATOM     12  C   UNL A   1      31.938  25.905  25.989  1.00  0.00     0.129 A 
ATOM     13  C   UNL A   1      33.828  26.606  24.671  1.00  0.00     0.033 A 
ATOM     14  Cl  UNL A   1      34.014  28.924  23.349  1.00  0.00    -0.083 Cl
ATOM     15  C   UNL A   1      33.203  25.647  25.471  1.00  0.00     0.019 A 
ATOM     16  O   UNL A   1      31.282  25.046  26.817  1.00  0.00    -0.475 OA
ATOM     17  C   UNL A   1      33.864  24.391  25.783  1.00  0.00     0.025 C 
ATOM     18  C   UNL A   1      31.771  23.677  26.900  1.00  0.00     0.314 C 
BRANCH   9  19
ATOM     19  S   UNL A   1      30.947  29.515  24.431  1.00  0.00    -0.124 SA
BRANCH  19  20
ATOM     20  C   UNL A   1      29.799  28.847  23.166  1.00  0.00     0.078 C 
BRANCH  20  21
ATOM     21  C   UNL A   1      28.670  29.813  22.756  1.00  0.00    -0.007 C 
ATOM     22  C   UNL A   1      27.272  29.239  23.007  1.00  0.00     0.008 C 
ATOM     23  C   UNL A   1      28.804  31.120  23.544  1.00  0.00     0.008 C 
ENDBRANCH  20  21
ENDBRANCH  19  20
ENDBRANCH   9  19
BRANCH  18  24
ATOM     24  C   UNL A   1      30.748  22.746  26.217  1.00  0.00     0.429 C 
ATOM     25  F   UNL A   1      29.676  22.548  27.028  1.00  0.00    -0.167 F 
ATOM     26  F   UNL A   1      30.277  23.254  25.055  1.00  0.00    -0.167 F 
ATOM     27  F   UNL A   1      31.249  21.522  25.934  1.00  0.00    -0.167 F 
ENDBRANCH  18  24
ENDBRANCH   5   8
ENDBRANCH   3   4
ENDBRANCH   2   3
ENDBRANCH   1   2
BRANCH   1  28
ATOM     28  C   UNL A   1      38.103  21.748  25.956  1.00  0.00     0.002 C 
BRANCH  28  29
ATOM     29  C   UNL A   1      38.499  23.221  26.065  1.00  0.00     0.021 C 
BRANCH  29  30
ATOM     30  C   UNL A   1      39.789  23.479  26.834  1.00  0.00     0.116 C 
BRANCH  30  31
ATOM     31  N   UNL A   1      40.857  23.973  25.979  1.00  0.00    -0.352 N 
ATOM     32  C   UNL A   1      41.415  25.230  25.916  1.00  0.00     0.251 C 
ATOM     33  H   UNL A   1      41.236  23.313  25.355  1.00  0.00     0.163 HD
ATOM     34  O   UNL A   1      42.189  25.520  25.015  1.00  0.00    -0.269 OA
BRANCH  32  35
ATOM     35  C   UNL A   1      41.043  26.241  26.930  1.00  0.00     0.039 A 
ATOM     36  C   UNL A   1      41.523  27.549  26.837  1.00  0.00     0.014 A 
ATOM     37  C   UNL A   1      40.228  25.866  28.000  1.00  0.00     0.014 A 
ATOM     38  C   UNL A   1      41.334  28.427  27.898  1.00  0.00     0.010 A 
ATOM     39  C   UNL A   1      39.966  26.779  29.025  1.00  0.00     0.010 A 
ATOM     40  C   UNL A   1      40.561  28.050  29.009  1.00  0.00    -0.014 A 
BRANCH  40  41
ATOM     41  C   UNL A   1      40.419  28.992  30.150  1.00  0.00     0.031 A 
ATOM     42  C   UNL A   1      39.338  30.042  30.149  1.00  0.00     0.074 A 
ATOM     43  C   UNL A   1      41.227  28.861  31.220  1.00  0.00     0.049 A 
ATOM     44  N   UNL A   1      39.046  30.929  31.069  1.00  0.00    -0.248 NA
ATOM     45  C   UNL A   1      38.474  30.108  28.961  1.00  0.00     0.031 C 
ATOM     46  C   UNL A   1      42.304  27.878  31.348  1.00  0.00     0.029 A 
ATOM     47  N   UNL A   1      41.251  29.538  32.411  1.00  0.00    -0.354 N 
ATOM     48  C   UNL A   1      37.981  31.666  30.565  1.00  0.00     0.074 A 
ATOM     49  C   UNL A   1      37.698  31.146  29.244  1.00  0.00     0.031 C 
ATOM     50  C   UNL A   1      42.851  27.981  32.568  1.00  0.00     0.029 A 
ATOM     51  C   UNL A   1      42.204  29.074  33.285  1.00  0.00     0.049 A 
ATOM     52  H   UNL A   1      40.644  30.284  32.622  1.00  0.00     0.167 HD
ATOM     53  C   UNL A   1      37.291  32.673  31.152  1.00  0.00     0.037 A 
ATOM     54  C   UNL A   1      42.531  29.493  34.522  1.00  0.00     0.037 A 
ATOM     55  C   UNL A   1      37.562  33.182  32.472  1.00  0.00     0.049 A 
ATOM     56  C   UNL A   1      41.782  30.644  35.128  1.00  0.00     0.074 A 
ATOM     57  C   UNL A   1      36.910  34.191  33.161  1.00  0.00     0.029 A 
ATOM     58  N   UNL A   1      38.571  32.720  33.305  1.00  0.00    -0.354 N 
ATOM     59  N   UNL A   1      40.769  31.319  34.644  1.00  0.00    -0.248 NA
ATOM     60  C   UNL A   1      42.228  31.094  36.453  1.00  0.00     0.031 C 
ATOM     61  C   UNL A   1      37.549  34.366  34.393  1.00  0.00     0.029 A 
ATOM     62  C   UNL A   1      38.570  33.435  34.491  1.00  0.00     0.049 A 
ATOM     63  H   UNL A   1      39.195  31.992  33.085  1.00  0.00     0.167 HD
ATOM     64  C   UNL A   1      40.444  32.261  35.612  1.00  0.00     0.074 A 
ATOM     65  C   UNL A   1      41.354  32.053  36.720  1.00  0.00     0.031 C 
ATOM     66  C   UNL A   1      39.482  33.215  35.585  1.00  0.00     0.037 A 
BRANCH  53  67
ATOM     67  C   UNL A   1      36.183  33.304  30.360  1.00  0.00     0.057 A 
ATOM     68  C   UNL A   1      34.843  32.995  30.632  1.00  0.00     0.134 A 
ATOM     69  C   UNL A   1      36.436  34.199  29.311  1.00  0.00     0.134 A 
ATOM     70  F   UNL A   1      34.529  32.140  31.617  1.00  0.00    -0.206 F 
ATOM     71  C   UNL A   1      33.799  33.552  29.893  1.00  0.00     0.040 A 
ATOM     72  C   UNL A   1      35.398  34.783  28.581  1.00  0.00     0.040 A 
ATOM     73  F   UNL A   1      37.694  34.550  29.007  1.00  0.00    -0.206 F 
ATOM     74  C   UNL A   1      34.075  34.455  28.868  1.00  0.00     0.006 A 
ENDBRANCH  53  67
BRANCH  54  75
ATOM     75  C   UNL A   1      43.628  28.827  35.269  1.00  0.00     0.057 A 
ATOM     76  C   UNL A   1      44.963  29.217  35.106  1.00  0.00     0.134 A 
ATOM     77  C   UNL A   1      43.362  27.801  36.182  1.00  0.00     0.134 A 
ATOM     78  F   UNL A   1      45.283  30.192  34.242  1.00  0.00    -0.206 F 
ATOM     79  C   UNL A   1      45.994  28.606  35.818  1.00  0.00     0.040 A 
ATOM     80  C   UNL A   1      44.381  27.200  36.922  1.00  0.00     0.040 A 
ATOM     81  F   UNL A   1      42.101  27.397  36.396  1.00  0.00    -0.206 F 
ATOM     82  C   UNL A   1      45.703  27.601  36.738  1.00  0.00     0.006 A 
ENDBRANCH  54  75
BRANCH  66  83
ATOM     83  C   UNL A   1      39.349  34.076  36.806  1.00  0.00     0.057 A 
ATOM     84  C   UNL A   1      38.648  33.619  37.928  1.00  0.00     0.134 A 
ATOM     85  C   UNL A   1      39.911  35.358  36.872  1.00  0.00     0.134 A 
ATOM     86  F   UNL A   1      38.080  32.403  37.928  1.00  0.00    -0.206 F 
ATOM     87  C   UNL A   1      38.515  34.402  39.075  1.00  0.00     0.040 A 
ATOM     88  C   UNL A   1      39.808  36.141  38.023  1.00  0.00     0.040 A 
ATOM     89  F   UNL A   1      40.609  35.848  35.836  1.00  0.00    -0.206 F 
ATOM     90  C   UNL A   1      39.105  35.664  39.128  1.00  0.00     0.006 A 
ENDBRANCH  66  83
ENDBRANCH  40  41
ENDBRANCH  32  35
ENDBRANCH  30  31
ENDBRANCH  29  30
ENDBRANCH  28  29
ENDBRANCH   1  28
TORSDOF 17
ENDMDL
