MODEL 1
REMARK VINA RESULT:     -11.0      0.000      0.000
REMARK SMILES CC(C)[C@H](CO)Nc1ccc(C(=O)NCCCCCCNC(=O)c2ccc(-c3c4nc(c(-c5c(F)cccc5F)c5ccc([nH]5)c(-c5c(F)cccc5F)c5nc(c(-c6c(F)cccc6F)c6ccc3[nH]6)C=C5)C=C4)cc2)cc1
REMARK SMILES IDX 16 1 15 2 14 3 12 4 13 5 11 7 8 8 9 9 79 10 10 11 78 12 7 13
REMARK SMILES IDX 4 15 2 16 1 17 3 18 5 19 6 20 17 22 18 23 19 24 20 25 21 26
REMARK SMILES IDX 22 27 23 29 24 30 25 31 77 32 26 33 76 34 27 35 28 36 29 37
REMARK SMILES IDX 70 38 30 39 75 40 69 41 71 42 31 43 74 44 68 45 67 46 32 48
REMARK SMILES IDX 58 49 41 50 57 51 42 52 45 53 56 54 72 55 43 56 44 57 55 59
REMARK SMILES IDX 73 60 46 61 33 62 34 63 39 64 35 65 36 66 38 67 40 68 37 69
REMARK SMILES IDX 59 70 60 71 65 72 61 73 62 74 64 75 66 76 63 77 47 78 48 79
REMARK SMILES IDX 53 80 49 81 50 82 52 83 54 84 51 85
REMARK H PARENT 14 6 7 14 6 21 21 28 71 47 45 58
REMARK Flexibility Score: inf
ROOT
ATOM      1  C   UNL A   1      35.984  23.259  24.447  1.00  0.00     0.021 C 
ENDROOT
BRANCH   1   2
ATOM      2  C   UNL A   1      35.054  23.186  23.234  1.00  0.00     0.116 C 
BRANCH   2   3
ATOM      3  N   UNL A   1      33.712  23.568  23.624  1.00  0.00    -0.352 N 
ATOM      4  C   UNL A   1      32.612  22.847  24.005  1.00  0.00     0.251 C 
ATOM      5  O   UNL A   1      31.581  23.475  24.247  1.00  0.00    -0.269 OA
ATOM      6  H   UNL A   1      33.560  24.541  23.612  1.00  0.00     0.163 HD
BRANCH   4   7
ATOM      7  C   UNL A   1      32.625  21.371  24.210  1.00  0.00     0.039 A 
ATOM      8  C   UNL A   1      32.451  18.544  24.425  1.00  0.00     0.034 A 
ATOM      9  C   UNL A   1      32.207  19.192  23.209  1.00  0.00     0.026 A 
ATOM     10  C   UNL A   1      32.839  19.331  25.512  1.00  0.00     0.026 A 
ATOM     11  C   UNL A   1      32.278  20.585  23.104  1.00  0.00     0.016 A 
ATOM     12  C   UNL A   1      32.969  20.724  25.396  1.00  0.00     0.016 A 
BRANCH   8  13
ATOM     13  N   UNL A   1      32.273  17.175  24.501  1.00  0.00    -0.380 N 
ATOM     14  H   UNL A   1      31.539  16.771  23.984  1.00  0.00     0.160 HD
BRANCH  13  15
ATOM     15  C   UNL A   1      33.120  16.291  25.311  1.00  0.00     0.107 C 
BRANCH  15  16
ATOM     16  C   UNL A   1      34.478  15.942  24.623  1.00  0.00     0.007 C 
ATOM     17  C   UNL A   1      34.702  16.610  23.260  1.00  0.00     0.009 C 
ATOM     18  C   UNL A   1      35.726  16.166  25.486  1.00  0.00     0.009 C 
ENDBRANCH  15  16
BRANCH  15  19
ATOM     19  C   UNL A   1      32.256  15.061  25.716  1.00  0.00     0.181 C 
BRANCH  19  20
ATOM     20  O   UNL A   1      32.997  13.838  25.657  1.00  0.00    -0.394 OA
ATOM     21  H   UNL A   1      33.282  13.677  24.744  1.00  0.00     0.210 HD
ENDBRANCH  19  20
ENDBRANCH  15  19
ENDBRANCH  13  15
ENDBRANCH   8  13
ENDBRANCH   4   7
ENDBRANCH   2   3
ENDBRANCH   1   2
BRANCH   1  22
ATOM     22  C   UNL A   1      37.090  22.193  24.423  1.00  0.00     0.002 C 
BRANCH  22  23
ATOM     23  C   UNL A   1      36.618  20.770  24.750  1.00  0.00     0.002 C 
BRANCH  23  24
ATOM     24  C   UNL A   1      37.742  19.749  24.949  1.00  0.00     0.021 C 
BRANCH  24  25
ATOM     25  C   UNL A   1      38.992  20.315  25.615  1.00  0.00     0.116 C 
BRANCH  25  26
ATOM     26  N   UNL A   1      40.017  19.298  25.785  1.00  0.00    -0.352 N 
ATOM     27  C   UNL A   1      41.344  19.448  26.100  1.00  0.00     0.251 C 
ATOM     28  H   UNL A   1      39.717  18.369  25.655  1.00  0.00     0.163 HD
ATOM     29  O   UNL A   1      42.121  18.508  25.979  1.00  0.00    -0.269 OA
BRANCH  27  30
ATOM     30  C   UNL A   1      41.839  20.756  26.576  1.00  0.00     0.039 A 
ATOM     31  C   UNL A   1      42.269  21.701  25.641  1.00  0.00     0.014 A 
ATOM     32  C   UNL A   1      41.894  21.042  27.944  1.00  0.00     0.014 A 
ATOM     33  C   UNL A   1      42.702  22.955  26.075  1.00  0.00     0.010 A 
ATOM     34  C   UNL A   1      42.262  22.313  28.370  1.00  0.00     0.010 A 
ATOM     35  C   UNL A   1      42.674  23.281  27.441  1.00  0.00    -0.014 A 
BRANCH  35  36
ATOM     36  C   UNL A   1      43.077  24.627  27.921  1.00  0.00     0.031 A 
ATOM     37  C   UNL A   1      42.032  25.670  28.203  1.00  0.00     0.074 A 
ATOM     38  C   UNL A   1      44.384  24.928  28.035  1.00  0.00     0.049 A 
ATOM     39  N   UNL A   1      42.187  26.923  28.548  1.00  0.00    -0.248 NA
ATOM     40  C   UNL A   1      40.628  25.258  28.053  1.00  0.00     0.031 C 
ATOM     41  C   UNL A   1      45.492  24.015  27.750  1.00  0.00     0.029 A 
ATOM     42  N   UNL A   1      45.002  26.094  28.409  1.00  0.00    -0.354 N 
ATOM     43  C   UNL A   1      40.906  27.450  28.641  1.00  0.00     0.074 A 
ATOM     44  C   UNL A   1      39.987  26.397  28.268  1.00  0.00     0.031 C 
ATOM     45  C   UNL A   1      46.653  24.648  27.977  1.00  0.00     0.029 A 
ATOM     46  C   UNL A   1      46.374  26.021  28.387  1.00  0.00     0.049 A 
ATOM     47  H   UNL A   1      44.511  26.906  28.670  1.00  0.00     0.167 HD
ATOM     48  C   UNL A   1      40.528  28.693  29.024  1.00  0.00     0.037 A 
ATOM     49  C   UNL A   1      47.301  26.959  28.656  1.00  0.00     0.037 A 
ATOM     50  C   UNL A   1      41.444  29.730  29.419  1.00  0.00     0.049 A 
ATOM     51  C   UNL A   1      46.857  28.335  29.068  1.00  0.00     0.074 A 
ATOM     52  C   UNL A   1      41.158  31.003  29.881  1.00  0.00     0.029 A 
ATOM     53  N   UNL A   1      42.826  29.613  29.396  1.00  0.00    -0.354 N 
ATOM     54  N   UNL A   1      45.640  28.802  29.212  1.00  0.00    -0.248 NA
ATOM     55  C   UNL A   1      47.914  29.314  29.359  1.00  0.00     0.031 C 
ATOM     56  C   UNL A   1      42.368  31.672  30.096  1.00  0.00     0.029 A 
ATOM     57  C   UNL A   1      43.407  30.800  29.815  1.00  0.00     0.049 A 
ATOM     58  H   UNL A   1      43.320  28.807  29.123  1.00  0.00     0.167 HD
ATOM     59  C   UNL A   1      45.785  30.116  29.635  1.00  0.00     0.074 A 
ATOM     60  C   UNL A   1      47.207  30.369  29.737  1.00  0.00     0.031 C 
ATOM     61  C   UNL A   1      44.825  31.032  29.915  1.00  0.00     0.037 A 
BRANCH  48  62
ATOM     62  C   UNL A   1      39.059  28.996  29.038  1.00  0.00     0.057 A 
ATOM     63  C   UNL A   1      38.280  28.832  30.192  1.00  0.00     0.134 A 
ATOM     64  C   UNL A   1      38.418  29.491  27.895  1.00  0.00     0.134 A 
ATOM     65  F   UNL A   1      38.829  28.350  31.318  1.00  0.00    -0.206 F 
ATOM     66  C   UNL A   1      36.916  29.121  30.201  1.00  0.00     0.040 A 
ATOM     67  C   UNL A   1      37.059  29.810  27.898  1.00  0.00     0.040 A 
ATOM     68  F   UNL A   1      39.104  29.678  26.757  1.00  0.00    -0.206 F 
ATOM     69  C   UNL A   1      36.302  29.618  29.053  1.00  0.00     0.006 A 
ENDBRANCH  48  62
BRANCH  49  70
ATOM     70  C   UNL A   1      48.745  26.625  28.563  1.00  0.00     0.057 A 
ATOM     71  C   UNL A   1      49.436  26.747  27.352  1.00  0.00     0.134 A 
ATOM     72  C   UNL A   1      49.465  26.172  29.675  1.00  0.00     0.134 A 
ATOM     73  F   UNL A   1      48.795  27.157  26.249  1.00  0.00    -0.206 F 
ATOM     74  C   UNL A   1      50.787  26.413  27.245  1.00  0.00     0.040 A 
ATOM     75  C   UNL A   1      50.823  25.859  29.587  1.00  0.00     0.040 A 
ATOM     76  F   UNL A   1      48.863  26.041  30.866  1.00  0.00    -0.206 F 
ATOM     77  C   UNL A   1      51.485  25.971  28.366  1.00  0.00     0.006 A 
ENDBRANCH  49  70
BRANCH  61  78
ATOM     78  C   UNL A   1      45.281  32.381  30.387  1.00  0.00     0.057 A 
ATOM     79  C   UNL A   1      45.524  32.646  31.741  1.00  0.00     0.134 A 
ATOM     80  C   UNL A   1      45.520  33.413  29.472  1.00  0.00     0.134 A 
ATOM     81  F   UNL A   1      45.301  31.702  32.669  1.00  0.00    -0.206 F 
ATOM     82  C   UNL A   1      45.971  33.896  32.169  1.00  0.00     0.040 A 
ATOM     83  C   UNL A   1      45.991  34.659  29.884  1.00  0.00     0.040 A 
ATOM     84  F   UNL A   1      45.314  33.222  28.160  1.00  0.00    -0.206 F 
ATOM     85  C   UNL A   1      46.213  34.906  31.238  1.00  0.00     0.006 A 
ENDBRANCH  61  78
ENDBRANCH  35  36
ENDBRANCH  27  30
ENDBRANCH  25  26
ENDBRANCH  24  25
ENDBRANCH  23  24
ENDBRANCH  22  23
ENDBRANCH   1  22
TORSDOF 18
ENDMDL
MODEL 2
REMARK VINA RESULT:     -10.5      3.615      7.611
REMARK SMILES CC(C)[C@H](CO)Nc1ccc(C(=O)NCCCCCCNC(=O)c2ccc(-c3c4nc(c(-c5c(F)cccc5F)c5ccc([nH]5)c(-c5c(F)cccc5F)c5nc(c(-c6c(F)cccc6F)c6ccc3[nH]6)C=C5)C=C4)cc2)cc1
REMARK SMILES IDX 16 1 15 2 14 3 12 4 13 5 11 7 8 8 9 9 79 10 10 11 78 12 7 13
REMARK SMILES IDX 4 15 2 16 1 17 3 18 5 19 6 20 17 22 18 23 19 24 20 25 21 26
REMARK SMILES IDX 22 27 23 29 24 30 25 31 77 32 26 33 76 34 27 35 28 36 29 37
REMARK SMILES IDX 70 38 30 39 75 40 69 41 71 42 31 43 74 44 68 45 67 46 32 48
REMARK SMILES IDX 58 49 41 50 57 51 42 52 45 53 56 54 72 55 43 56 44 57 55 59
REMARK SMILES IDX 73 60 46 61 33 62 34 63 39 64 35 65 36 66 38 67 40 68 37 69
REMARK SMILES IDX 59 70 60 71 65 72 61 73 62 74 64 75 66 76 63 77 47 78 48 79
REMARK SMILES IDX 53 80 49 81 50 82 52 83 54 84 51 85
REMARK H PARENT 14 6 7 14 6 21 21 28 71 47 45 58
REMARK Flexibility Score: inf
ROOT
ATOM      1  C   UNL A   1      31.561  26.223  25.812  1.00  0.00     0.021 C 
ENDROOT
BRANCH   1   2
ATOM      2  C   UNL A   1      30.490  25.301  25.223  1.00  0.00     0.116 C 
BRANCH   2   3
ATOM      3  N   UNL A   1      29.862  24.540  26.284  1.00  0.00    -0.352 N 
ATOM      4  C   UNL A   1      30.173  23.351  26.887  1.00  0.00     0.251 C 
ATOM      5  O   UNL A   1      29.405  22.941  27.758  1.00  0.00    -0.269 OA
ATOM      6  H   UNL A   1      29.050  24.964  26.644  1.00  0.00     0.163 HD
BRANCH   4   7
ATOM      7  C   UNL A   1      31.415  22.580  26.596  1.00  0.00     0.039 A 
ATOM      8  C   UNL A   1      33.916  21.306  26.160  1.00  0.00     0.034 A 
ATOM      9  C   UNL A   1      33.681  22.057  27.315  1.00  0.00     0.026 A 
ATOM     10  C   UNL A   1      32.860  21.158  25.257  1.00  0.00     0.026 A 
ATOM     11  C   UNL A   1      32.455  22.697  27.526  1.00  0.00     0.016 A 
ATOM     12  C   UNL A   1      31.609  21.750  25.493  1.00  0.00     0.016 A 
BRANCH   8  13
ATOM     13  N   UNL A   1      35.175  20.775  25.951  1.00  0.00    -0.380 N 
ATOM     14  H   UNL A   1      35.303  19.809  26.094  1.00  0.00     0.160 HD
BRANCH  13  15
ATOM     15  C   UNL A   1      36.333  21.573  25.528  1.00  0.00     0.107 C 
BRANCH  15  16
ATOM     16  C   UNL A   1      35.952  22.749  24.573  1.00  0.00     0.007 C 
ATOM     17  C   UNL A   1      36.026  24.145  25.205  1.00  0.00     0.009 C 
ATOM     18  C   UNL A   1      36.706  22.779  23.238  1.00  0.00     0.009 C 
ENDBRANCH  15  16
BRANCH  15  19
ATOM     19  C   UNL A   1      37.395  20.587  24.961  1.00  0.00     0.181 C 
BRANCH  19  20
ATOM     20  O   UNL A   1      36.933  19.233  24.969  1.00  0.00    -0.394 OA
ATOM     21  H   UNL A   1      36.597  19.001  24.089  1.00  0.00     0.210 HD
ENDBRANCH  19  20
ENDBRANCH  15  19
ENDBRANCH  13  15
ENDBRANCH   8  13
ENDBRANCH   4   7
ENDBRANCH   2   3
ENDBRANCH   1   2
BRANCH   1  22
ATOM     22  C   UNL A   1      31.052  27.648  26.073  1.00  0.00     0.002 C 
BRANCH  22  23
ATOM     23  C   UNL A   1      31.743  28.374  27.235  1.00  0.00     0.002 C 
BRANCH  23  24
ATOM     24  C   UNL A   1      33.269  28.251  27.255  1.00  0.00     0.021 C 
BRANCH  24  25
ATOM     25  C   UNL A   1      33.991  29.270  26.380  1.00  0.00     0.116 C 
BRANCH  25  26
ATOM     26  N   UNL A   1      33.895  30.613  26.930  1.00  0.00    -0.352 N 
ATOM     27  C   UNL A   1      34.641  31.200  27.921  1.00  0.00     0.251 C 
ATOM     28  H   UNL A   1      33.195  31.182  26.535  1.00  0.00     0.163 HD
ATOM     29  O   UNL A   1      34.282  32.259  28.423  1.00  0.00    -0.269 OA
BRANCH  27  30
ATOM     30  C   UNL A   1      35.878  30.544  28.391  1.00  0.00     0.039 A 
ATOM     31  C   UNL A   1      37.065  30.746  27.682  1.00  0.00     0.014 A 
ATOM     32  C   UNL A   1      35.862  29.716  29.518  1.00  0.00     0.014 A 
ATOM     33  C   UNL A   1      38.249  30.162  28.137  1.00  0.00     0.010 A 
ATOM     34  C   UNL A   1      37.053  29.190  30.007  1.00  0.00     0.010 A 
ATOM     35  C   UNL A   1      38.257  29.405  29.319  1.00  0.00    -0.014 A 
BRANCH  35  36
ATOM     36  C   UNL A   1      39.514  28.821  29.852  1.00  0.00     0.031 A 
ATOM     37  C   UNL A   1      40.167  29.420  31.067  1.00  0.00     0.074 A 
ATOM     38  C   UNL A   1      40.100  27.799  29.202  1.00  0.00     0.049 A 
ATOM     39  N   UNL A   1      41.304  29.107  31.632  1.00  0.00    -0.248 NA
ATOM     40  C   UNL A   1      39.459  30.534  31.716  1.00  0.00     0.031 C 
ATOM     41  C   UNL A   1      39.586  27.159  27.990  1.00  0.00     0.029 A 
ATOM     42  N   UNL A   1      41.267  27.125  29.463  1.00  0.00    -0.354 N 
ATOM     43  C   UNL A   1      41.455  29.993  32.691  1.00  0.00     0.074 A 
ATOM     44  C   UNL A   1      40.320  30.888  32.660  1.00  0.00     0.031 C 
ATOM     45  C   UNL A   1      40.422  26.176  27.623  1.00  0.00     0.029 A 
ATOM     46  C   UNL A   1      41.549  26.138  28.551  1.00  0.00     0.049 A 
ATOM     47  H   UNL A   1      41.846  27.329  30.233  1.00  0.00     0.167 HD
ATOM     48  C   UNL A   1      42.441  30.042  33.619  1.00  0.00     0.037 A 
ATOM     49  C   UNL A   1      42.603  25.305  28.466  1.00  0.00     0.037 A 
ATOM     50  C   UNL A   1      43.557  29.133  33.662  1.00  0.00     0.049 A 
ATOM     51  C   UNL A   1      43.690  25.387  29.501  1.00  0.00     0.074 A 
ATOM     52  C   UNL A   1      44.575  29.062  34.596  1.00  0.00     0.029 A 
ATOM     53  N   UNL A   1      43.800  28.138  32.727  1.00  0.00    -0.354 N 
ATOM     54  N   UNL A   1      43.788  26.189  30.534  1.00  0.00    -0.248 NA
ATOM     55  C   UNL A   1      44.810  24.445  29.362  1.00  0.00     0.031 C 
ATOM     56  C   UNL A   1      45.460  28.052  34.203  1.00  0.00     0.029 A 
ATOM     57  C   UNL A   1      44.966  27.462  33.050  1.00  0.00     0.049 A 
ATOM     58  H   UNL A   1      43.230  27.941  31.950  1.00  0.00     0.167 HD
ATOM     59  C   UNL A   1      44.964  25.832  31.181  1.00  0.00     0.074 A 
ATOM     60  C   UNL A   1      45.536  24.732  30.433  1.00  0.00     0.031 C 
ATOM     61  C   UNL A   1      45.519  26.367  32.296  1.00  0.00     0.037 A 
BRANCH  48  62
ATOM     62  C   UNL A   1      42.353  31.112  34.667  1.00  0.00     0.057 A 
ATOM     63  C   UNL A   1      42.955  32.367  34.494  1.00  0.00     0.134 A 
ATOM     64  C   UNL A   1      41.631  30.901  35.848  1.00  0.00     0.134 A 
ATOM     65  F   UNL A   1      43.671  32.630  33.391  1.00  0.00    -0.206 F 
ATOM     66  C   UNL A   1      42.865  33.360  35.469  1.00  0.00     0.040 A 
ATOM     67  C   UNL A   1      41.510  31.897  36.819  1.00  0.00     0.040 A 
ATOM     68  F   UNL A   1      41.025  29.726  36.075  1.00  0.00    -0.206 F 
ATOM     69  C   UNL A   1      42.135  33.129  36.633  1.00  0.00     0.006 A 
ENDBRANCH  48  62
BRANCH  49  70
ATOM     70  C   UNL A   1      42.673  24.306  27.369  1.00  0.00     0.057 A 
ATOM     71  C   UNL A   1      42.164  23.014  27.539  1.00  0.00     0.134 A 
ATOM     72  C   UNL A   1      43.253  24.615  26.133  1.00  0.00     0.134 A 
ATOM     73  F   UNL A   1      41.614  22.653  28.707  1.00  0.00    -0.206 F 
ATOM     74  C   UNL A   1      42.246  22.057  26.526  1.00  0.00     0.040 A 
ATOM     75  C   UNL A   1      43.319  23.675  25.102  1.00  0.00     0.040 A 
ATOM     76  F   UNL A   1      43.752  25.838  25.905  1.00  0.00    -0.206 F 
ATOM     77  C   UNL A   1      42.821  22.390  25.301  1.00  0.00     0.006 A 
ENDBRANCH  49  70
BRANCH  61  78
ATOM     78  C   UNL A   1      46.793  25.750  32.791  1.00  0.00     0.057 A 
ATOM     79  C   UNL A   1      48.047  26.174  32.331  1.00  0.00     0.134 A 
ATOM     80  C   UNL A   1      46.767  24.751  33.772  1.00  0.00     0.134 A 
ATOM     81  F   UNL A   1      48.139  27.119  31.382  1.00  0.00    -0.206 F 
ATOM     82  C   UNL A   1      49.228  25.611  32.815  1.00  0.00     0.040 A 
ATOM     83  C   UNL A   1      47.942  24.198  34.282  1.00  0.00     0.040 A 
ATOM     84  F   UNL A   1      45.600  24.306  34.260  1.00  0.00    -0.206 F 
ATOM     85  C   UNL A   1      49.178  24.625  33.799  1.00  0.00     0.006 A 
ENDBRANCH  61  78
ENDBRANCH  35  36
ENDBRANCH  27  30
ENDBRANCH  25  26
ENDBRANCH  24  25
ENDBRANCH  23  24
ENDBRANCH  22  23
ENDBRANCH   1  22
TORSDOF 18
ENDMDL
MODEL 3
REMARK VINA RESULT:     -10.4      3.665      7.500
REMARK SMILES CC(C)[C@H](CO)Nc1ccc(C(=O)NCCCCCCNC(=O)c2ccc(-c3c4nc(c(-c5c(F)cccc5F)c5ccc([nH]5)c(-c5c(F)cccc5F)c5nc(c(-c6c(F)cccc6F)c6ccc3[nH]6)C=C5)C=C4)cc2)cc1
REMARK SMILES IDX 16 1 15 2 14 3 12 4 13 5 11 7 8 8 9 9 79 10 10 11 78 12 7 13
REMARK SMILES IDX 4 15 2 16 1 17 3 18 5 19 6 20 17 22 18 23 19 24 20 25 21 26
REMARK SMILES IDX 22 27 23 29 24 30 25 31 77 32 26 33 76 34 27 35 28 36 29 37
REMARK SMILES IDX 70 38 30 39 75 40 69 41 71 42 31 43 74 44 68 45 67 46 32 48
REMARK SMILES IDX 58 49 41 50 57 51 42 52 45 53 56 54 72 55 43 56 44 57 55 59
REMARK SMILES IDX 73 60 46 61 33 62 34 63 39 64 35 65 36 66 38 67 40 68 37 69
REMARK SMILES IDX 59 70 60 71 65 72 61 73 62 74 64 75 66 76 63 77 47 78 48 79
REMARK SMILES IDX 53 80 49 81 50 82 52 83 54 84 51 85
REMARK H PARENT 14 6 7 14 6 21 21 28 71 47 45 58
REMARK Flexibility Score: inf
ROOT
ATOM      1  C   UNL A   1      31.466  26.441  25.041  1.00  0.00     0.021 C 
ENDROOT
BRANCH   1   2
ATOM      2  C   UNL A   1      30.254  25.570  24.700  1.00  0.00     0.116 C 
BRANCH   2   3
ATOM      3  N   UNL A   1      29.865  24.796  25.861  1.00  0.00    -0.352 N 
ATOM      4  C   UNL A   1      30.439  23.733  26.507  1.00  0.00     0.251 C 
ATOM      5  O   UNL A   1      29.832  23.263  27.470  1.00  0.00    -0.269 OA
ATOM      6  H   UNL A   1      29.019  25.094  26.268  1.00  0.00     0.163 HD
BRANCH   4   7
ATOM      7  C   UNL A   1      31.774  23.177  26.151  1.00  0.00     0.039 A 
ATOM      8  C   UNL A   1      34.194  21.895  25.399  1.00  0.00     0.034 A 
ATOM      9  C   UNL A   1      33.009  21.667  24.695  1.00  0.00     0.026 A 
ATOM     10  C   UNL A   1      34.159  22.818  26.447  1.00  0.00     0.026 A 
ATOM     11  C   UNL A   1      31.812  22.286  25.072  1.00  0.00     0.016 A 
ATOM     12  C   UNL A   1      32.973  23.486  26.792  1.00  0.00     0.016 A 
BRANCH   8  13
ATOM     13  N   UNL A   1      35.328  21.185  25.049  1.00  0.00    -0.380 N 
ATOM     14  H   UNL A   1      35.305  20.203  25.124  1.00  0.00     0.160 HD
BRANCH  13  15
ATOM     15  C   UNL A   1      36.564  21.815  24.569  1.00  0.00     0.107 C 
BRANCH  15  16
ATOM     16  C   UNL A   1      37.519  22.254  25.725  1.00  0.00     0.007 C 
ATOM     17  C   UNL A   1      38.875  21.538  25.750  1.00  0.00     0.009 C 
ATOM     18  C   UNL A   1      37.764  23.765  25.833  1.00  0.00     0.009 C 
ENDBRANCH  15  16
BRANCH  15  19
ATOM     19  C   UNL A   1      36.156  22.954  23.588  1.00  0.00     0.181 C 
BRANCH  19  20
ATOM     20  O   UNL A   1      37.057  23.061  22.482  1.00  0.00    -0.394 OA
ATOM     21  H   UNL A   1      36.896  22.333  21.862  1.00  0.00     0.210 HD
ENDBRANCH  19  20
ENDBRANCH  15  19
ENDBRANCH  13  15
ENDBRANCH   8  13
ENDBRANCH   4   7
ENDBRANCH   2   3
ENDBRANCH   1   2
BRANCH   1  22
ATOM     22  C   UNL A   1      31.084  27.767  25.715  1.00  0.00     0.002 C 
BRANCH  22  23
ATOM     23  C   UNL A   1      31.881  28.095  26.985  1.00  0.00     0.002 C 
BRANCH  23  24
ATOM     24  C   UNL A   1      33.380  27.799  26.899  1.00  0.00     0.021 C 
BRANCH  24  25
ATOM     25  C   UNL A   1      34.182  28.845  26.131  1.00  0.00     0.116 C 
BRANCH  25  26
ATOM     26  N   UNL A   1      33.885  30.192  26.589  1.00  0.00    -0.352 N 
ATOM     27  C   UNL A   1      34.473  30.916  27.596  1.00  0.00     0.251 C 
ATOM     28  H   UNL A   1      33.157  30.651  26.109  1.00  0.00     0.163 HD
ATOM     29  O   UNL A   1      33.953  31.948  28.004  1.00  0.00    -0.269 OA
BRANCH  27  30
ATOM     30  C   UNL A   1      35.736  30.439  28.196  1.00  0.00     0.039 A 
ATOM     31  C   UNL A   1      35.685  29.664  29.357  1.00  0.00     0.014 A 
ATOM     32  C   UNL A   1      36.968  30.772  27.623  1.00  0.00     0.014 A 
ATOM     33  C   UNL A   1      36.869  29.175  29.913  1.00  0.00     0.010 A 
ATOM     34  C   UNL A   1      38.139  30.230  28.140  1.00  0.00     0.010 A 
ATOM     35  C   UNL A   1      38.102  29.429  29.292  1.00  0.00    -0.014 A 
BRANCH  35  36
ATOM     36  C   UNL A   1      39.367  28.873  29.833  1.00  0.00     0.031 A 
ATOM     37  C   UNL A   1      40.010  29.498  31.040  1.00  0.00     0.074 A 
ATOM     38  C   UNL A   1      39.970  27.852  29.197  1.00  0.00     0.049 A 
ATOM     39  N   UNL A   1      41.152  29.211  31.610  1.00  0.00    -0.248 NA
ATOM     40  C   UNL A   1      39.285  30.609  31.675  1.00  0.00     0.031 C 
ATOM     41  C   UNL A   1      39.467  27.188  27.993  1.00  0.00     0.029 A 
ATOM     42  N   UNL A   1      41.147  27.200  29.468  1.00  0.00    -0.354 N 
ATOM     43  C   UNL A   1      41.288  30.112  32.657  1.00  0.00     0.074 A 
ATOM     44  C   UNL A   1      40.139  30.989  32.614  1.00  0.00     0.031 C 
ATOM     45  C   UNL A   1      40.319  26.213  27.640  1.00  0.00     0.029 A 
ATOM     46  C   UNL A   1      41.445  26.206  28.568  1.00  0.00     0.049 A 
ATOM     47  H   UNL A   1      41.723  27.423  30.234  1.00  0.00     0.167 HD
ATOM     48  C   UNL A   1      42.273  30.189  33.584  1.00  0.00     0.037 A 
ATOM     49  C   UNL A   1      42.512  25.388  28.495  1.00  0.00     0.037 A 
ATOM     50  C   UNL A   1      43.403  29.299  33.640  1.00  0.00     0.049 A 
ATOM     51  C   UNL A   1      43.597  25.501  29.529  1.00  0.00     0.074 A 
ATOM     52  C   UNL A   1      44.422  29.257  34.576  1.00  0.00     0.029 A 
ATOM     53  N   UNL A   1      43.663  28.296  32.718  1.00  0.00    -0.354 N 
ATOM     54  N   UNL A   1      43.683  26.318  30.551  1.00  0.00    -0.248 NA
ATOM     55  C   UNL A   1      44.732  24.576  29.403  1.00  0.00     0.031 C 
ATOM     56  C   UNL A   1      45.322  28.256  34.196  1.00  0.00     0.029 A 
ATOM     57  C   UNL A   1      44.839  27.643  33.051  1.00  0.00     0.049 A 
ATOM     58  H   UNL A   1      43.096  28.080  31.944  1.00  0.00     0.167 HD
ATOM     59  C   UNL A   1      44.864  25.988  31.203  1.00  0.00     0.074 A 
ATOM     60  C   UNL A   1      45.454  24.889  30.470  1.00  0.00     0.031 C 
ATOM     61  C   UNL A   1      45.410  26.547  32.312  1.00  0.00     0.037 A 
BRANCH  48  62
ATOM     62  C   UNL A   1      42.167  31.272  34.618  1.00  0.00     0.057 A 
ATOM     63  C   UNL A   1      41.465  31.084  35.817  1.00  0.00     0.134 A 
ATOM     64  C   UNL A   1      42.801  32.507  34.430  1.00  0.00     0.134 A 
ATOM     65  F   UNL A   1      40.824  29.930  36.055  1.00  0.00    -0.206 F 
ATOM     66  C   UNL A   1      41.375  32.093  36.777  1.00  0.00     0.040 A 
ATOM     67  C   UNL A   1      42.742  33.514  35.395  1.00  0.00     0.040 A 
ATOM     68  F   UNL A   1      43.495  32.752  33.308  1.00  0.00    -0.206 F 
ATOM     69  C   UNL A   1      42.020  33.310  36.570  1.00  0.00     0.006 A 
ENDBRANCH  48  62
BRANCH  49  70
ATOM     70  C   UNL A   1      42.600  24.376  27.411  1.00  0.00     0.057 A 
ATOM     71  C   UNL A   1      43.115  24.710  26.154  1.00  0.00     0.134 A 
ATOM     72  C   UNL A   1      42.167  23.059  27.603  1.00  0.00     0.134 A 
ATOM     73  F   UNL A   1      43.528  25.961  25.905  1.00  0.00    -0.206 F 
ATOM     74  C   UNL A   1      43.181  23.776  25.119  1.00  0.00     0.040 A 
ATOM     75  C   UNL A   1      42.250  22.108  26.584  1.00  0.00     0.040 A 
ATOM     76  F   UNL A   1      41.670  22.674  28.787  1.00  0.00    -0.206 F 
ATOM     77  C   UNL A   1      42.751  22.469  25.335  1.00  0.00     0.006 A 
ENDBRANCH  49  70
BRANCH  61  78
ATOM     78  C   UNL A   1      46.693  25.957  32.816  1.00  0.00     0.057 A 
ATOM     79  C   UNL A   1      46.710  24.911  33.748  1.00  0.00     0.134 A 
ATOM     80  C   UNL A   1      47.925  26.411  32.330  1.00  0.00     0.134 A 
ATOM     81  F   UNL A   1      45.563  24.440  34.262  1.00  0.00    -0.206 F 
ATOM     82  C   UNL A   1      47.908  24.352  34.193  1.00  0.00     0.040 A 
ATOM     83  C   UNL A   1      49.129  25.843  32.747  1.00  0.00     0.040 A 
ATOM     84  F   UNL A   1      47.978  27.404  31.429  1.00  0.00    -0.206 F 
ATOM     85  C   UNL A   1      49.122  24.814  33.687  1.00  0.00     0.006 A 
ENDBRANCH  61  78
ENDBRANCH  35  36
ENDBRANCH  27  30
ENDBRANCH  25  26
ENDBRANCH  24  25
ENDBRANCH  23  24
ENDBRANCH  22  23
ENDBRANCH   1  22
TORSDOF 18
ENDMDL
