MODEL 1
REMARK VINA RESULT:     -12.9      0.000      0.000
REMARK SMILES O=C(NCCCCCCNC(=O)C1(Cc2ccccc2Cl)CCN(c2ncnc3[nH]ccc23)CC1)c1ccc(-c2c3nc(c(-c4c(F)cccc4F)c4ccc([nH]4)c(-c4c(F)cccc4F)c4nc(c(-c5c(F)cccc5F)c5ccc2[nH]5)C=C4)C=C3)cc1
REMARK SMILES IDX 6 1 5 2 4 3 3 4 1 5 2 6 36 8 37 9 89 10 38 11 88 12 39 13
REMARK SMILES IDX 40 14 41 15 82 16 42 17 87 18 81 19 83 20 43 21 86 22 80 23
REMARK SMILES IDX 79 24 44 26 70 27 53 28 69 29 54 30 57 31 68 32 84 33 55 34
REMARK SMILES IDX 56 35 67 37 85 38 58 39 45 40 46 41 51 42 47 43 48 44 50 45
REMARK SMILES IDX 52 46 49 47 71 48 72 49 77 50 73 51 74 52 76 53 78 54 75 55
REMARK SMILES IDX 59 56 60 57 65 58 61 59 62 60 64 61 66 62 63 63 7 64 8 65
REMARK SMILES IDX 9 66 10 67 11 68 12 70 13 71 22 72 35 73 23 74 34 75 24 76
REMARK SMILES IDX 14 77 15 78 16 79 20 80 17 81 19 82 21 83 18 84 25 85 26 86
REMARK SMILES IDX 33 87 27 88 29 89 32 90 28 91 30 92 31 93
REMARK H PARENT 3 7 83 25 57 36 10 69 30 94
REMARK Flexibility Score: inf
ROOT
ATOM      1  C   UNL A   1      31.425  30.505  25.708  1.00  0.00     0.002 C 
ENDROOT
BRANCH   1   2
ATOM      2  C   UNL A   1      31.270  31.729  26.608  1.00  0.00     0.021 C 
BRANCH   2   3
ATOM      3  C   UNL A   1      32.570  32.476  26.875  1.00  0.00     0.116 C 
BRANCH   3   4
ATOM      4  N   UNL A   1      32.336  33.826  27.365  1.00  0.00    -0.352 N 
ATOM      5  O   UNL A   1      32.541  35.538  28.834  1.00  0.00    -0.269 OA
ATOM      6  C   UNL A   1      32.970  34.475  28.398  1.00  0.00     0.251 C 
ATOM      7  H   UNL A   1      31.636  34.337  26.899  1.00  0.00     0.163 HD
BRANCH   6   8
ATOM      8  C   UNL A   1      34.177  33.863  28.987  1.00  0.00     0.039 A 
ATOM      9  C   UNL A   1      34.048  32.788  29.871  1.00  0.00     0.014 A 
ATOM     10  C   UNL A   1      35.439  34.374  28.674  1.00  0.00     0.014 A 
ATOM     11  C   UNL A   1      35.165  32.315  30.544  1.00  0.00     0.010 A 
ATOM     12  C   UNL A   1      36.576  33.830  29.282  1.00  0.00     0.010 A 
ATOM     13  C   UNL A   1      36.445  32.809  30.235  1.00  0.00    -0.014 A 
BRANCH  13  14
ATOM     14  C   UNL A   1      37.624  32.151  30.853  1.00  0.00     0.031 A 
ATOM     15  C   UNL A   1      38.067  32.469  32.252  1.00  0.00     0.074 A 
ATOM     16  C   UNL A   1      38.265  31.210  30.132  1.00  0.00     0.049 A 
ATOM     17  N   UNL A   1      39.045  31.937  32.942  1.00  0.00    -0.248 NA
ATOM     18  C   UNL A   1      37.328  33.518  32.970  1.00  0.00     0.031 C 
ATOM     19  C   UNL A   1      37.934  30.837  28.753  1.00  0.00     0.029 A 
ATOM     20  N   UNL A   1      39.302  30.377  30.460  1.00  0.00    -0.354 N 
ATOM     21  C   UNL A   1      39.047  32.589  34.169  1.00  0.00     0.074 A 
ATOM     22  C   UNL A   1      37.988  33.576  34.120  1.00  0.00     0.031 C 
ATOM     23  C   UNL A   1      38.710  29.812  28.375  1.00  0.00     0.029 A 
ATOM     24  C   UNL A   1      39.637  29.502  29.454  1.00  0.00     0.049 A 
ATOM     25  H   UNL A   1      39.763  30.402  31.329  1.00  0.00     0.167 HD
ATOM     26  C   UNL A   1      39.854  32.374  35.235  1.00  0.00     0.037 A 
ATOM     27  C   UNL A   1      40.598  28.562  29.397  1.00  0.00     0.037 A 
ATOM     28  C   UNL A   1      40.903  31.386  35.274  1.00  0.00     0.049 A 
ATOM     29  C   UNL A   1      41.483  28.361  30.591  1.00  0.00     0.074 A 
ATOM     30  C   UNL A   1      41.767  31.084  36.315  1.00  0.00     0.029 A 
ATOM     31  N   UNL A   1      41.233  30.538  34.227  1.00  0.00    -0.354 N 
ATOM     32  N   UNL A   1      41.453  28.969  31.751  1.00  0.00    -0.248 NA
ATOM     33  C   UNL A   1      42.535  27.346  30.466  1.00  0.00     0.031 C 
ATOM     34  C   UNL A   1      42.642  30.082  35.884  1.00  0.00     0.029 A 
ATOM     35  C   UNL A   1      42.296  29.726  34.591  1.00  0.00     0.049 A 
ATOM     36  H   UNL A   1      40.780  30.518  33.354  1.00  0.00     0.167 HD
ATOM     37  C   UNL A   1      42.478  28.408  32.497  1.00  0.00     0.074 A 
ATOM     38  C   UNL A   1      43.086  27.385  31.669  1.00  0.00     0.031 C 
ATOM     39  C   UNL A   1      42.892  28.719  33.750  1.00  0.00     0.037 A 
BRANCH  26  40
ATOM     40  C   UNL A   1      39.645  33.225  36.455  1.00  0.00     0.057 A 
ATOM     41  C   UNL A   1      40.312  34.444  36.626  1.00  0.00     0.134 A 
ATOM     42  C   UNL A   1      38.711  32.858  37.434  1.00  0.00     0.134 A 
ATOM     43  F   UNL A   1      41.227  34.850  35.732  1.00  0.00    -0.206 F 
ATOM     44  C   UNL A   1      40.065  35.264  37.730  1.00  0.00     0.040 A 
ATOM     45  C   UNL A   1      38.439  33.679  38.530  1.00  0.00     0.040 A 
ATOM     46  F   UNL A   1      38.032  31.707  37.328  1.00  0.00    -0.206 F 
ATOM     47  C   UNL A   1      39.118  34.887  38.681  1.00  0.00     0.006 A 
ENDBRANCH  26  40
BRANCH  27  48
ATOM     48  C   UNL A   1      40.782  27.762  28.161  1.00  0.00     0.057 A 
ATOM     49  C   UNL A   1      40.161  26.520  27.998  1.00  0.00     0.134 A 
ATOM     50  C   UNL A   1      41.588  28.224  27.113  1.00  0.00     0.134 A 
ATOM     51  F   UNL A   1      39.387  26.018  28.973  1.00  0.00    -0.206 F 
ATOM     52  C   UNL A   1      40.353  25.753  26.848  1.00  0.00     0.040 A 
ATOM     53  C   UNL A   1      41.763  27.483  25.945  1.00  0.00     0.040 A 
ATOM     54  F   UNL A   1      42.202  29.413  27.203  1.00  0.00    -0.206 F 
ATOM     55  C   UNL A   1      41.152  26.238  25.814  1.00  0.00     0.006 A 
ENDBRANCH  27  48
BRANCH  39  56
ATOM     56  C   UNL A   1      44.043  27.927  34.293  1.00  0.00     0.057 A 
ATOM     57  C   UNL A   1      45.366  28.375  34.174  1.00  0.00     0.134 A 
ATOM     58  C   UNL A   1      43.829  26.701  34.935  1.00  0.00     0.134 A 
ATOM     59  F   UNL A   1      45.637  29.533  33.553  1.00  0.00    -0.206 F 
ATOM     60  C   UNL A   1      46.437  27.615  34.643  1.00  0.00     0.040 A 
ATOM     61  C   UNL A   1      44.890  25.945  35.433  1.00  0.00     0.040 A 
ATOM     62  F   UNL A   1      42.586  26.219  35.088  1.00  0.00    -0.206 F 
ATOM     63  C   UNL A   1      46.200  26.398  35.279  1.00  0.00     0.006 A 
ENDBRANCH  39  56
ENDBRANCH  13  14
ENDBRANCH   6   8
ENDBRANCH   3   4
ENDBRANCH   2   3
ENDBRANCH   1   2
BRANCH   1  64
ATOM     64  C   UNL A   1      31.802  29.215  26.442  1.00  0.00     0.002 C 
BRANCH  64  65
ATOM     65  C   UNL A   1      33.289  28.842  26.361  1.00  0.00     0.021 C 
BRANCH  65  66
ATOM     66  C   UNL A   1      33.551  27.364  26.069  1.00  0.00     0.116 C 
BRANCH  66  67
ATOM     67  N   UNL A   1      32.491  26.515  26.580  1.00  0.00    -0.356 N 
ATOM     68  C   UNL A   1      31.741  25.507  26.065  1.00  0.00     0.226 C 
ATOM     69  H   UNL A   1      32.265  26.716  27.516  1.00  0.00     0.163 HD
ATOM     70  O   UNL A   1      30.859  25.085  26.823  1.00  0.00    -0.274 OA
BRANCH  68  71
ATOM     71  C   UNL A   1      32.017  24.805  24.720  1.00  0.00     0.057 C 
ATOM     72  C   UNL A   1      31.029  23.611  24.495  1.00  0.00     0.039 C 
ATOM     73  C   UNL A   1      33.491  24.269  24.855  1.00  0.00     0.039 C 
ATOM     74  C   UNL A   1      31.288  22.374  25.350  1.00  0.00     0.119 C 
ATOM     75  C   UNL A   1      33.615  23.043  25.772  1.00  0.00     0.119 C 
ATOM     76  N   UNL A   1      32.696  22.062  25.251  1.00  0.00    -0.356 N 
BRANCH  71  77
ATOM     77  C   UNL A   1      31.944  25.684  23.437  1.00  0.00     0.054 C 
BRANCH  77  78
ATOM     78  C   UNL A   1      31.213  27.008  23.239  1.00  0.00    -0.028 A 
ATOM     79  C   UNL A   1      29.812  26.914  23.456  1.00  0.00     0.005 A 
ATOM     80  C   UNL A   1      31.692  28.242  22.774  1.00  0.00     0.044 A 
ATOM     81  C   UNL A   1      28.940  27.978  23.215  1.00  0.00     0.000 A 
ATOM     82  C   UNL A   1      30.808  29.309  22.531  1.00  0.00     0.021 A 
ATOM     83  Cl  UNL A   1      33.328  28.595  22.379  1.00  0.00    -0.084 Cl
ATOM     84  C   UNL A   1      29.440  29.180  22.743  1.00  0.00     0.002 A 
ENDBRANCH  77  78
ENDBRANCH  71  77
BRANCH  76  85
ATOM     85  C   UNL A   1      33.076  20.758  25.071  1.00  0.00     0.141 A 
ATOM     86  N   UNL A   1      32.154  19.770  24.995  1.00  0.00    -0.219 NA
ATOM     87  C   UNL A   1      34.435  20.401  25.005  1.00  0.00     0.061 A 
ATOM     88  C   UNL A   1      32.585  18.506  24.800  1.00  0.00     0.226 A 
ATOM     89  C   UNL A   1      34.729  19.060  24.832  1.00  0.00     0.142 A 
ATOM     90  C   UNL A   1      35.682  21.084  25.110  1.00  0.00     0.033 A 
ATOM     91  N   UNL A   1      33.851  18.054  24.707  1.00  0.00    -0.218 NA
ATOM     92  N   UNL A   1      36.090  18.921  24.821  1.00  0.00    -0.346 N 
ATOM     93  C   UNL A   1      36.685  20.146  25.000  1.00  0.00     0.085 A 
ATOM     94  H   UNL A   1      36.571  18.071  24.703  1.00  0.00     0.167 HD
ENDBRANCH  76  85
ENDBRANCH  68  71
ENDBRANCH  66  67
ENDBRANCH  65  66
ENDBRANCH  64  65
ENDBRANCH   1  64
TORSDOF 16
ENDMDL
MODEL 2
REMARK VINA RESULT:     -12.8      1.544      2.084
REMARK SMILES O=C(NCCCCCCNC(=O)C1(Cc2ccccc2Cl)CCN(c2ncnc3[nH]ccc23)CC1)c1ccc(-c2c3nc(c(-c4c(F)cccc4F)c4ccc([nH]4)c(-c4c(F)cccc4F)c4nc(c(-c5c(F)cccc5F)c5ccc2[nH]5)C=C4)C=C3)cc1
REMARK SMILES IDX 6 1 5 2 4 3 3 4 1 5 2 6 36 8 37 9 89 10 38 11 88 12 39 13
REMARK SMILES IDX 40 14 41 15 82 16 42 17 87 18 81 19 83 20 43 21 86 22 80 23
REMARK SMILES IDX 79 24 44 26 70 27 53 28 69 29 54 30 57 31 68 32 84 33 55 34
REMARK SMILES IDX 56 35 67 37 85 38 58 39 45 40 46 41 51 42 47 43 48 44 50 45
REMARK SMILES IDX 52 46 49 47 71 48 72 49 77 50 73 51 74 52 76 53 78 54 75 55
REMARK SMILES IDX 59 56 60 57 65 58 61 59 62 60 64 61 66 62 63 63 7 64 8 65
REMARK SMILES IDX 9 66 10 67 11 68 12 70 13 71 22 72 35 73 23 74 34 75 24 76
REMARK SMILES IDX 14 77 15 78 16 79 20 80 17 81 19 82 21 83 18 84 25 85 26 86
REMARK SMILES IDX 33 87 27 88 29 89 32 90 28 91 30 92 31 93
REMARK H PARENT 3 7 83 25 57 36 10 69 30 94
REMARK Flexibility Score: inf
ROOT
ATOM      1  C   UNL A   1      31.453  30.497  25.774  1.00  0.00     0.002 C 
ENDROOT
BRANCH   1   2
ATOM      2  C   UNL A   1      31.255  31.809  26.530  1.00  0.00     0.021 C 
BRANCH   2   3
ATOM      3  C   UNL A   1      32.541  32.413  27.081  1.00  0.00     0.116 C 
BRANCH   3   4
ATOM      4  N   UNL A   1      32.347  33.774  27.557  1.00  0.00    -0.352 N 
ATOM      5  O   UNL A   1      32.713  35.537  28.931  1.00  0.00    -0.269 OA
ATOM      6  C   UNL A   1      33.101  34.467  28.474  1.00  0.00     0.251 C 
ATOM      7  H   UNL A   1      31.580  34.258  27.174  1.00  0.00     0.163 HD
BRANCH   6   8
ATOM      8  C   UNL A   1      34.389  33.894  28.913  1.00  0.00     0.039 A 
ATOM      9  C   UNL A   1      35.556  34.186  28.202  1.00  0.00     0.014 A 
ATOM     10  C   UNL A   1      34.430  33.046  30.023  1.00  0.00     0.014 A 
ATOM     11  C   UNL A   1      36.735  33.527  28.518  1.00  0.00     0.010 A 
ATOM     12  C   UNL A   1      35.641  32.457  30.399  1.00  0.00     0.010 A 
ATOM     13  C   UNL A   1      36.799  32.680  29.638  1.00  0.00    -0.014 A 
BRANCH  13  14
ATOM     14  C   UNL A   1      38.122  32.136  30.038  1.00  0.00     0.031 A 
ATOM     15  C   UNL A   1      38.995  32.832  31.042  1.00  0.00     0.074 A 
ATOM     16  C   UNL A   1      38.501  30.957  29.506  1.00  0.00     0.049 A 
ATOM     17  N   UNL A   1      40.149  32.449  31.528  1.00  0.00    -0.248 NA
ATOM     18  C   UNL A   1      38.522  34.121  31.567  1.00  0.00     0.031 C 
ATOM     19  C   UNL A   1      37.741  30.204  28.503  1.00  0.00     0.029 A 
ATOM     20  N   UNL A   1      39.596  30.170  29.749  1.00  0.00    -0.354 N 
ATOM     21  C   UNL A   1      40.546  33.449  32.406  1.00  0.00     0.074 A 
ATOM     22  C   UNL A   1      39.521  34.471  32.367  1.00  0.00     0.031 C 
ATOM     23  C   UNL A   1      38.360  29.041  28.262  1.00  0.00     0.029 A 
ATOM     24  C   UNL A   1      39.592  28.994  29.037  1.00  0.00     0.049 A 
ATOM     25  H   UNL A   1      40.315  30.421  30.373  1.00  0.00     0.167 HD
ATOM     26  C   UNL A   1      41.660  33.501  33.176  1.00  0.00     0.037 A 
ATOM     27  C   UNL A   1      40.490  27.994  28.997  1.00  0.00     0.037 A 
ATOM     28  C   UNL A   1      42.673  32.476  33.209  1.00  0.00     0.049 A 
ATOM     29  C   UNL A   1      41.717  28.091  29.851  1.00  0.00     0.074 A 
ATOM     30  C   UNL A   1      43.832  32.433  33.967  1.00  0.00     0.029 A 
ATOM     31  N   UNL A   1      42.650  31.314  32.452  1.00  0.00    -0.354 N 
ATOM     32  N   UNL A   1      42.063  29.033  30.694  1.00  0.00    -0.248 NA
ATOM     33  C   UNL A   1      42.680  26.989  29.746  1.00  0.00     0.031 C 
ATOM     34  C   UNL A   1      44.528  31.264  33.640  1.00  0.00     0.029 A 
ATOM     35  C   UNL A   1      43.781  30.556  32.713  1.00  0.00     0.049 A 
ATOM     36  H   UNL A   1      41.937  31.065  31.822  1.00  0.00     0.167 HD
ATOM     37  C   UNL A   1      43.281  28.636  31.224  1.00  0.00     0.074 A 
ATOM     38  C   UNL A   1      43.594  27.349  30.634  1.00  0.00     0.031 C 
ATOM     39  C   UNL A   1      44.078  29.281  32.110  1.00  0.00     0.037 A 
BRANCH  26  40
ATOM     40  C   UNL A   1      41.853  34.709  34.048  1.00  0.00     0.057 A 
ATOM     41  C   UNL A   1      41.398  34.742  35.371  1.00  0.00     0.134 A 
ATOM     42  C   UNL A   1      42.570  35.821  33.584  1.00  0.00     0.134 A 
ATOM     43  F   UNL A   1      40.696  33.716  35.875  1.00  0.00    -0.206 F 
ATOM     44  C   UNL A   1      41.639  35.841  36.200  1.00  0.00     0.040 A 
ATOM     45  C   UNL A   1      42.837  36.915  34.409  1.00  0.00     0.040 A 
ATOM     46  F   UNL A   1      43.042  35.850  32.329  1.00  0.00    -0.206 F 
ATOM     47  C   UNL A   1      42.369  36.928  35.722  1.00  0.00     0.006 A 
ENDBRANCH  26  40
BRANCH  27  48
ATOM     48  C   UNL A   1      40.266  26.832  28.101  1.00  0.00     0.057 A 
ATOM     49  C   UNL A   1      39.487  25.742  28.502  1.00  0.00     0.134 A 
ATOM     50  C   UNL A   1      40.833  26.785  26.821  1.00  0.00     0.134 A 
ATOM     51  F   UNL A   1      38.929  25.723  29.722  1.00  0.00    -0.206 F 
ATOM     52  C   UNL A   1      39.297  24.636  27.673  1.00  0.00     0.040 A 
ATOM     53  C   UNL A   1      40.625  25.701  25.969  1.00  0.00     0.040 A 
ATOM     54  F   UNL A   1      41.582  27.804  26.373  1.00  0.00    -0.206 F 
ATOM     55  C   UNL A   1      39.863  24.616  26.399  1.00  0.00     0.006 A 
ENDBRANCH  27  48
BRANCH  39  56
ATOM     56  C   UNL A   1      45.351  28.590  32.496  1.00  0.00     0.057 A 
ATOM     57  C   UNL A   1      46.549  28.813  31.803  1.00  0.00     0.134 A 
ATOM     58  C   UNL A   1      45.379  27.687  33.565  1.00  0.00     0.134 A 
ATOM     59  F   UNL A   1      46.583  29.654  30.758  1.00  0.00    -0.206 F 
ATOM     60  C   UNL A   1      47.721  28.135  32.140  1.00  0.00     0.040 A 
ATOM     61  C   UNL A   1      46.552  27.024  33.929  1.00  0.00     0.040 A 
ATOM     62  F   UNL A   1      44.268  27.434  34.274  1.00  0.00    -0.206 F 
ATOM     63  C   UNL A   1      47.725  27.242  33.208  1.00  0.00     0.006 A 
ENDBRANCH  39  56
ENDBRANCH  13  14
ENDBRANCH   6   8
ENDBRANCH   3   4
ENDBRANCH   2   3
ENDBRANCH   1   2
BRANCH   1  64
ATOM     64  C   UNL A   1      31.875  29.313  26.648  1.00  0.00     0.002 C 
BRANCH  64  65
ATOM     65  C   UNL A   1      33.344  28.894  26.496  1.00  0.00     0.021 C 
BRANCH  65  66
ATOM     66  C   UNL A   1      33.543  27.429  26.106  1.00  0.00     0.116 C 
BRANCH  66  67
ATOM     67  N   UNL A   1      32.472  26.586  26.606  1.00  0.00    -0.356 N 
ATOM     68  C   UNL A   1      31.719  25.585  26.083  1.00  0.00     0.226 C 
ATOM     69  H   UNL A   1      32.239  26.787  27.541  1.00  0.00     0.163 HD
ATOM     70  O   UNL A   1      30.827  25.168  26.832  1.00  0.00    -0.274 OA
BRANCH  68  71
ATOM     71  C   UNL A   1      32.002  24.884  24.738  1.00  0.00     0.057 C 
ATOM     72  C   UNL A   1      31.015  23.690  24.508  1.00  0.00     0.039 C 
ATOM     73  C   UNL A   1      33.475  24.348  24.880  1.00  0.00     0.039 C 
ATOM     74  C   UNL A   1      31.270  22.452  25.362  1.00  0.00     0.119 C 
ATOM     75  C   UNL A   1      33.595  23.121  25.796  1.00  0.00     0.119 C 
ATOM     76  N   UNL A   1      32.679  22.141  25.270  1.00  0.00    -0.356 N 
BRANCH  71  77
ATOM     77  C   UNL A   1      31.936  25.763  23.455  1.00  0.00     0.054 C 
BRANCH  77  78
ATOM     78  C   UNL A   1      31.173  27.067  23.242  1.00  0.00    -0.028 A 
ATOM     79  C   UNL A   1      29.769  26.931  23.413  1.00  0.00     0.005 A 
ATOM     80  C   UNL A   1      31.630  28.318  22.801  1.00  0.00     0.044 A 
ATOM     81  C   UNL A   1      28.875  27.972  23.152  1.00  0.00     0.000 A 
ATOM     82  C   UNL A   1      30.724  29.361  22.537  1.00  0.00     0.021 A 
ATOM     83  Cl  UNL A   1      33.267  28.721  22.461  1.00  0.00    -0.084 Cl
ATOM     84  C   UNL A   1      29.354  29.191  22.704  1.00  0.00     0.002 A 
ENDBRANCH  77  78
ENDBRANCH  71  77
BRANCH  76  85
ATOM     85  C   UNL A   1      33.060  20.836  25.092  1.00  0.00     0.141 A 
ATOM     86  N   UNL A   1      32.139  19.846  25.031  1.00  0.00    -0.219 NA
ATOM     87  C   UNL A   1      34.419  20.483  25.010  1.00  0.00     0.061 A 
ATOM     88  C   UNL A   1      32.571  18.583  24.837  1.00  0.00     0.226 A 
ATOM     89  C   UNL A   1      34.714  19.142  24.839  1.00  0.00     0.142 A 
ATOM     90  C   UNL A   1      35.666  21.170  25.096  1.00  0.00     0.033 A 
ATOM     91  N   UNL A   1      33.837  18.133  24.730  1.00  0.00    -0.218 NA
ATOM     92  N   UNL A   1      36.076  19.006  24.812  1.00  0.00    -0.346 N 
ATOM     93  C   UNL A   1      36.669  20.233  24.978  1.00  0.00     0.085 A 
ATOM     94  H   UNL A   1      36.557  18.157  24.691  1.00  0.00     0.167 HD
ENDBRANCH  76  85
ENDBRANCH  68  71
ENDBRANCH  66  67
ENDBRANCH  65  66
ENDBRANCH  64  65
ENDBRANCH   1  64
TORSDOF 16
ENDMDL
MODEL 3
REMARK VINA RESULT:     -12.8      4.174      9.566
REMARK SMILES O=C(NCCCCCCNC(=O)C1(Cc2ccccc2Cl)CCN(c2ncnc3[nH]ccc23)CC1)c1ccc(-c2c3nc(c(-c4c(F)cccc4F)c4ccc([nH]4)c(-c4c(F)cccc4F)c4nc(c(-c5c(F)cccc5F)c5ccc2[nH]5)C=C4)C=C3)cc1
REMARK SMILES IDX 6 1 5 2 4 3 3 4 1 5 2 6 36 8 37 9 89 10 38 11 88 12 39 13
REMARK SMILES IDX 40 14 41 15 82 16 42 17 87 18 81 19 83 20 43 21 86 22 80 23
REMARK SMILES IDX 79 24 44 26 70 27 53 28 69 29 54 30 57 31 68 32 84 33 55 34
REMARK SMILES IDX 56 35 67 37 85 38 58 39 45 40 46 41 51 42 47 43 48 44 50 45
REMARK SMILES IDX 52 46 49 47 71 48 72 49 77 50 73 51 74 52 76 53 78 54 75 55
REMARK SMILES IDX 59 56 60 57 65 58 61 59 62 60 64 61 66 62 63 63 7 64 8 65
REMARK SMILES IDX 9 66 10 67 11 68 12 70 13 71 22 72 35 73 23 74 34 75 24 76
REMARK SMILES IDX 14 77 15 78 16 79 20 80 17 81 19 82 21 83 18 84 25 85 26 86
REMARK SMILES IDX 33 87 27 88 29 89 32 90 28 91 30 92 31 93
REMARK H PARENT 3 7 83 25 57 36 10 69 30 94
REMARK Flexibility Score: inf
ROOT
ATOM      1  C   UNL A   1      36.663  20.378  24.964  1.00  0.00     0.002 C 
ENDROOT
BRANCH   1   2
ATOM      2  C   UNL A   1      38.018  19.706  24.753  1.00  0.00     0.021 C 
BRANCH   2   3
ATOM      3  C   UNL A   1      39.092  20.141  25.742  1.00  0.00     0.116 C 
BRANCH   3   4
ATOM      4  N   UNL A   1      40.219  19.220  25.767  1.00  0.00    -0.352 N 
ATOM      5  O   UNL A   1      42.416  18.669  25.830  1.00  0.00    -0.269 OA
ATOM      6  C   UNL A   1      41.537  19.501  26.036  1.00  0.00     0.251 C 
ATOM      7  H   UNL A   1      40.011  18.280  25.565  1.00  0.00     0.163 HD
BRANCH   6   8
ATOM      8  C   UNL A   1      41.885  20.833  26.569  1.00  0.00     0.039 A 
ATOM      9  C   UNL A   1      41.804  21.072  27.944  1.00  0.00     0.014 A 
ATOM     10  C   UNL A   1      42.273  21.852  25.695  1.00  0.00     0.014 A 
ATOM     11  C   UNL A   1      41.979  22.361  28.428  1.00  0.00     0.010 A 
ATOM     12  C   UNL A   1      42.542  23.129  26.198  1.00  0.00     0.010 A 
ATOM     13  C   UNL A   1      42.380  23.397  27.566  1.00  0.00    -0.014 A 
BRANCH  13  14
ATOM     14  C   UNL A   1      42.723  24.715  28.157  1.00  0.00     0.031 A 
ATOM     15  C   UNL A   1      44.137  25.088  28.495  1.00  0.00     0.074 A 
ATOM     16  C   UNL A   1      41.722  25.600  28.337  1.00  0.00     0.049 A 
ATOM     17  N   UNL A   1      44.595  26.222  28.966  1.00  0.00    -0.248 NA
ATOM     18  C   UNL A   1      45.173  24.066  28.285  1.00  0.00     0.031 C 
ATOM     19  C   UNL A   1      40.307  25.334  28.065  1.00  0.00     0.029 A 
ATOM     20  N   UNL A   1      41.739  26.903  28.761  1.00  0.00    -0.354 N 
ATOM     21  C   UNL A   1      45.965  26.049  29.119  1.00  0.00     0.074 A 
ATOM     22  C   UNL A   1      46.263  24.690  28.714  1.00  0.00     0.031 C 
ATOM     23  C   UNL A   1      39.600  26.454  28.270  1.00  0.00     0.029 A 
ATOM     24  C   UNL A   1      40.498  27.494  28.753  1.00  0.00     0.049 A 
ATOM     25  H   UNL A   1      42.558  27.370  29.043  1.00  0.00     0.167 HD
ATOM     26  C   UNL A   1      46.884  26.945  29.549  1.00  0.00     0.037 A 
ATOM     27  C   UNL A   1      40.118  28.733  29.113  1.00  0.00     0.037 A 
ATOM     28  C   UNL A   1      46.577  28.297  29.947  1.00  0.00     0.049 A 
ATOM     29  C   UNL A   1      41.160  29.695  29.598  1.00  0.00     0.074 A 
ATOM     30  C   UNL A   1      47.443  29.285  30.386  1.00  0.00     0.029 A 
ATOM     31  N   UNL A   1      45.306  28.851  29.955  1.00  0.00    -0.354 N 
ATOM     32  N   UNL A   1      42.455  29.521  29.711  1.00  0.00    -0.248 NA
ATOM     33  C   UNL A   1      40.689  31.023  30.008  1.00  0.00     0.031 C 
ATOM     34  C   UNL A   1      46.691  30.424  30.694  1.00  0.00     0.029 A 
ATOM     35  C   UNL A   1      45.363  30.162  30.405  1.00  0.00     0.049 A 
ATOM     36  H   UNL A   1      44.484  28.383  29.681  1.00  0.00     0.167 HD
ATOM     37  C   UNL A   1      42.954  30.719  30.201  1.00  0.00     0.074 A 
ATOM     38  C   UNL A   1      41.827  31.621  30.327  1.00  0.00     0.031 C 
ATOM     39  C   UNL A   1      44.229  31.041  30.531  1.00  0.00     0.037 A 
BRANCH  26  40
ATOM     40  C   UNL A   1      48.317  26.501  29.622  1.00  0.00     0.057 A 
ATOM     41  C   UNL A   1      49.220  26.750  28.580  1.00  0.00     0.134 A 
ATOM     42  C   UNL A   1      48.819  25.884  30.776  1.00  0.00     0.134 A 
ATOM     43  F   UNL A   1      48.803  27.327  27.443  1.00  0.00    -0.206 F 
ATOM     44  C   UNL A   1      50.567  26.395  28.679  1.00  0.00     0.040 A 
ATOM     45  C   UNL A   1      50.168  25.544  30.897  1.00  0.00     0.040 A 
ATOM     46  F   UNL A   1      48.011  25.624  31.814  1.00  0.00    -0.206 F 
ATOM     47  C   UNL A   1      51.047  25.798  29.845  1.00  0.00     0.006 A 
ENDBRANCH  26  40
BRANCH  27  48
ATOM     48  C   UNL A   1      38.688  29.119  29.047  1.00  0.00     0.057 A 
ATOM     49  C   UNL A   1      37.856  29.033  30.168  1.00  0.00     0.134 A 
ATOM     50  C   UNL A   1      38.117  29.583  27.854  1.00  0.00     0.134 A 
ATOM     51  F   UNL A   1      38.342  28.584  31.336  1.00  0.00    -0.206 F 
ATOM     52  C   UNL A   1      36.504  29.370  30.103  1.00  0.00     0.040 A 
ATOM     53  C   UNL A   1      36.775  29.953  27.782  1.00  0.00     0.040 A 
ATOM     54  F   UNL A   1      38.863  29.699  26.746  1.00  0.00    -0.206 F 
ATOM     55  C   UNL A   1      35.961  29.838  28.907  1.00  0.00     0.006 A 
ENDBRANCH  27  48
BRANCH  39  56
ATOM     56  C   UNL A   1      44.458  32.431  31.042  1.00  0.00     0.057 A 
ATOM     57  C   UNL A   1      44.729  33.499  30.174  1.00  0.00     0.134 A 
ATOM     58  C   UNL A   1      44.416  32.706  32.414  1.00  0.00     0.134 A 
ATOM     59  F   UNL A   1      44.800  33.297  28.850  1.00  0.00    -0.206 F 
ATOM     60  C   UNL A   1      44.983  34.783  30.658  1.00  0.00     0.040 A 
ATOM     61  C   UNL A   1      44.641  33.991  32.907  1.00  0.00     0.040 A 
ATOM     62  F   UNL A   1      44.155  31.729  33.297  1.00  0.00    -0.206 F 
ATOM     63  C   UNL A   1      44.935  35.032  32.028  1.00  0.00     0.006 A 
ENDBRANCH  39  56
ENDBRANCH  13  14
ENDBRANCH   6   8
ENDBRANCH   3   4
ENDBRANCH   2   3
ENDBRANCH   1   2
BRANCH   1  64
ATOM     64  C   UNL A   1      36.603  21.845  24.530  1.00  0.00     0.002 C 
BRANCH  64  65
ATOM     65  C   UNL A   1      36.459  22.850  25.681  1.00  0.00     0.021 C 
BRANCH  65  66
ATOM     66  C   UNL A   1      35.539  24.032  25.373  1.00  0.00     0.116 C 
BRANCH  66  67
ATOM     67  N   UNL A   1      35.164  24.075  23.972  1.00  0.00    -0.356 N 
ATOM     68  C   UNL A   1      33.986  24.093  23.297  1.00  0.00     0.226 C 
ATOM     69  H   UNL A   1      35.944  24.095  23.372  1.00  0.00     0.163 HD
ATOM     70  O   UNL A   1      34.098  24.045  22.066  1.00  0.00    -0.274 OA
BRANCH  68  71
ATOM     71  C   UNL A   1      32.605  24.311  23.948  1.00  0.00     0.057 C 
ATOM     72  C   UNL A   1      31.514  24.614  22.866  1.00  0.00     0.039 C 
ATOM     73  C   UNL A   1      32.805  25.564  24.879  1.00  0.00     0.039 C 
ATOM     74  C   UNL A   1      31.585  25.999  22.231  1.00  0.00     0.119 C 
ATOM     75  C   UNL A   1      32.896  26.891  24.109  1.00  0.00     0.119 C 
ATOM     76  N   UNL A   1      31.705  26.964  23.300  1.00  0.00    -0.356 N 
BRANCH  71  77
ATOM     77  C   UNL A   1      32.046  23.152  24.823  1.00  0.00     0.054 C 
BRANCH  77  78
ATOM     78  C   UNL A   1      32.506  21.698  24.871  1.00  0.00    -0.028 A 
ATOM     79  C   UNL A   1      32.174  20.964  23.700  1.00  0.00     0.005 A 
ATOM     80  C   UNL A   1      33.089  20.970  25.920  1.00  0.00     0.044 A 
ATOM     81  C   UNL A   1      32.399  19.591  23.584  1.00  0.00     0.000 A 
ATOM     82  C   UNL A   1      33.310  19.586  25.797  1.00  0.00     0.021 A 
ATOM     83  Cl  UNL A   1      33.526  21.607  27.456  1.00  0.00    -0.084 Cl
ATOM     84  C   UNL A   1      32.963  18.897  24.641  1.00  0.00     0.002 A 
ENDBRANCH  77  78
ENDBRANCH  71  77
BRANCH  76  85
ATOM     85  C   UNL A   1      30.948  28.106  23.253  1.00  0.00     0.141 A 
ATOM     86  N   UNL A   1      30.049  28.301  22.261  1.00  0.00    -0.219 NA
ATOM     87  C   UNL A   1      31.114  29.126  24.206  1.00  0.00     0.061 A 
ATOM     88  C   UNL A   1      29.319  29.436  22.274  1.00  0.00     0.226 A 
ATOM     89  C   UNL A   1      30.316  30.249  24.077  1.00  0.00     0.142 A 
ATOM     90  C   UNL A   1      31.964  29.354  25.329  1.00  0.00     0.033 A 
ATOM     91  N   UNL A   1      29.382  30.467  23.139  1.00  0.00    -0.218 NA
ATOM     92  N   UNL A   1      30.648  31.124  25.075  1.00  0.00    -0.346 N 
ATOM     93  C   UNL A   1      31.659  30.597  25.840  1.00  0.00     0.085 A 
ATOM     94  H   UNL A   1      30.226  32.000  25.222  1.00  0.00     0.167 HD
ENDBRANCH  76  85
ENDBRANCH  68  71
ENDBRANCH  66  67
ENDBRANCH  65  66
ENDBRANCH  64  65
ENDBRANCH   1  64
TORSDOF 16
ENDMDL
