MODEL 1
REMARK VINA RESULT:     -10.9      0.000      0.000
REMARK SMILES CC[C@H](C)[C@@H](NC(=O)c1csc(NC(C)=O)n1)C(=O)NCCCCCCNC(=O)c1ccc(-c2c3nc(c(-c4c(F)cccc4F)c4ccc([nH]4)c(-c4c(F)cccc4F)c4nc(c(-c5c(F)cccc5F)c5ccc2[nH]5)C=C4)C=C3)cc1
REMARK SMILES IDX 23 1 22 2 21 3 20 4 18 5 19 6 5 8 3 9 4 10 2 11 1 12 6 13
REMARK SMILES IDX 7 14 8 16 9 17 10 18 17 19 11 20 12 21 13 22 14 23 15 25
REMARK SMILES IDX 16 26 24 27 25 28 26 29 27 30 28 31 29 33 30 34 31 35 83 36
REMARK SMILES IDX 32 37 82 38 33 39 34 40 35 41 76 42 36 43 81 44 75 45 77 46
REMARK SMILES IDX 37 47 80 48 74 49 73 50 38 52 64 53 47 54 63 55 48 56 51 57
REMARK SMILES IDX 62 58 78 59 49 60 50 61 61 63 79 64 52 65 39 66 40 67 45 68
REMARK SMILES IDX 41 69 42 70 44 71 46 72 43 73 65 74 66 75 71 76 67 77 68 78
REMARK SMILES IDX 70 79 72 80 69 81 53 82 54 83 59 84 55 85 56 86 58 87 60 88
REMARK SMILES IDX 57 89
REMARK H PARENT 20 7 6 15 13 24 27 32 77 51 51 62
REMARK Flexibility Score: inf
ROOT
ATOM      1  C   UNL A   1      37.557  21.838  24.998  1.00  0.00     0.002 C 
ENDROOT
BRANCH   1   2
ATOM      2  C   UNL A   1      36.580  22.911  24.506  1.00  0.00     0.021 C 
BRANCH   2   3
ATOM      3  C   UNL A   1      36.150  23.853  25.618  1.00  0.00     0.116 C 
BRANCH   3   4
ATOM      4  N   UNL A   1      35.454  23.108  26.646  1.00  0.00    -0.354 N 
ATOM      5  C   UNL A   1      34.122  22.884  26.819  1.00  0.00     0.242 C 
ATOM      6  O   UNL A   1      33.762  22.327  27.863  1.00  0.00    -0.273 OA
ATOM      7  H   UNL A   1      36.036  22.699  27.327  1.00  0.00     0.163 HD
BRANCH   5   8
ATOM      8  C   UNL A   1      33.094  23.455  25.823  1.00  0.00     0.174 C 
BRANCH   8   9
ATOM      9  C   UNL A   1      32.450  22.240  25.048  1.00  0.00     0.018 C 
ATOM     10  C   UNL A   1      31.762  22.648  23.737  1.00  0.00     0.010 C 
BRANCH   9  11
ATOM     11  C   UNL A   1      33.439  21.073  24.793  1.00  0.00     0.002 C 
ATOM     12  C   UNL A   1      32.787  19.876  24.111  1.00  0.00     0.004 C 
ENDBRANCH   9  11
ENDBRANCH   8   9
BRANCH   8  13
ATOM     13  N   UNL A   1      32.035  24.287  26.453  1.00  0.00    -0.339 N 
ATOM     14  C   UNL A   1      31.676  25.614  26.311  1.00  0.00     0.271 C 
ATOM     15  H   UNL A   1      31.477  23.795  27.098  1.00  0.00     0.164 HD
ATOM     16  O   UNL A   1      30.601  25.962  26.800  1.00  0.00    -0.267 OA
BRANCH  14  17
ATOM     17  C   UNL A   1      32.629  26.597  25.792  1.00  0.00     0.141 A 
ATOM     18  C   UNL A   1      32.756  26.860  24.436  1.00  0.00     0.102 A 
ATOM     19  N   UNL A   1      33.425  27.403  26.595  1.00  0.00    -0.215 NA
ATOM     20  S   UNL A   1      33.694  28.274  24.199  1.00  0.00    -0.104 S 
ATOM     21  C   UNL A   1      33.888  28.407  25.884  1.00  0.00     0.190 A 
BRANCH  21  22
ATOM     22  N   UNL A   1      34.466  29.492  26.490  1.00  0.00    -0.302 N 
ATOM     23  C   UNL A   1      33.806  30.520  27.122  1.00  0.00     0.223 C 
ATOM     24  H   UNL A   1      35.449  29.541  26.471  1.00  0.00     0.172 HD
ATOM     25  C   UNL A   1      34.740  31.581  27.653  1.00  0.00     0.114 C 
ATOM     26  O   UNL A   1      32.597  30.620  27.305  1.00  0.00    -0.275 OA
ENDBRANCH  21  22
ENDBRANCH  14  17
ENDBRANCH   8  13
ENDBRANCH   5   8
ENDBRANCH   3   4
ENDBRANCH   2   3
ENDBRANCH   1   2
BRANCH   1  27
ATOM     27  C   UNL A   1      37.099  20.401  24.721  1.00  0.00     0.002 C 
BRANCH  27  28
ATOM     28  C   UNL A   1      38.145  19.332  25.050  1.00  0.00     0.021 C 
BRANCH  28  29
ATOM     29  C   UNL A   1      39.333  19.855  25.849  1.00  0.00     0.116 C 
BRANCH  29  30
ATOM     30  N   UNL A   1      40.427  18.899  25.873  1.00  0.00    -0.352 N 
ATOM     31  C   UNL A   1      41.765  19.117  26.045  1.00  0.00     0.251 C 
ATOM     32  H   UNL A   1      40.167  17.957  25.750  1.00  0.00     0.163 HD
ATOM     33  O   UNL A   1      42.571  18.212  25.832  1.00  0.00    -0.269 OA
BRANCH  31  34
ATOM     34  C   UNL A   1      42.242  20.446  26.467  1.00  0.00     0.039 A 
ATOM     35  C   UNL A   1      42.704  21.328  25.489  1.00  0.00     0.014 A 
ATOM     36  C   UNL A   1      42.245  20.819  27.816  1.00  0.00     0.014 A 
ATOM     37  C   UNL A   1      43.132  22.601  25.861  1.00  0.00     0.010 A 
ATOM     38  C   UNL A   1      42.594  22.117  28.174  1.00  0.00     0.010 A 
ATOM     39  C   UNL A   1      43.050  23.017  27.202  1.00  0.00    -0.014 A 
BRANCH  39  40
ATOM     40  C   UNL A   1      43.439  24.397  27.579  1.00  0.00     0.031 A 
ATOM     41  C   UNL A   1      44.875  24.834  27.509  1.00  0.00     0.074 A 
ATOM     42  C   UNL A   1      42.487  25.253  27.999  1.00  0.00     0.049 A 
ATOM     43  N   UNL A   1      45.393  26.006  27.774  1.00  0.00    -0.248 NA
ATOM     44  C   UNL A   1      45.864  23.820  27.109  1.00  0.00     0.031 C 
ATOM     45  C   UNL A   1      41.069  24.924  28.170  1.00  0.00     0.029 A 
ATOM     46  N   UNL A   1      42.565  26.575  28.355  1.00  0.00    -0.354 N 
ATOM     47  C   UNL A   1      46.759  25.873  27.564  1.00  0.00     0.074 A 
ATOM     48  C   UNL A   1      47.002  24.489  27.220  1.00  0.00     0.031 C 
ATOM     49  C   UNL A   1      40.407  26.023  28.563  1.00  0.00     0.029 A 
ATOM     50  C   UNL A   1      41.356  27.122  28.706  1.00  0.00     0.049 A 
ATOM     51  H   UNL A   1      43.408  27.083  28.358  1.00  0.00     0.167 HD
ATOM     52  C   UNL A   1      47.721  26.825  27.619  1.00  0.00     0.037 A 
ATOM     53  C   UNL A   1      41.045  28.371  29.100  1.00  0.00     0.037 A 
ATOM     54  C   UNL A   1      47.474  28.203  27.958  1.00  0.00     0.049 A 
ATOM     55  C   UNL A   1      42.135  29.406  29.162  1.00  0.00     0.074 A 
ATOM     56  C   UNL A   1      48.375  29.252  28.013  1.00  0.00     0.029 A 
ATOM     57  N   UNL A   1      46.234  28.723  28.298  1.00  0.00    -0.354 N 
ATOM     58  N   UNL A   1      43.412  29.280  28.893  1.00  0.00    -0.248 NA
ATOM     59  C   UNL A   1      41.737  30.760  29.568  1.00  0.00     0.031 C 
ATOM     60  C   UNL A   1      47.689  30.397  28.432  1.00  0.00     0.029 A 
ATOM     61  C   UNL A   1      46.350  30.074  28.583  1.00  0.00     0.049 A 
ATOM     62  H   UNL A   1      45.396  28.208  28.333  1.00  0.00     0.167 HD
ATOM     63  C   UNL A   1      43.965  30.541  29.075  1.00  0.00     0.074 A 
ATOM     64  C   UNL A   1      42.878  31.422  29.447  1.00  0.00     0.031 C 
ATOM     65  C   UNL A   1      45.257  30.935  28.954  1.00  0.00     0.037 A 
BRANCH  52  66
ATOM     66  C   UNL A   1      49.126  26.413  27.286  1.00  0.00     0.057 A 
ATOM     67  C   UNL A   1      50.016  25.975  28.277  1.00  0.00     0.134 A 
ATOM     68  C   UNL A   1      49.580  26.403  25.962  1.00  0.00     0.134 A 
ATOM     69  F   UNL A   1      49.649  25.972  29.568  1.00  0.00    -0.206 F 
ATOM     70  C   UNL A   1      51.312  25.561  27.965  1.00  0.00     0.040 A 
ATOM     71  C   UNL A   1      50.866  25.964  25.635  1.00  0.00     0.040 A 
ATOM     72  F   UNL A   1      48.780  26.805  24.964  1.00  0.00    -0.206 F 
ATOM     73  C   UNL A   1      51.737  25.546  26.638  1.00  0.00     0.006 A 
ENDBRANCH  52  66
BRANCH  53  74
ATOM     74  C   UNL A   1      39.646  28.717  29.460  1.00  0.00     0.057 A 
ATOM     75  C   UNL A   1      39.170  28.563  30.767  1.00  0.00     0.134 A 
ATOM     76  C   UNL A   1      38.744  29.184  28.497  1.00  0.00     0.134 A 
ATOM     77  F   UNL A   1      39.980  28.105  31.732  1.00  0.00    -0.206 F 
ATOM     78  C   UNL A   1      37.840  28.828  31.096  1.00  0.00     0.040 A 
ATOM     79  C   UNL A   1      37.419  29.484  28.819  1.00  0.00     0.040 A 
ATOM     80  F   UNL A   1      39.140  29.365  27.228  1.00  0.00    -0.206 F 
ATOM     81  C   UNL A   1      36.961  29.293  30.120  1.00  0.00     0.006 A 
ENDBRANCH  53  74
BRANCH  65  82
ATOM     82  C   UNL A   1      45.550  32.387  29.204  1.00  0.00     0.057 A 
ATOM     83  C   UNL A   1      45.337  33.366  28.225  1.00  0.00     0.134 A 
ATOM     84  C   UNL A   1      46.047  32.811  30.443  1.00  0.00     0.134 A 
ATOM     85  F   UNL A   1      44.875  33.025  27.012  1.00  0.00    -0.206 F 
ATOM     86  C   UNL A   1      45.644  34.707  28.455  1.00  0.00     0.040 A 
ATOM     87  C   UNL A   1      46.326  34.155  30.697  1.00  0.00     0.040 A 
ATOM     88  F   UNL A   1      46.263  31.928  31.430  1.00  0.00    -0.206 F 
ATOM     89  C   UNL A   1      46.136  35.105  29.697  1.00  0.00     0.006 A 
ENDBRANCH  65  82
ENDBRANCH  39  40
ENDBRANCH  31  34
ENDBRANCH  29  30
ENDBRANCH  28  29
ENDBRANCH  27  28
ENDBRANCH   1  27
TORSDOF 18
ENDMDL
MODEL 2
REMARK VINA RESULT:     -10.8      1.619      2.157
REMARK SMILES CC[C@H](C)[C@@H](NC(=O)c1csc(NC(C)=O)n1)C(=O)NCCCCCCNC(=O)c1ccc(-c2c3nc(c(-c4c(F)cccc4F)c4ccc([nH]4)c(-c4c(F)cccc4F)c4nc(c(-c5c(F)cccc5F)c5ccc2[nH]5)C=C4)C=C3)cc1
REMARK SMILES IDX 23 1 22 2 21 3 20 4 18 5 19 6 5 8 3 9 4 10 2 11 1 12 6 13
REMARK SMILES IDX 7 14 8 16 9 17 10 18 17 19 11 20 12 21 13 22 14 23 15 25
REMARK SMILES IDX 16 26 24 27 25 28 26 29 27 30 28 31 29 33 30 34 31 35 83 36
REMARK SMILES IDX 32 37 82 38 33 39 34 40 35 41 76 42 36 43 81 44 75 45 77 46
REMARK SMILES IDX 37 47 80 48 74 49 73 50 38 52 64 53 47 54 63 55 48 56 51 57
REMARK SMILES IDX 62 58 78 59 49 60 50 61 61 63 79 64 52 65 39 66 40 67 45 68
REMARK SMILES IDX 41 69 42 70 44 71 46 72 43 73 65 74 66 75 71 76 67 77 68 78
REMARK SMILES IDX 70 79 72 80 69 81 53 82 54 83 59 84 55 85 56 86 58 87 60 88
REMARK SMILES IDX 57 89
REMARK H PARENT 20 7 6 15 13 24 27 32 77 51 51 62
REMARK Flexibility Score: inf
ROOT
ATOM      1  C   UNL A   1      36.948  21.712  24.169  1.00  0.00     0.002 C 
ENDROOT
BRANCH   1   2
ATOM      2  C   UNL A   1      37.126  22.863  25.164  1.00  0.00     0.021 C 
BRANCH   2   3
ATOM      3  C   UNL A   1      35.798  23.382  25.689  1.00  0.00     0.116 C 
BRANCH   3   4
ATOM      4  N   UNL A   1      35.310  22.504  26.733  1.00  0.00    -0.354 N 
ATOM      5  C   UNL A   1      34.047  22.065  26.992  1.00  0.00     0.242 C 
ATOM      6  O   UNL A   1      33.863  21.426  28.035  1.00  0.00    -0.273 OA
ATOM      7  H   UNL A   1      36.000  22.173  27.351  1.00  0.00     0.163 HD
BRANCH   5   8
ATOM      8  C   UNL A   1      32.867  22.495  26.098  1.00  0.00     0.174 C 
BRANCH   8   9
ATOM      9  C   UNL A   1      32.670  21.384  24.996  1.00  0.00     0.018 C 
ATOM     10  C   UNL A   1      33.234  21.779  23.623  1.00  0.00     0.010 C 
BRANCH   9  11
ATOM     11  C   UNL A   1      33.208  19.991  25.416  1.00  0.00     0.002 C 
ATOM     12  C   UNL A   1      33.321  19.018  24.248  1.00  0.00     0.004 C 
ENDBRANCH   9  11
ENDBRANCH   8   9
BRANCH   8  13
ATOM     13  N   UNL A   1      31.597  22.723  26.838  1.00  0.00    -0.339 N 
ATOM     14  C   UNL A   1      30.606  23.680  26.726  1.00  0.00     0.271 C 
ATOM     15  H   UNL A   1      31.428  22.061  27.546  1.00  0.00     0.164 HD
ATOM     16  O   UNL A   1      29.553  23.473  27.330  1.00  0.00    -0.267 OA
BRANCH  14  17
ATOM     17  C   UNL A   1      30.878  24.972  26.095  1.00  0.00     0.141 A 
ATOM     18  C   UNL A   1      30.426  25.283  24.821  1.00  0.00     0.102 A 
ATOM     19  N   UNL A   1      31.533  26.021  26.727  1.00  0.00    -0.215 NA
ATOM     20  S   UNL A   1      30.619  26.960  24.523  1.00  0.00    -0.104 S 
ATOM     21  C   UNL A   1      31.310  27.136  26.068  1.00  0.00     0.190 A 
BRANCH  21  22
ATOM     22  N   UNL A   1      31.604  28.354  26.624  1.00  0.00    -0.302 N 
ATOM     23  C   UNL A   1      32.672  29.160  26.305  1.00  0.00     0.223 C 
ATOM     24  H   UNL A   1      30.992  28.683  27.321  1.00  0.00     0.172 HD
ATOM     25  C   UNL A   1      32.725  30.422  27.134  1.00  0.00     0.114 C 
ATOM     26  O   UNL A   1      33.512  28.963  25.434  1.00  0.00    -0.275 OA
ENDBRANCH  21  22
ENDBRANCH  14  17
ENDBRANCH   8  13
ENDBRANCH   5   8
ENDBRANCH   3   4
ENDBRANCH   2   3
ENDBRANCH   1   2
BRANCH   1  27
ATOM     27  C   UNL A   1      36.850  20.329  24.824  1.00  0.00     0.002 C 
BRANCH  27  28
ATOM     28  C   UNL A   1      38.150  19.522  24.791  1.00  0.00     0.021 C 
BRANCH  28  29
ATOM     29  C   UNL A   1      39.073  19.789  25.974  1.00  0.00     0.116 C 
BRANCH  29  30
ATOM     30  N   UNL A   1      40.346  19.103  25.828  1.00  0.00    -0.352 N 
ATOM     31  C   UNL A   1      41.615  19.596  25.948  1.00  0.00     0.251 C 
ATOM     32  H   UNL A   1      40.286  18.144  25.613  1.00  0.00     0.163 HD
ATOM     33  O   UNL A   1      42.578  18.920  25.589  1.00  0.00    -0.269 OA
BRANCH  31  34
ATOM     34  C   UNL A   1      41.827  20.950  26.492  1.00  0.00     0.039 A 
ATOM     35  C   UNL A   1      41.747  21.131  27.873  1.00  0.00     0.014 A 
ATOM     36  C   UNL A   1      42.091  22.035  25.649  1.00  0.00     0.014 A 
ATOM     37  C   UNL A   1      41.975  22.396  28.413  1.00  0.00     0.010 A 
ATOM     38  C   UNL A   1      42.399  23.277  26.196  1.00  0.00     0.010 A 
ATOM     39  C   UNL A   1      42.333  23.472  27.581  1.00  0.00    -0.014 A 
BRANCH  39  40
ATOM     40  C   UNL A   1      42.644  24.796  28.170  1.00  0.00     0.031 A 
ATOM     41  C   UNL A   1      44.048  25.141  28.582  1.00  0.00     0.074 A 
ATOM     42  C   UNL A   1      41.647  25.685  28.344  1.00  0.00     0.049 A 
ATOM     43  N   UNL A   1      44.508  26.257  29.088  1.00  0.00    -0.248 NA
ATOM     44  C   UNL A   1      45.068  24.091  28.425  1.00  0.00     0.031 C 
ATOM     45  C   UNL A   1      40.234  25.441  28.042  1.00  0.00     0.029 A 
ATOM     46  N   UNL A   1      41.667  26.974  28.813  1.00  0.00    -0.354 N 
ATOM     47  C   UNL A   1      45.864  26.048  29.299  1.00  0.00     0.074 A 
ATOM     48  C   UNL A   1      46.141  24.675  28.936  1.00  0.00     0.031 C 
ATOM     49  C   UNL A   1      39.530  26.554  28.299  1.00  0.00     0.029 A 
ATOM     50  C   UNL A   1      40.433  27.577  28.816  1.00  0.00     0.049 A 
ATOM     51  H   UNL A   1      42.488  27.424  29.116  1.00  0.00     0.167 HD
ATOM     52  C   UNL A   1      46.800  26.928  29.724  1.00  0.00     0.037 A 
ATOM     53  C   UNL A   1      40.069  28.816  29.195  1.00  0.00     0.037 A 
ATOM     54  C   UNL A   1      46.519  28.296  30.081  1.00  0.00     0.049 A 
ATOM     55  C   UNL A   1      41.129  29.770  29.673  1.00  0.00     0.074 A 
ATOM     56  C   UNL A   1      47.403  29.277  30.497  1.00  0.00     0.029 A 
ATOM     57  N   UNL A   1      45.259  28.873  30.063  1.00  0.00    -0.354 N 
ATOM     58  N   UNL A   1      42.419  29.578  29.802  1.00  0.00    -0.248 NA
ATOM     59  C   UNL A   1      40.683  31.119  30.045  1.00  0.00     0.031 C 
ATOM     60  C   UNL A   1      46.670  30.436  30.774  1.00  0.00     0.029 A 
ATOM     61  C   UNL A   1      45.338  30.193  30.478  1.00  0.00     0.049 A 
ATOM     62  H   UNL A   1      44.430  28.414  29.796  1.00  0.00     0.167 HD
ATOM     63  C   UNL A   1      42.942  30.785  30.247  1.00  0.00     0.074 A 
ATOM     64  C   UNL A   1      41.832  31.711  30.336  1.00  0.00     0.031 C 
ATOM     65  C   UNL A   1      44.222  31.099  30.562  1.00  0.00     0.037 A 
BRANCH  52  66
ATOM     66  C   UNL A   1      48.220  26.446  29.810  1.00  0.00     0.057 A 
ATOM     67  C   UNL A   1      49.113  26.602  28.741  1.00  0.00     0.134 A 
ATOM     68  C   UNL A   1      48.715  25.868  30.984  1.00  0.00     0.134 A 
ATOM     69  F   UNL A   1      48.699  27.137  27.581  1.00  0.00    -0.206 F 
ATOM     70  C   UNL A   1      50.441  26.183  28.830  1.00  0.00     0.040 A 
ATOM     71  C   UNL A   1      50.050  25.471  31.095  1.00  0.00     0.040 A 
ATOM     72  F   UNL A   1      47.917  25.692  32.047  1.00  0.00    -0.206 F 
ATOM     73  C   UNL A   1      50.916  25.624  30.014  1.00  0.00     0.006 A 
ENDBRANCH  52  66
BRANCH  53  74
ATOM     74  C   UNL A   1      38.644  29.230  29.132  1.00  0.00     0.057 A 
ATOM     75  C   UNL A   1      37.821  29.184  30.264  1.00  0.00     0.134 A 
ATOM     76  C   UNL A   1      38.064  29.656  27.931  1.00  0.00     0.134 A 
ATOM     77  F   UNL A   1      38.312  28.771  31.441  1.00  0.00    -0.206 F 
ATOM     78  C   UNL A   1      36.467  29.514  30.196  1.00  0.00     0.040 A 
ATOM     79  C   UNL A   1      36.719  30.019  27.856  1.00  0.00     0.040 A 
ATOM     80  F   UNL A   1      38.801  29.733  26.813  1.00  0.00    -0.206 F 
ATOM     81  C   UNL A   1      35.913  29.935  28.988  1.00  0.00     0.006 A 
ENDBRANCH  53  74
BRANCH  65  82
ATOM     82  C   UNL A   1      44.485  32.510  31.007  1.00  0.00     0.057 A 
ATOM     83  C   UNL A   1      44.789  33.530  30.097  1.00  0.00     0.134 A 
ATOM     84  C   UNL A   1      44.428  32.852  32.365  1.00  0.00     0.134 A 
ATOM     85  F   UNL A   1      44.871  33.267  28.783  1.00  0.00    -0.206 F 
ATOM     86  C   UNL A   1      45.064  34.830  30.522  1.00  0.00     0.040 A 
ATOM     87  C   UNL A   1      44.669  34.156  32.800  1.00  0.00     0.040 A 
ATOM     88  F   UNL A   1      44.132  31.926  33.289  1.00  0.00    -0.206 F 
ATOM     89  C   UNL A   1      44.999  35.147  31.878  1.00  0.00     0.006 A 
ENDBRANCH  65  82
ENDBRANCH  39  40
ENDBRANCH  31  34
ENDBRANCH  29  30
ENDBRANCH  28  29
ENDBRANCH  27  28
ENDBRANCH   1  27
TORSDOF 18
ENDMDL
MODEL 3
REMARK VINA RESULT:     -10.8      4.610     10.134
REMARK SMILES CC[C@H](C)[C@@H](NC(=O)c1csc(NC(C)=O)n1)C(=O)NCCCCCCNC(=O)c1ccc(-c2c3nc(c(-c4c(F)cccc4F)c4ccc([nH]4)c(-c4c(F)cccc4F)c4nc(c(-c5c(F)cccc5F)c5ccc2[nH]5)C=C4)C=C3)cc1
REMARK SMILES IDX 23 1 22 2 21 3 20 4 18 5 19 6 5 8 3 9 4 10 2 11 1 12 6 13
REMARK SMILES IDX 7 14 8 16 9 17 10 18 17 19 11 20 12 21 13 22 14 23 15 25
REMARK SMILES IDX 16 26 24 27 25 28 26 29 27 30 28 31 29 33 30 34 31 35 83 36
REMARK SMILES IDX 32 37 82 38 33 39 34 40 35 41 76 42 36 43 81 44 75 45 77 46
REMARK SMILES IDX 37 47 80 48 74 49 73 50 38 52 64 53 47 54 63 55 48 56 51 57
REMARK SMILES IDX 62 58 78 59 49 60 50 61 61 63 79 64 52 65 39 66 40 67 45 68
REMARK SMILES IDX 41 69 42 70 44 71 46 72 43 73 65 74 66 75 71 76 67 77 68 78
REMARK SMILES IDX 70 79 72 80 69 81 53 82 54 83 59 84 55 85 56 86 58 87 60 88
REMARK SMILES IDX 57 89
REMARK H PARENT 20 7 6 15 13 24 27 32 77 51 51 62
REMARK Flexibility Score: inf
ROOT
ATOM      1  C   UNL A   1      32.210  29.757  27.203  1.00  0.00     0.002 C 
ENDROOT
BRANCH   1   2
ATOM      2  C   UNL A   1      31.570  28.375  27.374  1.00  0.00     0.021 C 
BRANCH   2   3
ATOM      3  C   UNL A   1      32.342  27.288  26.645  1.00  0.00     0.116 C 
BRANCH   3   4
ATOM      4  N   UNL A   1      33.296  27.892  25.737  1.00  0.00    -0.354 N 
ATOM      5  C   UNL A   1      33.324  27.908  24.376  1.00  0.00     0.242 C 
ATOM      6  O   UNL A   1      34.328  28.376  23.827  1.00  0.00    -0.273 OA
ATOM      7  H   UNL A   1      34.040  28.365  26.174  1.00  0.00     0.163 HD
BRANCH   5   8
ATOM      8  C   UNL A   1      32.215  27.215  23.560  1.00  0.00     0.174 C 
BRANCH   8   9
ATOM      9  C   UNL A   1      30.996  28.212  23.463  1.00  0.00     0.018 C 
ATOM     10  C   UNL A   1      31.098  29.189  22.282  1.00  0.00     0.010 C 
BRANCH   9  11
ATOM     11  C   UNL A   1      29.615  27.504  23.456  1.00  0.00     0.002 C 
ATOM     12  C   UNL A   1      28.474  28.427  23.045  1.00  0.00     0.004 C 
ENDBRANCH   9  11
ENDBRANCH   8   9
BRANCH   8  13
ATOM     13  N   UNL A   1      32.641  26.784  22.201  1.00  0.00    -0.339 N 
ATOM     14  C   UNL A   1      32.913  25.545  21.654  1.00  0.00     0.271 C 
ATOM     15  H   UNL A   1      32.749  27.528  21.567  1.00  0.00     0.164 HD
ATOM     16  O   UNL A   1      33.021  25.483  20.428  1.00  0.00    -0.267 OA
BRANCH  14  17
ATOM     17  C   UNL A   1      33.265  24.408  22.506  1.00  0.00     0.141 A 
ATOM     18  C   UNL A   1      32.368  23.389  22.788  1.00  0.00     0.102 A 
ATOM     19  N   UNL A   1      34.531  24.202  23.039  1.00  0.00    -0.215 NA
ATOM     20  S   UNL A   1      33.187  22.072  23.518  1.00  0.00    -0.104 S 
ATOM     21  C   UNL A   1      34.639  22.955  23.439  1.00  0.00     0.190 A 
BRANCH  21  22
ATOM     22  N   UNL A   1      35.862  22.417  23.744  1.00  0.00    -0.302 N 
ATOM     23  C   UNL A   1      36.348  22.159  25.004  1.00  0.00     0.223 C 
ATOM     24  H   UNL A   1      36.450  22.195  22.987  1.00  0.00     0.172 HD
ATOM     25  C   UNL A   1      37.750  21.598  24.991  1.00  0.00     0.114 C 
ATOM     26  O   UNL A   1      35.757  22.309  26.069  1.00  0.00    -0.275 OA
ENDBRANCH  21  22
ENDBRANCH  14  17
ENDBRANCH   8  13
ENDBRANCH   5   8
ENDBRANCH   3   4
ENDBRANCH   2   3
ENDBRANCH   1   2
BRANCH   1  27
ATOM     27  C   UNL A   1      31.482  30.663  26.204  1.00  0.00     0.002 C 
BRANCH  27  28
ATOM     28  C   UNL A   1      31.302  32.108  26.678  1.00  0.00     0.021 C 
BRANCH  28  29
ATOM     29  C   UNL A   1      32.595  32.774  27.133  1.00  0.00     0.116 C 
BRANCH  29  30
ATOM     30  N   UNL A   1      32.365  34.130  27.603  1.00  0.00    -0.352 N 
ATOM     31  C   UNL A   1      33.013  34.830  28.580  1.00  0.00     0.251 C 
ATOM     32  H   UNL A   1      31.637  34.615  27.151  1.00  0.00     0.163 HD
ATOM     33  O   UNL A   1      32.552  35.896  28.987  1.00  0.00    -0.269 OA
BRANCH  31  34
ATOM     34  C   UNL A   1      34.260  34.297  29.160  1.00  0.00     0.039 A 
ATOM     35  C   UNL A   1      34.171  33.483  30.289  1.00  0.00     0.014 A 
ATOM     36  C   UNL A   1      35.506  34.603  28.602  1.00  0.00     0.014 A 
ATOM     37  C   UNL A   1      35.333  32.942  30.837  1.00  0.00     0.010 A 
ATOM     38  C   UNL A   1      36.654  33.996  29.100  1.00  0.00     0.010 A 
ATOM     39  C   UNL A   1      36.580  33.168  30.228  1.00  0.00    -0.014 A 
BRANCH  39  40
ATOM     40  C   UNL A   1      37.803  32.531  30.774  1.00  0.00     0.031 A 
ATOM     41  C   UNL A   1      38.452  33.062  32.020  1.00  0.00     0.074 A 
ATOM     42  C   UNL A   1      38.333  31.474  30.128  1.00  0.00     0.049 A 
ATOM     43  N   UNL A   1      39.507  32.616  32.654  1.00  0.00    -0.248 NA
ATOM     44  C   UNL A   1      37.853  34.263  32.627  1.00  0.00     0.031 C 
ATOM     45  C   UNL A   1      37.828  30.909  28.874  1.00  0.00     0.029 A 
ATOM     46  N   UNL A   1      39.410  30.683  30.438  1.00  0.00    -0.354 N 
ATOM     47  C   UNL A   1      39.691  33.471  33.732  1.00  0.00     0.074 A 
ATOM     48  C   UNL A   1      38.684  34.505  33.629  1.00  0.00     0.031 C 
ATOM     49  C   UNL A   1      38.572  29.843  28.541  1.00  0.00     0.029 A 
ATOM     50  C   UNL A   1      39.625  29.670  29.536  1.00  0.00     0.049 A 
ATOM     51  H   UNL A   1      39.973  30.827  31.232  1.00  0.00     0.167 HD
ATOM     52  C   UNL A   1      40.594  33.384  34.737  1.00  0.00     0.037 A 
ATOM     53  C   UNL A   1      40.567  28.709  29.513  1.00  0.00     0.037 A 
ATOM     54  C   UNL A   1      41.592  32.350  34.838  1.00  0.00     0.049 A 
ATOM     55  C   UNL A   1      41.565  28.642  30.637  1.00  0.00     0.074 A 
ATOM     56  C   UNL A   1      42.536  32.157  35.832  1.00  0.00     0.029 A 
ATOM     57  N   UNL A   1      41.774  31.335  33.911  1.00  0.00    -0.354 N 
ATOM     58  N   UNL A   1      41.682  29.418  31.687  1.00  0.00    -0.248 NA
ATOM     59  C   UNL A   1      42.552  27.556  30.579  1.00  0.00     0.031 C 
ATOM     60  C   UNL A   1      43.318  31.051  35.483  1.00  0.00     0.029 A 
ATOM     61  C   UNL A   1      42.827  30.523  34.300  1.00  0.00     0.049 A 
ATOM     62  H   UNL A   1      41.236  31.211  33.096  1.00  0.00     0.167 HD
ATOM     63  C   UNL A   1      42.739  28.902  32.425  1.00  0.00     0.074 A 
ATOM     64  C   UNL A   1      43.207  27.729  31.717  1.00  0.00     0.031 C 
ATOM     65  C   UNL A   1      43.280  29.360  33.581  1.00  0.00     0.037 A 
BRANCH  52  66
ATOM     66  C   UNL A   1      40.533  34.424  35.819  1.00  0.00     0.057 A 
ATOM     67  C   UNL A   1      39.749  34.244  36.967  1.00  0.00     0.134 A 
ATOM     68  C   UNL A   1      41.301  35.592  35.741  1.00  0.00     0.134 A 
ATOM     69  F   UNL A   1      38.978  33.153  37.100  1.00  0.00    -0.206 F 
ATOM     70  C   UNL A   1      39.716  35.195  37.987  1.00  0.00     0.040 A 
ATOM     71  C   UNL A   1      41.298  36.538  36.769  1.00  0.00     0.040 A 
ATOM     72  F   UNL A   1      42.078  35.827  34.672  1.00  0.00    -0.206 F 
ATOM     73  C   UNL A   1      40.500  36.343  37.894  1.00  0.00     0.006 A 
ENDBRANCH  52  66
BRANCH  53  74
ATOM     74  C   UNL A   1      40.611  27.730  28.397  1.00  0.00     0.057 A 
ATOM     75  C   UNL A   1      41.368  27.971  27.244  1.00  0.00     0.134 A 
ATOM     76  C   UNL A   1      39.874  26.541  28.446  1.00  0.00     0.134 A 
ATOM     77  F   UNL A   1      42.084  29.099  27.130  1.00  0.00    -0.206 F 
ATOM     78  C   UNL A   1      41.363  27.083  26.168  1.00  0.00     0.040 A 
ATOM     79  C   UNL A   1      39.885  25.628  27.390  1.00  0.00     0.040 A 
ATOM     80  F   UNL A   1      39.137  26.244  29.527  1.00  0.00    -0.206 F 
ATOM     81  C   UNL A   1      40.622  25.905  26.241  1.00  0.00     0.006 A 
ENDBRANCH  53  74
BRANCH  65  82
ATOM     82  C   UNL A   1      44.422  28.571  34.156  1.00  0.00     0.057 A 
ATOM     83  C   UNL A   1      45.756  28.867  33.850  1.00  0.00     0.134 A 
ATOM     84  C   UNL A   1      44.182  27.505  35.033  1.00  0.00     0.134 A 
ATOM     85  F   UNL A   1      46.055  29.868  33.007  1.00  0.00    -0.206 F 
ATOM     86  C   UNL A   1      46.808  28.108  34.363  1.00  0.00     0.040 A 
ATOM     87  C   UNL A   1      45.227  26.759  35.578  1.00  0.00     0.040 A 
ATOM     88  F   UNL A   1      42.928  27.174  35.377  1.00  0.00    -0.206 F 
ATOM     89  C   UNL A   1      46.545  27.053  35.235  1.00  0.00     0.006 A 
ENDBRANCH  65  82
ENDBRANCH  39  40
ENDBRANCH  31  34
ENDBRANCH  29  30
ENDBRANCH  28  29
ENDBRANCH  27  28
ENDBRANCH   1  27
TORSDOF 18
ENDMDL
