MODEL 1
REMARK VINA RESULT:     -11.4      0.000      0.000
REMARK SMILES N#C/C(=C\c1ccc(-c2cc(C(F)(F)F)ccc2Cl)o1)C(=O)NCCCCCCNC(=O)c1ccc(-c2c3nc(c(-c4c(F)cccc4F)c4ccc([nH]4)c(-c4c(F)cccc4F)c4nc(c(-c5c(F)cccc5F)c5ccc2[nH]5)C=C4)C=C3)cc1
REMARK SMILES IDX 26 1 25 2 24 3 23 4 21 5 22 6 3 8 4 9 2 10 1 11 5 12 6 13
REMARK SMILES IDX 20 14 7 15 8 16 9 17 10 18 18 19 11 20 17 21 19 22 16 23
REMARK SMILES IDX 12 24 13 25 14 26 15 27 27 28 28 29 29 30 30 31 31 32 32 34
REMARK SMILES IDX 33 35 34 36 86 37 35 38 85 39 36 40 37 41 38 42 79 43 39 44
REMARK SMILES IDX 84 45 78 46 80 47 40 48 83 49 77 50 76 51 41 53 67 54 50 55
REMARK SMILES IDX 66 56 51 57 54 58 65 59 81 60 52 61 53 62 64 64 82 65 55 66
REMARK SMILES IDX 42 67 43 68 48 69 44 70 45 71 47 72 49 73 46 74 68 75 69 76
REMARK SMILES IDX 74 77 70 78 71 79 73 80 75 81 72 82 56 83 57 84 62 85 58 86
REMARK SMILES IDX 59 87 61 88 63 89 60 90
REMARK H PARENT 23 7 30 33 80 52 54 63
REMARK Flexibility Score: inf
ROOT
ATOM      1  C   UNL A   1      35.142  34.049  28.220  1.00  0.00     0.002 C 
ENDROOT
BRANCH   1   2
ATOM      2  C   UNL A   1      34.399  33.043  29.094  1.00  0.00     0.021 C 
BRANCH   2   3
ATOM      3  C   UNL A   1      33.973  31.754  28.404  1.00  0.00     0.116 C 
BRANCH   3   4
ATOM      4  N   UNL A   1      35.012  30.737  28.359  1.00  0.00    -0.351 N 
ATOM      5  C   UNL A   1      35.158  29.570  27.662  1.00  0.00     0.262 C 
ATOM      6  O   UNL A   1      36.195  28.931  27.842  1.00  0.00    -0.268 OA
ATOM      7  H   UNL A   1      35.770  30.930  28.956  1.00  0.00     0.163 HD
BRANCH   5   8
ATOM      8  C   UNL A   1      34.113  29.032  26.754  1.00  0.00     0.120 C 
ATOM      9  C   UNL A   1      34.312  28.582  25.488  1.00  0.00     0.072 C 
BRANCH   8  10
ATOM     10  C   UNL A   1      32.823  28.481  27.340  1.00  0.00     0.105 C 
ATOM     11  N   UNL A   1      31.753  28.025  27.827  1.00  0.00    -0.192 NA
ENDBRANCH   8  10
BRANCH   9  12
ATOM     12  C   UNL A   1      33.261  28.123  24.617  1.00  0.00     0.129 A 
ATOM     13  C   UNL A   1      33.164  26.954  23.862  1.00  0.00     0.051 A 
ATOM     14  O   UNL A   1      32.077  28.815  24.440  1.00  0.00    -0.457 OA
ATOM     15  C   UNL A   1      31.933  26.971  23.174  1.00  0.00     0.051 A 
ATOM     16  C   UNL A   1      31.283  28.112  23.577  1.00  0.00     0.136 A 
BRANCH  16  17
ATOM     17  C   UNL A   1      29.973  28.673  23.271  1.00  0.00     0.036 A 
ATOM     18  C   UNL A   1      29.891  29.973  22.741  1.00  0.00     0.026 A 
ATOM     19  C   UNL A   1      28.783  27.941  23.431  1.00  0.00     0.052 A 
ATOM     20  C   UNL A   1      28.657  30.535  22.359  1.00  0.00     0.056 A 
ATOM     21  C   UNL A   1      27.552  28.494  23.062  1.00  0.00     0.022 A 
ATOM     22  Cl  UNL A   1      28.747  26.346  24.106  1.00  0.00    -0.084 Cl
ATOM     23  C   UNL A   1      27.489  29.781  22.527  1.00  0.00     0.014 A 
BRANCH  20  24
ATOM     24  C   UNL A   1      28.605  31.926  21.772  1.00  0.00     0.416 C 
ATOM     25  F   UNL A   1      29.541  32.752  22.315  1.00  0.00    -0.166 F 
ATOM     26  F   UNL A   1      28.828  31.933  20.429  1.00  0.00    -0.166 F 
ATOM     27  F   UNL A   1      27.406  32.547  21.955  1.00  0.00    -0.166 F 
ENDBRANCH  20  24
ENDBRANCH  16  17
ENDBRANCH   9  12
ENDBRANCH   5   8
ENDBRANCH   3   4
ENDBRANCH   2   3
ENDBRANCH   1   2
BRANCH   1  28
ATOM     28  C   UNL A   1      34.535  35.454  28.146  1.00  0.00     0.002 C 
BRANCH  28  29
ATOM     29  C   UNL A   1      33.237  35.684  28.928  1.00  0.00     0.021 C 
BRANCH  29  30
ATOM     30  C   UNL A   1      33.292  36.749  30.022  1.00  0.00     0.116 C 
BRANCH  30  31
ATOM     31  N   UNL A   1      32.341  36.499  31.087  1.00  0.00    -0.352 N 
ATOM     32  C   UNL A   1      32.403  35.636  32.150  1.00  0.00     0.251 C 
ATOM     33  H   UNL A   1      31.517  37.036  31.039  1.00  0.00     0.163 HD
ATOM     34  O   UNL A   1      31.405  35.464  32.844  1.00  0.00    -0.269 OA
BRANCH  32  35
ATOM     35  C   UNL A   1      33.647  34.898  32.469  1.00  0.00     0.039 A 
ATOM     36  C   UNL A   1      34.869  35.548  32.269  1.00  0.00     0.014 A 
ATOM     37  C   UNL A   1      33.631  33.564  32.889  1.00  0.00     0.014 A 
ATOM     38  C   UNL A   1      36.068  34.880  32.526  1.00  0.00     0.010 A 
ATOM     39  C   UNL A   1      34.828  32.913  33.199  1.00  0.00     0.010 A 
ATOM     40  C   UNL A   1      36.057  33.563  33.012  1.00  0.00    -0.014 A 
BRANCH  40  41
ATOM     41  C   UNL A   1      37.332  32.871  33.327  1.00  0.00     0.031 A 
ATOM     42  C   UNL A   1      38.076  33.170  34.598  1.00  0.00     0.074 A 
ATOM     43  C   UNL A   1      37.829  31.977  32.450  1.00  0.00     0.049 A 
ATOM     44  N   UNL A   1      39.193  32.651  35.042  1.00  0.00    -0.248 NA
ATOM     45  C   UNL A   1      37.502  34.201  35.477  1.00  0.00     0.031 C 
ATOM     46  C   UNL A   1      37.230  31.637  31.158  1.00  0.00     0.029 A 
ATOM     47  N   UNL A   1      38.951  31.190  32.514  1.00  0.00    -0.354 N 
ATOM     48  C   UNL A   1      39.456  33.288  36.248  1.00  0.00     0.074 A 
ATOM     49  C   UNL A   1      38.408  34.268  36.443  1.00  0.00     0.031 C 
ATOM     50  C   UNL A   1      37.978  30.695  30.561  1.00  0.00     0.029 A 
ATOM     51  C   UNL A   1      39.117  30.379  31.418  1.00  0.00     0.049 A 
ATOM     52  H   UNL A   1      39.578  31.205  33.273  1.00  0.00     0.167 HD
ATOM     53  C   UNL A   1      40.462  33.061  37.125  1.00  0.00     0.037 A 
ATOM     54  C   UNL A   1      40.074  29.475  31.138  1.00  0.00     0.037 A 
ATOM     55  C   UNL A   1      41.496  32.076  36.942  1.00  0.00     0.049 A 
ATOM     56  C   UNL A   1      41.165  29.225  32.140  1.00  0.00     0.074 A 
ATOM     57  C   UNL A   1      42.539  31.748  37.791  1.00  0.00     0.029 A 
ATOM     58  N   UNL A   1      41.614  31.254  35.831  1.00  0.00    -0.354 N 
ATOM     59  N   UNL A   1      41.366  29.796  33.302  1.00  0.00    -0.248 NA
ATOM     60  C   UNL A   1      42.153  28.192  31.797  1.00  0.00     0.031 C 
ATOM     61  C   UNL A   1      43.303  30.746  37.182  1.00  0.00     0.029 A 
ATOM     62  C   UNL A   1      42.715  30.426  35.970  1.00  0.00     0.049 A 
ATOM     63  H   UNL A   1      41.003  31.259  35.059  1.00  0.00     0.167 HD
ATOM     64  C   UNL A   1      42.493  29.185  33.836  1.00  0.00     0.074 A 
ATOM     65  C   UNL A   1      42.915  28.181  32.882  1.00  0.00     0.031 C 
ATOM     66  C   UNL A   1      43.124  29.436  35.009  1.00  0.00     0.037 A 
BRANCH  53  67
ATOM     67  C   UNL A   1      40.486  33.886  38.379  1.00  0.00     0.057 A 
ATOM     68  C   UNL A   1      41.241  35.063  38.467  1.00  0.00     0.134 A 
ATOM     69  C   UNL A   1      39.714  33.528  39.491  1.00  0.00     0.134 A 
ATOM     70  F   UNL A   1      42.011  35.454  37.441  1.00  0.00    -0.206 F 
ATOM     71  C   UNL A   1      41.243  35.845  39.623  1.00  0.00     0.040 A 
ATOM     72  C   UNL A   1      39.689  34.315  40.645  1.00  0.00     0.040 A 
ATOM     73  F   UNL A   1      38.963  32.417  39.470  1.00  0.00    -0.206 F 
ATOM     74  C   UNL A   1      40.458  35.475  40.714  1.00  0.00     0.006 A 
ENDBRANCH  53  67
BRANCH  54  75
ATOM     75  C   UNL A   1      40.031  28.719  29.863  1.00  0.00     0.057 A 
ATOM     76  C   UNL A   1      39.298  27.532  29.753  1.00  0.00     0.134 A 
ATOM     77  C   UNL A   1      40.726  29.159  28.732  1.00  0.00     0.134 A 
ATOM     78  F   UNL A   1      38.626  27.052  30.809  1.00  0.00    -0.206 F 
ATOM     79  C   UNL A   1      39.276  26.796  28.567  1.00  0.00     0.040 A 
ATOM     80  C   UNL A   1      40.695  28.444  27.533  1.00  0.00     0.040 A 
ATOM     81  F   UNL A   1      41.439  30.294  28.774  1.00  0.00    -0.206 F 
ATOM     82  C   UNL A   1      39.974  27.255  27.451  1.00  0.00     0.006 A 
ENDBRANCH  54  75
BRANCH  66  83
ATOM     83  C   UNL A   1      44.328  28.599  35.322  1.00  0.00     0.057 A 
ATOM     84  C   UNL A   1      44.210  27.341  35.930  1.00  0.00     0.134 A 
ATOM     85  C   UNL A   1      45.615  29.048  35.005  1.00  0.00     0.134 A 
ATOM     86  F   UNL A   1      43.005  26.862  36.271  1.00  0.00    -0.206 F 
ATOM     87  C   UNL A   1      45.334  26.574  36.237  1.00  0.00     0.040 A 
ATOM     88  C   UNL A   1      46.745  28.280  35.286  1.00  0.00     0.040 A 
ATOM     89  F   UNL A   1      45.794  30.241  34.416  1.00  0.00    -0.206 F 
ATOM     90  C   UNL A   1      46.605  27.041  35.911  1.00  0.00     0.006 A 
ENDBRANCH  66  83
ENDBRANCH  40  41
ENDBRANCH  32  35
ENDBRANCH  30  31
ENDBRANCH  29  30
ENDBRANCH  28  29
ENDBRANCH   1  28
TORSDOF 17
ENDMDL
MODEL 2
REMARK VINA RESULT:     -11.4      6.453     10.448
REMARK SMILES N#C/C(=C\c1ccc(-c2cc(C(F)(F)F)ccc2Cl)o1)C(=O)NCCCCCCNC(=O)c1ccc(-c2c3nc(c(-c4c(F)cccc4F)c4ccc([nH]4)c(-c4c(F)cccc4F)c4nc(c(-c5c(F)cccc5F)c5ccc2[nH]5)C=C4)C=C3)cc1
REMARK SMILES IDX 26 1 25 2 24 3 23 4 21 5 22 6 3 8 4 9 2 10 1 11 5 12 6 13
REMARK SMILES IDX 20 14 7 15 8 16 9 17 10 18 18 19 11 20 17 21 19 22 16 23
REMARK SMILES IDX 12 24 13 25 14 26 15 27 27 28 28 29 29 30 30 31 31 32 32 34
REMARK SMILES IDX 33 35 34 36 86 37 35 38 85 39 36 40 37 41 38 42 79 43 39 44
REMARK SMILES IDX 84 45 78 46 80 47 40 48 83 49 77 50 76 51 41 53 67 54 50 55
REMARK SMILES IDX 66 56 51 57 54 58 65 59 81 60 52 61 53 62 64 64 82 65 55 66
REMARK SMILES IDX 42 67 43 68 48 69 44 70 45 71 47 72 49 73 46 74 68 75 69 76
REMARK SMILES IDX 74 77 70 78 71 79 73 80 75 81 72 82 56 83 57 84 62 85 58 86
REMARK SMILES IDX 59 87 61 88 63 89 60 90
REMARK H PARENT 23 7 30 33 80 52 54 63
REMARK Flexibility Score: inf
ROOT
ATOM      1  C   UNL A   1      33.421  28.126  24.497  1.00  0.00     0.002 C 
ENDROOT
BRANCH   1   2
ATOM      2  C   UNL A   1      32.296  28.806  23.723  1.00  0.00     0.021 C 
BRANCH   2   3
ATOM      3  C   UNL A   1      31.403  27.883  22.906  1.00  0.00     0.116 C 
BRANCH   3   4
ATOM      4  N   UNL A   1      32.059  27.300  21.745  1.00  0.00    -0.351 N 
ATOM      5  C   UNL A   1      32.674  26.102  21.514  1.00  0.00     0.262 C 
ATOM      6  O   UNL A   1      33.123  25.907  20.384  1.00  0.00    -0.268 OA
ATOM      7  H   UNL A   1      32.060  27.895  20.961  1.00  0.00     0.163 HD
BRANCH   5   8
ATOM      8  C   UNL A   1      32.862  25.071  22.565  1.00  0.00     0.120 C 
ATOM      9  C   UNL A   1      33.921  24.978  23.412  1.00  0.00     0.072 C 
BRANCH   8  10
ATOM     10  C   UNL A   1      31.653  24.327  23.109  1.00  0.00     0.105 C 
ATOM     11  N   UNL A   1      30.650  23.710  23.560  1.00  0.00    -0.192 NA
ENDBRANCH   8  10
BRANCH   9  12
ATOM     12  C   UNL A   1      34.095  23.925  24.378  1.00  0.00     0.129 A 
ATOM     13  C   UNL A   1      33.895  23.928  25.758  1.00  0.00     0.051 A 
ATOM     14  O   UNL A   1      34.465  22.639  24.029  1.00  0.00    -0.457 OA
ATOM     15  C   UNL A   1      34.205  22.646  26.256  1.00  0.00     0.051 A 
ATOM     16  C   UNL A   1      34.521  21.876  25.163  1.00  0.00     0.136 A 
BRANCH  16  17
ATOM     17  C   UNL A   1      34.881  20.473  25.003  1.00  0.00     0.036 A 
ATOM     18  C   UNL A   1      33.863  19.521  24.812  1.00  0.00     0.026 A 
ATOM     19  C   UNL A   1      36.217  20.036  24.975  1.00  0.00     0.052 A 
ATOM     20  C   UNL A   1      34.160  18.164  24.579  1.00  0.00     0.056 A 
ATOM     21  C   UNL A   1      36.521  18.688  24.753  1.00  0.00     0.022 A 
ATOM     22  Cl  UNL A   1      37.558  21.102  25.232  1.00  0.00    -0.084 Cl
ATOM     23  C   UNL A   1      35.501  17.759  24.554  1.00  0.00     0.014 A 
BRANCH  20  24
ATOM     24  C   UNL A   1      33.044  17.171  24.356  1.00  0.00     0.416 C 
ATOM     25  F   UNL A   1      32.886  16.856  23.041  1.00  0.00    -0.166 F 
ATOM     26  F   UNL A   1      33.258  15.993  25.004  1.00  0.00    -0.166 F 
ATOM     27  F   UNL A   1      31.829  17.616  24.782  1.00  0.00    -0.166 F 
ENDBRANCH  20  24
ENDBRANCH  16  17
ENDBRANCH   9  12
ENDBRANCH   5   8
ENDBRANCH   3   4
ENDBRANCH   2   3
ENDBRANCH   1   2
BRANCH   1  28
ATOM     28  C   UNL A   1      33.055  27.588  25.884  1.00  0.00     0.002 C 
BRANCH  28  29
ATOM     29  C   UNL A   1      33.151  28.576  27.052  1.00  0.00     0.021 C 
BRANCH  29  30
ATOM     30  C   UNL A   1      34.562  28.972  27.482  1.00  0.00     0.116 C 
BRANCH  30  31
ATOM     31  N   UNL A   1      34.568  30.104  28.388  1.00  0.00    -0.352 N 
ATOM     32  C   UNL A   1      35.572  30.609  29.172  1.00  0.00     0.251 C 
ATOM     33  H   UNL A   1      33.713  30.588  28.449  1.00  0.00     0.163 HD
ATOM     34  O   UNL A   1      35.310  31.481  29.996  1.00  0.00    -0.269 OA
BRANCH  32  35
ATOM     35  C   UNL A   1      36.963  30.113  29.055  1.00  0.00     0.039 A 
ATOM     36  C   UNL A   1      37.589  30.197  27.807  1.00  0.00     0.014 A 
ATOM     37  C   UNL A   1      37.627  29.506  30.126  1.00  0.00     0.014 A 
ATOM     38  C   UNL A   1      38.888  29.713  27.642  1.00  0.00     0.010 A 
ATOM     39  C   UNL A   1      38.946  29.072  29.976  1.00  0.00     0.010 A 
ATOM     40  C   UNL A   1      39.586  29.164  28.730  1.00  0.00    -0.014 A 
BRANCH  40  41
ATOM     41  C   UNL A   1      40.983  28.691  28.563  1.00  0.00     0.031 A 
ATOM     42  C   UNL A   1      41.273  27.256  28.223  1.00  0.00     0.074 A 
ATOM     43  C   UNL A   1      41.997  29.561  28.734  1.00  0.00     0.049 A 
ATOM     44  N   UNL A   1      42.428  26.673  28.024  1.00  0.00    -0.248 NA
ATOM     45  C   UNL A   1      40.117  26.353  28.110  1.00  0.00     0.031 C 
ATOM     46  C   UNL A   1      41.850  30.966  29.117  1.00  0.00     0.029 A 
ATOM     47  N   UNL A   1      43.353  29.391  28.607  1.00  0.00    -0.354 N 
ATOM     48  C   UNL A   1      42.140  25.339  27.763  1.00  0.00     0.074 A 
ATOM     49  C   UNL A   1      40.705  25.188  27.878  1.00  0.00     0.031 C 
ATOM     50  C   UNL A   1      43.065  31.536  29.172  1.00  0.00     0.029 A 
ATOM     51  C   UNL A   1      44.075  30.534  28.848  1.00  0.00     0.049 A 
ATOM     52  H   UNL A   1      43.768  28.531  28.367  1.00  0.00     0.167 HD
ATOM     53  C   UNL A   1      42.990  24.337  27.434  1.00  0.00     0.037 A 
ATOM     54  C   UNL A   1      45.402  30.753  28.804  1.00  0.00     0.037 A 
ATOM     55  C   UNL A   1      44.416  24.488  27.303  1.00  0.00     0.049 A 
ATOM     56  C   UNL A   1      46.320  29.631  28.410  1.00  0.00     0.074 A 
ATOM     57  C   UNL A   1      45.356  23.540  26.939  1.00  0.00     0.029 A 
ATOM     58  N   UNL A   1      45.107  25.669  27.527  1.00  0.00    -0.354 N 
ATOM     59  N   UNL A   1      46.026  28.389  28.111  1.00  0.00    -0.248 NA
ATOM     60  C   UNL A   1      47.754  29.945  28.334  1.00  0.00     0.031 C 
ATOM     61  C   UNL A   1      46.620  24.141  26.968  1.00  0.00     0.029 A 
ATOM     62  C   UNL A   1      46.462  25.471  27.317  1.00  0.00     0.049 A 
ATOM     63  H   UNL A   1      44.695  26.522  27.795  1.00  0.00     0.167 HD
ATOM     64  C   UNL A   1      47.232  27.778  27.797  1.00  0.00     0.074 A 
ATOM     65  C   UNL A   1      48.258  28.792  27.917  1.00  0.00     0.031 C 
ATOM     66  C   UNL A   1      47.470  26.491  27.445  1.00  0.00     0.037 A 
BRANCH  53  67
ATOM     67  C   UNL A   1      42.395  22.984  27.174  1.00  0.00     0.057 A 
ATOM     68  C   UNL A   1      42.279  22.473  25.875  1.00  0.00     0.134 A 
ATOM     69  C   UNL A   1      41.977  22.166  28.231  1.00  0.00     0.134 A 
ATOM     70  F   UNL A   1      42.651  23.211  24.818  1.00  0.00    -0.206 F 
ATOM     71  C   UNL A   1      41.750  21.203  25.634  1.00  0.00     0.040 A 
ATOM     72  C   UNL A   1      41.467  20.886  28.004  1.00  0.00     0.040 A 
ATOM     73  F   UNL A   1      42.067  22.593  29.499  1.00  0.00    -0.206 F 
ATOM     74  C   UNL A   1      41.350  20.403  26.703  1.00  0.00     0.006 A 
ENDBRANCH  53  67
BRANCH  54  75
ATOM     75  C   UNL A   1      45.943  32.098  29.115  1.00  0.00     0.057 A 
ATOM     76  C   UNL A   1      46.292  32.451  30.423  1.00  0.00     0.134 A 
ATOM     77  C   UNL A   1      46.114  33.063  28.116  1.00  0.00     0.134 A 
ATOM     78  F   UNL A   1      46.133  31.574  31.425  1.00  0.00    -0.206 F 
ATOM     79  C   UNL A   1      46.772  33.725  30.731  1.00  0.00     0.040 A 
ATOM     80  C   UNL A   1      46.614  34.333  28.407  1.00  0.00     0.040 A 
ATOM     81  F   UNL A   1      45.805  32.780  26.842  1.00  0.00    -0.206 F 
ATOM     82  C   UNL A   1      46.937  34.669  29.719  1.00  0.00     0.006 A 
ENDBRANCH  54  75
BRANCH  66  83
ATOM     83  C   UNL A   1      48.894  26.120  27.156  1.00  0.00     0.057 A 
ATOM     84  C   UNL A   1      49.448  26.278  25.879  1.00  0.00     0.134 A 
ATOM     85  C   UNL A   1      49.720  25.610  28.164  1.00  0.00     0.134 A 
ATOM     86  F   UNL A   1      48.703  26.748  24.868  1.00  0.00    -0.206 F 
ATOM     87  C   UNL A   1      50.768  25.914  25.609  1.00  0.00     0.040 A 
ATOM     88  C   UNL A   1      51.048  25.264  27.912  1.00  0.00     0.040 A 
ATOM     89  F   UNL A   1      49.251  25.442  29.410  1.00  0.00    -0.206 F 
ATOM     90  C   UNL A   1      51.572  25.409  26.629  1.00  0.00     0.006 A 
ENDBRANCH  66  83
ENDBRANCH  40  41
ENDBRANCH  32  35
ENDBRANCH  30  31
ENDBRANCH  29  30
ENDBRANCH  28  29
ENDBRANCH   1  28
TORSDOF 17
ENDMDL
MODEL 3
REMARK VINA RESULT:     -11.3      2.959      4.292
REMARK SMILES N#C/C(=C\c1ccc(-c2cc(C(F)(F)F)ccc2Cl)o1)C(=O)NCCCCCCNC(=O)c1ccc(-c2c3nc(c(-c4c(F)cccc4F)c4ccc([nH]4)c(-c4c(F)cccc4F)c4nc(c(-c5c(F)cccc5F)c5ccc2[nH]5)C=C4)C=C3)cc1
REMARK SMILES IDX 26 1 25 2 24 3 23 4 21 5 22 6 3 8 4 9 2 10 1 11 5 12 6 13
REMARK SMILES IDX 20 14 7 15 8 16 9 17 10 18 18 19 11 20 17 21 19 22 16 23
REMARK SMILES IDX 12 24 13 25 14 26 15 27 27 28 28 29 29 30 30 31 31 32 32 34
REMARK SMILES IDX 33 35 34 36 86 37 35 38 85 39 36 40 37 41 38 42 79 43 39 44
REMARK SMILES IDX 84 45 78 46 80 47 40 48 83 49 77 50 76 51 41 53 67 54 50 55
REMARK SMILES IDX 66 56 51 57 54 58 65 59 81 60 52 61 53 62 64 64 82 65 55 66
REMARK SMILES IDX 42 67 43 68 48 69 44 70 45 71 47 72 49 73 46 74 68 75 69 76
REMARK SMILES IDX 74 77 70 78 71 79 73 80 75 81 72 82 56 83 57 84 62 85 58 86
REMARK SMILES IDX 59 87 61 88 63 89 60 90
REMARK H PARENT 23 7 30 33 80 52 54 63
REMARK Flexibility Score: inf
ROOT
ATOM      1  C   UNL A   1      35.513  33.427  28.372  1.00  0.00     0.002 C 
ENDROOT
BRANCH   1   2
ATOM      2  C   UNL A   1      34.675  32.296  28.961  1.00  0.00     0.021 C 
BRANCH   2   3
ATOM      3  C   UNL A   1      34.091  31.313  27.957  1.00  0.00     0.116 C 
BRANCH   3   4
ATOM      4  N   UNL A   1      32.893  31.795  27.286  1.00  0.00    -0.351 N 
ATOM      5  C   UNL A   1      31.933  31.190  26.523  1.00  0.00     0.262 C 
ATOM      6  O   UNL A   1      31.013  31.897  26.110  1.00  0.00    -0.268 OA
ATOM      7  H   UNL A   1      32.742  32.760  27.407  1.00  0.00     0.163 HD
BRANCH   5   8
ATOM      8  C   UNL A   1      31.984  29.756  26.141  1.00  0.00     0.120 C 
ATOM      9  C   UNL A   1      32.701  29.230  25.115  1.00  0.00     0.072 C 
BRANCH   8  10
ATOM     10  C   UNL A   1      31.628  28.695  27.169  1.00  0.00     0.105 C 
ATOM     11  N   UNL A   1      31.333  27.814  28.022  1.00  0.00    -0.192 NA
ENDBRANCH   8  10
BRANCH   9  12
ATOM     12  C   UNL A   1      32.676  27.840  24.739  1.00  0.00     0.129 A 
ATOM     13  C   UNL A   1      32.089  27.216  23.639  1.00  0.00     0.051 A 
ATOM     14  O   UNL A   1      33.336  26.857  25.453  1.00  0.00    -0.457 OA
ATOM     15  C   UNL A   1      32.347  25.832  23.722  1.00  0.00     0.051 A 
ATOM     16  C   UNL A   1      33.139  25.656  24.831  1.00  0.00     0.136 A 
BRANCH  16  17
ATOM     17  C   UNL A   1      33.773  24.486  25.426  1.00  0.00     0.036 A 
ATOM     18  C   UNL A   1      35.104  24.180  25.087  1.00  0.00     0.026 A 
ATOM     19  C   UNL A   1      33.123  23.678  26.376  1.00  0.00     0.052 A 
ATOM     20  C   UNL A   1      35.787  23.105  25.689  1.00  0.00     0.056 A 
ATOM     21  C   UNL A   1      33.791  22.603  26.972  1.00  0.00     0.022 A 
ATOM     22  Cl  UNL A   1      31.476  23.928  26.850  1.00  0.00    -0.084 Cl
ATOM     23  C   UNL A   1      35.114  22.319  26.634  1.00  0.00     0.014 A 
BRANCH  20  24
ATOM     24  C   UNL A   1      37.223  22.816  25.320  1.00  0.00     0.416 C 
ATOM     25  F   UNL A   1      37.361  22.469  24.011  1.00  0.00    -0.166 F 
ATOM     26  F   UNL A   1      38.036  23.890  25.514  1.00  0.00    -0.166 F 
ATOM     27  F   UNL A   1      37.772  21.797  26.037  1.00  0.00    -0.166 F 
ENDBRANCH  20  24
ENDBRANCH  16  17
ENDBRANCH   9  12
ENDBRANCH   5   8
ENDBRANCH   3   4
ENDBRANCH   2   3
ENDBRANCH   1   2
BRANCH   1  28
ATOM     28  C   UNL A   1      34.817  34.787  28.248  1.00  0.00     0.002 C 
BRANCH  28  29
ATOM     29  C   UNL A   1      33.479  34.944  28.979  1.00  0.00     0.021 C 
BRANCH  29  30
ATOM     30  C   UNL A   1      33.229  36.299  29.636  1.00  0.00     0.116 C 
BRANCH  30  31
ATOM     31  N   UNL A   1      32.370  36.201  30.800  1.00  0.00    -0.352 N 
ATOM     32  C   UNL A   1      32.541  35.517  31.975  1.00  0.00     0.251 C 
ATOM     33  H   UNL A   1      31.529  36.708  30.737  1.00  0.00     0.163 HD
ATOM     34  O   UNL A   1      31.605  35.435  32.766  1.00  0.00    -0.269 OA
BRANCH  32  35
ATOM     35  C   UNL A   1      33.829  34.861  32.302  1.00  0.00     0.039 A 
ATOM     36  C   UNL A   1      33.804  33.516  32.685  1.00  0.00     0.014 A 
ATOM     37  C   UNL A   1      35.039  35.562  32.308  1.00  0.00     0.014 A 
ATOM     38  C   UNL A   1      34.990  32.865  33.033  1.00  0.00     0.010 A 
ATOM     39  C   UNL A   1      36.232  34.898  32.601  1.00  0.00     0.010 A 
ATOM     40  C   UNL A   1      36.217  33.546  32.974  1.00  0.00    -0.014 A 
BRANCH  40  41
ATOM     41  C   UNL A   1      37.481  32.839  33.301  1.00  0.00     0.031 A 
ATOM     42  C   UNL A   1      38.216  33.129  34.580  1.00  0.00     0.074 A 
ATOM     43  C   UNL A   1      37.976  31.940  32.429  1.00  0.00     0.049 A 
ATOM     44  N   UNL A   1      39.322  32.597  35.035  1.00  0.00    -0.248 NA
ATOM     45  C   UNL A   1      37.644  34.166  35.454  1.00  0.00     0.031 C 
ATOM     46  C   UNL A   1      37.387  31.608  31.131  1.00  0.00     0.029 A 
ATOM     47  N   UNL A   1      39.089  31.140  32.504  1.00  0.00    -0.354 N 
ATOM     48  C   UNL A   1      39.580  33.231  36.244  1.00  0.00     0.074 A 
ATOM     49  C   UNL A   1      38.541  34.223  36.428  1.00  0.00     0.031 C 
ATOM     50  C   UNL A   1      38.131  30.657  30.541  1.00  0.00     0.029 A 
ATOM     51  C   UNL A   1      39.257  30.328  31.409  1.00  0.00     0.049 A 
ATOM     52  H   UNL A   1      39.708  31.148  33.269  1.00  0.00     0.167 HD
ATOM     53  C   UNL A   1      40.575  32.993  37.131  1.00  0.00     0.037 A 
ATOM     54  C   UNL A   1      40.207  29.414  31.138  1.00  0.00     0.037 A 
ATOM     55  C   UNL A   1      41.599  31.996  36.958  1.00  0.00     0.049 A 
ATOM     56  C   UNL A   1      41.284  29.150  32.151  1.00  0.00     0.074 A 
ATOM     57  C   UNL A   1      42.630  31.656  37.817  1.00  0.00     0.029 A 
ATOM     58  N   UNL A   1      41.719  31.174  35.848  1.00  0.00    -0.354 N 
ATOM     59  N   UNL A   1      41.480  29.719  33.315  1.00  0.00    -0.248 NA
ATOM     60  C   UNL A   1      42.265  28.107  31.818  1.00  0.00     0.031 C 
ATOM     61  C   UNL A   1      43.389  30.645  37.215  1.00  0.00     0.029 A 
ATOM     62  C   UNL A   1      42.810  30.333  35.997  1.00  0.00     0.049 A 
ATOM     63  H   UNL A   1      41.116  31.185  35.069  1.00  0.00     0.167 HD
ATOM     64  C   UNL A   1      42.595  29.095  33.860  1.00  0.00     0.074 A 
ATOM     65  C   UNL A   1      43.015  28.087  32.910  1.00  0.00     0.031 C 
ATOM     66  C   UNL A   1      43.217  29.338  35.040  1.00  0.00     0.037 A 
BRANCH  53  67
ATOM     67  C   UNL A   1      40.595  33.817  38.385  1.00  0.00     0.057 A 
ATOM     68  C   UNL A   1      39.823  33.472  39.501  1.00  0.00     0.134 A 
ATOM     69  C   UNL A   1      41.426  34.939  38.495  1.00  0.00     0.134 A 
ATOM     70  F   UNL A   1      38.998  32.414  39.455  1.00  0.00    -0.206 F 
ATOM     71  C   UNL A   1      39.861  34.223  40.677  1.00  0.00     0.040 A 
ATOM     72  C   UNL A   1      41.490  35.686  39.674  1.00  0.00     0.040 A 
ATOM     73  F   UNL A   1      42.195  35.322  37.465  1.00  0.00    -0.206 F 
ATOM     74  C   UNL A   1      40.703  35.330  40.768  1.00  0.00     0.006 A 
ENDBRANCH  53  67
BRANCH  54  75
ATOM     75  C   UNL A   1      40.167  28.658  29.863  1.00  0.00     0.057 A 
ATOM     76  C   UNL A   1      40.886  29.092  28.744  1.00  0.00     0.134 A 
ATOM     77  C   UNL A   1      39.404  27.493  29.730  1.00  0.00     0.134 A 
ATOM     78  F   UNL A   1      41.621  30.212  28.806  1.00  0.00    -0.206 F 
ATOM     79  C   UNL A   1      40.831  28.406  27.529  1.00  0.00     0.040 A 
ATOM     80  C   UNL A   1      39.356  26.785  28.528  1.00  0.00     0.040 A 
ATOM     81  F   UNL A   1      38.700  27.023  30.770  1.00  0.00    -0.206 F 
ATOM     82  C   UNL A   1      40.066  27.246  27.422  1.00  0.00     0.006 A 
ENDBRANCH  54  75
BRANCH  66  83
ATOM     83  C   UNL A   1      44.408  28.488  35.364  1.00  0.00     0.057 A 
ATOM     84  C   UNL A   1      45.699  28.846  34.952  1.00  0.00     0.134 A 
ATOM     85  C   UNL A   1      44.266  27.307  36.101  1.00  0.00     0.134 A 
ATOM     86  F   UNL A   1      45.898  29.958  34.231  1.00  0.00    -0.206 F 
ATOM     87  C   UNL A   1      46.803  28.042  35.239  1.00  0.00     0.040 A 
ATOM     88  C   UNL A   1      45.365  26.506  36.414  1.00  0.00     0.040 A 
ATOM     89  F   UNL A   1      43.057  26.912  36.530  1.00  0.00    -0.206 F 
ATOM     90  C   UNL A   1      46.637  26.870  35.976  1.00  0.00     0.006 A 
ENDBRANCH  66  83
ENDBRANCH  40  41
ENDBRANCH  32  35
ENDBRANCH  30  31
ENDBRANCH  29  30
ENDBRANCH  28  29
ENDBRANCH   1  28
TORSDOF 17
ENDMDL
