MODEL 1
REMARK VINA RESULT:     -11.8      0.000      0.000
REMARK SMILES O=C(NCCCCCCNC(=O)[C@@H](CCc1ccccc1)[C@@H]1CCS(=O)(=O)C1)c1ccc(-c2c3nc(c(-c4c(F)cccc4F)c4ccc([nH]4)c(-c4c(F)cccc4F)c4nc(c(-c5c(F)cccc5F)c5ccc2[nH]5)C=C4)C=C3)cc1
REMARK SMILES IDX 7 1 6 2 5 3 4 4 3 5 1 6 2 7 29 9 30 10 82 11 31 12 81 13
REMARK SMILES IDX 32 14 33 15 34 16 75 17 35 18 80 19 74 20 76 21 36 22 79 23
REMARK SMILES IDX 73 24 72 25 37 27 63 28 46 29 62 30 47 31 50 32 61 33 77 34
REMARK SMILES IDX 48 35 49 36 60 38 78 39 51 40 38 41 39 42 44 43 40 44 41 45
REMARK SMILES IDX 43 46 45 47 42 48 64 49 65 50 70 51 66 52 67 53 69 54 71 55
REMARK SMILES IDX 68 56 52 57 53 58 58 59 54 60 55 61 57 62 59 63 56 64 8 65
REMARK SMILES IDX 9 66 10 67 11 68 12 70 13 71 14 72 15 73 16 74 17 75 21 76
REMARK SMILES IDX 18 77 20 78 19 79 22 80 23 81 28 82 24 83 25 84 26 85 27 86
REMARK H PARENT 3 8 76 26 50 37 10 69
REMARK Flexibility Score: inf
ROOT
ATOM      1  C   UNL A   1      31.886  28.713  26.300  1.00  0.00     0.002 C 
ENDROOT
BRANCH   1   2
ATOM      2  C   UNL A   1      31.971  29.875  27.301  1.00  0.00     0.002 C 
BRANCH   2   3
ATOM      3  C   UNL A   1      31.565  31.246  26.765  1.00  0.00     0.021 C 
BRANCH   3   4
ATOM      4  C   UNL A   1      32.729  32.201  26.550  1.00  0.00     0.116 C 
BRANCH   4   5
ATOM      5  N   UNL A   1      32.470  33.519  27.121  1.00  0.00    -0.352 N 
ATOM      6  O   UNL A   1      32.535  35.143  28.691  1.00  0.00    -0.269 OA
ATOM      7  C   UNL A   1      33.039  34.134  28.211  1.00  0.00     0.251 C 
ATOM      8  H   UNL A   1      31.783  34.048  26.655  1.00  0.00     0.163 HD
BRANCH   7   9
ATOM      9  C   UNL A   1      34.264  33.560  28.799  1.00  0.00     0.039 A 
ATOM     10  C   UNL A   1      34.181  32.367  29.513  1.00  0.00     0.014 A 
ATOM     11  C   UNL A   1      35.492  34.210  28.652  1.00  0.00     0.014 A 
ATOM     12  C   UNL A   1      35.269  31.933  30.246  1.00  0.00     0.010 A 
ATOM     13  C   UNL A   1      36.630  33.681  29.271  1.00  0.00     0.010 A 
ATOM     14  C   UNL A   1      36.522  32.549  30.093  1.00  0.00    -0.014 A 
BRANCH  14  15
ATOM     15  C   UNL A   1      37.696  31.889  30.717  1.00  0.00     0.031 A 
ATOM     16  C   UNL A   1      38.087  32.140  32.144  1.00  0.00     0.074 A 
ATOM     17  C   UNL A   1      38.368  30.987  29.973  1.00  0.00     0.049 A 
ATOM     18  N   UNL A   1      39.047  31.581  32.837  1.00  0.00    -0.248 NA
ATOM     19  C   UNL A   1      37.317  33.147  32.890  1.00  0.00     0.031 C 
ATOM     20  C   UNL A   1      38.088  30.681  28.565  1.00  0.00     0.029 A 
ATOM     21  N   UNL A   1      39.393  30.137  30.294  1.00  0.00    -0.354 N 
ATOM     22  C   UNL A   1      39.000  32.165  34.096  1.00  0.00     0.074 A 
ATOM     23  C   UNL A   1      37.944  33.153  34.060  1.00  0.00     0.031 C 
ATOM     24  C   UNL A   1      38.863  29.665  28.169  1.00  0.00     0.029 A 
ATOM     25  C   UNL A   1      39.766  29.318  29.256  1.00  0.00     0.049 A 
ATOM     26  H   UNL A   1      39.820  30.114  31.181  1.00  0.00     0.167 HD
ATOM     27  C   UNL A   1      39.764  31.888  35.181  1.00  0.00     0.037 A 
ATOM     28  C   UNL A   1      40.752  28.409  29.168  1.00  0.00     0.037 A 
ATOM     29  C   UNL A   1      40.822  30.908  35.199  1.00  0.00     0.049 A 
ATOM     30  C   UNL A   1      41.612  28.169  30.372  1.00  0.00     0.074 A 
ATOM     31  C   UNL A   1      41.649  30.552  36.251  1.00  0.00     0.029 A 
ATOM     32  N   UNL A   1      41.207  30.133  34.114  1.00  0.00    -0.354 N 
ATOM     33  N   UNL A   1      41.533  28.707  31.565  1.00  0.00    -0.248 NA
ATOM     34  C   UNL A   1      42.698  27.196  30.220  1.00  0.00     0.031 C 
ATOM     35  C   UNL A   1      42.570  29.608  35.788  1.00  0.00     0.029 A 
ATOM     36  C   UNL A   1      42.273  29.318  34.466  1.00  0.00     0.049 A 
ATOM     37  H   UNL A   1      40.784  30.157  33.225  1.00  0.00     0.167 HD
ATOM     38  C   UNL A   1      42.547  28.123  32.310  1.00  0.00     0.074 A 
ATOM     39  C   UNL A   1      43.197  27.161  31.445  1.00  0.00     0.031 C 
ATOM     40  C   UNL A   1      42.915  28.368  33.592  1.00  0.00     0.037 A 
BRANCH  27  41
ATOM     41  C   UNL A   1      39.493  32.659  36.444  1.00  0.00     0.057 A 
ATOM     42  C   UNL A   1      40.176  33.843  36.749  1.00  0.00     0.134 A 
ATOM     43  C   UNL A   1      38.485  32.253  37.329  1.00  0.00     0.134 A 
ATOM     44  F   UNL A   1      41.160  34.285  35.951  1.00  0.00    -0.206 F 
ATOM     45  C   UNL A   1      39.879  34.586  37.894  1.00  0.00     0.040 A 
ATOM     46  C   UNL A   1      38.159  33.002  38.461  1.00  0.00     0.040 A 
ATOM     47  F   UNL A   1      37.783  31.133  37.096  1.00  0.00    -0.206 F 
ATOM     48  C   UNL A   1      38.860  34.171  38.749  1.00  0.00     0.006 A 
ENDBRANCH  27  41
BRANCH  28  49
ATOM     49  C   UNL A   1      41.008  27.703  27.886  1.00  0.00     0.057 A 
ATOM     50  C   UNL A   1      40.467  26.440  27.622  1.00  0.00     0.134 A 
ATOM     51  C   UNL A   1      41.831  28.269  26.902  1.00  0.00     0.134 A 
ATOM     52  F   UNL A   1      39.679  25.841  28.526  1.00  0.00    -0.206 F 
ATOM     53  C   UNL A   1      40.767  25.749  26.448  1.00  0.00     0.040 A 
ATOM     54  C   UNL A   1      42.105  27.608  25.706  1.00  0.00     0.040 A 
ATOM     55  F   UNL A   1      42.369  29.484  27.084  1.00  0.00    -0.206 F 
ATOM     56  C   UNL A   1      41.585  26.335  25.483  1.00  0.00     0.006 A 
ENDBRANCH  28  49
BRANCH  40  57
ATOM     57  C   UNL A   1      44.052  27.549  34.135  1.00  0.00     0.057 A 
ATOM     58  C   UNL A   1      45.381  27.991  34.080  1.00  0.00     0.134 A 
ATOM     59  C   UNL A   1      43.814  26.293  34.707  1.00  0.00     0.134 A 
ATOM     60  F   UNL A   1      45.682  29.179  33.531  1.00  0.00    -0.206 F 
ATOM     61  C   UNL A   1      46.435  27.193  34.527  1.00  0.00     0.040 A 
ATOM     62  C   UNL A   1      44.856  25.503  35.195  1.00  0.00     0.040 A 
ATOM     63  F   UNL A   1      42.565  25.811  34.804  1.00  0.00    -0.206 F 
ATOM     64  C   UNL A   1      46.173  25.946  35.090  1.00  0.00     0.006 A 
ENDBRANCH  40  57
ENDBRANCH  14  15
ENDBRANCH   7   9
ENDBRANCH   4   5
ENDBRANCH   3   4
ENDBRANCH   2   3
ENDBRANCH   1   2
BRANCH   1  65
ATOM     65  C   UNL A   1      33.160  28.414  25.510  1.00  0.00     0.021 C 
BRANCH  65  66
ATOM     66  C   UNL A   1      33.151  28.908  24.068  1.00  0.00     0.116 C 
BRANCH  66  67
ATOM     67  N   UNL A   1      33.891  28.123  23.122  1.00  0.00    -0.356 N 
ATOM     68  C   UNL A   1      33.563  26.881  22.657  1.00  0.00     0.223 C 
ATOM     69  H   UNL A   1      34.721  28.521  22.772  1.00  0.00     0.163 HD
ATOM     70  O   UNL A   1      34.018  26.557  21.555  1.00  0.00    -0.275 OA
BRANCH  68  71
ATOM     71  C   UNL A   1      32.829  25.843  23.524  1.00  0.00     0.083 C 
BRANCH  71  72
ATOM     72  C   UNL A   1      31.431  25.566  23.002  1.00  0.00     0.018 C 
BRANCH  72  73
ATOM     73  C   UNL A   1      30.388  26.385  23.748  1.00  0.00     0.036 C 
BRANCH  73  74
ATOM     74  C   UNL A   1      29.782  27.674  23.076  1.00  0.00    -0.048 A 
ATOM     75  C   UNL A   1      28.056  27.621  23.506  1.00  0.00     0.004 A 
ATOM     76  C   UNL A   1      30.375  29.337  22.166  1.00  0.00     0.004 A 
ATOM     77  C   UNL A   1      27.084  28.956  23.123  1.00  0.00     0.000 A 
ATOM     78  C   UNL A   1      29.220  30.603  21.834  1.00  0.00     0.000 A 
ATOM     79  C   UNL A   1      27.637  30.354  22.341  1.00  0.00     0.000 A 
ENDBRANCH  73  74
ENDBRANCH  72  73
ENDBRANCH  71  72
BRANCH  71  80
ATOM     80  C   UNL A   1      33.414  24.561  24.186  1.00  0.00     0.017 C 
ATOM     81  C   UNL A   1      32.922  22.724  23.566  1.00  0.00     0.021 C 
ATOM     82  C   UNL A   1      32.972  24.865  26.057  1.00  0.00     0.141 C 
ATOM     83  C   UNL A   1      31.788  21.721  25.185  1.00  0.00     0.137 C 
ATOM     84  S   UNL A   1      31.769  23.212  26.940  1.00  0.00     0.150 S 
ATOM     85  O   UNL A   1      30.416  23.664  27.214  1.00  0.00    -0.229 OA
ATOM     86  O   UNL A   1      32.527  22.659  28.051  1.00  0.00    -0.229 OA
ENDBRANCH  71  80
ENDBRANCH  68  71
ENDBRANCH  66  67
ENDBRANCH  65  66
ENDBRANCH   1  65
TORSDOF 17
ENDMDL
MODEL 2
REMARK VINA RESULT:     -11.8      4.900      9.770
REMARK SMILES O=C(NCCCCCCNC(=O)[C@@H](CCc1ccccc1)[C@@H]1CCS(=O)(=O)C1)c1ccc(-c2c3nc(c(-c4c(F)cccc4F)c4ccc([nH]4)c(-c4c(F)cccc4F)c4nc(c(-c5c(F)cccc5F)c5ccc2[nH]5)C=C4)C=C3)cc1
REMARK SMILES IDX 7 1 6 2 5 3 4 4 3 5 1 6 2 7 29 9 30 10 82 11 31 12 81 13
REMARK SMILES IDX 32 14 33 15 34 16 75 17 35 18 80 19 74 20 76 21 36 22 79 23
REMARK SMILES IDX 73 24 72 25 37 27 63 28 46 29 62 30 47 31 50 32 61 33 77 34
REMARK SMILES IDX 48 35 49 36 60 38 78 39 51 40 38 41 39 42 44 43 40 44 41 45
REMARK SMILES IDX 43 46 45 47 42 48 64 49 65 50 70 51 66 52 67 53 69 54 71 55
REMARK SMILES IDX 68 56 52 57 53 58 58 59 54 60 55 61 57 62 59 63 56 64 8 65
REMARK SMILES IDX 9 66 10 67 11 68 12 70 13 71 14 72 15 73 16 74 17 75 21 76
REMARK SMILES IDX 18 77 20 78 19 79 22 80 23 81 28 82 24 83 25 84 26 85 27 86
REMARK H PARENT 3 8 76 26 50 37 10 69
REMARK Flexibility Score: inf
ROOT
ATOM      1  C   UNL A   1      36.797  21.930  24.356  1.00  0.00     0.002 C 
ENDROOT
BRANCH   1   2
ATOM      2  C   UNL A   1      36.529  20.551  24.976  1.00  0.00     0.002 C 
BRANCH   2   3
ATOM      3  C   UNL A   1      37.717  19.591  25.002  1.00  0.00     0.021 C 
BRANCH   3   4
ATOM      4  C   UNL A   1      38.932  20.123  25.747  1.00  0.00     0.116 C 
BRANCH   4   5
ATOM      5  N   UNL A   1      40.013  19.144  25.803  1.00  0.00    -0.352 N 
ATOM      6  O   UNL A   1      42.153  18.419  25.751  1.00  0.00    -0.269 OA
ATOM      7  C   UNL A   1      41.365  19.333  25.966  1.00  0.00     0.251 C 
ATOM      8  H   UNL A   1      39.731  18.206  25.709  1.00  0.00     0.163 HD
BRANCH   7   9
ATOM      9  C   UNL A   1      41.857  20.654  26.400  1.00  0.00     0.039 A 
ATOM     10  C   UNL A   1      42.092  21.640  25.445  1.00  0.00     0.014 A 
ATOM     11  C   UNL A   1      42.094  20.913  27.753  1.00  0.00     0.014 A 
ATOM     12  C   UNL A   1      42.752  22.798  25.807  1.00  0.00     0.010 A 
ATOM     13  C   UNL A   1      42.620  22.151  28.136  1.00  0.00     0.010 A 
ATOM     14  C   UNL A   1      42.974  23.096  27.162  1.00  0.00    -0.014 A 
BRANCH  14  15
ATOM     15  C   UNL A   1      43.463  24.457  27.497  1.00  0.00     0.031 A 
ATOM     16  C   UNL A   1      44.906  24.844  27.355  1.00  0.00     0.074 A 
ATOM     17  C   UNL A   1      42.545  25.372  27.871  1.00  0.00     0.049 A 
ATOM     18  N   UNL A   1      45.459  26.015  27.547  1.00  0.00    -0.248 NA
ATOM     19  C   UNL A   1      45.853  23.792  26.957  1.00  0.00     0.031 C 
ATOM     20  C   UNL A   1      41.115  25.098  28.064  1.00  0.00     0.029 A 
ATOM     21  N   UNL A   1      42.656  26.714  28.118  1.00  0.00    -0.354 N 
ATOM     22  C   UNL A   1      46.814  25.844  27.297  1.00  0.00     0.074 A 
ATOM     23  C   UNL A   1      47.008  24.446  26.979  1.00  0.00     0.031 C 
ATOM     24  C   UNL A   1      40.475  26.244  28.322  1.00  0.00     0.029 A 
ATOM     25  C   UNL A   1      41.457  27.314  28.417  1.00  0.00     0.049 A 
ATOM     26  H   UNL A   1      43.510  27.202  28.084  1.00  0.00     0.167 HD
ATOM     27  C   UNL A   1      47.799  26.776  27.319  1.00  0.00     0.037 A 
ATOM     28  C   UNL A   1      41.174  28.580  28.768  1.00  0.00     0.037 A 
ATOM     29  C   UNL A   1      47.593  28.166  27.649  1.00  0.00     0.049 A 
ATOM     30  C   UNL A   1      42.298  29.570  28.836  1.00  0.00     0.074 A 
ATOM     31  C   UNL A   1      48.526  29.187  27.695  1.00  0.00     0.029 A 
ATOM     32  N   UNL A   1      46.372  28.727  27.998  1.00  0.00    -0.354 N 
ATOM     33  N   UNL A   1      43.568  29.399  28.565  1.00  0.00    -0.248 NA
ATOM     34  C   UNL A   1      41.949  30.930  29.259  1.00  0.00     0.031 C 
ATOM     35  C   UNL A   1      47.883  30.351  28.129  1.00  0.00     0.029 A 
ATOM     36  C   UNL A   1      46.535  30.075  28.282  1.00  0.00     0.049 A 
ATOM     37  H   UNL A   1      45.518  28.242  28.037  1.00  0.00     0.167 HD
ATOM     38  C   UNL A   1      44.167  30.634  28.766  1.00  0.00     0.074 A 
ATOM     39  C   UNL A   1      43.111  31.551  29.141  1.00  0.00     0.031 C 
ATOM     40  C   UNL A   1      45.475  30.977  28.660  1.00  0.00     0.037 A 
BRANCH  27  41
ATOM     41  C   UNL A   1      49.195  26.328  26.985  1.00  0.00     0.057 A 
ATOM     42  C   UNL A   1      49.679  26.329  25.670  1.00  0.00     0.134 A 
ATOM     43  C   UNL A   1      50.092  25.963  27.999  1.00  0.00     0.134 A 
ATOM     44  F   UNL A   1      48.872  26.658  24.650  1.00  0.00    -0.206 F 
ATOM     45  C   UNL A   1      50.995  25.968  25.374  1.00  0.00     0.040 A 
ATOM     46  C   UNL A   1      51.418  25.628  27.719  1.00  0.00     0.040 A 
ATOM     47  F   UNL A   1      49.700  25.948  29.283  1.00  0.00    -0.206 F 
ATOM     48  C   UNL A   1      51.872  25.626  26.402  1.00  0.00     0.006 A 
ENDBRANCH  27  41
BRANCH  28  49
ATOM     49  C   UNL A   1      39.786  28.965  29.130  1.00  0.00     0.057 A 
ATOM     50  C   UNL A   1      39.317  28.873  30.445  1.00  0.00     0.134 A 
ATOM     51  C   UNL A   1      38.881  29.406  28.155  1.00  0.00     0.134 A 
ATOM     52  F   UNL A   1      40.130  28.448  31.423  1.00  0.00    -0.206 F 
ATOM     53  C   UNL A   1      37.992  29.165  30.771  1.00  0.00     0.040 A 
ATOM     54  C   UNL A   1      37.566  29.743  28.472  1.00  0.00     0.040 A 
ATOM     55  F   UNL A   1      39.268  29.533  26.877  1.00  0.00    -0.206 F 
ATOM     56  C   UNL A   1      37.113  29.606  29.783  1.00  0.00     0.006 A 
ENDBRANCH  28  49
BRANCH  40  57
ATOM     57  C   UNL A   1      45.817  32.417  28.921  1.00  0.00     0.057 A 
ATOM     58  C   UNL A   1      45.832  33.376  27.898  1.00  0.00     0.134 A 
ATOM     59  C   UNL A   1      46.152  32.846  30.211  1.00  0.00     0.134 A 
ATOM     60  F   UNL A   1      45.535  33.029  26.636  1.00  0.00    -0.206 F 
ATOM     61  C   UNL A   1      46.217  34.695  28.140  1.00  0.00     0.040 A 
ATOM     62  C   UNL A   1      46.499  34.172  30.473  1.00  0.00     0.040 A 
ATOM     63  F   UNL A   1      46.148  31.985  31.240  1.00  0.00    -0.206 F 
ATOM     64  C   UNL A   1      46.548  35.097  29.432  1.00  0.00     0.006 A 
ENDBRANCH  40  57
ENDBRANCH  14  15
ENDBRANCH   7   9
ENDBRANCH   4   5
ENDBRANCH   3   4
ENDBRANCH   2   3
ENDBRANCH   1   2
BRANCH   1  65
ATOM     65  C   UNL A   1      36.165  23.122  25.074  1.00  0.00     0.021 C 
BRANCH  65  66
ATOM     66  C   UNL A   1      35.165  23.915  24.240  1.00  0.00     0.116 C 
BRANCH  66  67
ATOM     67  N   UNL A   1      34.550  23.216  23.149  1.00  0.00    -0.356 N 
ATOM     68  C   UNL A   1      33.618  23.712  22.283  1.00  0.00     0.223 C 
ATOM     69  H   UNL A   1      34.831  22.282  23.009  1.00  0.00     0.163 HD
ATOM     70  O   UNL A   1      33.543  23.177  21.172  1.00  0.00    -0.275 OA
BRANCH  68  71
ATOM     71  C   UNL A   1      32.568  24.753  22.709  1.00  0.00     0.083 C 
BRANCH  71  72
ATOM     72  C   UNL A   1      32.600  25.979  21.814  1.00  0.00     0.018 C 
BRANCH  72  73
ATOM     73  C   UNL A   1      33.478  27.074  22.403  1.00  0.00     0.036 C 
BRANCH  73  74
ATOM     74  C   UNL A   1      33.228  27.562  23.880  1.00  0.00    -0.048 A 
ATOM     75  C   UNL A   1      32.115  28.939  23.702  1.00  0.00     0.004 A 
ATOM     76  C   UNL A   1      33.572  26.989  25.749  1.00  0.00     0.004 A 
ATOM     77  C   UNL A   1      31.450  29.628  25.100  1.00  0.00     0.000 A 
ATOM     78  C   UNL A   1      32.809  27.838  27.071  1.00  0.00     0.000 A 
ATOM     79  C   UNL A   1      31.777  29.105  26.679  1.00  0.00     0.000 A 
ENDBRANCH  73  74
ENDBRANCH  72  73
ENDBRANCH  71  72
BRANCH  71  80
ATOM     80  C   UNL A   1      31.117  24.501  23.215  1.00  0.00     0.017 C 
ATOM     81  C   UNL A   1      29.976  25.971  23.948  1.00  0.00     0.021 C 
ATOM     82  C   UNL A   1      31.407  23.066  24.497  1.00  0.00     0.141 C 
ATOM     83  C   UNL A   1      29.627  25.578  26.100  1.00  0.00     0.137 C 
ATOM     84  S   UNL A   1      30.652  23.561  26.532  1.00  0.00     0.150 S 
ATOM     85  O   UNL A   1      31.762  23.737  27.452  1.00  0.00    -0.229 OA
ATOM     86  O   UNL A   1      29.644  22.572  26.882  1.00  0.00    -0.229 OA
ENDBRANCH  71  80
ENDBRANCH  68  71
ENDBRANCH  66  67
ENDBRANCH  65  66
ENDBRANCH   1  65
TORSDOF 17
ENDMDL
MODEL 3
REMARK VINA RESULT:     -11.7      4.342      9.519
REMARK SMILES O=C(NCCCCCCNC(=O)[C@@H](CCc1ccccc1)[C@@H]1CCS(=O)(=O)C1)c1ccc(-c2c3nc(c(-c4c(F)cccc4F)c4ccc([nH]4)c(-c4c(F)cccc4F)c4nc(c(-c5c(F)cccc5F)c5ccc2[nH]5)C=C4)C=C3)cc1
REMARK SMILES IDX 7 1 6 2 5 3 4 4 3 5 1 6 2 7 29 9 30 10 82 11 31 12 81 13
REMARK SMILES IDX 32 14 33 15 34 16 75 17 35 18 80 19 74 20 76 21 36 22 79 23
REMARK SMILES IDX 73 24 72 25 37 27 63 28 46 29 62 30 47 31 50 32 61 33 77 34
REMARK SMILES IDX 48 35 49 36 60 38 78 39 51 40 38 41 39 42 44 43 40 44 41 45
REMARK SMILES IDX 43 46 45 47 42 48 64 49 65 50 70 51 66 52 67 53 69 54 71 55
REMARK SMILES IDX 68 56 52 57 53 58 58 59 54 60 55 61 57 62 59 63 56 64 8 65
REMARK SMILES IDX 9 66 10 67 11 68 12 70 13 71 14 72 15 73 16 74 17 75 21 76
REMARK SMILES IDX 18 77 20 78 19 79 22 80 23 81 28 82 24 83 25 84 26 85 27 86
REMARK H PARENT 3 8 76 26 50 37 10 69
REMARK Flexibility Score: inf
ROOT
ATOM      1  C   UNL A   1      35.826  21.216  25.116  1.00  0.00     0.002 C 
ENDROOT
BRANCH   1   2
ATOM      2  C   UNL A   1      36.466  19.829  24.960  1.00  0.00     0.002 C 
BRANCH   2   3
ATOM      3  C   UNL A   1      37.948  19.819  24.590  1.00  0.00     0.021 C 
BRANCH   3   4
ATOM      4  C   UNL A   1      38.882  20.146  25.745  1.00  0.00     0.116 C 
BRANCH   4   5
ATOM      5  N   UNL A   1      40.020  19.236  25.806  1.00  0.00    -0.352 N 
ATOM      6  O   UNL A   1      42.202  18.649  25.820  1.00  0.00    -0.269 OA
ATOM      7  C   UNL A   1      41.348  19.500  26.040  1.00  0.00     0.251 C 
ATOM      8  H   UNL A   1      39.804  18.287  25.657  1.00  0.00     0.163 HD
BRANCH   7   9
ATOM      9  C   UNL A   1      41.735  20.827  26.557  1.00  0.00     0.039 A 
ATOM     10  C   UNL A   1      41.558  21.108  27.909  1.00  0.00     0.014 A 
ATOM     11  C   UNL A   1      42.261  21.796  25.699  1.00  0.00     0.014 A 
ATOM     12  C   UNL A   1      41.710  22.404  28.363  1.00  0.00     0.010 A 
ATOM     13  C   UNL A   1      42.563  23.068  26.197  1.00  0.00     0.010 A 
ATOM     14  C   UNL A   1      42.268  23.388  27.531  1.00  0.00    -0.014 A 
BRANCH  14  15
ATOM     15  C   UNL A   1      42.629  24.689  28.148  1.00  0.00     0.031 A 
ATOM     16  C   UNL A   1      44.044  25.037  28.506  1.00  0.00     0.074 A 
ATOM     17  C   UNL A   1      41.641  25.592  28.315  1.00  0.00     0.049 A 
ATOM     18  N   UNL A   1      44.511  26.161  28.988  1.00  0.00    -0.248 NA
ATOM     19  C   UNL A   1      45.067  23.998  28.310  1.00  0.00     0.031 C 
ATOM     20  C   UNL A   1      40.223  25.351  28.022  1.00  0.00     0.029 A 
ATOM     21  N   UNL A   1      41.671  26.897  28.729  1.00  0.00    -0.354 N 
ATOM     22  C   UNL A   1      45.876  25.969  29.155  1.00  0.00     0.074 A 
ATOM     23  C   UNL A   1      46.158  24.605  28.762  1.00  0.00     0.031 C 
ATOM     24  C   UNL A   1      39.536  26.487  28.192  1.00  0.00     0.029 A 
ATOM     25  C   UNL A   1      40.440  27.505  28.704  1.00  0.00     0.049 A 
ATOM     26  H   UNL A   1      42.494  27.355  29.017  1.00  0.00     0.167 HD
ATOM     27  C   UNL A   1      46.806  26.858  29.584  1.00  0.00     0.037 A 
ATOM     28  C   UNL A   1      40.063  28.738  29.086  1.00  0.00     0.037 A 
ATOM     29  C   UNL A   1      46.508  28.212  29.984  1.00  0.00     0.049 A 
ATOM     30  C   UNL A   1      41.110  29.674  29.609  1.00  0.00     0.074 A 
ATOM     31  C   UNL A   1      47.381  29.189  30.430  1.00  0.00     0.029 A 
ATOM     32  N   UNL A   1      45.241  28.778  29.994  1.00  0.00    -0.354 N 
ATOM     33  N   UNL A   1      42.402  29.487  29.730  1.00  0.00    -0.248 NA
ATOM     34  C   UNL A   1      40.648  30.995  30.048  1.00  0.00     0.031 C 
ATOM     35  C   UNL A   1      46.637  30.325  30.766  1.00  0.00     0.029 A 
ATOM     36  C   UNL A   1      45.308  30.082  30.461  1.00  0.00     0.049 A 
ATOM     37  H   UNL A   1      44.417  28.321  29.712  1.00  0.00     0.167 HD
ATOM     38  C   UNL A   1      42.909  30.673  30.241  1.00  0.00     0.074 A 
ATOM     39  C   UNL A   1      41.790  31.583  30.366  1.00  0.00     0.031 C 
ATOM     40  C   UNL A   1      44.184  30.977  30.586  1.00  0.00     0.037 A 
BRANCH  27  41
ATOM     41  C   UNL A   1      48.235  26.397  29.655  1.00  0.00     0.057 A 
ATOM     42  C   UNL A   1      49.143  26.634  28.614  1.00  0.00     0.134 A 
ATOM     43  C   UNL A   1      48.731  25.775  30.809  1.00  0.00     0.134 A 
ATOM     44  F   UNL A   1      48.734  27.217  27.476  1.00  0.00    -0.206 F 
ATOM     45  C   UNL A   1      50.484  26.257  28.710  1.00  0.00     0.040 A 
ATOM     46  C   UNL A   1      50.076  25.419  30.929  1.00  0.00     0.040 A 
ATOM     47  F   UNL A   1      47.922  25.524  31.850  1.00  0.00    -0.206 F 
ATOM     48  C   UNL A   1      50.956  25.656  29.876  1.00  0.00     0.006 A 
ENDBRANCH  27  41
BRANCH  28  49
ATOM     49  C   UNL A   1      38.632  29.132  29.038  1.00  0.00     0.057 A 
ATOM     50  C   UNL A   1      38.050  29.641  27.872  1.00  0.00     0.134 A 
ATOM     51  C   UNL A   1      37.817  29.035  30.174  1.00  0.00     0.134 A 
ATOM     52  F   UNL A   1      38.777  29.767  26.753  1.00  0.00    -0.206 F 
ATOM     53  C   UNL A   1      36.724  30.077  27.848  1.00  0.00     0.040 A 
ATOM     54  C   UNL A   1      36.480  29.428  30.154  1.00  0.00     0.040 A 
ATOM     55  F   UNL A   1      38.307  28.541  31.321  1.00  0.00    -0.206 F 
ATOM     56  C   UNL A   1      35.934  29.968  28.991  1.00  0.00     0.006 A 
ENDBRANCH  28  49
BRANCH  40  57
ATOM     57  C   UNL A   1      44.430  32.369  31.096  1.00  0.00     0.057 A 
ATOM     58  C   UNL A   1      44.377  32.682  32.462  1.00  0.00     0.134 A 
ATOM     59  C   UNL A   1      44.708  33.415  30.206  1.00  0.00     0.134 A 
ATOM     60  F   UNL A   1      44.100  31.731  33.368  1.00  0.00    -0.206 F 
ATOM     61  C   UNL A   1      44.540  33.991  32.918  1.00  0.00     0.040 A 
ATOM     62  C   UNL A   1      44.914  34.720  30.655  1.00  0.00     0.040 A 
ATOM     63  F   UNL A   1      44.786  33.186  28.887  1.00  0.00    -0.206 F 
ATOM     64  C   UNL A   1      44.814  35.014  32.013  1.00  0.00     0.006 A 
ENDBRANCH  40  57
ENDBRANCH  14  15
ENDBRANCH   7   9
ENDBRANCH   4   5
ENDBRANCH   3   4
ENDBRANCH   2   3
ENDBRANCH   1   2
BRANCH   1  65
ATOM     65  C   UNL A   1      35.140  21.491  26.454  1.00  0.00     0.021 C 
BRANCH  65  66
ATOM     66  C   UNL A   1      34.853  22.961  26.737  1.00  0.00     0.116 C 
BRANCH  66  67
ATOM     67  N   UNL A   1      33.617  23.251  27.406  1.00  0.00    -0.356 N 
ATOM     68  C   UNL A   1      32.400  23.455  26.820  1.00  0.00     0.223 C 
ATOM     69  H   UNL A   1      33.650  23.307  28.388  1.00  0.00     0.163 HD
ATOM     70  O   UNL A   1      31.401  23.233  27.512  1.00  0.00    -0.275 OA
BRANCH  68  71
ATOM     71  C   UNL A   1      32.249  24.114  25.438  1.00  0.00     0.083 C 
BRANCH  71  72
ATOM     72  C   UNL A   1      31.248  23.372  24.570  1.00  0.00     0.018 C 
BRANCH  72  73
ATOM     73  C   UNL A   1      31.946  22.478  23.557  1.00  0.00     0.036 C 
BRANCH  73  74
ATOM     74  C   UNL A   1      32.130  20.944  23.866  1.00  0.00    -0.048 A 
ATOM     75  C   UNL A   1      32.100  20.169  22.264  1.00  0.00     0.004 A 
ATOM     76  C   UNL A   1      32.589  19.742  25.378  1.00  0.00     0.004 A 
ATOM     77  C   UNL A   1      32.463  18.517  22.158  1.00  0.00     0.000 A 
ATOM     78  C   UNL A   1      32.913  18.053  25.076  1.00  0.00     0.000 A 
ATOM     79  C   UNL A   1      32.847  17.529  23.480  1.00  0.00     0.000 A 
ENDBRANCH  73  74
ENDBRANCH  72  73
ENDBRANCH  71  72
BRANCH  71  80
ATOM     80  C   UNL A   1      32.229  25.633  25.096  1.00  0.00     0.017 C 
ATOM     81  C   UNL A   1      30.598  26.538  24.373  1.00  0.00     0.021 C 
ATOM     82  C   UNL A   1      33.757  25.774  23.900  1.00  0.00     0.141 C 
ATOM     83  C   UNL A   1      31.023  27.194  22.300  1.00  0.00     0.137 C 
ATOM     84  S   UNL A   1      33.226  26.638  21.918  1.00  0.00     0.150 S 
ATOM     85  O   UNL A   1      33.326  25.624  20.883  1.00  0.00    -0.229 OA
ATOM     86  O   UNL A   1      34.006  27.853  21.742  1.00  0.00    -0.229 OA
ENDBRANCH  71  80
ENDBRANCH  68  71
ENDBRANCH  66  67
ENDBRANCH  65  66
ENDBRANCH   1  65
TORSDOF 17
ENDMDL
