MODEL 1
REMARK VINA RESULT:      -9.1      0.000      0.000
REMARK SMILES Cc1ncc(C(=O)NCCCCCCNC(=O)c2ccc(-c3c4nc(c(-c5c(F)cccc5F)c5ccc([nH]5)c(-c5c(F)cccc5F)c5nc(c(-c6c(F)cccc6F)c6ccc3[nH]6)C=C5)C=C4)cc2)cc1C#N
REMARK SMILES IDX 12 1 11 2 10 3 9 4 8 5 6 6 7 7 5 9 1 10 2 11 3 12 73 13 4 14
REMARK SMILES IDX 72 15 74 16 75 17 13 18 14 19 15 20 16 21 17 23 18 24 19 25
REMARK SMILES IDX 71 26 20 27 70 28 21 29 22 30 23 31 64 32 24 33 69 34 63 35
REMARK SMILES IDX 65 36 25 37 68 38 62 39 61 40 26 42 52 43 35 44 51 45 36 46
REMARK SMILES IDX 39 47 50 48 66 49 37 50 38 51 49 53 67 54 40 55 27 56 28 57
REMARK SMILES IDX 33 58 29 59 30 60 32 61 34 62 31 63 53 64 54 65 59 66 55 67
REMARK SMILES IDX 56 68 58 69 60 70 57 71 41 72 42 73 47 74 43 75 44 76 46 77
REMARK SMILES IDX 48 78 45 79
REMARK H PARENT 8 8 15 22 65 41 39 52
REMARK Flexibility Score: inf
ROOT
ATOM      1  C   UNL A   1      33.981  36.601  33.113  1.00  0.00     0.002 C 
ENDROOT
BRANCH   1   2
ATOM      2  C   UNL A   1      35.079  35.529  33.053  1.00  0.00     0.002 C 
BRANCH   2   3
ATOM      3  C   UNL A   1      35.179  34.659  34.314  1.00  0.00     0.021 C 
BRANCH   3   4
ATOM      4  C   UNL A   1      36.305  33.629  34.218  1.00  0.00     0.116 C 
BRANCH   4   5
ATOM      5  N   UNL A   1      37.060  33.609  35.453  1.00  0.00    -0.352 N 
ATOM      6  C   UNL A   1      38.016  32.780  35.967  1.00  0.00     0.252 C 
ATOM      7  O   UNL A   1      38.436  33.051  37.093  1.00  0.00    -0.269 OA
ATOM      8  H   UNL A   1      36.835  34.356  36.053  1.00  0.00     0.163 HD
BRANCH   6   9
ATOM      9  C   UNL A   1      38.604  31.619  35.251  1.00  0.00     0.059 A 
ATOM     10  C   UNL A   1      40.829  28.490  33.354  1.00  0.00     0.068 C 
ATOM     11  C   UNL A   1      40.017  29.582  33.988  1.00  0.00     0.055 A 
ATOM     12  N   UNL A   1      40.660  30.359  34.892  1.00  0.00    -0.259 NA
ATOM     13  C   UNL A   1      38.672  29.772  33.680  1.00  0.00     0.074 A 
ATOM     14  C   UNL A   1      39.952  31.358  35.486  1.00  0.00     0.125 A 
ATOM     15  C   UNL A   1      37.956  30.762  34.365  1.00  0.00     0.036 A 
BRANCH  13  16
ATOM     16  C   UNL A   1      38.013  29.012  32.660  1.00  0.00     0.101 C 
ATOM     17  N   UNL A   1      37.444  28.429  31.836  1.00  0.00    -0.192 NA
ENDBRANCH  13  16
ENDBRANCH   6   9
ENDBRANCH   4   5
ENDBRANCH   3   4
ENDBRANCH   2   3
ENDBRANCH   1   2
BRANCH   1  18
ATOM     18  C   UNL A   1      32.957  36.510  31.981  1.00  0.00     0.021 C 
BRANCH  18  19
ATOM     19  C   UNL A   1      33.601  36.403  30.606  1.00  0.00     0.116 C 
BRANCH  19  20
ATOM     20  N   UNL A   1      32.773  35.618  29.702  1.00  0.00    -0.352 N 
ATOM     21  C   UNL A   1      33.143  34.550  28.926  1.00  0.00     0.251 C 
ATOM     22  H   UNL A   1      31.829  35.889  29.639  1.00  0.00     0.163 HD
ATOM     23  O   UNL A   1      32.431  34.150  28.013  1.00  0.00    -0.269 OA
BRANCH  21  24
ATOM     24  C   UNL A   1      34.429  33.896  29.216  1.00  0.00     0.039 A 
ATOM     25  C   UNL A   1      35.537  34.181  28.418  1.00  0.00     0.014 A 
ATOM     26  C   UNL A   1      34.530  33.033  30.313  1.00  0.00     0.014 A 
ATOM     27  C   UNL A   1      36.771  33.623  28.748  1.00  0.00     0.010 A 
ATOM     28  C   UNL A   1      35.773  32.538  30.681  1.00  0.00     0.010 A 
ATOM     29  C   UNL A   1      36.898  32.814  29.889  1.00  0.00    -0.014 A 
BRANCH  29  30
ATOM     30  C   UNL A   1      38.191  32.180  30.226  1.00  0.00     0.031 A 
ATOM     31  C   UNL A   1      39.131  32.887  31.158  1.00  0.00     0.074 A 
ATOM     32  C   UNL A   1      38.525  30.995  29.683  1.00  0.00     0.049 A 
ATOM     33  N   UNL A   1      40.316  32.519  31.575  1.00  0.00    -0.248 NA
ATOM     34  C   UNL A   1      38.688  34.190  31.678  1.00  0.00     0.031 C 
ATOM     35  C   UNL A   1      37.700  30.227  28.749  1.00  0.00     0.029 A 
ATOM     36  N   UNL A   1      39.653  30.233  29.839  1.00  0.00    -0.354 N 
ATOM     37  C   UNL A   1      40.752  33.539  32.409  1.00  0.00     0.074 A 
ATOM     38  C   UNL A   1      39.741  34.572  32.383  1.00  0.00     0.031 C 
ATOM     39  C   UNL A   1      38.343  29.091  28.432  1.00  0.00     0.029 A 
ATOM     40  C   UNL A   1      39.636  29.069  29.109  1.00  0.00     0.049 A 
ATOM     41  H   UNL A   1      40.404  30.493  30.419  1.00  0.00     0.167 HD
ATOM     42  C   UNL A   1      41.881  33.597  33.153  1.00  0.00     0.037 A 
ATOM     43  C   UNL A   1      40.569  28.104  28.996  1.00  0.00     0.037 A 
ATOM     44  C   UNL A   1      42.890  32.573  33.162  1.00  0.00     0.049 A 
ATOM     45  C   UNL A   1      41.854  28.236  29.773  1.00  0.00     0.074 A 
ATOM     46  C   UNL A   1      44.059  32.523  33.899  1.00  0.00     0.029 A 
ATOM     47  N   UNL A   1      42.857  31.426  32.384  1.00  0.00    -0.354 N 
ATOM     48  N   UNL A   1      42.226  29.172  30.613  1.00  0.00    -0.248 NA
ATOM     49  C   UNL A   1      42.846  27.169  29.586  1.00  0.00     0.031 C 
ATOM     50  C   UNL A   1      44.768  31.381  33.513  1.00  0.00     0.029 A 
ATOM     51  C   UNL A   1      44.004  30.679  32.595  1.00  0.00     0.049 A 
ATOM     52  H   UNL A   1      42.126  31.179  31.772  1.00  0.00     0.167 HD
ATOM     53  C   UNL A   1      43.478  28.787  31.080  1.00  0.00     0.074 A 
ATOM     54  C   UNL A   1      43.788  27.523  30.447  1.00  0.00     0.031 C 
ATOM     55  C   UNL A   1      44.299  29.422  31.955  1.00  0.00     0.037 A 
BRANCH  42  56
ATOM     56  C   UNL A   1      42.082  34.820  33.999  1.00  0.00     0.057 A 
ATOM     57  C   UNL A   1      42.637  35.984  33.453  1.00  0.00     0.134 A 
ATOM     58  C   UNL A   1      41.738  34.847  35.359  1.00  0.00     0.134 A 
ATOM     59  F   UNL A   1      42.996  36.027  32.161  1.00  0.00    -0.206 F 
ATOM     60  C   UNL A   1      42.839  37.129  34.225  1.00  0.00     0.040 A 
ATOM     61  C   UNL A   1      41.903  35.997  36.132  1.00  0.00     0.040 A 
ATOM     62  F   UNL A   1      41.189  33.771  35.943  1.00  0.00    -0.206 F 
ATOM     63  C   UNL A   1      42.462  37.141  35.566  1.00  0.00     0.006 A 
ENDBRANCH  42  56
BRANCH  43  64
ATOM     64  C   UNL A   1      40.340  26.928  28.118  1.00  0.00     0.057 A 
ATOM     65  C   UNL A   1      39.520  25.866  28.517  1.00  0.00     0.134 A 
ATOM     66  C   UNL A   1      40.883  26.870  26.828  1.00  0.00     0.134 A 
ATOM     67  F   UNL A   1      38.976  25.853  29.743  1.00  0.00    -0.206 F 
ATOM     68  C   UNL A   1      39.240  24.795  27.666  1.00  0.00     0.040 A 
ATOM     69  C   UNL A   1      40.584  25.823  25.954  1.00  0.00     0.040 A 
ATOM     70  F   UNL A   1      41.662  27.864  26.379  1.00  0.00    -0.206 F 
ATOM     71  C   UNL A   1      39.760  24.782  26.374  1.00  0.00     0.006 A 
ENDBRANCH  43  64
BRANCH  55  72
ATOM     72  C   UNL A   1      45.587  28.734  32.309  1.00  0.00     0.057 A 
ATOM     73  C   UNL A   1      46.753  28.983  31.572  1.00  0.00     0.134 A 
ATOM     74  C   UNL A   1      45.678  27.815  33.365  1.00  0.00     0.134 A 
ATOM     75  F   UNL A   1      46.737  29.839  30.539  1.00  0.00    -0.206 F 
ATOM     76  C   UNL A   1      47.959  28.350  31.872  1.00  0.00     0.040 A 
ATOM     77  C   UNL A   1      46.888  27.205  33.699  1.00  0.00     0.040 A 
ATOM     78  F   UNL A   1      44.603  27.535  34.117  1.00  0.00    -0.206 F 
ATOM     79  C   UNL A   1      48.032  27.468  32.948  1.00  0.00     0.006 A 
ENDBRANCH  55  72
ENDBRANCH  29  30
ENDBRANCH  21  24
ENDBRANCH  19  20
ENDBRANCH  18  19
ENDBRANCH   1  18
TORSDOF 14
ENDMDL
MODEL 2
REMARK VINA RESULT:      -9.0      5.937     11.376
REMARK SMILES Cc1ncc(C(=O)NCCCCCCNC(=O)c2ccc(-c3c4nc(c(-c5c(F)cccc5F)c5ccc([nH]5)c(-c5c(F)cccc5F)c5nc(c(-c6c(F)cccc6F)c6ccc3[nH]6)C=C5)C=C4)cc2)cc1C#N
REMARK SMILES IDX 12 1 11 2 10 3 9 4 8 5 6 6 7 7 5 9 1 10 2 11 3 12 73 13 4 14
REMARK SMILES IDX 72 15 74 16 75 17 13 18 14 19 15 20 16 21 17 23 18 24 19 25
REMARK SMILES IDX 71 26 20 27 70 28 21 29 22 30 23 31 64 32 24 33 69 34 63 35
REMARK SMILES IDX 65 36 25 37 68 38 62 39 61 40 26 42 52 43 35 44 51 45 36 46
REMARK SMILES IDX 39 47 50 48 66 49 37 50 38 51 49 53 67 54 40 55 27 56 28 57
REMARK SMILES IDX 33 58 29 59 30 60 32 61 34 62 31 63 53 64 54 65 59 66 55 67
REMARK SMILES IDX 56 68 58 69 60 70 57 71 41 72 42 73 47 74 43 75 44 76 46 77
REMARK SMILES IDX 48 78 45 79
REMARK H PARENT 8 8 15 22 65 41 39 52
REMARK Flexibility Score: inf
ROOT
ATOM      1  C   UNL A   1      36.623  20.646  24.996  1.00  0.00     0.002 C 
ENDROOT
BRANCH   1   2
ATOM      2  C   UNL A   1      36.829  22.057  24.426  1.00  0.00     0.002 C 
BRANCH   2   3
ATOM      3  C   UNL A   1      35.933  23.130  25.060  1.00  0.00     0.021 C 
BRANCH   3   4
ATOM      4  C   UNL A   1      35.456  22.733  26.458  1.00  0.00     0.116 C 
BRANCH   4   5
ATOM      5  N   UNL A   1      34.058  23.071  26.615  1.00  0.00    -0.352 N 
ATOM      6  C   UNL A   1      32.894  22.541  26.134  1.00  0.00     0.252 C 
ATOM      7  O   UNL A   1      31.851  23.114  26.454  1.00  0.00    -0.269 OA
ATOM      8  H   UNL A   1      33.914  23.854  27.193  1.00  0.00     0.163 HD
BRANCH   6   9
ATOM      9  C   UNL A   1      32.802  21.313  25.303  1.00  0.00     0.059 A 
ATOM     10  C   UNL A   1      32.281  18.121  22.497  1.00  0.00     0.068 C 
ATOM     11  C   UNL A   1      32.461  19.210  23.514  1.00  0.00     0.055 A 
ATOM     12  N   UNL A   1      32.322  20.480  23.064  1.00  0.00    -0.259 NA
ATOM     13  C   UNL A   1      32.775  18.932  24.842  1.00  0.00     0.074 A 
ATOM     14  C   UNL A   1      32.480  21.491  23.960  1.00  0.00     0.125 A 
ATOM     15  C   UNL A   1      33.003  20.000  25.720  1.00  0.00     0.036 A 
BRANCH  13  16
ATOM     16  C   UNL A   1      32.834  17.591  25.343  1.00  0.00     0.101 C 
ATOM     17  N   UNL A   1      32.838  16.512  25.764  1.00  0.00    -0.192 NA
ENDBRANCH  13  16
ENDBRANCH   6   9
ENDBRANCH   4   5
ENDBRANCH   3   4
ENDBRANCH   2   3
ENDBRANCH   1   2
BRANCH   1  18
ATOM     18  C   UNL A   1      37.853  19.743  24.889  1.00  0.00     0.021 C 
BRANCH  18  19
ATOM     19  C   UNL A   1      39.024  20.235  25.727  1.00  0.00     0.116 C 
BRANCH  19  20
ATOM     20  N   UNL A   1      40.010  19.180  25.914  1.00  0.00    -0.352 N 
ATOM     21  C   UNL A   1      41.362  19.306  26.101  1.00  0.00     0.251 C 
ATOM     22  H   UNL A   1      39.662  18.259  25.905  1.00  0.00     0.163 HD
ATOM     23  O   UNL A   1      42.115  18.349  25.975  1.00  0.00    -0.269 OA
BRANCH  21  24
ATOM     24  C   UNL A   1      41.891  20.634  26.453  1.00  0.00     0.039 A 
ATOM     25  C   UNL A   1      42.280  21.507  25.436  1.00  0.00     0.014 A 
ATOM     26  C   UNL A   1      41.955  21.016  27.797  1.00  0.00     0.014 A 
ATOM     27  C   UNL A   1      42.701  22.793  25.771  1.00  0.00     0.010 A 
ATOM     28  C   UNL A   1      42.304  22.319  28.123  1.00  0.00     0.010 A 
ATOM     29  C   UNL A   1      42.699  23.209  27.113  1.00  0.00    -0.014 A 
BRANCH  29  30
ATOM     30  C   UNL A   1      43.185  24.555  27.488  1.00  0.00     0.031 A 
ATOM     31  C   UNL A   1      42.191  25.608  27.881  1.00  0.00     0.074 A 
ATOM     32  C   UNL A   1      44.502  24.832  27.451  1.00  0.00     0.049 A 
ATOM     33  N   UNL A   1      42.398  26.852  28.231  1.00  0.00    -0.248 NA
ATOM     34  C   UNL A   1      40.773  25.216  27.864  1.00  0.00     0.031 C 
ATOM     35  C   UNL A   1      45.556  23.895  27.065  1.00  0.00     0.029 A 
ATOM     36  N   UNL A   1      45.173  25.991  27.743  1.00  0.00    -0.354 N 
ATOM     37  C   UNL A   1      41.141  27.384  28.482  1.00  0.00     0.074 A 
ATOM     38  C   UNL A   1      40.174  26.354  28.175  1.00  0.00     0.031 C 
ATOM     39  C   UNL A   1      46.745  24.511  27.164  1.00  0.00     0.029 A 
ATOM     40  C   UNL A   1      46.534  25.894  27.583  1.00  0.00     0.049 A 
ATOM     41  H   UNL A   1      44.723  26.816  28.039  1.00  0.00     0.167 HD
ATOM     42  C   UNL A   1      40.821  28.612  28.953  1.00  0.00     0.037 A 
ATOM     43  C   UNL A   1      47.494  26.823  27.749  1.00  0.00     0.037 A 
ATOM     44  C   UNL A   1      41.787  29.637  29.242  1.00  0.00     0.049 A 
ATOM     45  C   UNL A   1      47.101  28.208  28.195  1.00  0.00     0.074 A 
ATOM     46  C   UNL A   1      41.571  30.906  29.746  1.00  0.00     0.029 A 
ATOM     47  N   UNL A   1      43.153  29.516  29.034  1.00  0.00    -0.354 N 
ATOM     48  N   UNL A   1      45.915  28.680  28.496  1.00  0.00    -0.248 NA
ATOM     49  C   UNL A   1      48.187  29.188  28.329  1.00  0.00     0.031 C 
ATOM     50  C   UNL A   1      42.797  31.577  29.776  1.00  0.00     0.029 A 
ATOM     51  C   UNL A   1      43.788  30.700  29.365  1.00  0.00     0.049 A 
ATOM     52  H   UNL A   1      43.604  28.706  28.701  1.00  0.00     0.167 HD
ATOM     53  C   UNL A   1      46.118  29.998  28.888  1.00  0.00     0.074 A 
ATOM     54  C   UNL A   1      47.543  30.241  28.808  1.00  0.00     0.031 C 
ATOM     55  C   UNL A   1      45.209  30.927  29.279  1.00  0.00     0.037 A 
BRANCH  42  56
ATOM     56  C   UNL A   1      39.365  28.908  29.164  1.00  0.00     0.057 A 
ATOM     57  C   UNL A   1      38.766  28.696  30.411  1.00  0.00     0.134 A 
ATOM     58  C   UNL A   1      38.550  29.394  28.131  1.00  0.00     0.134 A 
ATOM     59  F   UNL A   1      39.485  28.227  31.443  1.00  0.00    -0.206 F 
ATOM     60  C   UNL A   1      37.413  28.959  30.625  1.00  0.00     0.040 A 
ATOM     61  C   UNL A   1      37.203  29.693  28.343  1.00  0.00     0.040 A 
ATOM     62  F   UNL A   1      39.062  29.633  26.914  1.00  0.00    -0.206 F 
ATOM     63  C   UNL A   1      36.629  29.469  29.592  1.00  0.00     0.006 A 
ENDBRANCH  42  56
BRANCH  43  64
ATOM     64  C   UNL A   1      48.920  26.493  27.494  1.00  0.00     0.057 A 
ATOM     65  C   UNL A   1      49.738  25.959  28.498  1.00  0.00     0.134 A 
ATOM     66  C   UNL A   1      49.482  26.642  26.219  1.00  0.00     0.134 A 
ATOM     67  F   UNL A   1      49.266  25.799  29.743  1.00  0.00    -0.206 F 
ATOM     68  C   UNL A   1      51.056  25.576  28.242  1.00  0.00     0.040 A 
ATOM     69  C   UNL A   1      50.787  26.231  25.942  1.00  0.00     0.040 A 
ATOM     70  F   UNL A   1      48.746  27.131  25.211  1.00  0.00    -0.206 F 
ATOM     71  C   UNL A   1      51.577  25.696  26.957  1.00  0.00     0.006 A 
ENDBRANCH  43  64
BRANCH  55  72
ATOM     72  C   UNL A   1      45.736  32.272  29.692  1.00  0.00     0.057 A 
ATOM     73  C   UNL A   1      45.865  33.304  28.753  1.00  0.00     0.134 A 
ATOM     74  C   UNL A   1      46.132  32.547  31.009  1.00  0.00     0.134 A 
ATOM     75  F   UNL A   1      45.520  33.109  27.472  1.00  0.00    -0.206 F 
ATOM     76  C   UNL A   1      46.363  34.559  29.108  1.00  0.00     0.040 A 
ATOM     77  C   UNL A   1      46.595  33.810  31.384  1.00  0.00     0.040 A 
ATOM     78  F   UNL A   1      46.029  31.607  31.961  1.00  0.00    -0.206 F 
ATOM     79  C   UNL A   1      46.715  34.818  30.430  1.00  0.00     0.006 A 
ENDBRANCH  55  72
ENDBRANCH  29  30
ENDBRANCH  21  24
ENDBRANCH  19  20
ENDBRANCH  18  19
ENDBRANCH   1  18
TORSDOF 14
ENDMDL
MODEL 3
REMARK VINA RESULT:      -8.9      0.369      6.516
REMARK SMILES Cc1ncc(C(=O)NCCCCCCNC(=O)c2ccc(-c3c4nc(c(-c5c(F)cccc5F)c5ccc([nH]5)c(-c5c(F)cccc5F)c5nc(c(-c6c(F)cccc6F)c6ccc3[nH]6)C=C5)C=C4)cc2)cc1C#N
REMARK SMILES IDX 12 1 11 2 10 3 9 4 8 5 6 6 7 7 5 9 1 10 2 11 3 12 73 13 4 14
REMARK SMILES IDX 72 15 74 16 75 17 13 18 14 19 15 20 16 21 17 23 18 24 19 25
REMARK SMILES IDX 71 26 20 27 70 28 21 29 22 30 23 31 64 32 24 33 69 34 63 35
REMARK SMILES IDX 65 36 25 37 68 38 62 39 61 40 26 42 52 43 35 44 51 45 36 46
REMARK SMILES IDX 39 47 50 48 66 49 37 50 38 51 49 53 67 54 40 55 27 56 28 57
REMARK SMILES IDX 33 58 29 59 30 60 32 61 34 62 31 63 53 64 54 65 59 66 55 67
REMARK SMILES IDX 56 68 58 69 60 70 57 71 41 72 42 73 47 74 43 75 44 76 46 77
REMARK SMILES IDX 48 78 45 79
REMARK H PARENT 8 8 15 22 65 41 39 52
REMARK Flexibility Score: inf
ROOT
ATOM      1  C   UNL A   1      33.931  36.307  33.138  1.00  0.00     0.002 C 
ENDROOT
BRANCH   1   2
ATOM      2  C   UNL A   1      35.141  35.362  33.155  1.00  0.00     0.002 C 
BRANCH   2   3
ATOM      3  C   UNL A   1      35.234  34.480  34.408  1.00  0.00     0.021 C 
BRANCH   3   4
ATOM      4  C   UNL A   1      36.321  33.411  34.284  1.00  0.00     0.116 C 
BRANCH   4   5
ATOM      5  N   UNL A   1      37.214  33.483  35.420  1.00  0.00    -0.352 N 
ATOM      6  C   UNL A   1      38.248  32.709  35.866  1.00  0.00     0.252 C 
ATOM      7  O   UNL A   1      38.787  33.057  36.918  1.00  0.00    -0.269 OA
ATOM      8  H   UNL A   1      37.037  34.260  35.999  1.00  0.00     0.163 HD
BRANCH   6   9
ATOM      9  C   UNL A   1      38.784  31.521  35.153  1.00  0.00     0.059 A 
ATOM     10  C   UNL A   1      40.868  28.304  33.243  1.00  0.00     0.068 C 
ATOM     11  C   UNL A   1      40.104  29.427  33.883  1.00  0.00     0.055 A 
ATOM     12  N   UNL A   1      40.796  30.208  34.747  1.00  0.00    -0.259 NA
ATOM     13  C   UNL A   1      38.753  29.642  33.621  1.00  0.00     0.074 A 
ATOM     14  C   UNL A   1      40.133  31.233  35.345  1.00  0.00     0.125 A 
ATOM     15  C   UNL A   1      38.084  30.662  34.310  1.00  0.00     0.036 A 
BRANCH  13  16
ATOM     16  C   UNL A   1      38.040  28.876  32.641  1.00  0.00     0.101 C 
ATOM     17  N   UNL A   1      37.429  28.290  31.851  1.00  0.00    -0.192 NA
ENDBRANCH  13  16
ENDBRANCH   6   9
ENDBRANCH   4   5
ENDBRANCH   3   4
ENDBRANCH   2   3
ENDBRANCH   1   2
BRANCH   1  18
ATOM     18  C   UNL A   1      32.877  35.954  32.088  1.00  0.00     0.021 C 
BRANCH  18  19
ATOM     19  C   UNL A   1      33.318  36.291  30.670  1.00  0.00     0.116 C 
BRANCH  19  20
ATOM     20  N   UNL A   1      32.677  35.413  29.702  1.00  0.00    -0.352 N 
ATOM     21  C   UNL A   1      33.240  34.396  28.977  1.00  0.00     0.251 C 
ATOM     22  H   UNL A   1      31.717  35.570  29.549  1.00  0.00     0.163 HD
ATOM     23  O   UNL A   1      32.670  33.913  28.007  1.00  0.00    -0.269 OA
BRANCH  21  24
ATOM     24  C   UNL A   1      34.562  33.898  29.393  1.00  0.00     0.039 A 
ATOM     25  C   UNL A   1      34.646  32.951  30.414  1.00  0.00     0.014 A 
ATOM     26  C   UNL A   1      35.707  34.350  28.729  1.00  0.00     0.014 A 
ATOM     27  C   UNL A   1      35.892  32.422  30.747  1.00  0.00     0.010 A 
ATOM     28  C   UNL A   1      36.935  33.769  29.012  1.00  0.00     0.010 A 
ATOM     29  C   UNL A   1      37.038  32.817  30.037  1.00  0.00    -0.014 A 
BRANCH  29  30
ATOM     30  C   UNL A   1      38.372  32.297  30.408  1.00  0.00     0.031 A 
ATOM     31  C   UNL A   1      38.835  30.990  29.833  1.00  0.00     0.074 A 
ATOM     32  C   UNL A   1      39.148  32.981  31.269  1.00  0.00     0.049 A 
ATOM     33  N   UNL A   1      39.957  30.348  30.034  1.00  0.00    -0.248 NA
ATOM     34  C   UNL A   1      37.904  30.305  28.921  1.00  0.00     0.031 C 
ATOM     35  C   UNL A   1      38.795  34.249  31.907  1.00  0.00     0.029 A 
ATOM     36  N   UNL A   1      40.397  32.696  31.758  1.00  0.00    -0.354 N 
ATOM     37  C   UNL A   1      39.869  29.193  29.270  1.00  0.00     0.074 A 
ATOM     38  C   UNL A   1      38.557  29.184  28.660  1.00  0.00     0.031 C 
ATOM     39  C   UNL A   1      39.814  34.645  32.687  1.00  0.00     0.029 A 
ATOM     40  C   UNL A   1      40.873  33.641  32.633  1.00  0.00     0.049 A 
ATOM     41  H   UNL A   1      40.905  31.892  31.505  1.00  0.00     0.167 HD
ATOM     42  C   UNL A   1      40.806  28.237  29.071  1.00  0.00     0.037 A 
ATOM     43  C   UNL A   1      42.031  33.680  33.319  1.00  0.00     0.037 A 
ATOM     44  C   UNL A   1      42.103  28.243  29.693  1.00  0.00     0.049 A 
ATOM     45  C   UNL A   1      43.023  32.560  33.142  1.00  0.00     0.074 A 
ATOM     46  C   UNL A   1      43.136  27.336  29.540  1.00  0.00     0.029 A 
ATOM     47  N   UNL A   1      42.538  29.196  30.602  1.00  0.00    -0.354 N 
ATOM     48  N   UNL A   1      42.958  31.506  32.364  1.00  0.00    -0.248 NA
ATOM     49  C   UNL A   1      44.255  32.640  33.939  1.00  0.00     0.031 C 
ATOM     50  C   UNL A   1      44.167  27.701  30.410  1.00  0.00     0.029 A 
ATOM     51  C   UNL A   1      43.810  28.879  31.046  1.00  0.00     0.049 A 
ATOM     52  H   UNL A   1      42.018  29.983  30.888  1.00  0.00     0.167 HD
ATOM     53  C   UNL A   1      44.153  30.820  32.551  1.00  0.00     0.074 A 
ATOM     54  C   UNL A   1      44.931  31.590  33.499  1.00  0.00     0.031 C 
ATOM     55  C   UNL A   1      44.572  29.657  31.992  1.00  0.00     0.037 A 
BRANCH  42  56
ATOM     56  C   UNL A   1      40.446  27.102  28.158  1.00  0.00     0.057 A 
ATOM     57  C   UNL A   1      40.963  27.039  26.858  1.00  0.00     0.134 A 
ATOM     58  C   UNL A   1      39.580  26.074  28.557  1.00  0.00     0.134 A 
ATOM     59  F   UNL A   1      41.793  27.992  26.407  1.00  0.00    -0.206 F 
ATOM     60  C   UNL A   1      40.635  25.996  25.991  1.00  0.00     0.040 A 
ATOM     61  C   UNL A   1      39.273  25.008  27.711  1.00  0.00     0.040 A 
ATOM     62  F   UNL A   1      39.060  26.064  29.794  1.00  0.00    -0.206 F 
ATOM     63  C   UNL A   1      39.796  24.970  26.421  1.00  0.00     0.006 A 
ENDBRANCH  42  56
BRANCH  43  64
ATOM     64  C   UNL A   1      42.329  34.808  34.240  1.00  0.00     0.057 A 
ATOM     65  C   UNL A   1      42.759  36.050  33.759  1.00  0.00     0.134 A 
ATOM     66  C   UNL A   1      42.125  34.689  35.621  1.00  0.00     0.134 A 
ATOM     67  F   UNL A   1      42.984  36.230  32.449  1.00  0.00    -0.206 F 
ATOM     68  C   UNL A   1      42.966  37.135  34.614  1.00  0.00     0.040 A 
ATOM     69  C   UNL A   1      42.295  35.775  36.481  1.00  0.00     0.040 A 
ATOM     70  F   UNL A   1      41.696  33.531  36.142  1.00  0.00    -0.206 F 
ATOM     71  C   UNL A   1      42.717  37.002  35.977  1.00  0.00     0.006 A 
ENDBRANCH  43  64
BRANCH  55  72
ATOM     72  C   UNL A   1      45.947  29.175  32.356  1.00  0.00     0.057 A 
ATOM     73  C   UNL A   1      46.135  28.321  33.451  1.00  0.00     0.134 A 
ATOM     74  C   UNL A   1      47.089  29.564  31.641  1.00  0.00     0.134 A 
ATOM     75  F   UNL A   1      45.090  27.919  34.191  1.00  0.00    -0.206 F 
ATOM     76  C   UNL A   1      47.402  27.868  33.818  1.00  0.00     0.040 A 
ATOM     77  C   UNL A   1      48.358  29.087  31.976  1.00  0.00     0.040 A 
ATOM     78  F   UNL A   1      46.982  30.375  30.578  1.00  0.00    -0.206 F 
ATOM     79  C   UNL A   1      48.517  28.240  33.070  1.00  0.00     0.006 A 
ENDBRANCH  55  72
ENDBRANCH  29  30
ENDBRANCH  21  24
ENDBRANCH  19  20
ENDBRANCH  18  19
ENDBRANCH   1  18
TORSDOF 14
ENDMDL
