MODEL 1
REMARK VINA RESULT:     -13.0      0.000      0.000
REMARK SMILES CC[C@@H](Sc1nnc2ccc3ccccc3n12)C(=O)Nc1cccc(C(=O)NCCCCCCNC(=O)c2ccc(-c3c4nc(c(-c5c(F)cccc5F)c5ccc([nH]5)c(-c5c(F)cccc5F)c5nc(c(-c6c(F)cccc6F)c6ccc3[nH]6)C=C5)C=C4)cc2)c1
REMARK SMILES IDX 30 1 29 2 28 3 26 4 27 5 25 7 21 8 22 9 92 10 23 11 24 12
REMARK SMILES IDX 20 13 18 14 19 15 3 17 2 18 1 19 4 20 5 21 6 22 17 23 7 24
REMARK SMILES IDX 8 25 16 26 9 27 11 28 15 29 10 30 12 31 14 32 13 33 31 34
REMARK SMILES IDX 32 35 33 36 34 37 35 38 36 39 37 41 38 42 39 43 91 44 40 45
REMARK SMILES IDX 90 46 41 47 42 48 43 49 84 50 44 51 89 52 83 53 85 54 45 55
REMARK SMILES IDX 88 56 82 57 81 58 46 60 72 61 55 62 71 63 56 64 59 65 70 66
REMARK SMILES IDX 86 67 57 68 58 69 69 71 87 72 60 73 47 74 48 75 53 76 49 77
REMARK SMILES IDX 50 78 52 79 54 80 51 81 73 82 74 83 79 84 75 85 76 86 78 87
REMARK SMILES IDX 80 88 77 89 61 90 62 91 67 92 63 93 64 94 66 95 68 96 65 97
REMARK H PARENT 28 6 20 16 35 40 85 59 59 70
REMARK Flexibility Score: inf
ROOT
ATOM      1  C   UNL A   1      40.773  20.936  27.446  1.00  0.00     0.021 C 
ENDROOT
BRANCH   1   2
ATOM      2  C   UNL A   1      40.116  21.272  26.125  1.00  0.00     0.116 C 
BRANCH   2   3
ATOM      3  N   UNL A   1      39.397  22.525  26.115  1.00  0.00    -0.352 N 
ATOM      4  C   UNL A   1      38.087  22.840  25.801  1.00  0.00     0.251 C 
ATOM      5  O   UNL A   1      37.763  24.009  25.830  1.00  0.00    -0.269 OA
ATOM      6  H   UNL A   1      39.940  23.299  26.382  1.00  0.00     0.163 HD
BRANCH   4   7
ATOM      7  C   UNL A   1      37.085  21.803  25.392  1.00  0.00     0.041 A 
ATOM      8  C   UNL A   1      34.828  20.989  25.203  1.00  0.00     0.041 A 
ATOM      9  C   UNL A   1      35.306  19.777  24.756  1.00  0.00     0.026 A 
ATOM     10  C   UNL A   1      35.723  22.044  25.206  1.00  0.00     0.040 A 
ATOM     11  C   UNL A   1      36.671  19.504  24.796  1.00  0.00     0.003 A 
ATOM     12  C   UNL A   1      37.553  20.496  25.216  1.00  0.00     0.014 A 
BRANCH   8  13
ATOM     13  N   UNL A   1      33.521  21.225  25.666  1.00  0.00    -0.325 N 
ATOM     14  C   UNL A   1      32.392  21.663  24.996  1.00  0.00     0.237 C 
ATOM     15  O   UNL A   1      31.333  21.602  25.642  1.00  0.00    -0.273 OA
ATOM     16  H   UNL A   1      33.387  21.050  26.626  1.00  0.00     0.169 HD
BRANCH  14  17
ATOM     17  C   UNL A   1      32.331  22.123  23.501  1.00  0.00     0.144 C 
BRANCH  17  18
ATOM     18  C   UNL A   1      32.145  20.909  22.594  1.00  0.00     0.021 C 
ATOM     19  C   UNL A   1      32.148  19.488  23.110  1.00  0.00     0.005 C 
ENDBRANCH  17  18
BRANCH  17  20
ATOM     20  S   UNL A   1      31.264  23.632  23.450  1.00  0.00    -0.072 SA
BRANCH  20  21
ATOM     21  C   UNL A   1      32.224  24.889  22.755  1.00  0.00     0.196 A 
ATOM     22  N   UNL A   1      32.570  24.848  21.487  1.00  0.00    -0.122 NA
ATOM     23  N   UNL A   1      32.593  26.117  23.298  1.00  0.00    -0.270 N 
ATOM     24  N   UNL A   1      33.324  25.949  21.204  1.00  0.00    -0.129 NA
ATOM     25  C   UNL A   1      33.339  26.709  22.276  1.00  0.00     0.161 A 
ATOM     26  C   UNL A   1      32.334  26.800  24.525  1.00  0.00     0.057 A 
ATOM     27  C   UNL A   1      33.943  27.973  22.468  1.00  0.00     0.050 A 
ATOM     28  C   UNL A   1      32.878  28.103  24.650  1.00  0.00    -0.001 A 
ATOM     29  C   UNL A   1      31.554  26.287  25.562  1.00  0.00     0.027 A 
ATOM     30  C   UNL A   1      33.725  28.664  23.593  1.00  0.00     0.014 A 
ATOM     31  C   UNL A   1      32.608  28.878  25.785  1.00  0.00     0.010 A 
ATOM     32  C   UNL A   1      31.295  27.073  26.694  1.00  0.00     0.002 A 
ATOM     33  C   UNL A   1      31.811  28.364  26.804  1.00  0.00     0.001 A 
ENDBRANCH  20  21
ENDBRANCH  17  20
ENDBRANCH  14  17
ENDBRANCH   8  13
ENDBRANCH   4   7
ENDBRANCH   2   3
ENDBRANCH   1   2
BRANCH   1  34
ATOM     34  C   UNL A   1      42.140  20.287  27.323  1.00  0.00     0.002 C 
BRANCH  34  35
ATOM     35  C   UNL A   1      42.227  19.188  26.257  1.00  0.00     0.002 C 
BRANCH  35  36
ATOM     36  C   UNL A   1      43.182  18.021  26.570  1.00  0.00     0.021 C 
BRANCH  36  37
ATOM     37  C   UNL A   1      44.575  18.162  25.964  1.00  0.00     0.116 C 
BRANCH  37  38
ATOM     38  N   UNL A   1      44.538  18.613  24.594  1.00  0.00    -0.352 N 
ATOM     39  C   UNL A   1      44.808  19.773  23.939  1.00  0.00     0.251 C 
ATOM     40  H   UNL A   1      44.243  17.902  23.981  1.00  0.00     0.163 HD
ATOM     41  O   UNL A   1      44.869  19.672  22.710  1.00  0.00    -0.269 OA
BRANCH  39  42
ATOM     42  C   UNL A   1      44.892  21.130  24.542  1.00  0.00     0.039 A 
ATOM     43  C   UNL A   1      45.904  21.703  25.303  1.00  0.00     0.014 A 
ATOM     44  C   UNL A   1      43.759  21.917  24.311  1.00  0.00     0.014 A 
ATOM     45  C   UNL A   1      45.596  22.847  26.084  1.00  0.00     0.010 A 
ATOM     46  C   UNL A   1      43.647  23.188  24.850  1.00  0.00     0.010 A 
ATOM     47  C   UNL A   1      44.342  23.512  25.987  1.00  0.00    -0.014 A 
BRANCH  47  48
ATOM     48  C   UNL A   1      44.001  24.816  26.659  1.00  0.00     0.031 A 
ATOM     49  C   UNL A   1      45.122  25.758  26.297  1.00  0.00     0.074 A 
ATOM     50  C   UNL A   1      42.897  25.149  27.449  1.00  0.00     0.049 A 
ATOM     51  N   UNL A   1      46.135  25.981  27.063  1.00  0.00    -0.248 NA
ATOM     52  C   UNL A   1      45.400  26.189  24.905  1.00  0.00     0.031 C 
ATOM     53  C   UNL A   1      41.689  24.370  27.832  1.00  0.00     0.029 A 
ATOM     54  N   UNL A   1      42.636  26.323  28.193  1.00  0.00    -0.354 N 
ATOM     55  C   UNL A   1      46.975  26.867  26.396  1.00  0.00     0.074 A 
ATOM     56  C   UNL A   1      46.582  26.812  25.021  1.00  0.00     0.031 C 
ATOM     57  C   UNL A   1      40.754  25.147  28.465  1.00  0.00     0.029 A 
ATOM     58  C   UNL A   1      41.285  26.482  28.697  1.00  0.00     0.049 A 
ATOM     59  H   UNL A   1      43.335  26.998  28.359  1.00  0.00     0.167 HD
ATOM     60  C   UNL A   1      47.690  27.750  27.148  1.00  0.00     0.037 A 
ATOM     61  C   UNL A   1      40.745  27.502  29.482  1.00  0.00     0.037 A 
ATOM     62  C   UNL A   1      47.667  27.305  28.526  1.00  0.00     0.049 A 
ATOM     63  C   UNL A   1      41.892  28.192  30.109  1.00  0.00     0.074 A 
ATOM     64  C   UNL A   1      48.216  26.264  29.239  1.00  0.00     0.029 A 
ATOM     65  N   UNL A   1      46.517  27.674  29.172  1.00  0.00    -0.354 N 
ATOM     66  N   UNL A   1      42.631  27.612  31.009  1.00  0.00    -0.248 NA
ATOM     67  C   UNL A   1      42.522  29.206  29.284  1.00  0.00     0.031 C 
ATOM     68  C   UNL A   1      47.206  25.855  30.164  1.00  0.00     0.029 A 
ATOM     69  C   UNL A   1      46.153  26.763  30.116  1.00  0.00     0.049 A 
ATOM     70  H   UNL A   1      46.015  28.498  28.977  1.00  0.00     0.167 HD
ATOM     71  C   UNL A   1      43.912  27.776  30.516  1.00  0.00     0.074 A 
ATOM     72  C   UNL A   1      43.781  28.797  29.458  1.00  0.00     0.031 C 
ATOM     73  C   UNL A   1      44.868  26.828  30.761  1.00  0.00     0.037 A 
BRANCH  60  74
ATOM     74  C   UNL A   1      47.858  29.225  26.835  1.00  0.00     0.057 A 
ATOM     75  C   UNL A   1      46.799  30.133  26.650  1.00  0.00     0.134 A 
ATOM     76  C   UNL A   1      49.110  29.815  27.102  1.00  0.00     0.134 A 
ATOM     77  F   UNL A   1      45.542  29.729  26.429  1.00  0.00    -0.206 F 
ATOM     78  C   UNL A   1      46.961  31.520  26.784  1.00  0.00     0.040 A 
ATOM     79  C   UNL A   1      49.274  31.193  27.285  1.00  0.00     0.040 A 
ATOM     80  F   UNL A   1      50.201  29.054  27.283  1.00  0.00    -0.206 F 
ATOM     81  C   UNL A   1      48.193  32.052  27.139  1.00  0.00     0.006 A 
ENDBRANCH  60  74
BRANCH  61  82
ATOM     82  C   UNL A   1      39.415  28.254  29.485  1.00  0.00     0.057 A 
ATOM     83  C   UNL A   1      39.118  29.083  28.398  1.00  0.00     0.134 A 
ATOM     84  C   UNL A   1      38.587  28.483  30.624  1.00  0.00     0.134 A 
ATOM     85  F   UNL A   1      39.895  29.050  27.308  1.00  0.00    -0.206 F 
ATOM     86  C   UNL A   1      38.094  30.052  28.414  1.00  0.00     0.040 A 
ATOM     87  C   UNL A   1      37.537  29.441  30.646  1.00  0.00     0.040 A 
ATOM     88  F   UNL A   1      38.807  27.837  31.780  1.00  0.00    -0.206 F 
ATOM     89  C   UNL A   1      37.294  30.236  29.534  1.00  0.00     0.006 A 
ENDBRANCH  61  82
BRANCH  73  90
ATOM     90  C   UNL A   1      44.554  25.760  31.774  1.00  0.00     0.057 A 
ATOM     91  C   UNL A   1      44.671  26.109  33.119  1.00  0.00     0.134 A 
ATOM     92  C   UNL A   1      44.251  24.416  31.498  1.00  0.00     0.134 A 
ATOM     93  F   UNL A   1      45.069  27.345  33.456  1.00  0.00    -0.206 F 
ATOM     94  C   UNL A   1      44.437  25.196  34.145  1.00  0.00     0.040 A 
ATOM     95  C   UNL A   1      43.972  23.495  32.518  1.00  0.00     0.040 A 
ATOM     96  F   UNL A   1      44.279  23.942  30.247  1.00  0.00    -0.206 F 
ATOM     97  C   UNL A   1      44.051  23.893  33.849  1.00  0.00     0.006 A 
ENDBRANCH  73  90
ENDBRANCH  47  48
ENDBRANCH  39  42
ENDBRANCH  37  38
ENDBRANCH  36  37
ENDBRANCH  35  36
ENDBRANCH  34  35
ENDBRANCH   1  34
TORSDOF 18
ENDMDL
MODEL 2
REMARK VINA RESULT:     -12.0      2.820      8.910
REMARK SMILES CC[C@@H](Sc1nnc2ccc3ccccc3n12)C(=O)Nc1cccc(C(=O)NCCCCCCNC(=O)c2ccc(-c3c4nc(c(-c5c(F)cccc5F)c5ccc([nH]5)c(-c5c(F)cccc5F)c5nc(c(-c6c(F)cccc6F)c6ccc3[nH]6)C=C5)C=C4)cc2)c1
REMARK SMILES IDX 30 1 29 2 28 3 26 4 27 5 25 7 21 8 22 9 92 10 23 11 24 12
REMARK SMILES IDX 20 13 18 14 19 15 3 17 2 18 1 19 4 20 5 21 6 22 17 23 7 24
REMARK SMILES IDX 8 25 16 26 9 27 11 28 15 29 10 30 12 31 14 32 13 33 31 34
REMARK SMILES IDX 32 35 33 36 34 37 35 38 36 39 37 41 38 42 39 43 91 44 40 45
REMARK SMILES IDX 90 46 41 47 42 48 43 49 84 50 44 51 89 52 83 53 85 54 45 55
REMARK SMILES IDX 88 56 82 57 81 58 46 60 72 61 55 62 71 63 56 64 59 65 70 66
REMARK SMILES IDX 86 67 57 68 58 69 69 71 87 72 60 73 47 74 48 75 53 76 49 77
REMARK SMILES IDX 50 78 52 79 54 80 51 81 73 82 74 83 79 84 75 85 76 86 78 87
REMARK SMILES IDX 80 88 77 89 61 90 62 91 67 92 63 93 64 94 66 95 68 96 65 97
REMARK H PARENT 28 6 20 16 35 40 85 59 59 70
REMARK Flexibility Score: inf
ROOT
ATOM      1  C   UNL A   1      31.835  28.995  23.651  1.00  0.00     0.021 C 
ENDROOT
BRANCH   1   2
ATOM      2  C   UNL A   1      31.129  28.079  22.674  1.00  0.00     0.116 C 
BRANCH   2   3
ATOM      3  N   UNL A   1      29.756  27.786  23.013  1.00  0.00    -0.352 N 
ATOM      4  C   UNL A   1      29.180  26.765  23.747  1.00  0.00     0.251 C 
ATOM      5  O   UNL A   1      27.970  26.738  23.826  1.00  0.00    -0.269 OA
ATOM      6  H   UNL A   1      29.109  28.434  22.654  1.00  0.00     0.163 HD
BRANCH   4   7
ATOM      7  C   UNL A   1      29.990  25.686  24.399  1.00  0.00     0.041 A 
ATOM      8  C   UNL A   1      31.231  23.625  24.327  1.00  0.00     0.041 A 
ATOM      9  C   UNL A   1      31.343  23.648  25.700  1.00  0.00     0.026 A 
ATOM     10  C   UNL A   1      30.828  24.801  23.720  1.00  0.00     0.040 A 
ATOM     11  C   UNL A   1      30.629  24.583  26.445  1.00  0.00     0.003 A 
ATOM     12  C   UNL A   1      29.868  25.543  25.786  1.00  0.00     0.014 A 
BRANCH   8  13
ATOM     13  N   UNL A   1      31.477  22.506  23.512  1.00  0.00    -0.325 N 
ATOM     14  C   UNL A   1      32.318  21.423  23.697  1.00  0.00     0.237 C 
ATOM     15  O   UNL A   1      32.183  20.498  22.878  1.00  0.00    -0.273 OA
ATOM     16  H   UNL A   1      30.966  22.490  22.670  1.00  0.00     0.169 HD
BRANCH  14  17
ATOM     17  C   UNL A   1      33.329  21.235  24.878  1.00  0.00     0.144 C 
BRANCH  17  18
ATOM     18  C   UNL A   1      32.835  20.129  25.808  1.00  0.00     0.021 C 
ATOM     19  C   UNL A   1      32.832  18.668  25.422  1.00  0.00     0.005 C 
ENDBRANCH  17  18
BRANCH  17  20
ATOM     20  S   UNL A   1      35.025  21.295  24.144  1.00  0.00    -0.072 SA
BRANCH  20  21
ATOM     21  C   UNL A   1      35.864  22.572  24.951  1.00  0.00     0.196 A 
ATOM     22  N   UNL A   1      35.240  23.681  25.285  1.00  0.00    -0.122 NA
ATOM     23  N   UNL A   1      37.145  22.576  25.497  1.00  0.00    -0.270 N 
ATOM     24  N   UNL A   1      36.130  24.514  25.896  1.00  0.00    -0.129 NA
ATOM     25  C   UNL A   1      37.263  23.863  26.028  1.00  0.00     0.161 A 
ATOM     26  C   UNL A   1      38.190  21.613  25.634  1.00  0.00     0.057 A 
ATOM     27  C   UNL A   1      38.469  24.279  26.638  1.00  0.00     0.050 A 
ATOM     28  C   UNL A   1      39.350  22.034  26.331  1.00  0.00    -0.001 A 
ATOM     29  C   UNL A   1      38.114  20.297  25.174  1.00  0.00     0.027 A 
ATOM     30  C   UNL A   1      39.478  23.416  26.804  1.00  0.00     0.014 A 
ATOM     31  C   UNL A   1      40.392  21.132  26.582  1.00  0.00     0.010 A 
ATOM     32  C   UNL A   1      39.166  19.407  25.431  1.00  0.00     0.002 A 
ATOM     33  C   UNL A   1      40.295  19.817  26.137  1.00  0.00     0.001 A 
ENDBRANCH  20  21
ENDBRANCH  17  20
ENDBRANCH  14  17
ENDBRANCH   8  13
ENDBRANCH   4   7
ENDBRANCH   2   3
ENDBRANCH   1   2
BRANCH   1  34
ATOM     34  C   UNL A   1      32.378  28.299  24.885  1.00  0.00     0.002 C 
BRANCH  34  35
ATOM     35  C   UNL A   1      31.691  28.701  26.196  1.00  0.00     0.002 C 
BRANCH  35  36
ATOM     36  C   UNL A   1      32.143  30.039  26.811  1.00  0.00     0.021 C 
BRANCH  36  37
ATOM     37  C   UNL A   1      33.561  30.031  27.373  1.00  0.00     0.116 C 
BRANCH  37  38
ATOM     38  N   UNL A   1      34.107  31.358  27.512  1.00  0.00    -0.352 N 
ATOM     39  C   UNL A   1      35.329  31.890  27.781  1.00  0.00     0.251 C 
ATOM     40  H   UNL A   1      33.424  32.053  27.376  1.00  0.00     0.163 HD
ATOM     41  O   UNL A   1      35.422  33.105  27.580  1.00  0.00    -0.269 OA
BRANCH  39  42
ATOM     42  C   UNL A   1      36.480  31.188  28.410  1.00  0.00     0.039 A 
ATOM     43  C   UNL A   1      37.404  31.651  29.339  1.00  0.00     0.014 A 
ATOM     44  C   UNL A   1      36.648  29.873  27.960  1.00  0.00     0.014 A 
ATOM     45  C   UNL A   1      38.623  30.941  29.491  1.00  0.00     0.010 A 
ATOM     46  C   UNL A   1      37.706  29.096  28.399  1.00  0.00     0.010 A 
ATOM     47  C   UNL A   1      38.856  29.694  28.846  1.00  0.00    -0.014 A 
BRANCH  47  48
ATOM     48  C   UNL A   1      40.051  28.808  29.082  1.00  0.00     0.031 A 
ATOM     49  C   UNL A   1      40.185  28.711  30.582  1.00  0.00     0.074 A 
ATOM     50  C   UNL A   1      40.888  28.176  28.159  1.00  0.00     0.049 A 
ATOM     51  N   UNL A   1      40.984  29.452  31.272  1.00  0.00    -0.248 NA
ATOM     52  C   UNL A   1      39.157  28.083  31.447  1.00  0.00     0.031 C 
ATOM     53  C   UNL A   1      40.846  28.114  26.673  1.00  0.00     0.029 A 
ATOM     54  N   UNL A   1      42.088  27.457  28.367  1.00  0.00    -0.354 N 
ATOM     55  C   UNL A   1      40.818  29.111  32.610  1.00  0.00     0.074 A 
ATOM     56  C   UNL A   1      39.568  28.416  32.680  1.00  0.00     0.031 C 
ATOM     57  C   UNL A   1      41.753  27.218  26.169  1.00  0.00     0.029 A 
ATOM     58  C   UNL A   1      42.586  26.692  27.240  1.00  0.00     0.049 A 
ATOM     59  H   UNL A   1      42.559  27.473  29.232  1.00  0.00     0.167 HD
ATOM     60  C   UNL A   1      41.904  29.200  33.427  1.00  0.00     0.037 A 
ATOM     61  C   UNL A   1      43.747  25.923  27.133  1.00  0.00     0.037 A 
ATOM     62  C   UNL A   1      42.918  29.990  32.758  1.00  0.00     0.049 A 
ATOM     63  C   UNL A   1      44.641  26.370  28.222  1.00  0.00     0.074 A 
ATOM     64  C   UNL A   1      43.075  31.314  32.415  1.00  0.00     0.029 A 
ATOM     65  N   UNL A   1      43.644  29.253  31.860  1.00  0.00    -0.354 N 
ATOM     66  N   UNL A   1      45.180  27.553  28.222  1.00  0.00    -0.248 NA
ATOM     67  C   UNL A   1      44.391  25.753  29.511  1.00  0.00     0.031 C 
ATOM     68  C   UNL A   1      43.688  31.307  31.123  1.00  0.00     0.029 A 
ATOM     69  C   UNL A   1      44.051  30.003  30.800  1.00  0.00     0.049 A 
ATOM     70  H   UNL A   1      43.845  28.295  31.968  1.00  0.00     0.167 HD
ATOM     71  C   UNL A   1      44.840  28.054  29.466  1.00  0.00     0.074 A 
ATOM     72  C   UNL A   1      44.375  26.879  30.229  1.00  0.00     0.031 C 
ATOM     73  C   UNL A   1      44.632  29.396  29.632  1.00  0.00     0.037 A 
BRANCH  60  74
ATOM     74  C   UNL A   1      42.315  28.157  34.449  1.00  0.00     0.057 A 
ATOM     75  C   UNL A   1      42.028  28.223  35.825  1.00  0.00     0.134 A 
ATOM     76  C   UNL A   1      42.676  26.879  33.975  1.00  0.00     0.134 A 
ATOM     77  F   UNL A   1      41.632  29.355  36.418  1.00  0.00    -0.206 F 
ATOM     78  C   UNL A   1      42.037  27.091  36.652  1.00  0.00     0.040 A 
ATOM     79  C   UNL A   1      42.642  25.736  34.781  1.00  0.00     0.040 A 
ATOM     80  F   UNL A   1      42.987  26.691  32.682  1.00  0.00    -0.206 F 
ATOM     81  C   UNL A   1      42.308  25.836  36.124  1.00  0.00     0.006 A 
ENDBRANCH  60  74
BRANCH  61  82
ATOM     82  C   UNL A   1      44.077  24.576  26.492  1.00  0.00     0.057 A 
ATOM     83  C   UNL A   1      44.721  24.572  25.250  1.00  0.00     0.134 A 
ATOM     84  C   UNL A   1      43.500  23.320  26.843  1.00  0.00     0.134 A 
ATOM     85  F   UNL A   1      45.205  25.717  24.751  1.00  0.00    -0.206 F 
ATOM     86  C   UNL A   1      44.806  23.435  24.420  1.00  0.00     0.040 A 
ATOM     87  C   UNL A   1      43.596  22.161  26.026  1.00  0.00     0.040 A 
ATOM     88  F   UNL A   1      42.764  23.184  27.958  1.00  0.00    -0.206 F 
ATOM     89  C   UNL A   1      44.248  22.221  24.801  1.00  0.00     0.006 A 
ENDBRANCH  61  82
BRANCH  73  90
ATOM     90  C   UNL A   1      45.028  30.312  28.507  1.00  0.00     0.057 A 
ATOM     91  C   UNL A   1      43.998  30.836  27.725  1.00  0.00     0.134 A 
ATOM     92  C   UNL A   1      46.339  30.614  28.102  1.00  0.00     0.134 A 
ATOM     93  F   UNL A   1      42.726  30.497  27.982  1.00  0.00    -0.206 F 
ATOM     94  C   UNL A   1      44.244  31.670  26.637  1.00  0.00     0.040 A 
ATOM     95  C   UNL A   1      46.602  31.485  27.035  1.00  0.00     0.040 A 
ATOM     96  F   UNL A   1      47.394  30.030  28.681  1.00  0.00    -0.206 F 
ATOM     97  C   UNL A   1      45.548  32.028  26.308  1.00  0.00     0.006 A 
ENDBRANCH  73  90
ENDBRANCH  47  48
ENDBRANCH  39  42
ENDBRANCH  37  38
ENDBRANCH  36  37
ENDBRANCH  35  36
ENDBRANCH  34  35
ENDBRANCH   1  34
TORSDOF 18
ENDMDL
MODEL 3
REMARK VINA RESULT:     -11.5      5.298     11.394
REMARK SMILES CC[C@@H](Sc1nnc2ccc3ccccc3n12)C(=O)Nc1cccc(C(=O)NCCCCCCNC(=O)c2ccc(-c3c4nc(c(-c5c(F)cccc5F)c5ccc([nH]5)c(-c5c(F)cccc5F)c5nc(c(-c6c(F)cccc6F)c6ccc3[nH]6)C=C5)C=C4)cc2)c1
REMARK SMILES IDX 30 1 29 2 28 3 26 4 27 5 25 7 21 8 22 9 92 10 23 11 24 12
REMARK SMILES IDX 20 13 18 14 19 15 3 17 2 18 1 19 4 20 5 21 6 22 17 23 7 24
REMARK SMILES IDX 8 25 16 26 9 27 11 28 15 29 10 30 12 31 14 32 13 33 31 34
REMARK SMILES IDX 32 35 33 36 34 37 35 38 36 39 37 41 38 42 39 43 91 44 40 45
REMARK SMILES IDX 90 46 41 47 42 48 43 49 84 50 44 51 89 52 83 53 85 54 45 55
REMARK SMILES IDX 88 56 82 57 81 58 46 60 72 61 55 62 71 63 56 64 59 65 70 66
REMARK SMILES IDX 86 67 57 68 58 69 69 71 87 72 60 73 47 74 48 75 53 76 49 77
REMARK SMILES IDX 50 78 52 79 54 80 51 81 73 82 74 83 79 84 75 85 76 86 78 87
REMARK SMILES IDX 80 88 77 89 61 90 62 91 67 92 63 93 64 94 66 95 68 96 65 97
REMARK H PARENT 28 6 20 16 35 40 85 59 59 70
REMARK Flexibility Score: inf
ROOT
ATOM      1  C   UNL A   1      38.770  34.575  31.929  1.00  0.00     0.021 C 
ENDROOT
BRANCH   1   2
ATOM      2  C   UNL A   1      39.378  33.243  32.312  1.00  0.00     0.116 C 
BRANCH   2   3
ATOM      3  N   UNL A   1      40.822  33.233  32.354  1.00  0.00    -0.352 N 
ATOM      4  C   UNL A   1      41.726  33.730  33.276  1.00  0.00     0.251 C 
ATOM      5  O   UNL A   1      42.908  33.624  33.024  1.00  0.00    -0.269 OA
ATOM      6  H   UNL A   1      41.242  32.790  31.583  1.00  0.00     0.163 HD
BRANCH   4   7
ATOM      7  C   UNL A   1      41.295  34.421  34.534  1.00  0.00     0.041 A 
ATOM      8  C   UNL A   1      40.058  34.500  36.597  1.00  0.00     0.041 A 
ATOM      9  C   UNL A   1      40.416  35.821  36.758  1.00  0.00     0.026 A 
ATOM     10  C   UNL A   1      40.766  33.778  35.653  1.00  0.00     0.040 A 
ATOM     11  C   UNL A   1      41.058  36.502  35.727  1.00  0.00     0.003 A 
ATOM     12  C   UNL A   1      41.406  35.816  34.568  1.00  0.00     0.014 A 
BRANCH   8  13
ATOM     13  N   UNL A   1      39.029  33.848  37.299  1.00  0.00    -0.325 N 
ATOM     14  C   UNL A   1      38.022  33.010  36.851  1.00  0.00     0.237 C 
ATOM     15  O   UNL A   1      37.368  32.441  37.741  1.00  0.00    -0.273 OA
ATOM     16  H   UNL A   1      39.023  34.014  38.269  1.00  0.00     0.169 HD
BRANCH  14  17
ATOM     17  C   UNL A   1      37.716  32.658  35.356  1.00  0.00     0.144 C 
BRANCH  17  18
ATOM     18  C   UNL A   1      37.955  31.169  35.118  1.00  0.00     0.021 C 
ATOM     19  C   UNL A   1      39.322  30.590  34.831  1.00  0.00     0.005 C 
ENDBRANCH  17  18
BRANCH  17  20
ATOM     20  S   UNL A   1      36.158  33.547  34.907  1.00  0.00    -0.072 SA
BRANCH  20  21
ATOM     21  C   UNL A   1      35.751  33.044  33.305  1.00  0.00     0.196 A 
ATOM     22  N   UNL A   1      35.888  31.788  32.939  1.00  0.00    -0.122 NA
ATOM     23  N   UNL A   1      35.101  33.754  32.299  1.00  0.00    -0.270 N 
ATOM     24  N   UNL A   1      35.505  31.670  31.635  1.00  0.00    -0.129 NA
ATOM     25  C   UNL A   1      35.035  32.834  31.249  1.00  0.00     0.161 A 
ATOM     26  C   UNL A   1      34.527  35.057  32.187  1.00  0.00     0.057 A 
ATOM     27  C   UNL A   1      34.475  33.206  30.005  1.00  0.00     0.050 A 
ATOM     28  C   UNL A   1      33.894  35.366  30.958  1.00  0.00    -0.001 A 
ATOM     29  C   UNL A   1      34.514  36.002  33.215  1.00  0.00     0.027 A 
ATOM     30  C   UNL A   1      33.912  34.409  29.846  1.00  0.00     0.014 A 
ATOM     31  C   UNL A   1      33.236  36.590  30.788  1.00  0.00     0.010 A 
ATOM     32  C   UNL A   1      33.853  37.224  33.029  1.00  0.00     0.002 A 
ATOM     33  C   UNL A   1      33.210  37.516  31.827  1.00  0.00     0.001 A 
ENDBRANCH  20  21
ENDBRANCH  17  20
ENDBRANCH  14  17
ENDBRANCH   8  13
ENDBRANCH   4   7
ENDBRANCH   2   3
ENDBRANCH   1   2
BRANCH   1  34
ATOM     34  C   UNL A   1      38.923  34.939  30.463  1.00  0.00     0.002 C 
BRANCH  34  35
ATOM     35  C   UNL A   1      37.989  34.174  29.518  1.00  0.00     0.002 C 
BRANCH  35  36
ATOM     36  C   UNL A   1      38.442  32.754  29.127  1.00  0.00     0.021 C 
BRANCH  36  37
ATOM     37  C   UNL A   1      37.337  31.873  28.554  1.00  0.00     0.116 C 
BRANCH  37  38
ATOM     38  N   UNL A   1      37.219  30.614  29.249  1.00  0.00    -0.352 N 
ATOM     39  C   UNL A   1      38.019  29.537  29.462  1.00  0.00     0.251 C 
ATOM     40  H   UNL A   1      36.339  30.511  29.676  1.00  0.00     0.163 HD
ATOM     41  O   UNL A   1      37.611  28.750  30.323  1.00  0.00    -0.269 OA
BRANCH  39  42
ATOM     42  C   UNL A   1      39.227  29.162  28.679  1.00  0.00     0.039 A 
ATOM     43  C   UNL A   1      39.514  29.369  27.335  1.00  0.00     0.014 A 
ATOM     44  C   UNL A   1      40.192  28.480  29.429  1.00  0.00     0.014 A 
ATOM     45  C   UNL A   1      40.537  28.590  26.736  1.00  0.00     0.010 A 
ATOM     46  C   UNL A   1      41.353  28.008  28.841  1.00  0.00     0.010 A 
ATOM     47  C   UNL A   1      41.377  27.730  27.498  1.00  0.00    -0.014 A 
BRANCH  47  48
ATOM     48  C   UNL A   1      42.580  26.999  26.963  1.00  0.00     0.031 A 
ATOM     49  C   UNL A   1      42.148  25.560  26.833  1.00  0.00     0.074 A 
ATOM     50  C   UNL A   1      43.844  27.491  26.629  1.00  0.00     0.049 A 
ATOM     51  N   UNL A   1      42.386  24.665  27.731  1.00  0.00    -0.248 NA
ATOM     52  C   UNL A   1      41.078  25.116  25.907  1.00  0.00     0.031 C 
ATOM     53  C   UNL A   1      44.396  28.872  26.630  1.00  0.00     0.029 A 
ATOM     54  N   UNL A   1      45.018  26.795  26.256  1.00  0.00    -0.354 N 
ATOM     55  C   UNL A   1      41.817  23.473  27.293  1.00  0.00     0.074 A 
ATOM     56  C   UNL A   1      40.876  23.844  26.281  1.00  0.00     0.031 C 
ATOM     57  C   UNL A   1      45.633  28.934  26.042  1.00  0.00     0.029 A 
ATOM     58  C   UNL A   1      46.099  27.595  25.712  1.00  0.00     0.049 A 
ATOM     59  H   UNL A   1      45.097  25.818  26.360  1.00  0.00     0.167 HD
ATOM     60  C   UNL A   1      42.438  22.310  27.637  1.00  0.00     0.037 A 
ATOM     61  C   UNL A   1      47.372  27.201  25.296  1.00  0.00     0.037 A 
ATOM     62  C   UNL A   1      43.376  22.588  28.705  1.00  0.00     0.049 A 
ATOM     63  C   UNL A   1      47.621  25.884  25.918  1.00  0.00     0.074 A 
ATOM     64  C   UNL A   1      43.288  22.928  30.037  1.00  0.00     0.029 A 
ATOM     65  N   UNL A   1      44.561  23.092  28.239  1.00  0.00    -0.354 N 
ATOM     66  N   UNL A   1      47.776  25.751  27.202  1.00  0.00    -0.248 NA
ATOM     67  C   UNL A   1      47.072  24.752  25.194  1.00  0.00     0.031 C 
ATOM     68  C   UNL A   1      44.328  23.883  30.260  1.00  0.00     0.029 A 
ATOM     69  C   UNL A   1      45.125  23.960  29.122  1.00  0.00     0.049 A 
ATOM     70  H   UNL A   1      44.957  22.855  27.369  1.00  0.00     0.167 HD
ATOM     71  C   UNL A   1      46.863  24.766  27.530  1.00  0.00     0.074 A 
ATOM     72  C   UNL A   1      46.476  24.167  26.237  1.00  0.00     0.031 C 
ATOM     73  C   UNL A   1      46.252  24.777  28.754  1.00  0.00     0.037 A 
BRANCH  60  74
ATOM     74  C   UNL A   1      42.690  21.146  26.698  1.00  0.00     0.057 A 
ATOM     75  C   UNL A   1      43.652  21.134  25.672  1.00  0.00     0.134 A 
ATOM     76  C   UNL A   1      42.212  19.876  27.083  1.00  0.00     0.134 A 
ATOM     77  F   UNL A   1      44.231  22.254  25.222  1.00  0.00    -0.206 F 
ATOM     78  C   UNL A   1      44.148  19.945  25.116  1.00  0.00     0.040 A 
ATOM     79  C   UNL A   1      42.734  18.684  26.570  1.00  0.00     0.040 A 
ATOM     80  F   UNL A   1      41.281  19.757  28.043  1.00  0.00    -0.206 F 
ATOM     81  C   UNL A   1      43.717  18.714  25.590  1.00  0.00     0.006 A 
ENDBRANCH  60  74
BRANCH  61  82
ATOM     82  C   UNL A   1      48.275  27.581  24.124  1.00  0.00     0.057 A 
ATOM     83  C   UNL A   1      47.674  27.977  22.924  1.00  0.00     0.134 A 
ATOM     84  C   UNL A   1      49.657  27.252  23.992  1.00  0.00     0.134 A 
ATOM     85  F   UNL A   1      46.355  28.203  22.887  1.00  0.00    -0.206 F 
ATOM     86  C   UNL A   1      48.363  28.055  21.697  1.00  0.00     0.040 A 
ATOM     87  C   UNL A   1      50.368  27.346  22.765  1.00  0.00     0.040 A 
ATOM     88  F   UNL A   1      50.353  26.762  25.030  1.00  0.00    -0.206 F 
ATOM     89  C   UNL A   1      49.714  27.744  21.607  1.00  0.00     0.006 A 
ENDBRANCH  61  82
BRANCH  73  90
ATOM     90  C   UNL A   1      46.786  25.720  29.797  1.00  0.00     0.057 A 
ATOM     91  C   UNL A   1      45.965  26.785  30.167  1.00  0.00     0.134 A 
ATOM     92  C   UNL A   1      48.072  25.692  30.364  1.00  0.00     0.134 A 
ATOM     93  F   UNL A   1      44.769  26.942  29.581  1.00  0.00    -0.206 F 
ATOM     94  C   UNL A   1      46.365  27.741  31.099  1.00  0.00     0.040 A 
ATOM     95  C   UNL A   1      48.474  26.622  31.333  1.00  0.00     0.040 A 
ATOM     96  F   UNL A   1      48.990  24.811  29.952  1.00  0.00    -0.206 F 
ATOM     97  C   UNL A   1      47.609  27.643  31.714  1.00  0.00     0.006 A 
ENDBRANCH  73  90
ENDBRANCH  47  48
ENDBRANCH  39  42
ENDBRANCH  37  38
ENDBRANCH  36  37
ENDBRANCH  35  36
ENDBRANCH  34  35
ENDBRANCH   1  34
TORSDOF 18
ENDMDL
