MODEL 1
REMARK VINA RESULT:     -12.3      0.000      0.000
REMARK SMILES O=C(NCCCCCCNC(=O)c1ccc(-n2cc(CSc3nc4ccccc4c(=O)n3-c3ccc(Cl)cc3)nn2)cc1)c1ccc(-c2c3nc(c(-c4c(F)cccc4F)c4ccc([nH]4)c(-c4c(F)cccc4F)c4nc(c(-c5c(F)cccc5F)c5ccc2[nH]5)C=C4)C=C3)cc1
REMARK SMILES IDX 8 1 7 2 6 3 5 4 4 5 3 6 1 7 2 8 44 10 45 11 97 12 46 13
REMARK SMILES IDX 96 14 47 15 48 16 49 17 90 18 50 19 95 20 89 21 91 22 51 23
REMARK SMILES IDX 94 24 88 25 87 26 52 28 78 29 61 30 77 31 62 32 65 33 76 34
REMARK SMILES IDX 92 35 63 36 64 37 75 39 93 40 66 41 53 42 54 43 59 44 55 45
REMARK SMILES IDX 56 46 58 47 60 48 57 49 79 50 80 51 85 52 81 53 82 54 84 55
REMARK SMILES IDX 86 56 83 57 67 58 68 59 73 60 69 61 70 62 72 63 74 64 71 65
REMARK SMILES IDX 9 66 10 67 11 68 12 70 13 71 14 72 43 73 15 74 42 75 16 76
REMARK SMILES IDX 17 77 18 78 41 79 19 80 40 81 20 82 21 83 22 84 23 85 32 86
REMARK SMILES IDX 24 87 30 88 25 89 29 90 31 91 26 92 28 93 27 94 33 95 34 96
REMARK SMILES IDX 39 97 35 98 38 99 36 100 37 101
REMARK H PARENT 3 9 91 27 65 38 10 69
REMARK Flexibility Score: inf
ROOT
ATOM      1  C   UNL A   1      35.934  31.085  31.817  1.00  0.00     0.021 C 
ENDROOT
BRANCH   1   2
ATOM      2  C   UNL A   1      35.539  32.518  32.187  1.00  0.00     0.002 C 
BRANCH   2   3
ATOM      3  C   UNL A   1      36.322  33.149  33.345  1.00  0.00     0.002 C 
BRANCH   3   4
ATOM      4  C   UNL A   1      37.819  32.817  33.409  1.00  0.00     0.021 C 
BRANCH   4   5
ATOM      5  C   UNL A   1      38.731  33.832  32.725  1.00  0.00     0.116 C 
BRANCH   5   6
ATOM      6  N   UNL A   1      38.501  33.976  31.303  1.00  0.00    -0.352 N 
ATOM      7  O   UNL A   1      38.314  33.621  29.130  1.00  0.00    -0.269 OA
ATOM      8  C   UNL A   1      38.798  33.230  30.196  1.00  0.00     0.251 C 
ATOM      9  H   UNL A   1      38.019  34.804  31.081  1.00  0.00     0.163 HD
BRANCH   8  10
ATOM     10  C   UNL A   1      39.703  32.049  30.171  1.00  0.00     0.039 A 
ATOM     11  C   UNL A   1      41.061  32.044  30.491  1.00  0.00     0.014 A 
ATOM     12  C   UNL A   1      39.098  30.834  29.794  1.00  0.00     0.014 A 
ATOM     13  C   UNL A   1      41.810  30.873  30.362  1.00  0.00     0.010 A 
ATOM     14  C   UNL A   1      39.836  29.661  29.671  1.00  0.00     0.010 A 
ATOM     15  C   UNL A   1      41.202  29.686  29.929  1.00  0.00    -0.014 A 
BRANCH  15  16
ATOM     16  C   UNL A   1      41.970  28.439  29.987  1.00  0.00     0.031 A 
ATOM     17  C   UNL A   1      42.467  28.110  31.358  1.00  0.00     0.074 A 
ATOM     18  C   UNL A   1      42.083  27.565  28.962  1.00  0.00     0.049 A 
ATOM     19  N   UNL A   1      43.689  27.953  31.749  1.00  0.00    -0.248 NA
ATOM     20  C   UNL A   1      41.485  28.074  32.458  1.00  0.00     0.031 C 
ATOM     21  C   UNL A   1      41.410  27.613  27.663  1.00  0.00     0.029 A 
ATOM     22  N   UNL A   1      42.767  26.384  28.900  1.00  0.00    -0.354 N 
ATOM     23  C   UNL A   1      43.623  27.612  33.100  1.00  0.00     0.074 A 
ATOM     24  C   UNL A   1      42.266  27.848  33.514  1.00  0.00     0.031 C 
ATOM     25  C   UNL A   1      41.540  26.417  27.041  1.00  0.00     0.029 A 
ATOM     26  C   UNL A   1      42.411  25.562  27.831  1.00  0.00     0.049 A 
ATOM     27  H   UNL A   1      43.455  26.132  29.557  1.00  0.00     0.167 HD
ATOM     28  C   UNL A   1      44.642  26.951  33.715  1.00  0.00     0.037 A 
ATOM     29  C   UNL A   1      42.771  24.265  27.634  1.00  0.00     0.037 A 
ATOM     30  C   UNL A   1      45.868  27.087  32.975  1.00  0.00     0.049 A 
ATOM     31  C   UNL A   1      43.950  23.991  28.488  1.00  0.00     0.074 A 
ATOM     32  C   UNL A   1      46.665  28.149  32.595  1.00  0.00     0.029 A 
ATOM     33  N   UNL A   1      46.260  26.029  32.194  1.00  0.00    -0.354 N 
ATOM     34  N   UNL A   1      45.132  24.495  28.281  1.00  0.00    -0.248 NA
ATOM     35  C   UNL A   1      43.702  23.500  29.833  1.00  0.00     0.031 C 
ATOM     36  C   UNL A   1      47.127  27.811  31.290  1.00  0.00     0.029 A 
ATOM     37  C   UNL A   1      46.652  26.536  30.985  1.00  0.00     0.049 A 
ATOM     38  H   UNL A   1      46.260  25.080  32.456  1.00  0.00     0.167 HD
ATOM     39  C   UNL A   1      45.597  24.810  29.547  1.00  0.00     0.074 A 
ATOM     40  C   UNL A   1      44.713  24.098  30.468  1.00  0.00     0.031 C 
ATOM     41  C   UNL A   1      46.471  25.841  29.734  1.00  0.00     0.037 A 
BRANCH  28  42
ATOM     42  C   UNL A   1      44.450  25.870  34.755  1.00  0.00     0.057 A 
ATOM     43  C   UNL A   1      45.018  26.038  36.033  1.00  0.00     0.134 A 
ATOM     44  C   UNL A   1      44.016  24.560  34.468  1.00  0.00     0.134 A 
ATOM     45  F   UNL A   1      45.479  27.233  36.432  1.00  0.00    -0.206 F 
ATOM     46  C   UNL A   1      45.221  24.969  36.915  1.00  0.00     0.040 A 
ATOM     47  C   UNL A   1      44.169  23.495  35.361  1.00  0.00     0.040 A 
ATOM     48  F   UNL A   1      43.515  24.212  33.276  1.00  0.00    -0.206 F 
ATOM     49  C   UNL A   1      44.805  23.688  36.575  1.00  0.00     0.006 A 
ENDBRANCH  28  42
BRANCH  29  50
ATOM     50  C   UNL A   1      42.018  23.150  27.003  1.00  0.00     0.057 A 
ATOM     51  C   UNL A   1      42.680  22.095  26.352  1.00  0.00     0.134 A 
ATOM     52  C   UNL A   1      40.660  22.935  27.290  1.00  0.00     0.134 A 
ATOM     53  F   UNL A   1      43.989  22.180  26.072  1.00  0.00    -0.206 F 
ATOM     54  C   UNL A   1      42.038  20.889  26.034  1.00  0.00     0.040 A 
ATOM     55  C   UNL A   1      40.006  21.737  26.973  1.00  0.00     0.040 A 
ATOM     56  F   UNL A   1      39.946  23.841  27.972  1.00  0.00    -0.206 F 
ATOM     57  C   UNL A   1      40.698  20.702  26.357  1.00  0.00     0.006 A 
ENDBRANCH  29  50
BRANCH  41  58
ATOM     58  C   UNL A   1      47.121  26.446  28.521  1.00  0.00     0.057 A 
ATOM     59  C   UNL A   1      48.312  25.983  27.940  1.00  0.00     0.134 A 
ATOM     60  C   UNL A   1      46.429  27.448  27.830  1.00  0.00     0.134 A 
ATOM     61  F   UNL A   1      48.996  24.962  28.474  1.00  0.00    -0.206 F 
ATOM     62  C   UNL A   1      48.807  26.521  26.749  1.00  0.00     0.040 A 
ATOM     63  C   UNL A   1      46.894  27.967  26.622  1.00  0.00     0.040 A 
ATOM     64  F   UNL A   1      45.257  27.905  28.299  1.00  0.00    -0.206 F 
ATOM     65  C   UNL A   1      48.092  27.511  26.081  1.00  0.00     0.006 A 
ENDBRANCH  41  58
ENDBRANCH  15  16
ENDBRANCH   8  10
ENDBRANCH   5   6
ENDBRANCH   4   5
ENDBRANCH   3   4
ENDBRANCH   2   3
ENDBRANCH   1   2
BRANCH   1  66
ATOM     66  C   UNL A   1      35.686  30.702  30.360  1.00  0.00     0.116 C 
BRANCH  66  67
ATOM     67  N   UNL A   1      35.720  31.850  29.468  1.00  0.00    -0.352 N 
ATOM     68  C   UNL A   1      35.172  31.992  28.219  1.00  0.00     0.251 C 
ATOM     69  H   UNL A   1      36.205  32.637  29.808  1.00  0.00     0.163 HD
ATOM     70  O   UNL A   1      35.402  32.997  27.543  1.00  0.00    -0.269 OA
BRANCH  68  71
ATOM     71  C   UNL A   1      34.328  30.918  27.666  1.00  0.00     0.039 A 
ATOM     72  C   UNL A   1      32.988  31.203  27.373  1.00  0.00     0.016 A 
ATOM     73  C   UNL A   1      34.855  29.644  27.432  1.00  0.00     0.016 A 
ATOM     74  C   UNL A   1      32.191  30.241  26.751  1.00  0.00     0.029 A 
ATOM     75  C   UNL A   1      34.052  28.667  26.849  1.00  0.00     0.029 A 
ATOM     76  C   UNL A   1      32.725  28.976  26.496  1.00  0.00     0.066 A 
BRANCH  76  77
ATOM     77  N   UNL A   1      31.890  27.969  25.979  1.00  0.00    -0.220 N 
ATOM     78  C   UNL A   1      31.845  26.676  26.415  1.00  0.00     0.141 A 
ATOM     79  N   UNL A   1      30.998  28.141  24.983  1.00  0.00    -0.062 NA
ATOM     80  C   UNL A   1      30.897  26.047  25.649  1.00  0.00     0.093 A 
ATOM     81  N   UNL A   1      30.436  26.958  24.729  1.00  0.00    -0.134 NA
BRANCH  80  82
ATOM     82  C   UNL A   1      30.580  24.603  25.557  1.00  0.00     0.138 C 
BRANCH  82  83
ATOM     83  S   UNL A   1      31.385  23.333  26.534  1.00  0.00    -0.081 SA
BRANCH  83  84
ATOM     84  C   UNL A   1      32.404  22.260  25.612  1.00  0.00     0.176 A 
ATOM     85  N   UNL A   1      32.045  21.019  25.765  1.00  0.00    -0.223 NA
ATOM     86  N   UNL A   1      33.458  22.616  24.780  1.00  0.00    -0.255 N 
ATOM     87  C   UNL A   1      32.827  20.012  25.195  1.00  0.00     0.079 A 
ATOM     88  C   UNL A   1      34.519  21.692  24.776  1.00  0.00     0.266 A 
ATOM     89  C   UNL A   1      32.347  18.707  25.080  1.00  0.00     0.029 A 
ATOM     90  C   UNL A   1      34.145  20.271  24.860  1.00  0.00     0.066 A 
ATOM     91  O   UNL A   1      35.717  21.968  24.734  1.00  0.00    -0.268 OA
ATOM     92  C   UNL A   1      33.211  17.667  24.717  1.00  0.00     0.002 A 
ATOM     93  C   UNL A   1      35.038  19.237  24.554  1.00  0.00     0.016 A 
ATOM     94  C   UNL A   1      34.566  17.926  24.498  1.00  0.00     0.001 A 
BRANCH  86  95
ATOM     95  C   UNL A   1      33.604  23.834  23.999  1.00  0.00     0.051 A 
ATOM     96  C   UNL A   1      34.301  24.940  24.531  1.00  0.00     0.028 A 
ATOM     97  C   UNL A   1      33.069  24.024  22.719  1.00  0.00     0.028 A 
ATOM     98  C   UNL A   1      34.218  26.219  23.966  1.00  0.00     0.022 A 
ATOM     99  C   UNL A   1      32.915  25.312  22.178  1.00  0.00     0.022 A 
ATOM    100  C   UNL A   1      33.449  26.412  22.833  1.00  0.00     0.041 A 
ATOM    101  Cl  UNL A   1      33.136  27.999  22.260  1.00  0.00    -0.084 Cl
ENDBRANCH  86  95
ENDBRANCH  83  84
ENDBRANCH  82  83
ENDBRANCH  80  82
ENDBRANCH  76  77
ENDBRANCH  68  71
ENDBRANCH  66  67
ENDBRANCH   1  66
TORSDOF 18
ENDMDL
MODEL 2
REMARK VINA RESULT:     -11.8      5.182     10.266
REMARK SMILES O=C(NCCCCCCNC(=O)c1ccc(-n2cc(CSc3nc4ccccc4c(=O)n3-c3ccc(Cl)cc3)nn2)cc1)c1ccc(-c2c3nc(c(-c4c(F)cccc4F)c4ccc([nH]4)c(-c4c(F)cccc4F)c4nc(c(-c5c(F)cccc5F)c5ccc2[nH]5)C=C4)C=C3)cc1
REMARK SMILES IDX 8 1 7 2 6 3 5 4 4 5 3 6 1 7 2 8 44 10 45 11 97 12 46 13
REMARK SMILES IDX 96 14 47 15 48 16 49 17 90 18 50 19 95 20 89 21 91 22 51 23
REMARK SMILES IDX 94 24 88 25 87 26 52 28 78 29 61 30 77 31 62 32 65 33 76 34
REMARK SMILES IDX 92 35 63 36 64 37 75 39 93 40 66 41 53 42 54 43 59 44 55 45
REMARK SMILES IDX 56 46 58 47 60 48 57 49 79 50 80 51 85 52 81 53 82 54 84 55
REMARK SMILES IDX 86 56 83 57 67 58 68 59 73 60 69 61 70 62 72 63 74 64 71 65
REMARK SMILES IDX 9 66 10 67 11 68 12 70 13 71 14 72 43 73 15 74 42 75 16 76
REMARK SMILES IDX 17 77 18 78 41 79 19 80 40 81 20 82 21 83 22 84 23 85 32 86
REMARK SMILES IDX 24 87 30 88 25 89 29 90 31 91 26 92 28 93 27 94 33 95 34 96
REMARK SMILES IDX 39 97 35 98 38 99 36 100 37 101
REMARK H PARENT 3 9 91 27 65 38 10 69
REMARK Flexibility Score: inf
ROOT
ATOM      1  C   UNL A   1      33.279  34.664  28.798  1.00  0.00     0.021 C 
ENDROOT
BRANCH   1   2
ATOM      2  C   UNL A   1      34.505  33.792  28.508  1.00  0.00     0.002 C 
BRANCH   2   3
ATOM      3  C   UNL A   1      35.719  34.025  29.416  1.00  0.00     0.002 C 
BRANCH   3   4
ATOM      4  C   UNL A   1      36.563  32.787  29.746  1.00  0.00     0.021 C 
BRANCH   4   5
ATOM      5  C   UNL A   1      35.767  31.579  30.234  1.00  0.00     0.116 C 
BRANCH   5   6
ATOM      6  N   UNL A   1      35.353  30.674  29.183  1.00  0.00    -0.352 N 
ATOM      7  O   UNL A   1      35.206  28.994  27.755  1.00  0.00    -0.269 OA
ATOM      8  C   UNL A   1      35.934  29.625  28.526  1.00  0.00     0.251 C 
ATOM      9  H   UNL A   1      34.439  30.857  28.866  1.00  0.00     0.163 HD
BRANCH   8  10
ATOM     10  C   UNL A   1      37.370  29.245  28.613  1.00  0.00     0.039 A 
ATOM     11  C   UNL A   1      37.980  28.563  29.666  1.00  0.00     0.014 A 
ATOM     12  C   UNL A   1      38.160  29.612  27.506  1.00  0.00     0.014 A 
ATOM     13  C   UNL A   1      39.356  28.326  29.648  1.00  0.00     0.010 A 
ATOM     14  C   UNL A   1      39.529  29.373  27.477  1.00  0.00     0.010 A 
ATOM     15  C   UNL A   1      40.135  28.752  28.564  1.00  0.00    -0.014 A 
BRANCH  15  16
ATOM     16  C   UNL A   1      41.534  28.323  28.488  1.00  0.00     0.031 A 
ATOM     17  C   UNL A   1      41.716  27.011  27.794  1.00  0.00     0.074 A 
ATOM     18  C   UNL A   1      42.588  29.091  28.841  1.00  0.00     0.049 A 
ATOM     19  N   UNL A   1      42.234  25.923  28.263  1.00  0.00    -0.248 NA
ATOM     20  C   UNL A   1      41.135  26.856  26.447  1.00  0.00     0.031 C 
ATOM     21  C   UNL A   1      42.576  30.495  29.257  1.00  0.00     0.029 A 
ATOM     22  N   UNL A   1      43.923  28.800  28.816  1.00  0.00    -0.354 N 
ATOM     23  C   UNL A   1      42.219  25.002  27.215  1.00  0.00     0.074 A 
ATOM     24  C   UNL A   1      41.402  25.577  26.180  1.00  0.00     0.031 C 
ATOM     25  C   UNL A   1      43.838  30.987  29.225  1.00  0.00     0.029 A 
ATOM     26  C   UNL A   1      44.763  29.909  28.918  1.00  0.00     0.049 A 
ATOM     27  H   UNL A   1      44.265  27.880  28.732  1.00  0.00     0.167 HD
ATOM     28  C   UNL A   1      43.064  23.935  27.195  1.00  0.00     0.037 A 
ATOM     29  C   UNL A   1      46.108  29.943  28.721  1.00  0.00     0.037 A 
ATOM     30  C   UNL A   1      43.568  23.652  28.512  1.00  0.00     0.049 A 
ATOM     31  C   UNL A   1      46.613  28.554  28.818  1.00  0.00     0.074 A 
ATOM     32  C   UNL A   1      42.999  23.295  29.719  1.00  0.00     0.029 A 
ATOM     33  N   UNL A   1      44.839  24.073  28.810  1.00  0.00    -0.354 N 
ATOM     34  N   UNL A   1      46.653  27.870  29.923  1.00  0.00    -0.248 NA
ATOM     35  C   UNL A   1      46.664  27.775  27.592  1.00  0.00     0.031 C 
ATOM     36  C   UNL A   1      43.765  23.985  30.703  1.00  0.00     0.029 A 
ATOM     37  C   UNL A   1      44.799  24.655  30.048  1.00  0.00     0.049 A 
ATOM     38  H   UNL A   1      45.635  23.974  28.238  1.00  0.00     0.167 HD
ATOM     39  C   UNL A   1      46.267  26.592  29.550  1.00  0.00     0.074 A 
ATOM     40  C   UNL A   1      46.369  26.572  28.092  1.00  0.00     0.031 C 
ATOM     41  C   UNL A   1      45.630  25.769  30.432  1.00  0.00     0.037 A 
BRANCH  28  42
ATOM     42  C   UNL A   1      43.734  23.403  25.948  1.00  0.00     0.057 A 
ATOM     43  C   UNL A   1      43.705  22.018  25.692  1.00  0.00     0.134 A 
ATOM     44  C   UNL A   1      44.658  24.130  25.172  1.00  0.00     0.134 A 
ATOM     45  F   UNL A   1      42.876  21.208  26.368  1.00  0.00    -0.206 F 
ATOM     46  C   UNL A   1      44.591  21.397  24.802  1.00  0.00     0.040 A 
ATOM     47  C   UNL A   1      45.513  23.527  24.245  1.00  0.00     0.040 A 
ATOM     48  F   UNL A   1      44.861  25.443  25.336  1.00  0.00    -0.206 F 
ATOM     49  C   UNL A   1      45.508  22.151  24.082  1.00  0.00     0.006 A 
ENDBRANCH  28  42
BRANCH  29  50
ATOM     50  C   UNL A   1      46.964  31.023  28.164  1.00  0.00     0.057 A 
ATOM     51  C   UNL A   1      46.692  31.599  26.912  1.00  0.00     0.134 A 
ATOM     52  C   UNL A   1      47.874  31.722  28.974  1.00  0.00     0.134 A 
ATOM     53  F   UNL A   1      45.804  31.036  26.079  1.00  0.00    -0.206 F 
ATOM     54  C   UNL A   1      47.267  32.812  26.503  1.00  0.00     0.040 A 
ATOM     55  C   UNL A   1      48.459  32.932  28.576  1.00  0.00     0.040 A 
ATOM     56  F   UNL A   1      48.153  31.306  30.217  1.00  0.00    -0.206 F 
ATOM     57  C   UNL A   1      48.145  33.490  27.344  1.00  0.00     0.006 A 
ENDBRANCH  29  50
BRANCH  41  58
ATOM     58  C   UNL A   1      45.599  26.172  31.880  1.00  0.00     0.057 A 
ATOM     59  C   UNL A   1      44.518  26.812  32.506  1.00  0.00     0.134 A 
ATOM     60  C   UNL A   1      46.651  25.758  32.705  1.00  0.00     0.134 A 
ATOM     61  F   UNL A   1      43.422  27.161  31.820  1.00  0.00    -0.206 F 
ATOM     62  C   UNL A   1      44.508  27.062  33.881  1.00  0.00     0.040 A 
ATOM     63  C   UNL A   1      46.637  25.969  34.083  1.00  0.00     0.040 A 
ATOM     64  F   UNL A   1      47.696  25.093  32.184  1.00  0.00    -0.206 F 
ATOM     65  C   UNL A   1      45.566  26.633  34.677  1.00  0.00     0.006 A 
ENDBRANCH  41  58
ENDBRANCH  15  16
ENDBRANCH   8  10
ENDBRANCH   5   6
ENDBRANCH   4   5
ENDBRANCH   3   4
ENDBRANCH   2   3
ENDBRANCH   1   2
BRANCH   1  66
ATOM     66  C   UNL A   1      33.586  36.025  29.419  1.00  0.00     0.116 C 
BRANCH  66  67
ATOM     67  N   UNL A   1      32.569  36.445  30.371  1.00  0.00    -0.352 N 
ATOM     68  C   UNL A   1      32.431  36.111  31.693  1.00  0.00     0.251 C 
ATOM     69  H   UNL A   1      31.882  37.055  30.015  1.00  0.00     0.163 HD
ATOM     70  O   UNL A   1      31.433  36.460  32.328  1.00  0.00    -0.269 OA
BRANCH  68  71
ATOM     71  C   UNL A   1      33.468  35.299  32.354  1.00  0.00     0.039 A 
ATOM     72  C   UNL A   1      34.540  35.955  32.972  1.00  0.00     0.016 A 
ATOM     73  C   UNL A   1      33.380  33.904  32.369  1.00  0.00     0.016 A 
ATOM     74  C   UNL A   1      35.482  35.223  33.695  1.00  0.00     0.029 A 
ATOM     75  C   UNL A   1      34.341  33.164  33.055  1.00  0.00     0.029 A 
ATOM     76  C   UNL A   1      35.381  33.830  33.729  1.00  0.00     0.066 A 
BRANCH  76  77
ATOM     77  N   UNL A   1      36.394  33.082  34.357  1.00  0.00    -0.220 N 
ATOM     78  C   UNL A   1      37.253  32.229  33.729  1.00  0.00     0.141 A 
ATOM     79  N   UNL A   1      36.672  33.114  35.676  1.00  0.00    -0.062 NA
ATOM     80  C   UNL A   1      38.074  31.724  34.705  1.00  0.00     0.093 A 
ATOM     81  N   UNL A   1      37.651  32.237  35.908  1.00  0.00    -0.134 NA
BRANCH  80  82
ATOM     82  C   UNL A   1      39.051  30.614  34.620  1.00  0.00     0.138 C 
BRANCH  82  83
ATOM     83  S   UNL A   1      40.159  30.355  33.234  1.00  0.00    -0.081 SA
BRANCH  83  84
ATOM     84  C   UNL A   1      40.864  31.818  32.599  1.00  0.00     0.176 A 
ATOM     85  N   UNL A   1      40.183  32.270  31.587  1.00  0.00    -0.223 NA
ATOM     86  N   UNL A   1      41.984  32.485  33.079  1.00  0.00    -0.255 N 
ATOM     87  C   UNL A   1      40.672  33.367  30.876  1.00  0.00     0.079 A 
ATOM     88  C   UNL A   1      42.758  33.095  32.075  1.00  0.00     0.266 A 
ATOM     89  C   UNL A   1      39.860  34.064  29.980  1.00  0.00     0.029 A 
ATOM     90  C   UNL A   1      42.015  33.695  30.955  1.00  0.00     0.066 A 
ATOM     91  O   UNL A   1      43.986  33.148  32.042  1.00  0.00    -0.268 OA
ATOM     92  C   UNL A   1      40.418  35.014  29.116  1.00  0.00     0.002 A 
ATOM     93  C   UNL A   1      42.601  34.596  30.058  1.00  0.00     0.016 A 
ATOM     94  C   UNL A   1      41.795  35.246  29.124  1.00  0.00     0.001 A 
BRANCH  86  95
ATOM     95  C   UNL A   1      42.460  32.552  34.451  1.00  0.00     0.051 A 
ATOM     96  C   UNL A   1      43.745  32.069  34.782  1.00  0.00     0.028 A 
ATOM     97  C   UNL A   1      41.715  33.052  35.526  1.00  0.00     0.028 A 
ATOM     98  C   UNL A   1      44.137  31.831  36.104  1.00  0.00     0.022 A 
ATOM     99  C   UNL A   1      42.062  32.754  36.854  1.00  0.00     0.022 A 
ATOM    100  C   UNL A   1      43.252  32.098  37.134  1.00  0.00     0.041 A 
ATOM    101  Cl  UNL A   1      43.610  31.596  38.736  1.00  0.00    -0.084 Cl
ENDBRANCH  86  95
ENDBRANCH  83  84
ENDBRANCH  82  83
ENDBRANCH  80  82
ENDBRANCH  76  77
ENDBRANCH  68  71
ENDBRANCH  66  67
ENDBRANCH   1  66
TORSDOF 18
ENDMDL
MODEL 3
REMARK VINA RESULT:     -11.8      2.728      4.410
REMARK SMILES O=C(NCCCCCCNC(=O)c1ccc(-n2cc(CSc3nc4ccccc4c(=O)n3-c3ccc(Cl)cc3)nn2)cc1)c1ccc(-c2c3nc(c(-c4c(F)cccc4F)c4ccc([nH]4)c(-c4c(F)cccc4F)c4nc(c(-c5c(F)cccc5F)c5ccc2[nH]5)C=C4)C=C3)cc1
REMARK SMILES IDX 8 1 7 2 6 3 5 4 4 5 3 6 1 7 2 8 44 10 45 11 97 12 46 13
REMARK SMILES IDX 96 14 47 15 48 16 49 17 90 18 50 19 95 20 89 21 91 22 51 23
REMARK SMILES IDX 94 24 88 25 87 26 52 28 78 29 61 30 77 31 62 32 65 33 76 34
REMARK SMILES IDX 92 35 63 36 64 37 75 39 93 40 66 41 53 42 54 43 59 44 55 45
REMARK SMILES IDX 56 46 58 47 60 48 57 49 79 50 80 51 85 52 81 53 82 54 84 55
REMARK SMILES IDX 86 56 83 57 67 58 68 59 73 60 69 61 70 62 72 63 74 64 71 65
REMARK SMILES IDX 9 66 10 67 11 68 12 70 13 71 14 72 43 73 15 74 42 75 16 76
REMARK SMILES IDX 17 77 18 78 41 79 19 80 40 81 20 82 21 83 22 84 23 85 32 86
REMARK SMILES IDX 24 87 30 88 25 89 29 90 31 91 26 92 28 93 27 94 33 95 34 96
REMARK SMILES IDX 39 97 35 98 38 99 36 100 37 101
REMARK H PARENT 3 9 91 27 65 38 10 69
REMARK Flexibility Score: inf
ROOT
ATOM      1  C   UNL A   1      33.674  35.578  32.629  1.00  0.00     0.021 C 
ENDROOT
BRANCH   1   2
ATOM      2  C   UNL A   1      34.003  34.100  32.862  1.00  0.00     0.002 C 
BRANCH   2   3
ATOM      3  C   UNL A   1      35.177  33.819  33.809  1.00  0.00     0.002 C 
BRANCH   3   4
ATOM      4  C   UNL A   1      36.551  33.647  33.149  1.00  0.00     0.021 C 
BRANCH   4   5
ATOM      5  C   UNL A   1      37.735  33.683  34.113  1.00  0.00     0.116 C 
BRANCH   5   6
ATOM      6  N   UNL A   1      37.525  32.947  35.342  1.00  0.00    -0.352 N 
ATOM      7  O   UNL A   1      37.716  31.565  37.055  1.00  0.00    -0.269 OA
ATOM      8  C   UNL A   1      38.070  31.825  35.902  1.00  0.00     0.251 C 
ATOM      9  H   UNL A   1      36.825  33.348  35.906  1.00  0.00     0.163 HD
BRANCH   8  10
ATOM     10  C   UNL A   1      38.982  30.874  35.210  1.00  0.00     0.039 A 
ATOM     11  C   UNL A   1      38.713  30.186  34.027  1.00  0.00     0.014 A 
ATOM     12  C   UNL A   1      40.234  30.682  35.828  1.00  0.00     0.014 A 
ATOM     13  C   UNL A   1      39.637  29.271  33.520  1.00  0.00     0.010 A 
ATOM     14  C   UNL A   1      41.163  29.778  35.323  1.00  0.00     0.010 A 
ATOM     15  C   UNL A   1      40.853  29.049  34.181  1.00  0.00    -0.014 A 
BRANCH  15  16
ATOM     16  C   UNL A   1      41.874  28.229  33.524  1.00  0.00     0.031 A 
ATOM     17  C   UNL A   1      42.410  27.138  34.396  1.00  0.00     0.074 A 
ATOM     18  C   UNL A   1      42.191  28.311  32.213  1.00  0.00     0.049 A 
ATOM     19  N   UNL A   1      43.631  26.945  34.774  1.00  0.00    -0.248 NA
ATOM     20  C   UNL A   1      41.443  26.218  35.024  1.00  0.00     0.031 C 
ATOM     21  C   UNL A   1      41.544  29.124  31.182  1.00  0.00     0.029 A 
ATOM     22  N   UNL A   1      43.119  27.606  31.498  1.00  0.00    -0.354 N 
ATOM     23  C   UNL A   1      43.621  25.774  35.533  1.00  0.00     0.074 A 
ATOM     24  C   UNL A   1      42.239  25.458  35.776  1.00  0.00     0.031 C 
ATOM     25  C   UNL A   1      41.943  28.703  29.957  1.00  0.00     0.029 A 
ATOM     26  C   UNL A   1      42.968  27.684  30.114  1.00  0.00     0.049 A 
ATOM     27  H   UNL A   1      43.835  27.083  31.926  1.00  0.00     0.167 HD
ATOM     28  C   UNL A   1      44.751  25.035  35.712  1.00  0.00     0.037 A 
ATOM     29  C   UNL A   1      43.607  26.938  29.173  1.00  0.00     0.037 A 
ATOM     30  C   UNL A   1      45.928  25.820  35.452  1.00  0.00     0.049 A 
ATOM     31  C   UNL A   1      44.804  26.341  29.808  1.00  0.00     0.074 A 
ATOM     32  C   UNL A   1      46.478  26.963  36.000  1.00  0.00     0.029 A 
ATOM     33  N   UNL A   1      46.554  25.647  34.244  1.00  0.00    -0.354 N 
ATOM     34  N   UNL A   1      45.849  27.023  30.176  1.00  0.00    -0.248 NA
ATOM     35  C   UNL A   1      44.649  25.039  30.435  1.00  0.00     0.031 C 
ATOM     36  C   UNL A   1      47.023  27.674  34.891  1.00  0.00     0.029 A 
ATOM     37  C   UNL A   1      46.844  26.891  33.751  1.00  0.00     0.049 A 
ATOM     38  H   UNL A   1      46.758  24.787  33.812  1.00  0.00     0.167 HD
ATOM     39  C   UNL A   1      46.215  26.462  31.389  1.00  0.00     0.074 A 
ATOM     40  C   UNL A   1      45.494  25.192  31.456  1.00  0.00     0.031 C 
ATOM     41  C   UNL A   1      46.839  27.210  32.345  1.00  0.00     0.037 A 
BRANCH  28  42
ATOM     42  C   UNL A   1      44.784  23.524  35.734  1.00  0.00     0.057 A 
ATOM     43  C   UNL A   1      45.485  22.868  36.765  1.00  0.00     0.134 A 
ATOM     44  C   UNL A   1      44.439  22.706  34.640  1.00  0.00     0.134 A 
ATOM     45  F   UNL A   1      45.881  23.532  37.862  1.00  0.00    -0.206 F 
ATOM     46  C   UNL A   1      45.889  21.530  36.671  1.00  0.00     0.040 A 
ATOM     47  C   UNL A   1      44.795  21.356  34.556  1.00  0.00     0.040 A 
ATOM     48  F   UNL A   1      43.832  23.183  33.547  1.00  0.00    -0.206 F 
ATOM     49  C   UNL A   1      45.554  20.772  35.557  1.00  0.00     0.006 A 
ENDBRANCH  28  42
BRANCH  29  50
ATOM     50  C   UNL A   1      43.126  26.450  27.854  1.00  0.00     0.057 A 
ATOM     51  C   UNL A   1      41.918  25.742  27.732  1.00  0.00     0.134 A 
ATOM     52  C   UNL A   1      43.677  26.930  26.654  1.00  0.00     0.134 A 
ATOM     53  F   UNL A   1      41.285  25.279  28.820  1.00  0.00    -0.206 F 
ATOM     54  C   UNL A   1      41.283  25.550  26.496  1.00  0.00     0.040 A 
ATOM     55  C   UNL A   1      43.055  26.741  25.413  1.00  0.00     0.040 A 
ATOM     56  F   UNL A   1      44.787  27.680  26.656  1.00  0.00    -0.206 F 
ATOM     57  C   UNL A   1      41.845  26.063  25.332  1.00  0.00     0.006 A 
ENDBRANCH  29  50
BRANCH  41  58
ATOM     58  C   UNL A   1      47.358  28.566  31.955  1.00  0.00     0.057 A 
ATOM     59  C   UNL A   1      46.602  29.748  31.985  1.00  0.00     0.134 A 
ATOM     60  C   UNL A   1      48.724  28.697  31.680  1.00  0.00     0.134 A 
ATOM     61  F   UNL A   1      45.308  29.739  32.332  1.00  0.00    -0.206 F 
ATOM     62  C   UNL A   1      47.175  30.994  31.715  1.00  0.00     0.040 A 
ATOM     63  C   UNL A   1      49.314  29.938  31.444  1.00  0.00     0.040 A 
ATOM     64  F   UNL A   1      49.521  27.615  31.685  1.00  0.00    -0.206 F 
ATOM     65  C   UNL A   1      48.538  31.093  31.451  1.00  0.00     0.006 A 
ENDBRANCH  41  58
ENDBRANCH  15  16
ENDBRANCH   8  10
ENDBRANCH   5   6
ENDBRANCH   4   5
ENDBRANCH   3   4
ENDBRANCH   2   3
ENDBRANCH   1   2
BRANCH   1  66
ATOM     66  C   UNL A   1      32.448  35.837  31.758  1.00  0.00     0.116 C 
BRANCH  66  67
ATOM     67  N   UNL A   1      32.723  36.762  30.669  1.00  0.00    -0.352 N 
ATOM     68  C   UNL A   1      33.288  36.514  29.445  1.00  0.00     0.251 C 
ATOM     69  H   UNL A   1      32.468  37.699  30.835  1.00  0.00     0.163 HD
ATOM     70  O   UNL A   1      33.565  37.442  28.682  1.00  0.00    -0.269 OA
BRANCH  68  71
ATOM     71  C   UNL A   1      33.598  35.128  29.051  1.00  0.00     0.039 A 
ATOM     72  C   UNL A   1      32.643  34.410  28.321  1.00  0.00     0.016 A 
ATOM     73  C   UNL A   1      34.822  34.545  29.393  1.00  0.00     0.016 A 
ATOM     74  C   UNL A   1      32.946  33.135  27.842  1.00  0.00     0.029 A 
ATOM     75  C   UNL A   1      35.114  33.257  28.952  1.00  0.00     0.029 A 
ATOM     76  C   UNL A   1      34.178  32.562  28.164  1.00  0.00     0.066 A 
BRANCH  76  77
ATOM     77  N   UNL A   1      34.439  31.233  27.784  1.00  0.00    -0.220 N 
ATOM     78  C   UNL A   1      33.703  30.505  26.895  1.00  0.00     0.141 A 
ATOM     79  N   UNL A   1      35.469  30.489  28.235  1.00  0.00    -0.062 NA
ATOM     80  C   UNL A   1      34.308  29.276  26.813  1.00  0.00     0.093 A 
ATOM     81  N   UNL A   1      35.358  29.271  27.700  1.00  0.00    -0.134 NA
BRANCH  80  82
ATOM     82  C   UNL A   1      33.825  28.040  26.156  1.00  0.00     0.138 C 
BRANCH  82  83
ATOM     83  S   UNL A   1      32.223  27.296  26.469  1.00  0.00    -0.081 SA
BRANCH  83  84
ATOM     84  C   UNL A   1      31.865  25.920  25.458  1.00  0.00     0.176 A 
ATOM     85  N   UNL A   1      32.158  24.804  26.058  1.00  0.00    -0.223 NA
ATOM     86  N   UNL A   1      31.311  25.939  24.185  1.00  0.00    -0.255 N 
ATOM     87  C   UNL A   1      32.051  23.606  25.350  1.00  0.00     0.079 A 
ATOM     88  C   UNL A   1      31.796  24.926  23.337  1.00  0.00     0.266 A 
ATOM     89  C   UNL A   1      32.072  22.376  26.010  1.00  0.00     0.029 A 
ATOM     90  C   UNL A   1      32.057  23.621  23.965  1.00  0.00     0.066 A 
ATOM     91  O   UNL A   1      32.040  25.044  22.137  1.00  0.00    -0.268 OA
ATOM     92  C   UNL A   1      32.187  21.186  25.280  1.00  0.00     0.002 A 
ATOM     93  C   UNL A   1      32.233  22.448  23.223  1.00  0.00     0.016 A 
ATOM     94  C   UNL A   1      32.313  21.226  23.889  1.00  0.00     0.001 A 
BRANCH  86  95
ATOM     95  C   UNL A   1      30.374  26.905  23.636  1.00  0.00     0.051 A 
ATOM     96  C   UNL A   1      30.843  28.115  23.079  1.00  0.00     0.028 A 
ATOM     97  C   UNL A   1      28.982  26.747  23.633  1.00  0.00     0.028 A 
ATOM     98  C   UNL A   1      29.994  29.196  22.816  1.00  0.00     0.022 A 
ATOM     99  C   UNL A   1      28.124  27.843  23.443  1.00  0.00     0.022 A 
ATOM    100  C   UNL A   1      28.642  29.079  23.082  1.00  0.00     0.041 A 
ATOM    101  Cl  UNL A   1      27.620  30.456  22.997  1.00  0.00    -0.084 Cl
ENDBRANCH  86  95
ENDBRANCH  83  84
ENDBRANCH  82  83
ENDBRANCH  80  82
ENDBRANCH  76  77
ENDBRANCH  68  71
ENDBRANCH  66  67
ENDBRANCH   1  66
TORSDOF 18
ENDMDL
