MODEL 1
REMARK VINA RESULT:     -11.5      0.000      0.000
REMARK SMILES CCOC(=O)C1=NN(c2ccc(Cl)cc2F)[C@@H](C(=O)NCCCCCCNC(=O)c2ccc(-c3c4nc(c(-c5c(F)cccc5F)c5ccc([nH]5)c(-c5c(F)cccc5F)c5nc(c(-c6c(F)cccc6F)c6ccc3[nH]6)C=C5)C=C4)cc2)C1
REMARK SMILES IDX 23 1 22 2 21 3 20 4 18 5 19 6 17 8 6 9 7 10 84 11 8 12 4 13
REMARK SMILES IDX 5 14 3 15 2 16 1 17 9 18 10 19 15 20 11 21 14 22 16 23 12 24
REMARK SMILES IDX 13 25 24 26 25 27 26 28 27 29 28 30 29 32 30 33 31 34 83 35
REMARK SMILES IDX 32 36 82 37 33 38 34 39 35 40 76 41 36 42 81 43 75 44 77 45
REMARK SMILES IDX 37 46 80 47 74 48 73 49 38 51 64 52 47 53 63 54 48 55 51 56
REMARK SMILES IDX 62 57 78 58 49 59 50 60 61 62 79 63 52 64 39 65 40 66 45 67
REMARK SMILES IDX 41 68 42 69 44 70 46 71 43 72 65 73 66 74 71 75 67 76 68 77
REMARK SMILES IDX 70 78 72 79 69 80 53 81 54 82 59 83 55 84 56 85 58 86 60 87
REMARK SMILES IDX 57 88
REMARK H PARENT 20 7 27 31 77 50 51 61
REMARK Flexibility Score: inf
ROOT
ATOM      1  C   UNL A   1      32.760  30.151  26.172  1.00  0.00     0.002 C 
ENDROOT
BRANCH   1   2
ATOM      2  C   UNL A   1      32.791  29.056  27.247  1.00  0.00     0.021 C 
BRANCH   2   3
ATOM      3  C   UNL A   1      31.409  28.515  27.615  1.00  0.00     0.116 C 
BRANCH   3   4
ATOM      4  N   UNL A   1      31.326  27.084  27.421  1.00  0.00    -0.354 N 
ATOM      5  C   UNL A   1      31.425  26.311  26.305  1.00  0.00     0.245 C 
ATOM      6  O   UNL A   1      31.238  25.101  26.503  1.00  0.00    -0.273 OA
ATOM      7  H   UNL A   1      31.170  26.575  28.248  1.00  0.00     0.163 HD
BRANCH   5   8
ATOM      8  C   UNL A   1      31.880  26.812  24.913  1.00  0.00     0.203 C 
ATOM      9  C   UNL A   1      32.307  25.208  23.307  1.00  0.00     0.148 C 
ATOM     10  N   UNL A   1      31.121  25.633  23.003  1.00  0.00    -0.169 NA
ATOM     11  C   UNL A   1      33.022  25.921  24.397  1.00  0.00     0.103 C 
ATOM     12  N   UNL A   1      30.878  26.703  23.835  1.00  0.00    -0.249 N 
BRANCH   9  13
ATOM     13  C   UNL A   1      33.024  24.130  22.546  1.00  0.00     0.354 C 
ATOM     14  O   UNL A   1      33.377  24.288  21.392  1.00  0.00    -0.245 OA
BRANCH  13  15
ATOM     15  O   UNL A   1      33.272  23.088  23.362  1.00  0.00    -0.461 OA
BRANCH  15  16
ATOM     16  C   UNL A   1      34.659  22.742  23.497  1.00  0.00     0.230 C 
ATOM     17  C   UNL A   1      34.881  21.840  24.698  1.00  0.00     0.049 C 
ENDBRANCH  15  16
ENDBRANCH  13  15
ENDBRANCH   9  13
BRANCH  12  18
ATOM     18  C   UNL A   1      30.126  27.755  23.293  1.00  0.00     0.096 A 
ATOM     19  C   UNL A   1      30.798  28.806  22.636  1.00  0.00     0.032 A 
ATOM     20  C   UNL A   1      28.721  27.837  23.319  1.00  0.00     0.149 A 
ATOM     21  C   UNL A   1      30.106  29.845  22.000  1.00  0.00     0.023 A 
ATOM     22  C   UNL A   1      28.020  28.872  22.698  1.00  0.00     0.062 A 
ATOM     23  F   UNL A   1      27.983  26.901  23.933  1.00  0.00    -0.205 F 
ATOM     24  C   UNL A   1      28.718  29.867  22.029  1.00  0.00     0.044 A 
ATOM     25  Cl  UNL A   1      27.860  31.120  21.224  1.00  0.00    -0.084 Cl
ENDBRANCH  12  18
ENDBRANCH   5   8
ENDBRANCH   3   4
ENDBRANCH   2   3
ENDBRANCH   1   2
BRANCH   1  26
ATOM     26  C   UNL A   1      31.400  30.831  25.967  1.00  0.00     0.002 C 
BRANCH  26  27
ATOM     27  C   UNL A   1      31.292  32.272  26.480  1.00  0.00     0.021 C 
BRANCH  27  28
ATOM     28  C   UNL A   1      32.537  32.812  27.182  1.00  0.00     0.116 C 
BRANCH  28  29
ATOM     29  N   UNL A   1      32.363  34.184  27.630  1.00  0.00    -0.352 N 
ATOM     30  C   UNL A   1      33.010  34.872  28.626  1.00  0.00     0.251 C 
ATOM     31  H   UNL A   1      31.676  34.697  27.147  1.00  0.00     0.163 HD
ATOM     32  O   UNL A   1      32.599  35.978  28.968  1.00  0.00    -0.269 OA
BRANCH  30  33
ATOM     33  C   UNL A   1      34.192  34.294  29.306  1.00  0.00     0.039 A 
ATOM     34  C   UNL A   1      35.454  34.501  28.739  1.00  0.00     0.014 A 
ATOM     35  C   UNL A   1      34.061  33.501  30.450  1.00  0.00     0.014 A 
ATOM     36  C   UNL A   1      36.590  33.953  29.342  1.00  0.00     0.010 A 
ATOM     37  C   UNL A   1      35.199  32.982  31.071  1.00  0.00     0.010 A 
ATOM     38  C   UNL A   1      36.471  33.203  30.521  1.00  0.00    -0.014 A 
BRANCH  38  39
ATOM     39  C   UNL A   1      37.668  32.637  31.188  1.00  0.00     0.031 A 
ATOM     40  C   UNL A   1      38.399  31.476  30.575  1.00  0.00     0.074 A 
ATOM     41  C   UNL A   1      38.068  33.131  32.374  1.00  0.00     0.049 A 
ATOM     42  N   UNL A   1      39.410  30.792  31.051  1.00  0.00    -0.248 NA
ATOM     43  C   UNL A   1      37.920  31.013  29.264  1.00  0.00     0.031 C 
ATOM     44  C   UNL A   1      37.431  34.238  33.089  1.00  0.00     0.029 A 
ATOM     45  N   UNL A   1      39.103  32.755  33.192  1.00  0.00    -0.354 N 
ATOM     46  C   UNL A   1      39.671  29.804  30.113  1.00  0.00     0.074 A 
ATOM     47  C   UNL A   1      38.705  29.967  29.045  1.00  0.00     0.031 C 
ATOM     48  C   UNL A   1      38.094  34.456  34.236  1.00  0.00     0.029 A 
ATOM     49  C   UNL A   1      39.185  33.492  34.347  1.00  0.00     0.049 A 
ATOM     50  H   UNL A   1      39.728  32.026  32.972  1.00  0.00     0.167 HD
ATOM     51  C   UNL A   1      40.631  28.849  30.136  1.00  0.00     0.037 A 
ATOM     52  C   UNL A   1      40.039  33.396  35.382  1.00  0.00     0.037 A 
ATOM     53  C   UNL A   1      41.616  28.702  31.173  1.00  0.00     0.049 A 
ATOM     54  C   UNL A   1      41.116  32.351  35.368  1.00  0.00     0.074 A 
ATOM     55  C   UNL A   1      42.658  27.793  31.252  1.00  0.00     0.029 A 
ATOM     56  N   UNL A   1      41.686  29.491  32.309  1.00  0.00    -0.354 N 
ATOM     57  N   UNL A   1      41.367  31.440  34.461  1.00  0.00    -0.248 NA
ATOM     58  C   UNL A   1      42.029  32.323  36.520  1.00  0.00     0.031 C 
ATOM     59  C   UNL A   1      43.351  28.024  32.447  1.00  0.00     0.029 A 
ATOM     60  C   UNL A   1      42.750  29.088  33.098  1.00  0.00     0.049 A 
ATOM     61  H   UNL A   1      41.071  30.230  32.523  1.00  0.00     0.167 HD
ATOM     62  C   UNL A   1      42.471  30.739  34.925  1.00  0.00     0.074 A 
ATOM     63  C   UNL A   1      42.848  31.335  36.190  1.00  0.00     0.031 C 
ATOM     64  C   UNL A   1      43.114  29.694  34.351  1.00  0.00     0.037 A 
BRANCH  51  65
ATOM     65  C   UNL A   1      40.656  27.880  28.995  1.00  0.00     0.057 A 
ATOM     66  C   UNL A   1      39.822  26.756  28.969  1.00  0.00     0.134 A 
ATOM     67  C   UNL A   1      41.503  28.089  27.900  1.00  0.00     0.134 A 
ATOM     68  F   UNL A   1      38.998  26.498  29.996  1.00  0.00    -0.206 F 
ATOM     69  C   UNL A   1      39.842  25.862  27.898  1.00  0.00     0.040 A 
ATOM     70  C   UNL A   1      41.522  27.209  26.818  1.00  0.00     0.040 A 
ATOM     71  F   UNL A   1      42.325  29.148  27.868  1.00  0.00    -0.206 F 
ATOM     72  C   UNL A   1      40.692  26.089  26.817  1.00  0.00     0.006 A 
ENDBRANCH  51  65
BRANCH  52  73
ATOM     73  C   UNL A   1      39.919  34.336  36.520  1.00  0.00     0.057 A 
ATOM     74  C   UNL A   1      39.229  33.971  37.680  1.00  0.00     0.134 A 
ATOM     75  C   UNL A   1      40.492  35.610  36.476  1.00  0.00     0.134 A 
ATOM     76  F   UNL A   1      38.644  32.768  37.767  1.00  0.00    -0.206 F 
ATOM     77  C   UNL A   1      39.107  34.847  38.760  1.00  0.00     0.040 A 
ATOM     78  C   UNL A   1      40.390  36.491  37.552  1.00  0.00     0.040 A 
ATOM     79  F   UNL A   1      41.167  36.011  35.387  1.00  0.00    -0.206 F 
ATOM     80  C   UNL A   1      39.692  36.111  38.698  1.00  0.00     0.006 A 
ENDBRANCH  52  73
BRANCH  64  81
ATOM     81  C   UNL A   1      44.301  29.146  35.078  1.00  0.00     0.057 A 
ATOM     82  C   UNL A   1      45.592  29.631  34.838  1.00  0.00     0.134 A 
ATOM     83  C   UNL A   1      44.148  28.146  36.044  1.00  0.00     0.134 A 
ATOM     84  F   UNL A   1      45.799  30.581  33.914  1.00  0.00    -0.206 F 
ATOM     85  C   UNL A   1      46.695  29.132  35.532  1.00  0.00     0.040 A 
ATOM     86  C   UNL A   1      45.242  27.645  36.752  1.00  0.00     0.040 A 
ATOM     87  F   UNL A   1      42.935  27.641  36.317  1.00  0.00    -0.206 F 
ATOM     88  C   UNL A   1      46.521  28.138  36.494  1.00  0.00     0.006 A 
ENDBRANCH  64  81
ENDBRANCH  38  39
ENDBRANCH  30  33
ENDBRANCH  28  29
ENDBRANCH  27  28
ENDBRANCH  26  27
ENDBRANCH   1  26
TORSDOF 17
ENDMDL
MODEL 2
REMARK VINA RESULT:     -11.5      1.042      6.116
REMARK SMILES CCOC(=O)C1=NN(c2ccc(Cl)cc2F)[C@@H](C(=O)NCCCCCCNC(=O)c2ccc(-c3c4nc(c(-c5c(F)cccc5F)c5ccc([nH]5)c(-c5c(F)cccc5F)c5nc(c(-c6c(F)cccc6F)c6ccc3[nH]6)C=C5)C=C4)cc2)C1
REMARK SMILES IDX 23 1 22 2 21 3 20 4 18 5 19 6 17 8 6 9 7 10 84 11 8 12 4 13
REMARK SMILES IDX 5 14 3 15 2 16 1 17 9 18 10 19 15 20 11 21 14 22 16 23 12 24
REMARK SMILES IDX 13 25 24 26 25 27 26 28 27 29 28 30 29 32 30 33 31 34 83 35
REMARK SMILES IDX 32 36 82 37 33 38 34 39 35 40 76 41 36 42 81 43 75 44 77 45
REMARK SMILES IDX 37 46 80 47 74 48 73 49 38 51 64 52 47 53 63 54 48 55 51 56
REMARK SMILES IDX 62 57 78 58 49 59 50 60 61 62 79 63 52 64 39 65 40 66 45 67
REMARK SMILES IDX 41 68 42 69 44 70 46 71 43 72 65 73 66 74 71 75 67 76 68 77
REMARK SMILES IDX 70 78 72 79 69 80 53 81 54 82 59 83 55 84 56 85 58 86 60 87
REMARK SMILES IDX 57 88
REMARK H PARENT 20 7 27 31 77 50 51 61
REMARK Flexibility Score: inf
ROOT
ATOM      1  C   UNL A   1      32.573  30.148  25.902  1.00  0.00     0.002 C 
ENDROOT
BRANCH   1   2
ATOM      2  C   UNL A   1      32.727  29.132  27.042  1.00  0.00     0.021 C 
BRANCH   2   3
ATOM      3  C   UNL A   1      31.401  28.540  27.524  1.00  0.00     0.116 C 
BRANCH   3   4
ATOM      4  N   UNL A   1      31.404  27.096  27.453  1.00  0.00    -0.354 N 
ATOM      5  C   UNL A   1      31.540  26.237  26.406  1.00  0.00     0.245 C 
ATOM      6  O   UNL A   1      31.430  25.039  26.709  1.00  0.00    -0.273 OA
ATOM      7  H   UNL A   1      31.287  26.651  28.323  1.00  0.00     0.163 HD
BRANCH   5   8
ATOM      8  C   UNL A   1      31.951  26.643  24.970  1.00  0.00     0.203 C 
ATOM      9  C   UNL A   1      32.202  24.941  23.428  1.00  0.00     0.148 C 
ATOM     10  N   UNL A   1      31.028  25.423  23.161  1.00  0.00    -0.169 NA
ATOM     11  C   UNL A   1      33.012  25.661  24.445  1.00  0.00     0.103 C 
ATOM     12  N   UNL A   1      30.891  26.544  23.949  1.00  0.00    -0.249 N 
BRANCH   9  13
ATOM     13  C   UNL A   1      32.815  23.788  22.689  1.00  0.00     0.354 C 
ATOM     14  O   UNL A   1      33.830  23.917  22.028  1.00  0.00    -0.245 OA
BRANCH  13  15
ATOM     15  O   UNL A   1      32.138  22.659  22.969  1.00  0.00    -0.461 OA
BRANCH  15  16
ATOM     16  C   UNL A   1      32.727  21.836  23.987  1.00  0.00     0.230 C 
ATOM     17  C   UNL A   1      32.529  20.362  23.680  1.00  0.00     0.049 C 
ENDBRANCH  15  16
ENDBRANCH  13  15
ENDBRANCH   9  13
BRANCH  12  18
ATOM     18  C   UNL A   1      30.174  27.612  23.392  1.00  0.00     0.096 A 
ATOM     19  C   UNL A   1      30.883  28.649  22.751  1.00  0.00     0.032 A 
ATOM     20  C   UNL A   1      28.771  27.724  23.385  1.00  0.00     0.149 A 
ATOM     21  C   UNL A   1      30.229  29.704  22.101  1.00  0.00     0.023 A 
ATOM     22  C   UNL A   1      28.107  28.775  22.751  1.00  0.00     0.062 A 
ATOM     23  F   UNL A   1      27.999  26.804  23.981  1.00  0.00    -0.205 F 
ATOM     24  C   UNL A   1      28.841  29.755  22.099  1.00  0.00     0.044 A 
ATOM     25  Cl  UNL A   1      28.028  31.028  21.277  1.00  0.00    -0.084 Cl
ENDBRANCH  12  18
ENDBRANCH   5   8
ENDBRANCH   3   4
ENDBRANCH   2   3
ENDBRANCH   1   2
BRANCH   1  26
ATOM     26  C   UNL A   1      31.236  30.899  25.868  1.00  0.00     0.002 C 
BRANCH  26  27
ATOM     27  C   UNL A   1      31.239  32.294  26.503  1.00  0.00     0.021 C 
BRANCH  27  28
ATOM     28  C   UNL A   1      32.609  32.812  26.938  1.00  0.00     0.116 C 
BRANCH  28  29
ATOM     29  N   UNL A   1      32.526  34.112  27.584  1.00  0.00    -0.352 N 
ATOM     30  C   UNL A   1      33.210  34.601  28.669  1.00  0.00     0.251 C 
ATOM     31  H   UNL A   1      31.879  34.736  27.182  1.00  0.00     0.163 HD
ATOM     32  O   UNL A   1      32.873  35.670  29.169  1.00  0.00    -0.269 OA
BRANCH  30  33
ATOM     33  C   UNL A   1      34.344  33.850  29.253  1.00  0.00     0.039 A 
ATOM     34  C   UNL A   1      35.644  34.203  28.875  1.00  0.00     0.014 A 
ATOM     35  C   UNL A   1      34.137  32.766  30.113  1.00  0.00     0.014 A 
ATOM     36  C   UNL A   1      36.738  33.503  29.391  1.00  0.00     0.010 A 
ATOM     37  C   UNL A   1      35.230  32.089  30.655  1.00  0.00     0.010 A 
ATOM     38  C   UNL A   1      36.538  32.451  30.297  1.00  0.00    -0.014 A 
BRANCH  38  39
ATOM     39  C   UNL A   1      37.689  31.715  30.874  1.00  0.00     0.031 A 
ATOM     40  C   UNL A   1      38.192  32.051  32.249  1.00  0.00     0.074 A 
ATOM     41  C   UNL A   1      38.318  30.780  30.139  1.00  0.00     0.049 A 
ATOM     42  N   UNL A   1      39.235  31.578  32.885  1.00  0.00    -0.248 NA
ATOM     43  C   UNL A   1      37.432  33.061  33.000  1.00  0.00     0.031 C 
ATOM     44  C   UNL A   1      37.948  30.378  28.781  1.00  0.00     0.029 A 
ATOM     45  N   UNL A   1      39.413  30.005  30.431  1.00  0.00    -0.354 N 
ATOM     46  C   UNL A   1      39.273  32.251  34.098  1.00  0.00     0.074 A 
ATOM     47  C   UNL A   1      38.157  33.174  34.106  1.00  0.00     0.031 C 
ATOM     48  C   UNL A   1      38.796  29.426  28.360  1.00  0.00     0.029 A 
ATOM     49  C   UNL A   1      39.781  29.168  29.407  1.00  0.00     0.049 A 
ATOM     50  H   UNL A   1      39.889  30.046  31.292  1.00  0.00     0.167 HD
ATOM     51  C   UNL A   1      40.155  32.111  35.115  1.00  0.00     0.037 A 
ATOM     52  C   UNL A   1      40.803  28.297  29.320  1.00  0.00     0.037 A 
ATOM     53  C   UNL A   1      41.245  31.172  35.132  1.00  0.00     0.049 A 
ATOM     54  C   UNL A   1      41.746  28.135  30.475  1.00  0.00     0.074 A 
ATOM     55  C   UNL A   1      42.159  30.926  36.144  1.00  0.00     0.029 A 
ATOM     56  N   UNL A   1      41.563  30.317  34.089  1.00  0.00    -0.354 N 
ATOM     57  N   UNL A   1      41.754  28.759  31.626  1.00  0.00    -0.248 NA
ATOM     58  C   UNL A   1      42.823  27.144  30.318  1.00  0.00     0.031 C 
ATOM     59  C   UNL A   1      43.040  29.930  35.705  1.00  0.00     0.029 A 
ATOM     60  C   UNL A   1      42.661  29.546  34.430  1.00  0.00     0.049 A 
ATOM     61  H   UNL A   1      41.078  30.266  33.233  1.00  0.00     0.167 HD
ATOM     62  C   UNL A   1      42.823  28.231  32.335  1.00  0.00     0.074 A 
ATOM     63  C   UNL A   1      43.438  27.229  31.489  1.00  0.00     0.031 C 
ATOM     64  C   UNL A   1      43.257  28.551  33.578  1.00  0.00     0.037 A 
BRANCH  51  65
ATOM     65  C   UNL A   1      39.975  33.005  36.303  1.00  0.00     0.057 A 
ATOM     66  C   UNL A   1      39.076  32.689  37.328  1.00  0.00     0.134 A 
ATOM     67  C   UNL A   1      40.726  34.178  36.432  1.00  0.00     0.134 A 
ATOM     68  F   UNL A   1      38.320  31.584  37.252  1.00  0.00    -0.206 F 
ATOM     69  C   UNL A   1      38.920  33.521  38.438  1.00  0.00     0.040 A 
ATOM     70  C   UNL A   1      40.588  35.011  37.543  1.00  0.00     0.040 A 
ATOM     71  F   UNL A   1      41.604  34.534  35.482  1.00  0.00    -0.206 F 
ATOM     72  C   UNL A   1      39.680  34.683  38.549  1.00  0.00     0.006 A 
ENDBRANCH  51  65
BRANCH  52  73
ATOM     73  C   UNL A   1      40.975  27.492  28.089  1.00  0.00     0.057 A 
ATOM     74  C   UNL A   1      40.367  26.239  27.962  1.00  0.00     0.134 A 
ATOM     75  C   UNL A   1      41.743  27.956  27.017  1.00  0.00     0.134 A 
ATOM     76  F   UNL A   1      39.636  25.739  28.969  1.00  0.00    -0.206 F 
ATOM     77  C   UNL A   1      40.522  25.469  26.809  1.00  0.00     0.040 A 
ATOM     78  C   UNL A   1      41.896  27.202  25.853  1.00  0.00     0.040 A 
ATOM     79  F   UNL A   1      42.347  29.152  27.085  1.00  0.00    -0.206 F 
ATOM     80  C   UNL A   1      41.286  25.953  25.748  1.00  0.00     0.006 A 
ENDBRANCH  52  73
BRANCH  64  81
ATOM     81  C   UNL A   1      44.436  27.794  34.101  1.00  0.00     0.057 A 
ATOM     82  C   UNL A   1      44.282  26.583  34.785  1.00  0.00     0.134 A 
ATOM     83  C   UNL A   1      45.737  28.266  33.895  1.00  0.00     0.134 A 
ATOM     84  F   UNL A   1      43.057  26.089  35.023  1.00  0.00    -0.206 F 
ATOM     85  C   UNL A   1      45.384  25.869  35.255  1.00  0.00     0.040 A 
ATOM     86  C   UNL A   1      46.849  27.556  34.351  1.00  0.00     0.040 A 
ATOM     87  F   UNL A   1      45.948  29.422  33.246  1.00  0.00    -0.206 F 
ATOM     88  C   UNL A   1      46.673  26.354  35.035  1.00  0.00     0.006 A 
ENDBRANCH  64  81
ENDBRANCH  38  39
ENDBRANCH  30  33
ENDBRANCH  28  29
ENDBRANCH  27  28
ENDBRANCH  26  27
ENDBRANCH   1  26
TORSDOF 17
ENDMDL
MODEL 3
REMARK VINA RESULT:     -11.4      2.543      7.127
REMARK SMILES CCOC(=O)C1=NN(c2ccc(Cl)cc2F)[C@@H](C(=O)NCCCCCCNC(=O)c2ccc(-c3c4nc(c(-c5c(F)cccc5F)c5ccc([nH]5)c(-c5c(F)cccc5F)c5nc(c(-c6c(F)cccc6F)c6ccc3[nH]6)C=C5)C=C4)cc2)C1
REMARK SMILES IDX 23 1 22 2 21 3 20 4 18 5 19 6 17 8 6 9 7 10 84 11 8 12 4 13
REMARK SMILES IDX 5 14 3 15 2 16 1 17 9 18 10 19 15 20 11 21 14 22 16 23 12 24
REMARK SMILES IDX 13 25 24 26 25 27 26 28 27 29 28 30 29 32 30 33 31 34 83 35
REMARK SMILES IDX 32 36 82 37 33 38 34 39 35 40 76 41 36 42 81 43 75 44 77 45
REMARK SMILES IDX 37 46 80 47 74 48 73 49 38 51 64 52 47 53 63 54 48 55 51 56
REMARK SMILES IDX 62 57 78 58 49 59 50 60 61 62 79 63 52 64 39 65 40 66 45 67
REMARK SMILES IDX 41 68 42 69 44 70 46 71 43 72 65 73 66 74 71 75 67 76 68 77
REMARK SMILES IDX 70 78 72 79 69 80 53 81 54 82 59 83 55 84 56 85 58 86 60 87
REMARK SMILES IDX 57 88
REMARK H PARENT 20 7 27 31 77 50 51 61
REMARK Flexibility Score: inf
ROOT
ATOM      1  C   UNL A   1      34.927  30.579  28.373  1.00  0.00     0.002 C 
ENDROOT
BRANCH   1   2
ATOM      2  C   UNL A   1      35.111  29.465  27.333  1.00  0.00     0.021 C 
BRANCH   2   3
ATOM      3  C   UNL A   1      33.834  29.122  26.565  1.00  0.00     0.116 C 
BRANCH   3   4
ATOM      4  N   UNL A   1      33.991  29.337  25.144  1.00  0.00    -0.354 N 
ATOM      5  C   UNL A   1      33.279  28.891  24.073  1.00  0.00     0.245 C 
ATOM      6  O   UNL A   1      33.743  29.229  22.973  1.00  0.00    -0.273 OA
ATOM      7  H   UNL A   1      34.753  29.912  24.906  1.00  0.00     0.163 HD
BRANCH   5   8
ATOM      8  C   UNL A   1      31.918  28.158  24.152  1.00  0.00     0.203 C 
ATOM      9  C   UNL A   1      30.210  28.968  22.824  1.00  0.00     0.148 C 
ATOM     10  N   UNL A   1      30.651  27.945  22.161  1.00  0.00    -0.169 NA
ATOM     11  C   UNL A   1      30.781  29.193  24.177  1.00  0.00     0.103 C 
ATOM     12  N   UNL A   1      31.569  27.329  22.982  1.00  0.00    -0.249 N 
BRANCH   9  13
ATOM     13  C   UNL A   1      29.088  29.845  22.349  1.00  0.00     0.354 C 
ATOM     14  O   UNL A   1      28.582  29.700  21.252  1.00  0.00    -0.245 OA
BRANCH  13  15
ATOM     15  O   UNL A   1      28.717  30.680  23.338  1.00  0.00    -0.461 OA
BRANCH  15  16
ATOM     16  C   UNL A   1      27.980  31.835  22.910  1.00  0.00     0.230 C 
ATOM     17  C   UNL A   1      28.802  33.100  23.076  1.00  0.00     0.049 C 
ENDBRANCH  15  16
ENDBRANCH  13  15
ENDBRANCH   9  13
BRANCH  12  18
ATOM     18  C   UNL A   1      31.628  25.930  22.911  1.00  0.00     0.096 A 
ATOM     19  C   UNL A   1      32.736  25.325  22.282  1.00  0.00     0.032 A 
ATOM     20  C   UNL A   1      30.671  25.055  23.457  1.00  0.00     0.149 A 
ATOM     21  C   UNL A   1      32.901  23.934  22.249  1.00  0.00     0.023 A 
ATOM     22  C   UNL A   1      30.817  23.668  23.421  1.00  0.00     0.062 A 
ATOM     23  F   UNL A   1      29.569  25.523  24.062  1.00  0.00    -0.205 F 
ATOM     24  C   UNL A   1      31.941  23.113  22.826  1.00  0.00     0.044 A 
ATOM     25  Cl  UNL A   1      32.150  21.407  22.818  1.00  0.00    -0.084 Cl
ENDBRANCH  12  18
ENDBRANCH   5   8
ENDBRANCH   3   4
ENDBRANCH   2   3
ENDBRANCH   1   2
BRANCH   1  26
ATOM     26  C   UNL A   1      34.921  32.007  27.812  1.00  0.00     0.002 C 
BRANCH  26  27
ATOM     27  C   UNL A   1      33.613  32.786  27.989  1.00  0.00     0.021 C 
BRANCH  27  28
ATOM     28  C   UNL A   1      33.762  34.305  28.080  1.00  0.00     0.116 C 
BRANCH  28  29
ATOM     29  N   UNL A   1      33.263  34.832  29.339  1.00  0.00    -0.352 N 
ATOM     30  C   UNL A   1      33.667  34.570  30.624  1.00  0.00     0.251 C 
ATOM     31  H   UNL A   1      32.521  35.473  29.258  1.00  0.00     0.163 HD
ATOM     32  O   UNL A   1      33.003  34.988  31.569  1.00  0.00    -0.269 OA
BRANCH  30  33
ATOM     33  C   UNL A   1      34.890  33.779  30.890  1.00  0.00     0.039 A 
ATOM     34  C   UNL A   1      36.107  34.237  30.373  1.00  0.00     0.014 A 
ATOM     35  C   UNL A   1      34.838  32.564  31.581  1.00  0.00     0.014 A 
ATOM     36  C   UNL A   1      37.278  33.505  30.587  1.00  0.00     0.010 A 
ATOM     37  C   UNL A   1      36.013  31.850  31.824  1.00  0.00     0.010 A 
ATOM     38  C   UNL A   1      37.241  32.314  31.328  1.00  0.00    -0.014 A 
BRANCH  38  39
ATOM     39  C   UNL A   1      38.479  31.539  31.586  1.00  0.00     0.031 A 
ATOM     40  C   UNL A   1      39.403  31.935  32.702  1.00  0.00     0.074 A 
ATOM     41  C   UNL A   1      38.801  30.510  30.781  1.00  0.00     0.049 A 
ATOM     42  N   UNL A   1      40.569  31.434  33.025  1.00  0.00    -0.248 NA
ATOM     43  C   UNL A   1      38.966  33.050  33.556  1.00  0.00     0.031 C 
ATOM     44  C   UNL A   1      38.005  30.040  29.646  1.00  0.00     0.029 A 
ATOM     45  N   UNL A   1      39.894  29.680  30.789  1.00  0.00    -0.354 N 
ATOM     46  C   UNL A   1      41.018  32.188  34.101  1.00  0.00     0.074 A 
ATOM     47  C   UNL A   1      40.005  33.188  34.369  1.00  0.00     0.031 C 
ATOM     48  C   UNL A   1      38.632  29.001  29.072  1.00  0.00     0.029 A 
ATOM     49  C   UNL A   1      39.882  28.748  29.782  1.00  0.00     0.049 A 
ATOM     50  H   UNL A   1      40.617  29.748  31.454  1.00  0.00     0.167 HD
ATOM     51  C   UNL A   1      42.167  32.057  34.804  1.00  0.00     0.037 A 
ATOM     52  C   UNL A   1      40.783  27.800  29.464  1.00  0.00     0.037 A 
ATOM     53  C   UNL A   1      43.161  31.045  34.569  1.00  0.00     0.049 A 
ATOM     54  C   UNL A   1      42.032  27.652  30.281  1.00  0.00     0.074 A 
ATOM     55  C   UNL A   1      44.333  30.806  35.267  1.00  0.00     0.029 A 
ATOM     56  N   UNL A   1      43.095  30.096  33.561  1.00  0.00    -0.354 N 
ATOM     57  N   UNL A   1      42.430  28.355  31.312  1.00  0.00    -0.248 NA
ATOM     58  C   UNL A   1      42.957  26.577  29.891  1.00  0.00     0.031 C 
ATOM     59  C   UNL A   1      44.984  29.719  34.670  1.00  0.00     0.029 A 
ATOM     60  C   UNL A   1      44.207  29.273  33.615  1.00  0.00     0.049 A 
ATOM     61  H   UNL A   1      42.365  30.019  32.905  1.00  0.00     0.167 HD
ATOM     62  C   UNL A   1      43.642  27.803  31.702  1.00  0.00     0.074 A 
ATOM     63  C   UNL A   1      43.913  26.701  30.802  1.00  0.00     0.031 C 
ATOM     64  C   UNL A   1      44.458  28.178  32.716  1.00  0.00     0.037 A 
BRANCH  51  65
ATOM     65  C   UNL A   1      42.410  33.044  35.903  1.00  0.00     0.057 A 
ATOM     66  C   UNL A   1      43.109  34.235  35.675  1.00  0.00     0.134 A 
ATOM     67  C   UNL A   1      41.918  32.813  37.192  1.00  0.00     0.134 A 
ATOM     68  F   UNL A   1      43.615  34.505  34.462  1.00  0.00    -0.206 F 
ATOM     69  C   UNL A   1      43.324  35.158  36.701  1.00  0.00     0.040 A 
ATOM     70  C   UNL A   1      42.116  33.733  38.222  1.00  0.00     0.040 A 
ATOM     71  F   UNL A   1      41.241  31.689  37.471  1.00  0.00    -0.206 F 
ATOM     72  C   UNL A   1      42.824  34.909  37.977  1.00  0.00     0.006 A 
ENDBRANCH  51  65
BRANCH  52  73
ATOM     73  C   UNL A   1      40.522  26.898  28.319  1.00  0.00     0.057 A 
ATOM     74  C   UNL A   1      41.201  27.064  27.108  1.00  0.00     0.134 A 
ATOM     75  C   UNL A   1      39.598  25.853  28.411  1.00  0.00     0.134 A 
ATOM     76  F   UNL A   1      42.084  28.063  26.961  1.00  0.00    -0.206 F 
ATOM     77  C   UNL A   1      40.966  26.223  26.020  1.00  0.00     0.040 A 
ATOM     78  C   UNL A   1      39.362  24.996  27.336  1.00  0.00     0.040 A 
ATOM     79  F   UNL A   1      38.920  25.647  29.550  1.00  0.00    -0.206 F 
ATOM     80  C   UNL A   1      40.044  25.182  26.135  1.00  0.00     0.006 A 
ENDBRANCH  52  73
BRANCH  64  81
ATOM     81  C   UNL A   1      45.705  27.377  32.915  1.00  0.00     0.057 A 
ATOM     82  C   UNL A   1      46.913  27.745  32.312  1.00  0.00     0.134 A 
ATOM     83  C   UNL A   1      45.704  26.247  33.740  1.00  0.00     0.134 A 
ATOM     84  F   UNL A   1      46.970  28.813  31.502  1.00  0.00    -0.206 F 
ATOM     85  C   UNL A   1      48.080  27.008  32.516  1.00  0.00     0.040 A 
ATOM     86  C   UNL A   1      46.867  25.507  33.960  1.00  0.00     0.040 A 
ATOM     87  F   UNL A   1      44.576  25.845  34.344  1.00  0.00    -0.206 F 
ATOM     88  C   UNL A   1      48.059  25.887  33.345  1.00  0.00     0.006 A 
ENDBRANCH  64  81
ENDBRANCH  38  39
ENDBRANCH  30  33
ENDBRANCH  28  29
ENDBRANCH  27  28
ENDBRANCH  26  27
ENDBRANCH   1  26
TORSDOF 17
ENDMDL
