MODEL 1
REMARK VINA RESULT:     -11.8      0.000      0.000
REMARK SMILES C[C@@H]1[NH2+]CC[C@@H]1C(=O)Nc1cc(F)ccc1C(=O)NCCCCCCNC(=O)c1ccc(-c2c3nc(c(-c4c(F)cccc4F)c4ccc([nH]4)c(-c4c(F)cccc4F)c4nc(c(-c5c(F)cccc5F)c5ccc2[nH]5)C=C4)C=C3)cc1
REMARK SMILES IDX 22 1 21 2 20 3 19 4 17 5 18 6 16 8 10 9 11 10 12 11 15 12
REMARK SMILES IDX 13 13 14 14 9 15 7 16 8 17 6 19 1 20 2 21 3 22 4 23 5 26
REMARK SMILES IDX 23 27 24 28 25 29 26 30 27 31 28 33 29 34 30 35 82 36 31 37
REMARK SMILES IDX 81 38 32 39 33 40 34 41 75 42 35 43 80 44 74 45 76 46 36 47
REMARK SMILES IDX 79 48 73 49 72 50 37 52 63 53 46 54 62 55 47 56 50 57 61 58
REMARK SMILES IDX 77 59 48 60 49 61 60 63 78 64 51 65 38 66 39 67 44 68 40 69
REMARK SMILES IDX 41 70 43 71 45 72 42 73 64 74 65 75 70 76 66 77 67 78 69 79
REMARK SMILES IDX 71 80 68 81 52 82 53 83 58 84 54 85 55 86 57 87 59 88 56 89
REMARK H PARENT 19 7 9 18 3 24 3 25 26 32 76 51 50 62
REMARK Flexibility Score: inf
ROOT
ATOM      1  C   UNL A   1      32.350  30.032  26.046  1.00  0.00     0.002 C 
ENDROOT
BRANCH   1   2
ATOM      2  C   UNL A   1      32.203  29.100  27.253  1.00  0.00     0.021 C 
BRANCH   2   3
ATOM      3  C   UNL A   1      32.334  27.604  26.989  1.00  0.00     0.116 C 
BRANCH   3   4
ATOM      4  N   UNL A   1      31.091  26.868  27.029  1.00  0.00    -0.352 N 
ATOM      5  C   UNL A   1      30.451  26.089  26.098  1.00  0.00     0.253 C 
ATOM      6  O   UNL A   1      29.410  25.535  26.458  1.00  0.00    -0.269 OA
ATOM      7  H   UNL A   1      30.613  26.937  27.887  1.00  0.00     0.163 HD
BRANCH   5   8
ATOM      8  C   UNL A   1      30.884  25.913  24.677  1.00  0.00     0.063 A 
ATOM      9  C   UNL A   1      31.107  24.701  23.990  1.00  0.00     0.056 A 
ATOM     10  C   UNL A   1      31.429  24.758  22.627  1.00  0.00     0.066 A 
ATOM     11  C   UNL A   1      31.546  25.972  21.957  1.00  0.00     0.125 A 
ATOM     12  C   UNL A   1      31.009  27.135  23.970  1.00  0.00     0.019 A 
ATOM     13  F   UNL A   1      31.803  25.974  20.643  1.00  0.00    -0.207 F 
ATOM     14  C   UNL A   1      31.340  27.166  22.617  1.00  0.00     0.040 A 
BRANCH   9  15
ATOM     15  N   UNL A   1      30.822  23.455  24.577  1.00  0.00    -0.325 N 
ATOM     16  C   UNL A   1      31.491  22.681  25.493  1.00  0.00     0.233 C 
ATOM     17  O   UNL A   1      30.970  21.599  25.783  1.00  0.00    -0.274 OA
ATOM     18  H   UNL A   1      29.973  23.060  24.273  1.00  0.00     0.169 HD
BRANCH  16  19
ATOM     19  C   UNL A   1      32.735  23.182  26.231  1.00  0.00     0.142 C 
ATOM     20  C   UNL A   1      34.054  21.823  24.457  1.00  0.00     0.076 C 
ATOM     21  C   UNL A   1      34.075  22.912  25.530  1.00  0.00     0.192 C 
ATOM     22  N   UNL A   1      35.021  22.541  26.599  1.00  0.00    -0.343 N 
ATOM     23  C   UNL A   1      34.223  21.766  27.549  1.00  0.00     0.261 C 
ATOM     24  H   UNL A   1      35.404  23.373  27.046  1.00  0.00     0.346 HD
ATOM     25  H   UNL A   1      35.818  22.012  26.243  1.00  0.00     0.346 HD
ATOM     26  C   UNL A   1      32.905  22.516  27.615  1.00  0.00     0.081 C 
ENDBRANCH  16  19
ENDBRANCH   9  15
ENDBRANCH   5   8
ENDBRANCH   3   4
ENDBRANCH   2   3
ENDBRANCH   1   2
BRANCH   1  27
ATOM     27  C   UNL A   1      31.202  31.001  25.747  1.00  0.00     0.002 C 
BRANCH  27  28
ATOM     28  C   UNL A   1      31.164  32.314  26.530  1.00  0.00     0.021 C 
BRANCH  28  29
ATOM     29  C   UNL A   1      32.464  32.762  27.187  1.00  0.00     0.116 C 
BRANCH  29  30
ATOM     30  N   UNL A   1      32.458  34.156  27.595  1.00  0.00    -0.352 N 
ATOM     31  C   UNL A   1      33.273  34.822  28.474  1.00  0.00     0.251 C 
ATOM     32  H   UNL A   1      31.761  34.709  27.175  1.00  0.00     0.163 HD
ATOM     33  O   UNL A   1      33.040  36.003  28.744  1.00  0.00    -0.269 OA
BRANCH  31  34
ATOM     34  C   UNL A   1      34.410  34.140  29.133  1.00  0.00     0.039 A 
ATOM     35  C   UNL A   1      34.135  33.076  29.999  1.00  0.00     0.014 A 
ATOM     36  C   UNL A   1      35.732  34.545  28.932  1.00  0.00     0.014 A 
ATOM     37  C   UNL A   1      35.182  32.382  30.610  1.00  0.00     0.010 A 
ATOM     38  C   UNL A   1      36.780  33.812  29.491  1.00  0.00     0.010 A 
ATOM     39  C   UNL A   1      36.516  32.721  30.333  1.00  0.00    -0.014 A 
BRANCH  39  40
ATOM     40  C   UNL A   1      37.641  31.937  30.906  1.00  0.00     0.031 A 
ATOM     41  C   UNL A   1      38.123  32.205  32.305  1.00  0.00     0.074 A 
ATOM     42  C   UNL A   1      38.263  31.013  30.148  1.00  0.00     0.049 A 
ATOM     43  N   UNL A   1      39.130  31.670  32.947  1.00  0.00    -0.248 NA
ATOM     44  C   UNL A   1      37.389  33.219  33.078  1.00  0.00     0.031 C 
ATOM     45  C   UNL A   1      37.912  30.679  28.766  1.00  0.00     0.029 A 
ATOM     46  N   UNL A   1      39.324  30.188  30.428  1.00  0.00    -0.354 N 
ATOM     47  C   UNL A   1      39.156  32.286  34.192  1.00  0.00     0.074 A 
ATOM     48  C   UNL A   1      38.094  33.269  34.200  1.00  0.00     0.031 C 
ATOM     49  C   UNL A   1      38.724  29.703  28.330  1.00  0.00     0.029 A 
ATOM     50  C   UNL A   1      39.679  29.371  29.382  1.00  0.00     0.049 A 
ATOM     51  H   UNL A   1      39.787  30.184  31.297  1.00  0.00     0.167 HD
ATOM     52  C   UNL A   1      39.977  32.039  35.240  1.00  0.00     0.037 A 
ATOM     53  C   UNL A   1      40.667  28.461  29.278  1.00  0.00     0.037 A 
ATOM     54  C   UNL A   1      41.017  31.044  35.241  1.00  0.00     0.049 A 
ATOM     55  C   UNL A   1      41.578  28.221  30.449  1.00  0.00     0.074 A 
ATOM     56  C   UNL A   1      41.868  30.692  36.275  1.00  0.00     0.029 A 
ATOM     57  N   UNL A   1      41.345  30.241  34.161  1.00  0.00    -0.354 N 
ATOM     58  N   UNL A   1      41.564  28.783  31.633  1.00  0.00    -0.248 NA
ATOM     59  C   UNL A   1      42.641  27.221  30.271  1.00  0.00     0.031 C 
ATOM     60  C   UNL A   1      42.739  29.705  35.808  1.00  0.00     0.029 A 
ATOM     61  C   UNL A   1      42.399  29.407  34.499  1.00  0.00     0.049 A 
ATOM     62  H   UNL A   1      40.897  30.259  33.285  1.00  0.00     0.167 HD
ATOM     63  C   UNL A   1      42.596  28.192  32.348  1.00  0.00     0.074 A 
ATOM     64  C   UNL A   1      43.210  27.217  31.470  1.00  0.00     0.031 C 
ATOM     65  C   UNL A   1      42.998  28.435  33.619  1.00  0.00     0.037 A 
BRANCH  52  66
ATOM     66  C   UNL A   1      39.781  32.847  36.489  1.00  0.00     0.057 A 
ATOM     67  C   UNL A   1      38.807  32.489  37.429  1.00  0.00     0.134 A 
ATOM     68  C   UNL A   1      40.501  34.027  36.721  1.00  0.00     0.134 A 
ATOM     69  F   UNL A   1      38.076  31.376  37.263  1.00  0.00    -0.206 F 
ATOM     70  C   UNL A   1      38.547  33.282  38.549  1.00  0.00     0.040 A 
ATOM     71  C   UNL A   1      40.267  34.814  37.850  1.00  0.00     0.040 A 
ATOM     72  F   UNL A   1      41.455  34.420  35.864  1.00  0.00    -0.206 F 
ATOM     73  C   UNL A   1      39.280  34.447  38.762  1.00  0.00     0.006 A 
ENDBRANCH  52  66
BRANCH  53  74
ATOM     74  C   UNL A   1      40.826  27.689  28.020  1.00  0.00     0.057 A 
ATOM     75  C   UNL A   1      40.229  26.435  27.846  1.00  0.00     0.134 A 
ATOM     76  C   UNL A   1      41.602  28.186  26.965  1.00  0.00     0.134 A 
ATOM     77  F   UNL A   1      39.478  25.903  28.822  1.00  0.00    -0.206 F 
ATOM     78  C   UNL A   1      40.407  25.695  26.677  1.00  0.00     0.040 A 
ATOM     79  C   UNL A   1      41.770  27.468  25.780  1.00  0.00     0.040 A 
ATOM     80  F   UNL A   1      42.183  29.389  27.064  1.00  0.00    -0.206 F 
ATOM     81  C   UNL A   1      41.177  26.214  25.637  1.00  0.00     0.006 A 
ENDBRANCH  53  74
BRANCH  65  82
ATOM     82  C   UNL A   1      44.138  27.624  34.158  1.00  0.00     0.057 A 
ATOM     83  C   UNL A   1      43.904  26.401  34.799  1.00  0.00     0.134 A 
ATOM     84  C   UNL A   1      45.457  28.092  34.117  1.00  0.00     0.134 A 
ATOM     85  F   UNL A   1      42.660  25.902  34.881  1.00  0.00    -0.206 F 
ATOM     86  C   UNL A   1      44.938  25.680  35.396  1.00  0.00     0.040 A 
ATOM     87  C   UNL A   1      46.504  27.367  34.689  1.00  0.00     0.040 A 
ATOM     88  F   UNL A   1      45.749  29.252  33.509  1.00  0.00    -0.206 F 
ATOM     89  C   UNL A   1      46.244  26.162  35.339  1.00  0.00     0.006 A 
ENDBRANCH  65  82
ENDBRANCH  39  40
ENDBRANCH  31  34
ENDBRANCH  29  30
ENDBRANCH  28  29
ENDBRANCH  27  28
ENDBRANCH   1  27
TORSDOF 15
ENDMDL
MODEL 2
REMARK VINA RESULT:     -11.7      2.186      2.797
REMARK SMILES C[C@@H]1[NH2+]CC[C@@H]1C(=O)Nc1cc(F)ccc1C(=O)NCCCCCCNC(=O)c1ccc(-c2c3nc(c(-c4c(F)cccc4F)c4ccc([nH]4)c(-c4c(F)cccc4F)c4nc(c(-c5c(F)cccc5F)c5ccc2[nH]5)C=C4)C=C3)cc1
REMARK SMILES IDX 22 1 21 2 20 3 19 4 17 5 18 6 16 8 10 9 11 10 12 11 15 12
REMARK SMILES IDX 13 13 14 14 9 15 7 16 8 17 6 19 1 20 2 21 3 22 4 23 5 26
REMARK SMILES IDX 23 27 24 28 25 29 26 30 27 31 28 33 29 34 30 35 82 36 31 37
REMARK SMILES IDX 81 38 32 39 33 40 34 41 75 42 35 43 80 44 74 45 76 46 36 47
REMARK SMILES IDX 79 48 73 49 72 50 37 52 63 53 46 54 62 55 47 56 50 57 61 58
REMARK SMILES IDX 77 59 48 60 49 61 60 63 78 64 51 65 38 66 39 67 44 68 40 69
REMARK SMILES IDX 41 70 43 71 45 72 42 73 64 74 65 75 70 76 66 77 67 78 69 79
REMARK SMILES IDX 71 80 68 81 52 82 53 83 58 84 54 85 55 86 57 87 59 88 56 89
REMARK H PARENT 19 7 9 18 3 24 3 25 26 32 76 51 50 62
REMARK Flexibility Score: inf
ROOT
ATOM      1  C   UNL A   1      32.455  29.268  25.860  1.00  0.00     0.002 C 
ENDROOT
BRANCH   1   2
ATOM      2  C   UNL A   1      33.590  28.968  24.876  1.00  0.00     0.021 C 
BRANCH   2   3
ATOM      3  C   UNL A   1      33.237  28.980  23.392  1.00  0.00     0.116 C 
BRANCH   3   4
ATOM      4  N   UNL A   1      33.696  27.830  22.648  1.00  0.00    -0.352 N 
ATOM      5  C   UNL A   1      33.389  26.495  22.734  1.00  0.00     0.253 C 
ATOM      6  O   UNL A   1      33.914  25.749  21.903  1.00  0.00    -0.269 OA
ATOM      7  H   UNL A   1      34.352  28.043  21.947  1.00  0.00     0.163 HD
BRANCH   5   8
ATOM      8  C   UNL A   1      32.524  25.875  23.785  1.00  0.00     0.063 A 
ATOM      9  C   UNL A   1      32.938  25.187  24.946  1.00  0.00     0.056 A 
ATOM     10  C   UNL A   1      31.958  24.756  25.848  1.00  0.00     0.066 A 
ATOM     11  C   UNL A   1      30.604  24.977  25.615  1.00  0.00     0.125 A 
ATOM     12  C   UNL A   1      31.139  26.087  23.572  1.00  0.00     0.019 A 
ATOM     13  F   UNL A   1      29.709  24.593  26.533  1.00  0.00    -0.207 F 
ATOM     14  C   UNL A   1      30.182  25.640  24.481  1.00  0.00     0.040 A 
BRANCH   9  15
ATOM     15  N   UNL A   1      34.294  25.104  25.310  1.00  0.00    -0.325 N 
ATOM     16  C   UNL A   1      35.198  24.071  25.311  1.00  0.00     0.233 C 
ATOM     17  O   UNL A   1      36.330  24.330  25.731  1.00  0.00    -0.274 OA
ATOM     18  H   UNL A   1      34.671  25.957  25.627  1.00  0.00     0.169 HD
BRANCH  16  19
ATOM     19  C   UNL A   1      34.878  22.707  24.692  1.00  0.00     0.142 C 
ATOM     20  C   UNL A   1      34.264  22.008  27.114  1.00  0.00     0.076 C 
ATOM     21  C   UNL A   1      34.165  21.710  25.617  1.00  0.00     0.192 C 
ATOM     22  N   UNL A   1      34.766  20.394  25.331  1.00  0.00    -0.343 N 
ATOM     23  C   UNL A   1      36.178  20.677  25.075  1.00  0.00     0.261 C 
ATOM     24  H   UNL A   1      34.331  19.970  24.512  1.00  0.00     0.346 HD
ATOM     25  H   UNL A   1      34.638  19.735  26.099  1.00  0.00     0.346 HD
ATOM     26  C   UNL A   1      36.151  21.951  24.249  1.00  0.00     0.081 C 
ENDBRANCH  16  19
ENDBRANCH   9  15
ENDBRANCH   5   8
ENDBRANCH   3   4
ENDBRANCH   2   3
ENDBRANCH   1   2
BRANCH   1  27
ATOM     27  C   UNL A   1      31.355  30.234  25.411  1.00  0.00     0.002 C 
BRANCH  27  28
ATOM     28  C   UNL A   1      31.156  31.510  26.231  1.00  0.00     0.021 C 
BRANCH  28  29
ATOM     29  C   UNL A   1      32.385  32.077  26.932  1.00  0.00     0.116 C 
BRANCH  29  30
ATOM     30  N   UNL A   1      32.216  33.446  27.385  1.00  0.00    -0.352 N 
ATOM     31  C   UNL A   1      33.015  34.213  28.194  1.00  0.00     0.251 C 
ATOM     32  H   UNL A   1      31.402  33.893  27.061  1.00  0.00     0.163 HD
ATOM     33  O   UNL A   1      32.639  35.339  28.527  1.00  0.00    -0.269 OA
BRANCH  31  34
ATOM     34  C   UNL A   1      34.307  33.701  28.704  1.00  0.00     0.039 A 
ATOM     35  C   UNL A   1      34.305  32.948  29.883  1.00  0.00     0.014 A 
ATOM     36  C   UNL A   1      35.515  33.970  28.056  1.00  0.00     0.014 A 
ATOM     37  C   UNL A   1      35.499  32.414  30.375  1.00  0.00     0.010 A 
ATOM     38  C   UNL A   1      36.697  33.384  28.512  1.00  0.00     0.010 A 
ATOM     39  C   UNL A   1      36.701  32.598  29.674  1.00  0.00    -0.014 A 
BRANCH  39  40
ATOM     40  C   UNL A   1      37.963  31.964  30.137  1.00  0.00     0.031 A 
ATOM     41  C   UNL A   1      38.822  32.640  31.169  1.00  0.00     0.074 A 
ATOM     42  C   UNL A   1      38.360  30.798  29.593  1.00  0.00     0.049 A 
ATOM     43  N   UNL A   1      39.985  32.273  31.644  1.00  0.00    -0.248 NA
ATOM     44  C   UNL A   1      38.319  33.906  31.728  1.00  0.00     0.031 C 
ATOM     45  C   UNL A   1      37.633  30.055  28.563  1.00  0.00     0.029 A 
ATOM     46  N   UNL A   1      39.477  30.034  29.825  1.00  0.00    -0.354 N 
ATOM     47  C   UNL A   1      40.355  33.261  32.547  1.00  0.00     0.074 A 
ATOM     48  C   UNL A   1      39.317  34.269  32.521  1.00  0.00     0.031 C 
ATOM     49  C   UNL A   1      38.308  28.931  28.272  1.00  0.00     0.029 A 
ATOM     50  C   UNL A   1      39.535  28.893  29.061  1.00  0.00     0.049 A 
ATOM     51  H   UNL A   1      40.173  30.281  30.478  1.00  0.00     0.167 HD
ATOM     52  C   UNL A   1      41.451  33.312  33.341  1.00  0.00     0.037 A 
ATOM     53  C   UNL A   1      40.473  27.928  28.997  1.00  0.00     0.037 A 
ATOM     54  C   UNL A   1      42.470  32.297  33.386  1.00  0.00     0.049 A 
ATOM     55  C   UNL A   1      41.689  28.019  29.874  1.00  0.00     0.074 A 
ATOM     56  C   UNL A   1      43.593  32.243  34.195  1.00  0.00     0.029 A 
ATOM     57  N   UNL A   1      42.492  31.161  32.595  1.00  0.00    -0.354 N 
ATOM     58  N   UNL A   1      42.005  28.940  30.753  1.00  0.00    -0.248 NA
ATOM     59  C   UNL A   1      42.680  26.940  29.753  1.00  0.00     0.031 C 
ATOM     60  C   UNL A   1      44.315  31.094  33.864  1.00  0.00     0.029 A 
ATOM     61  C   UNL A   1      43.618  30.408  32.883  1.00  0.00     0.049 A 
ATOM     62  H   UNL A   1      41.808  30.923  31.927  1.00  0.00     0.167 HD
ATOM     63  C   UNL A   1      43.214  28.541  31.305  1.00  0.00     0.074 A 
ATOM     64  C   UNL A   1      43.571  27.288  30.671  1.00  0.00     0.031 C 
ATOM     65  C   UNL A   1      43.960  29.158  32.252  1.00  0.00     0.037 A 
BRANCH  52  66
ATOM     66  C   UNL A   1      41.605  34.499  34.247  1.00  0.00     0.057 A 
ATOM     67  C   UNL A   1      41.070  34.489  35.541  1.00  0.00     0.134 A 
ATOM     68  C   UNL A   1      42.212  35.683  33.808  1.00  0.00     0.134 A 
ATOM     69  F   UNL A   1      40.467  33.390  36.020  1.00  0.00    -0.206 F 
ATOM     70  C   UNL A   1      41.121  35.617  36.362  1.00  0.00     0.040 A 
ATOM     71  C   UNL A   1      42.292  36.810  34.628  1.00  0.00     0.040 A 
ATOM     72  F   UNL A   1      42.753  35.755  32.582  1.00  0.00    -0.206 F 
ATOM     73  C   UNL A   1      41.735  36.781  35.905  1.00  0.00     0.006 A 
ENDBRANCH  52  66
BRANCH  53  74
ATOM     74  C   UNL A   1      40.279  26.774  28.082  1.00  0.00     0.057 A 
ATOM     75  C   UNL A   1      40.846  26.748  26.802  1.00  0.00     0.134 A 
ATOM     76  C   UNL A   1      39.501  25.675  28.466  1.00  0.00     0.134 A 
ATOM     77  F   UNL A   1      41.598  27.774  26.375  1.00  0.00    -0.206 F 
ATOM     78  C   UNL A   1      40.635  25.679  25.931  1.00  0.00     0.040 A 
ATOM     79  C   UNL A   1      39.301  24.588  27.614  1.00  0.00     0.040 A 
ATOM     80  F   UNL A   1      38.948  25.634  29.686  1.00  0.00    -0.206 F 
ATOM     81  C   UNL A   1      39.863  24.592  26.338  1.00  0.00     0.006 A 
ENDBRANCH  53  74
BRANCH  65  82
ATOM     82  C   UNL A   1      45.228  28.486  32.690  1.00  0.00     0.057 A 
ATOM     83  C   UNL A   1      45.223  27.581  33.758  1.00  0.00     0.134 A 
ATOM     84  C   UNL A   1      46.464  28.798  32.110  1.00  0.00     0.134 A 
ATOM     85  F   UNL A   1      44.073  27.248  34.365  1.00  0.00    -0.206 F 
ATOM     86  C   UNL A   1      46.405  27.022  34.246  1.00  0.00     0.040 A 
ATOM     87  C   UNL A   1      47.650  28.227  32.573  1.00  0.00     0.040 A 
ATOM     88  F   UNL A   1      46.534  29.651  31.077  1.00  0.00    -0.206 F 
ATOM     89  C   UNL A   1      47.623  27.343  33.651  1.00  0.00     0.006 A 
ENDBRANCH  65  82
ENDBRANCH  39  40
ENDBRANCH  31  34
ENDBRANCH  29  30
ENDBRANCH  28  29
ENDBRANCH  27  28
ENDBRANCH   1  27
TORSDOF 15
ENDMDL
MODEL 3
REMARK VINA RESULT:     -11.6      1.914      6.580
REMARK SMILES C[C@@H]1[NH2+]CC[C@@H]1C(=O)Nc1cc(F)ccc1C(=O)NCCCCCCNC(=O)c1ccc(-c2c3nc(c(-c4c(F)cccc4F)c4ccc([nH]4)c(-c4c(F)cccc4F)c4nc(c(-c5c(F)cccc5F)c5ccc2[nH]5)C=C4)C=C3)cc1
REMARK SMILES IDX 22 1 21 2 20 3 19 4 17 5 18 6 16 8 10 9 11 10 12 11 15 12
REMARK SMILES IDX 13 13 14 14 9 15 7 16 8 17 6 19 1 20 2 21 3 22 4 23 5 26
REMARK SMILES IDX 23 27 24 28 25 29 26 30 27 31 28 33 29 34 30 35 82 36 31 37
REMARK SMILES IDX 81 38 32 39 33 40 34 41 75 42 35 43 80 44 74 45 76 46 36 47
REMARK SMILES IDX 79 48 73 49 72 50 37 52 63 53 46 54 62 55 47 56 50 57 61 58
REMARK SMILES IDX 77 59 48 60 49 61 60 63 78 64 51 65 38 66 39 67 44 68 40 69
REMARK SMILES IDX 41 70 43 71 45 72 42 73 64 74 65 75 70 76 66 77 67 78 69 79
REMARK SMILES IDX 71 80 68 81 52 82 53 83 58 84 54 85 55 86 57 87 59 88 56 89
REMARK H PARENT 19 7 9 18 3 24 3 25 26 32 76 51 50 62
REMARK Flexibility Score: inf
ROOT
ATOM      1  C   UNL A   1      34.432  31.921  28.725  1.00  0.00     0.002 C 
ENDROOT
BRANCH   1   2
ATOM      2  C   UNL A   1      33.978  31.498  27.324  1.00  0.00     0.021 C 
BRANCH   2   3
ATOM      3  C   UNL A   1      33.944  30.002  27.033  1.00  0.00     0.116 C 
BRANCH   3   4
ATOM      4  N   UNL A   1      33.005  29.247  27.829  1.00  0.00    -0.352 N 
ATOM      5  C   UNL A   1      31.987  28.392  27.489  1.00  0.00     0.253 C 
ATOM      6  O   UNL A   1      31.386  27.845  28.417  1.00  0.00    -0.269 OA
ATOM      7  H   UNL A   1      33.115  29.369  28.799  1.00  0.00     0.163 HD
BRANCH   5   8
ATOM      8  C   UNL A   1      31.517  28.123  26.095  1.00  0.00     0.063 A 
ATOM      9  C   UNL A   1      31.053  26.899  25.564  1.00  0.00     0.056 A 
ATOM     10  C   UNL A   1      30.577  26.884  24.247  1.00  0.00     0.066 A 
ATOM     11  C   UNL A   1      30.570  28.033  23.461  1.00  0.00     0.125 A 
ATOM     12  C   UNL A   1      31.498  29.277  25.273  1.00  0.00     0.019 A 
ATOM     13  F   UNL A   1      30.056  27.979  22.226  1.00  0.00    -0.207 F 
ATOM     14  C   UNL A   1      31.029  29.234  23.962  1.00  0.00     0.040 A 
BRANCH   9  15
ATOM     15  N   UNL A   1      30.872  25.765  26.374  1.00  0.00    -0.325 N 
ATOM     16  C   UNL A   1      31.592  24.606  26.532  1.00  0.00     0.233 C 
ATOM     17  O   UNL A   1      31.134  23.775  27.323  1.00  0.00    -0.274 OA
ATOM     18  H   UNL A   1      30.070  25.809  26.944  1.00  0.00     0.169 HD
BRANCH  16  19
ATOM     19  C   UNL A   1      32.965  24.405  25.883  1.00  0.00     0.142 C 
ATOM     20  C   UNL A   1      31.641  23.223  23.989  1.00  0.00     0.076 C 
ATOM     21  C   UNL A   1      32.944  23.886  24.437  1.00  0.00     0.192 C 
ATOM     22  N   UNL A   1      34.053  22.919  24.340  1.00  0.00    -0.343 N 
ATOM     23  C   UNL A   1      34.073  22.244  25.638  1.00  0.00     0.261 C 
ATOM     24  H   UNL A   1      34.937  23.400  24.172  1.00  0.00     0.346 HD
ATOM     25  H   UNL A   1      33.930  22.265  23.568  1.00  0.00     0.346 HD
ATOM     26  C   UNL A   1      33.822  23.362  26.634  1.00  0.00     0.081 C 
ENDBRANCH  16  19
ENDBRANCH   9  15
ENDBRANCH   5   8
ENDBRANCH   3   4
ENDBRANCH   2   3
ENDBRANCH   1   2
BRANCH   1  27
ATOM     27  C   UNL A   1      34.570  33.419  29.010  1.00  0.00     0.002 C 
BRANCH  27  28
ATOM     28  C   UNL A   1      33.326  34.291  28.826  1.00  0.00     0.021 C 
BRANCH  28  29
ATOM     29  C   UNL A   1      33.387  35.705  29.390  1.00  0.00     0.116 C 
BRANCH  29  30
ATOM     30  N   UNL A   1      32.505  35.917  30.524  1.00  0.00    -0.352 N 
ATOM     31  C   UNL A   1      32.667  35.581  31.844  1.00  0.00     0.251 C 
ATOM     32  H   UNL A   1      31.659  36.374  30.313  1.00  0.00     0.163 HD
ATOM     33  O   UNL A   1      31.747  35.780  32.639  1.00  0.00    -0.269 OA
BRANCH  31  34
ATOM     34  C   UNL A   1      33.917  34.950  32.326  1.00  0.00     0.039 A 
ATOM     35  C   UNL A   1      33.845  33.664  32.873  1.00  0.00     0.014 A 
ATOM     36  C   UNL A   1      35.147  35.610  32.269  1.00  0.00     0.014 A 
ATOM     37  C   UNL A   1      35.008  33.020  33.303  1.00  0.00     0.010 A 
ATOM     38  C   UNL A   1      36.316  34.943  32.639  1.00  0.00     0.010 A 
ATOM     39  C   UNL A   1      36.258  33.640  33.157  1.00  0.00    -0.014 A 
BRANCH  39  40
ATOM     40  C   UNL A   1      37.512  32.933  33.528  1.00  0.00     0.031 A 
ATOM     41  C   UNL A   1      38.082  31.870  32.631  1.00  0.00     0.074 A 
ATOM     42  C   UNL A   1      38.114  33.217  34.699  1.00  0.00     0.049 A 
ATOM     43  N   UNL A   1      39.125  31.103  32.820  1.00  0.00    -0.248 NA
ATOM     44  C   UNL A   1      37.378  31.623  31.363  1.00  0.00     0.031 C 
ATOM     45  C   UNL A   1      37.647  34.205  35.673  1.00  0.00     0.029 A 
ATOM     46  N   UNL A   1      39.247  32.696  35.275  1.00  0.00    -0.354 N 
ATOM     47  C   UNL A   1      39.198  30.279  31.704  1.00  0.00     0.074 A 
ATOM     48  C   UNL A   1      38.067  30.607  30.862  1.00  0.00     0.031 C 
ATOM     49  C   UNL A   1      38.498  34.238  36.710  1.00  0.00     0.029 A 
ATOM     50  C   UNL A   1      39.548  33.246  36.498  1.00  0.00     0.049 A 
ATOM     51  H   UNL A   1      39.792  31.994  34.851  1.00  0.00     0.167 HD
ATOM     52  C   UNL A   1      40.135  29.350  31.399  1.00  0.00     0.037 A 
ATOM     53  C   UNL A   1      40.551  32.979  37.356  1.00  0.00     0.037 A 
ATOM     54  C   UNL A   1      41.274  29.043  32.224  1.00  0.00     0.049 A 
ATOM     55  C   UNL A   1      41.565  31.928  37.003  1.00  0.00     0.074 A 
ATOM     56  C   UNL A   1      42.300  28.149  31.972  1.00  0.00     0.029 A 
ATOM     57  N   UNL A   1      41.539  29.621  33.455  1.00  0.00    -0.354 N 
ATOM     58  N   UNL A   1      41.643  31.186  35.925  1.00  0.00    -0.248 NA
ATOM     59  C   UNL A   1      42.632  31.676  37.983  1.00  0.00     0.031 C 
ATOM     60  C   UNL A   1      43.165  28.155  33.069  1.00  0.00     0.029 A 
ATOM     61  C   UNL A   1      42.704  29.088  33.983  1.00  0.00     0.049 A 
ATOM     62  H   UNL A   1      40.983  30.307  33.889  1.00  0.00     0.167 HD
ATOM     63  C   UNL A   1      42.775  30.399  36.084  1.00  0.00     0.074 A 
ATOM     64  C   UNL A   1      43.361  30.760  37.359  1.00  0.00     0.031 C 
ATOM     65  C   UNL A   1      43.282  29.461  35.249  1.00  0.00     0.037 A 
BRANCH  52  66
ATOM     66  C   UNL A   1      39.984  28.601  30.108  1.00  0.00     0.057 A 
ATOM     67  C   UNL A   1      39.275  27.395  30.056  1.00  0.00     0.134 A 
ATOM     68  C   UNL A   1      40.610  29.034  28.931  1.00  0.00     0.134 A 
ATOM     69  F   UNL A   1      38.659  26.919  31.149  1.00  0.00    -0.206 F 
ATOM     70  C   UNL A   1      39.204  26.638  28.885  1.00  0.00     0.040 A 
ATOM     71  C   UNL A   1      40.526  28.299  27.747  1.00  0.00     0.040 A 
ATOM     72  F   UNL A   1      41.296  30.186  28.911  1.00  0.00    -0.206 F 
ATOM     73  C   UNL A   1      39.830  27.092  27.725  1.00  0.00     0.006 A 
ENDBRANCH  52  66
BRANCH  53  74
ATOM     74  C   UNL A   1      40.657  33.742  38.625  1.00  0.00     0.057 A 
ATOM     75  C   UNL A   1      39.879  33.422  39.743  1.00  0.00     0.134 A 
ATOM     76  C   UNL A   1      41.532  34.830  38.738  1.00  0.00     0.134 A 
ATOM     77  F   UNL A   1      39.018  32.394  39.696  1.00  0.00    -0.206 F 
ATOM     78  C   UNL A   1      39.955  34.162  40.924  1.00  0.00     0.040 A 
ATOM     79  C   UNL A   1      41.636  35.565  39.920  1.00  0.00     0.040 A 
ATOM     80  F   UNL A   1      42.318  35.173  37.707  1.00  0.00    -0.206 F 
ATOM     81  C   UNL A   1      40.839  35.236  41.015  1.00  0.00     0.006 A 
ENDBRANCH  53  74
BRANCH  65  82
ATOM     82  C   UNL A   1      44.548  28.769  35.661  1.00  0.00     0.057 A 
ATOM     83  C   UNL A   1      44.505  27.627  36.471  1.00  0.00     0.134 A 
ATOM     84  C   UNL A   1      45.808  29.280  35.327  1.00  0.00     0.134 A 
ATOM     85  F   UNL A   1      43.329  27.093  36.835  1.00  0.00    -0.206 F 
ATOM     86  C   UNL A   1      45.671  27.027  36.948  1.00  0.00     0.040 A 
ATOM     87  C   UNL A   1      46.982  28.675  35.778  1.00  0.00     0.040 A 
ATOM     88  F   UNL A   1      45.916  30.366  34.547  1.00  0.00    -0.206 F 
ATOM     89  C   UNL A   1      46.914  27.550  36.599  1.00  0.00     0.006 A 
ENDBRANCH  65  82
ENDBRANCH  39  40
ENDBRANCH  31  34
ENDBRANCH  29  30
ENDBRANCH  28  29
ENDBRANCH  27  28
ENDBRANCH   1  27
TORSDOF 15
ENDMDL
