MODEL 1
REMARK VINA RESULT:     -12.5      0.000      0.000
REMARK SMILES CS(=O)(=O)c1ccc(/C=C(/C(=O)NCCCCCCNC(=O)c2ccc(-c3c4nc(c(-c5c(F)cccc5F)c5ccc([nH]5)c(-c5c(F)cccc5F)c5nc(c(-c6c(F)cccc6F)c6ccc3[nH]6)C=C5)C=C4)cc2)c2ccc(-c3ccc(S(C)(=O)=O)cc3)cc2)cc1
REMARK SMILES IDX 16 1 15 2 14 3 13 4 11 5 12 6 10 8 9 9 8 10 5 11 6 12 94 13
REMARK SMILES IDX 7 14 93 15 2 16 1 17 3 18 4 19 77 20 78 21 92 22 79 23 91 24
REMARK SMILES IDX 80 25 81 26 82 27 90 28 83 29 89 30 84 31 85 32 86 33 87 34
REMARK SMILES IDX 88 35 17 36 18 37 19 38 20 39 21 40 22 42 23 43 24 44 76 45
REMARK SMILES IDX 25 46 75 47 26 48 27 49 28 50 69 51 29 52 74 53 68 54 70 55
REMARK SMILES IDX 30 56 73 57 67 58 66 59 31 61 57 62 40 63 56 64 41 65 44 66
REMARK SMILES IDX 55 67 71 68 42 69 43 70 54 72 72 73 45 74 32 75 33 76 38 77
REMARK SMILES IDX 34 78 35 79 37 80 39 81 36 82 58 83 59 84 64 85 60 86 61 87
REMARK SMILES IDX 63 88 65 89 62 90 46 91 47 92 52 93 48 94 49 95 51 96 53 97
REMARK SMILES IDX 50 98
REMARK H PARENT 13 7 20 41 70 60 44 71
REMARK Flexibility Score: inf
ROOT
ATOM      1  C   UNL A   1      36.616  23.516  25.777  1.00  0.00     0.002 C 
ENDROOT
BRANCH   1   2
ATOM      2  C   UNL A   1      36.128  22.828  24.492  1.00  0.00     0.021 C 
BRANCH   2   3
ATOM      3  C   UNL A   1      34.773  23.343  23.999  1.00  0.00     0.116 C 
BRANCH   3   4
ATOM      4  N   UNL A   1      33.713  22.771  24.803  1.00  0.00    -0.352 N 
ATOM      5  C   UNL A   1      32.555  23.253  25.322  1.00  0.00     0.251 C 
ATOM      6  O   UNL A   1      31.932  22.488  26.061  1.00  0.00    -0.269 OA
ATOM      7  H   UNL A   1      33.866  21.823  25.023  1.00  0.00     0.163 HD
BRANCH   5   8
ATOM      8  C   UNL A   1      31.979  24.602  24.963  1.00  0.00     0.047 C 
ATOM      9  C   UNL A   1      31.198  24.802  23.876  1.00  0.00     0.022 C 
BRANCH   9  10
ATOM     10  C   UNL A   1      30.478  26.032  23.470  1.00  0.00    -0.025 A 
ATOM     11  C   UNL A   1      29.026  28.370  22.910  1.00  0.00     0.067 A 
ATOM     12  C   UNL A   1      30.352  28.259  22.491  1.00  0.00     0.021 A 
ATOM     13  C   UNL A   1      28.399  27.304  23.556  1.00  0.00     0.021 A 
ATOM     14  C   UNL A   1      31.067  27.085  22.758  1.00  0.00     0.009 A 
ATOM     15  C   UNL A   1      29.126  26.142  23.833  1.00  0.00     0.009 A 
BRANCH  11  16
ATOM     16  S   UNL A   1      28.128  29.873  22.607  1.00  0.00     0.175 S 
ATOM     17  C   UNL A   1      29.121  31.146  23.341  1.00  0.00     0.163 C 
ATOM     18  O   UNL A   1      26.893  29.803  23.366  1.00  0.00    -0.224 OA
ATOM     19  O   UNL A   1      28.114  30.071  21.171  1.00  0.00    -0.224 OA
ENDBRANCH  11  16
ENDBRANCH   9  10
BRANCH   8  20
ATOM     20  C   UNL A   1      32.470  25.762  25.747  1.00  0.00    -0.013 A 
ATOM     21  C   UNL A   1      33.783  26.201  25.527  1.00  0.00     0.009 A 
ATOM     22  C   UNL A   1      31.645  26.499  26.600  1.00  0.00     0.009 A 
ATOM     23  C   UNL A   1      34.238  27.394  26.083  1.00  0.00     0.009 A 
ATOM     24  C   UNL A   1      32.101  27.706  27.147  1.00  0.00     0.009 A 
ATOM     25  C   UNL A   1      33.391  28.193  26.865  1.00  0.00    -0.018 A 
BRANCH  25  26
ATOM     26  C   UNL A   1      33.821  29.532  27.300  1.00  0.00    -0.018 A 
ATOM     27  C   UNL A   1      32.990  30.648  27.074  1.00  0.00     0.010 A 
ATOM     28  C   UNL A   1      35.033  29.737  27.980  1.00  0.00     0.010 A 
ATOM     29  C   UNL A   1      33.347  31.922  27.516  1.00  0.00     0.021 A 
ATOM     30  C   UNL A   1      35.402  31.011  28.425  1.00  0.00     0.021 A 
ATOM     31  C   UNL A   1      34.556  32.095  28.187  1.00  0.00     0.067 A 
BRANCH  31  32
ATOM     32  S   UNL A   1      34.981  33.713  28.787  1.00  0.00     0.175 S 
ATOM     33  C   UNL A   1      36.748  33.656  28.928  1.00  0.00     0.163 C 
ATOM     34  O   UNL A   1      34.636  34.655  27.737  1.00  0.00    -0.224 OA
ATOM     35  O   UNL A   1      34.432  33.848  30.121  1.00  0.00    -0.224 OA
ENDBRANCH  31  32
ENDBRANCH  25  26
ENDBRANCH   8  20
ENDBRANCH   5   8
ENDBRANCH   3   4
ENDBRANCH   2   3
ENDBRANCH   1   2
BRANCH   1  36
ATOM     36  C   UNL A   1      38.139  23.551  25.959  1.00  0.00     0.002 C 
BRANCH  36  37
ATOM     37  C   UNL A   1      38.684  24.823  26.613  1.00  0.00     0.021 C 
BRANCH  37  38
ATOM     38  C   UNL A   1      40.105  24.695  27.154  1.00  0.00     0.116 C 
BRANCH  38  39
ATOM     39  N   UNL A   1      40.809  23.561  26.575  1.00  0.00    -0.352 N 
ATOM     40  C   UNL A   1      42.068  23.512  26.028  1.00  0.00     0.251 C 
ATOM     41  H   UNL A   1      40.314  22.710  26.576  1.00  0.00     0.163 HD
ATOM     42  O   UNL A   1      42.439  22.524  25.404  1.00  0.00    -0.269 OA
BRANCH  40  43
ATOM     43  C   UNL A   1      42.971  24.670  26.179  1.00  0.00     0.039 A 
ATOM     44  C   UNL A   1      43.594  24.891  27.411  1.00  0.00     0.014 A 
ATOM     45  C   UNL A   1      43.210  25.529  25.102  1.00  0.00     0.014 A 
ATOM     46  C   UNL A   1      44.516  25.931  27.542  1.00  0.00     0.010 A 
ATOM     47  C   UNL A   1      44.170  26.530  25.217  1.00  0.00     0.010 A 
ATOM     48  C   UNL A   1      44.838  26.734  26.435  1.00  0.00    -0.014 A 
BRANCH  48  49
ATOM     49  C   UNL A   1      45.888  27.777  26.516  1.00  0.00     0.031 A 
ATOM     50  C   UNL A   1      45.508  29.222  26.662  1.00  0.00     0.074 A 
ATOM     51  C   UNL A   1      47.181  27.430  26.368  1.00  0.00     0.049 A 
ATOM     52  N   UNL A   1      46.272  30.285  26.633  1.00  0.00    -0.248 NA
ATOM     53  C   UNL A   1      44.077  29.511  26.843  1.00  0.00     0.031 C 
ATOM     54  C   UNL A   1      47.676  26.064  26.184  1.00  0.00     0.029 A 
ATOM     55  N   UNL A   1      48.315  28.202  26.329  1.00  0.00    -0.354 N 
ATOM     56  C   UNL A   1      45.414  31.367  26.775  1.00  0.00     0.074 A 
ATOM     57  C   UNL A   1      44.069  30.837  26.850  1.00  0.00     0.031 C 
ATOM     58  C   UNL A   1      49.013  26.095  26.062  1.00  0.00     0.029 A 
ATOM     59  C   UNL A   1      49.465  27.480  26.119  1.00  0.00     0.049 A 
ATOM     60  H   UNL A   1      48.306  29.180  26.441  1.00  0.00     0.167 HD
ATOM     61  C   UNL A   1      45.722  32.684  26.851  1.00  0.00     0.037 A 
ATOM     62  C   UNL A   1      50.738  27.892  25.971  1.00  0.00     0.037 A 
ATOM     63  C   UNL A   1      47.061  33.208  26.801  1.00  0.00     0.049 A 
ATOM     64  C   UNL A   1      51.052  29.360  26.032  1.00  0.00     0.074 A 
ATOM     65  C   UNL A   1      47.480  34.519  26.946  1.00  0.00     0.029 A 
ATOM     66  N   UNL A   1      48.199  32.445  26.584  1.00  0.00    -0.354 N 
ATOM     67  N   UNL A   1      50.237  30.369  26.226  1.00  0.00    -0.248 NA
ATOM     68  C   UNL A   1      52.456  29.747  25.845  1.00  0.00     0.031 C 
ATOM     69  C   UNL A   1      48.869  34.555  26.779  1.00  0.00     0.029 A 
ATOM     70  C   UNL A   1      49.318  33.262  26.563  1.00  0.00     0.049 A 
ATOM     71  H   UNL A   1      48.209  31.468  26.463  1.00  0.00     0.167 HD
ATOM     72  C   UNL A   1      51.031  31.507  26.202  1.00  0.00     0.074 A 
ATOM     73  C   UNL A   1      52.394  31.064  25.987  1.00  0.00     0.031 C 
ATOM     74  C   UNL A   1      50.665  32.804  26.342  1.00  0.00     0.037 A 
BRANCH  61  75
ATOM     75  C   UNL A   1      44.585  33.650  27.002  1.00  0.00     0.057 A 
ATOM     76  C   UNL A   1      43.974  34.245  25.891  1.00  0.00     0.134 A 
ATOM     77  C   UNL A   1      44.077  33.966  28.268  1.00  0.00     0.134 A 
ATOM     78  F   UNL A   1      44.422  33.993  24.652  1.00  0.00    -0.206 F 
ATOM     79  C   UNL A   1      42.912  35.141  26.035  1.00  0.00     0.040 A 
ATOM     80  C   UNL A   1      43.002  34.842  28.423  1.00  0.00     0.040 A 
ATOM     81  F   UNL A   1      44.615  33.427  29.371  1.00  0.00    -0.206 F 
ATOM     82  C   UNL A   1      42.420  35.436  27.305  1.00  0.00     0.006 A 
ENDBRANCH  61  75
BRANCH  62  83
ATOM     83  C   UNL A   1      51.816  26.897  25.755  1.00  0.00     0.057 A 
ATOM     84  C   UNL A   1      52.185  26.507  24.463  1.00  0.00     0.134 A 
ATOM     85  C   UNL A   1      52.502  26.316  26.827  1.00  0.00     0.134 A 
ATOM     86  F   UNL A   1      51.549  27.017  23.398  1.00  0.00    -0.206 F 
ATOM     87  C   UNL A   1      53.190  25.565  24.243  1.00  0.00     0.040 A 
ATOM     88  C   UNL A   1      53.524  25.386  26.622  1.00  0.00     0.040 A 
ATOM     89  F   UNL A   1      52.199  26.653  28.089  1.00  0.00    -0.206 F 
ATOM     90  C   UNL A   1      53.867  25.006  25.326  1.00  0.00     0.006 A 
ENDBRANCH  62  83
BRANCH  74  91
ATOM     91  C   UNL A   1      51.752  33.834  26.281  1.00  0.00     0.057 A 
ATOM     92  C   UNL A   1      52.147  34.409  25.067  1.00  0.00     0.134 A 
ATOM     93  C   UNL A   1      52.380  34.285  27.448  1.00  0.00     0.134 A 
ATOM     94  F   UNL A   1      51.593  34.007  23.912  1.00  0.00    -0.206 F 
ATOM     95  C   UNL A   1      53.138  35.391  25.015  1.00  0.00     0.040 A 
ATOM     96  C   UNL A   1      53.356  35.281  27.412  1.00  0.00     0.040 A 
ATOM     97  F   UNL A   1      52.043  33.776  28.643  1.00  0.00    -0.206 F 
ATOM     98  C   UNL A   1      53.739  35.834  26.191  1.00  0.00     0.006 A 
ENDBRANCH  74  91
ENDBRANCH  48  49
ENDBRANCH  40  43
ENDBRANCH  38  39
ENDBRANCH  37  38
ENDBRANCH  36  37
ENDBRANCH   1  36
TORSDOF 18
ENDMDL
MODEL 2
REMARK VINA RESULT:     -11.7      6.105     11.293
REMARK SMILES CS(=O)(=O)c1ccc(/C=C(/C(=O)NCCCCCCNC(=O)c2ccc(-c3c4nc(c(-c5c(F)cccc5F)c5ccc([nH]5)c(-c5c(F)cccc5F)c5nc(c(-c6c(F)cccc6F)c6ccc3[nH]6)C=C5)C=C4)cc2)c2ccc(-c3ccc(S(C)(=O)=O)cc3)cc2)cc1
REMARK SMILES IDX 16 1 15 2 14 3 13 4 11 5 12 6 10 8 9 9 8 10 5 11 6 12 94 13
REMARK SMILES IDX 7 14 93 15 2 16 1 17 3 18 4 19 77 20 78 21 92 22 79 23 91 24
REMARK SMILES IDX 80 25 81 26 82 27 90 28 83 29 89 30 84 31 85 32 86 33 87 34
REMARK SMILES IDX 88 35 17 36 18 37 19 38 20 39 21 40 22 42 23 43 24 44 76 45
REMARK SMILES IDX 25 46 75 47 26 48 27 49 28 50 69 51 29 52 74 53 68 54 70 55
REMARK SMILES IDX 30 56 73 57 67 58 66 59 31 61 57 62 40 63 56 64 41 65 44 66
REMARK SMILES IDX 55 67 71 68 42 69 43 70 54 72 72 73 45 74 32 75 33 76 38 77
REMARK SMILES IDX 34 78 35 79 37 80 39 81 36 82 58 83 59 84 64 85 60 86 61 87
REMARK SMILES IDX 63 88 65 89 62 90 46 91 47 92 52 93 48 94 49 95 51 96 53 97
REMARK SMILES IDX 50 98
REMARK H PARENT 13 7 20 41 70 60 44 71
REMARK Flexibility Score: inf
ROOT
ATOM      1  C   UNL A   1      34.409  33.108  31.427  1.00  0.00     0.002 C 
ENDROOT
BRANCH   1   2
ATOM      2  C   UNL A   1      34.925  33.672  32.761  1.00  0.00     0.021 C 
BRANCH   2   3
ATOM      3  C   UNL A   1      35.558  35.061  32.635  1.00  0.00     0.116 C 
BRANCH   3   4
ATOM      4  N   UNL A   1      36.844  34.951  31.978  1.00  0.00    -0.352 N 
ATOM      5  C   UNL A   1      38.083  34.571  32.383  1.00  0.00     0.251 C 
ATOM      6  O   UNL A   1      38.987  34.701  31.555  1.00  0.00    -0.269 OA
ATOM      7  H   UNL A   1      36.814  35.209  31.028  1.00  0.00     0.163 HD
BRANCH   5   8
ATOM      8  C   UNL A   1      38.362  33.930  33.722  1.00  0.00     0.047 C 
ATOM      9  C   UNL A   1      38.108  34.548  34.899  1.00  0.00     0.022 C 
BRANCH   9  10
ATOM     10  C   UNL A   1      38.222  34.001  36.271  1.00  0.00    -0.025 A 
ATOM     11  C   UNL A   1      38.487  33.174  38.942  1.00  0.00     0.067 A 
ATOM     12  C   UNL A   1      37.424  32.701  38.171  1.00  0.00     0.021 A 
ATOM     13  C   UNL A   1      39.450  34.011  38.379  1.00  0.00     0.021 A 
ATOM     14  C   UNL A   1      37.306  33.103  36.835  1.00  0.00     0.009 A 
ATOM     15  C   UNL A   1      39.314  34.420  37.049  1.00  0.00     0.009 A 
BRANCH  11  16
ATOM     16  S   UNL A   1      38.619  32.696  40.649  1.00  0.00     0.175 S 
ATOM     17  C   UNL A   1      37.327  31.503  40.883  1.00  0.00     0.163 C 
ATOM     18  O   UNL A   1      38.281  33.855  41.454  1.00  0.00    -0.224 OA
ATOM     19  O   UNL A   1      39.895  32.026  40.799  1.00  0.00    -0.224 OA
ENDBRANCH  11  16
ENDBRANCH   9  10
BRANCH   8  20
ATOM     20  C   UNL A   1      39.123  32.657  33.701  1.00  0.00    -0.013 A 
ATOM     21  C   UNL A   1      40.463  32.681  34.112  1.00  0.00     0.009 A 
ATOM     22  C   UNL A   1      38.529  31.428  33.404  1.00  0.00     0.009 A 
ATOM     23  C   UNL A   1      41.172  31.496  34.300  1.00  0.00     0.009 A 
ATOM     24  C   UNL A   1      39.240  30.238  33.607  1.00  0.00     0.009 A 
ATOM     25  C   UNL A   1      40.559  30.251  34.097  1.00  0.00    -0.018 A 
BRANCH  25  26
ATOM     26  C   UNL A   1      41.256  29.008  34.467  1.00  0.00    -0.018 A 
ATOM     27  C   UNL A   1      41.794  28.176  33.465  1.00  0.00     0.010 A 
ATOM     28  C   UNL A   1      41.444  28.634  35.808  1.00  0.00     0.010 A 
ATOM     29  C   UNL A   1      42.501  27.017  33.784  1.00  0.00     0.021 A 
ATOM     30  C   UNL A   1      42.149  27.473  36.139  1.00  0.00     0.021 A 
ATOM     31  C   UNL A   1      42.670  26.670  35.123  1.00  0.00     0.067 A 
BRANCH  31  32
ATOM     32  S   UNL A   1      43.612  25.218  35.523  1.00  0.00     0.175 S 
ATOM     33  C   UNL A   1      43.686  25.240  37.295  1.00  0.00     0.163 C 
ATOM     34  O   UNL A   1      42.815  24.074  35.113  1.00  0.00    -0.224 OA
ATOM     35  O   UNL A   1      44.956  25.408  35.019  1.00  0.00    -0.224 OA
ENDBRANCH  31  32
ENDBRANCH  25  26
ENDBRANCH   8  20
ENDBRANCH   5   8
ENDBRANCH   3   4
ENDBRANCH   2   3
ENDBRANCH   1   2
BRANCH   1  36
ATOM     36  C   UNL A   1      33.920  34.159  30.422  1.00  0.00     0.002 C 
BRANCH  36  37
ATOM     37  C   UNL A   1      34.038  33.753  28.951  1.00  0.00     0.021 C 
BRANCH  37  38
ATOM     38  C   UNL A   1      35.013  32.609  28.688  1.00  0.00     0.116 C 
BRANCH  38  39
ATOM     39  N   UNL A   1      34.324  31.375  28.342  1.00  0.00    -0.352 N 
ATOM     40  C   UNL A   1      34.848  30.125  28.120  1.00  0.00     0.251 C 
ATOM     41  H   UNL A   1      33.346  31.446  28.254  1.00  0.00     0.163 HD
ATOM     42  O   UNL A   1      34.154  29.234  27.643  1.00  0.00    -0.269 OA
BRANCH  40  43
ATOM     43  C   UNL A   1      36.265  29.864  28.442  1.00  0.00     0.039 A 
ATOM     44  C   UNL A   1      36.596  29.384  29.712  1.00  0.00     0.014 A 
ATOM     45  C   UNL A   1      37.261  30.082  27.485  1.00  0.00     0.014 A 
ATOM     46  C   UNL A   1      37.921  29.052  30.000  1.00  0.00     0.010 A 
ATOM     47  C   UNL A   1      38.571  29.697  27.754  1.00  0.00     0.010 A 
ATOM     48  C   UNL A   1      38.911  29.171  29.011  1.00  0.00    -0.014 A 
BRANCH  48  49
ATOM     49  C   UNL A   1      40.305  28.728  29.254  1.00  0.00     0.031 A 
ATOM     50  C   UNL A   1      41.293  29.659  29.895  1.00  0.00     0.074 A 
ATOM     51  C   UNL A   1      40.703  27.517  28.816  1.00  0.00     0.049 A 
ATOM     52  N   UNL A   1      42.578  29.498  30.084  1.00  0.00    -0.248 NA
ATOM     53  C   UNL A   1      40.770  30.950  30.367  1.00  0.00     0.031 C 
ATOM     54  C   UNL A   1      39.847  26.535  28.146  1.00  0.00     0.029 A 
ATOM     55  N   UNL A   1      41.935  26.915  28.851  1.00  0.00    -0.354 N 
ATOM     56  C   UNL A   1      43.020  30.672  30.679  1.00  0.00     0.074 A 
ATOM     57  C   UNL A   1      41.875  31.551  30.785  1.00  0.00     0.031 C 
ATOM     58  C   UNL A   1      40.578  25.451  27.844  1.00  0.00     0.029 A 
ATOM     59  C   UNL A   1      41.958  25.675  28.259  1.00  0.00     0.049 A 
ATOM     60  H   UNL A   1      42.728  27.332  29.260  1.00  0.00     0.167 HD
ATOM     61  C   UNL A   1      44.264  30.982  31.114  1.00  0.00     0.037 A 
ATOM     62  C   UNL A   1      42.981  24.824  28.059  1.00  0.00     0.037 A 
ATOM     63  C   UNL A   1      45.396  30.097  31.030  1.00  0.00     0.049 A 
ATOM     64  C   UNL A   1      44.359  25.201  28.525  1.00  0.00     0.074 A 
ATOM     65  C   UNL A   1      46.680  30.291  31.510  1.00  0.00     0.029 A 
ATOM     66  N   UNL A   1      45.380  28.851  30.421  1.00  0.00    -0.354 N 
ATOM     67  N   UNL A   1      44.751  26.291  29.140  1.00  0.00    -0.248 NA
ATOM     68  C   UNL A   1      45.436  24.238  28.261  1.00  0.00     0.031 C 
ATOM     69  C   UNL A   1      47.451  29.178  31.158  1.00  0.00     0.029 A 
ATOM     70  C   UNL A   1      46.639  28.276  30.489  1.00  0.00     0.049 A 
ATOM     71  H   UNL A   1      44.591  28.437  30.004  1.00  0.00     0.167 HD
ATOM     72  C   UNL A   1      46.114  26.137  29.352  1.00  0.00     0.074 A 
ATOM     73  C   UNL A   1      46.480  24.844  28.811  1.00  0.00     0.031 C 
ATOM     74  C   UNL A   1      46.986  26.991  29.940  1.00  0.00     0.037 A 
BRANCH  61  75
ATOM     75  C   UNL A   1      44.465  32.337  31.722  1.00  0.00     0.057 A 
ATOM     76  C   UNL A   1      44.671  33.475  30.933  1.00  0.00     0.134 A 
ATOM     77  C   UNL A   1      44.422  32.511  33.112  1.00  0.00     0.134 A 
ATOM     78  F   UNL A   1      44.735  33.373  29.597  1.00  0.00    -0.206 F 
ATOM     79  C   UNL A   1      44.852  34.737  31.504  1.00  0.00     0.040 A 
ATOM     80  C   UNL A   1      44.579  33.770  33.693  1.00  0.00     0.040 A 
ATOM     81  F   UNL A   1      44.224  31.463  33.923  1.00  0.00    -0.206 F 
ATOM     82  C   UNL A   1      44.800  34.887  32.888  1.00  0.00     0.006 A 
ENDBRANCH  61  75
BRANCH  62  83
ATOM     83  C   UNL A   1      42.740  23.523  27.389  1.00  0.00     0.057 A 
ATOM     84  C   UNL A   1      42.355  22.396  28.123  1.00  0.00     0.134 A 
ATOM     85  C   UNL A   1      42.887  23.374  26.005  1.00  0.00     0.134 A 
ATOM     86  F   UNL A   1      42.217  22.475  29.455  1.00  0.00    -0.206 F 
ATOM     87  C   UNL A   1      42.134  21.164  27.508  1.00  0.00     0.040 A 
ATOM     88  C   UNL A   1      42.651  22.152  25.373  1.00  0.00     0.040 A 
ATOM     89  F   UNL A   1      43.249  24.419  25.245  1.00  0.00    -0.206 F 
ATOM     90  C   UNL A   1      42.277  21.041  26.127  1.00  0.00     0.006 A 
ENDBRANCH  62  83
BRANCH  74  91
ATOM     91  C   UNL A   1      48.415  26.551  30.040  1.00  0.00     0.057 A 
ATOM     92  C   UNL A   1      49.352  26.880  29.053  1.00  0.00     0.134 A 
ATOM     93  C   UNL A   1      48.867  25.829  31.151  1.00  0.00     0.134 A 
ATOM     94  F   UNL A   1      48.976  27.557  27.957  1.00  0.00    -0.206 F 
ATOM     95  C   UNL A   1      50.690  26.496  29.164  1.00  0.00     0.040 A 
ATOM     96  C   UNL A   1      50.205  25.458  31.283  1.00  0.00     0.040 A 
ATOM     97  F   UNL A   1      48.018  25.487  32.132  1.00  0.00    -0.206 F 
ATOM     98  C   UNL A   1      51.120  25.789  30.285  1.00  0.00     0.006 A 
ENDBRANCH  74  91
ENDBRANCH  48  49
ENDBRANCH  40  43
ENDBRANCH  38  39
ENDBRANCH  37  38
ENDBRANCH  36  37
ENDBRANCH   1  36
TORSDOF 18
ENDMDL
MODEL 3
REMARK VINA RESULT:     -11.6      0.815      5.946
REMARK SMILES CS(=O)(=O)c1ccc(/C=C(/C(=O)NCCCCCCNC(=O)c2ccc(-c3c4nc(c(-c5c(F)cccc5F)c5ccc([nH]5)c(-c5c(F)cccc5F)c5nc(c(-c6c(F)cccc6F)c6ccc3[nH]6)C=C5)C=C4)cc2)c2ccc(-c3ccc(S(C)(=O)=O)cc3)cc2)cc1
REMARK SMILES IDX 16 1 15 2 14 3 13 4 11 5 12 6 10 8 9 9 8 10 5 11 6 12 94 13
REMARK SMILES IDX 7 14 93 15 2 16 1 17 3 18 4 19 77 20 78 21 92 22 79 23 91 24
REMARK SMILES IDX 80 25 81 26 82 27 90 28 83 29 89 30 84 31 85 32 86 33 87 34
REMARK SMILES IDX 88 35 17 36 18 37 19 38 20 39 21 40 22 42 23 43 24 44 76 45
REMARK SMILES IDX 25 46 75 47 26 48 27 49 28 50 69 51 29 52 74 53 68 54 70 55
REMARK SMILES IDX 30 56 73 57 67 58 66 59 31 61 57 62 40 63 56 64 41 65 44 66
REMARK SMILES IDX 55 67 71 68 42 69 43 70 54 72 72 73 45 74 32 75 33 76 38 77
REMARK SMILES IDX 34 78 35 79 37 80 39 81 36 82 58 83 59 84 64 85 60 86 61 87
REMARK SMILES IDX 63 88 65 89 62 90 46 91 47 92 52 93 48 94 49 95 51 96 53 97
REMARK SMILES IDX 50 98
REMARK H PARENT 13 7 20 41 70 60 44 71
REMARK Flexibility Score: inf
ROOT
ATOM      1  C   UNL A   1      36.782  23.669  26.088  1.00  0.00     0.002 C 
ENDROOT
BRANCH   1   2
ATOM      2  C   UNL A   1      36.263  23.439  24.659  1.00  0.00     0.021 C 
BRANCH   2   3
ATOM      3  C   UNL A   1      35.103  24.362  24.273  1.00  0.00     0.116 C 
BRANCH   3   4
ATOM      4  N   UNL A   1      33.984  23.567  23.810  1.00  0.00    -0.352 N 
ATOM      5  C   UNL A   1      32.659  23.811  23.635  1.00  0.00     0.251 C 
ATOM      6  O   UNL A   1      31.968  22.844  23.310  1.00  0.00    -0.269 OA
ATOM      7  H   UNL A   1      34.239  22.647  23.569  1.00  0.00     0.163 HD
BRANCH   5   8
ATOM      8  C   UNL A   1      32.047  25.189  23.726  1.00  0.00     0.047 C 
ATOM      9  C   UNL A   1      31.047  25.604  22.913  1.00  0.00     0.022 C 
BRANCH   9  10
ATOM     10  C   UNL A   1      30.282  26.871  22.965  1.00  0.00    -0.025 A 
ATOM     11  C   UNL A   1      28.882  29.303  22.845  1.00  0.00     0.067 A 
ATOM     12  C   UNL A   1      28.318  28.209  23.503  1.00  0.00     0.021 A 
ATOM     13  C   UNL A   1      30.161  29.214  22.296  1.00  0.00     0.021 A 
ATOM     14  C   UNL A   1      29.027  27.004  23.574  1.00  0.00     0.009 A 
ATOM     15  C   UNL A   1      30.854  28.001  22.358  1.00  0.00     0.009 A 
BRANCH  11  16
ATOM     16  S   UNL A   1      27.969  30.823  22.720  1.00  0.00     0.175 S 
ATOM     17  C   UNL A   1      29.130  32.084  23.176  1.00  0.00     0.163 C 
ATOM     18  O   UNL A   1      26.940  30.799  23.742  1.00  0.00    -0.224 OA
ATOM     19  O   UNL A   1      27.630  30.995  21.320  1.00  0.00    -0.224 OA
ENDBRANCH  11  16
ENDBRANCH   9  10
BRANCH   8  20
ATOM     20  C   UNL A   1      32.725  26.158  24.621  1.00  0.00    -0.013 A 
ATOM     21  C   UNL A   1      33.611  27.081  24.047  1.00  0.00     0.009 A 
ATOM     22  C   UNL A   1      32.429  26.262  25.983  1.00  0.00     0.009 A 
ATOM     23  C   UNL A   1      34.128  28.134  24.798  1.00  0.00     0.009 A 
ATOM     24  C   UNL A   1      32.940  27.330  26.732  1.00  0.00     0.009 A 
ATOM     25  C   UNL A   1      33.765  28.306  26.141  1.00  0.00    -0.018 A 
BRANCH  25  26
ATOM     26  C   UNL A   1      34.173  29.516  26.875  1.00  0.00    -0.018 A 
ATOM     27  C   UNL A   1      35.509  29.667  27.298  1.00  0.00     0.010 A 
ATOM     28  C   UNL A   1      33.273  30.562  27.138  1.00  0.00     0.010 A 
ATOM     29  C   UNL A   1      35.938  30.822  27.953  1.00  0.00     0.021 A 
ATOM     30  C   UNL A   1      33.693  31.723  27.796  1.00  0.00     0.021 A 
ATOM     31  C   UNL A   1      35.023  31.843  28.201  1.00  0.00     0.067 A 
BRANCH  31  32
ATOM     32  S   UNL A   1      35.588  33.329  28.993  1.00  0.00     0.175 S 
ATOM     33  C   UNL A   1      34.836  33.261  30.598  1.00  0.00     0.163 C 
ATOM     34  O   UNL A   1      37.026  33.198  29.156  1.00  0.00    -0.224 OA
ATOM     35  O   UNL A   1      35.018  34.455  28.282  1.00  0.00    -0.224 OA
ENDBRANCH  31  32
ENDBRANCH  25  26
ENDBRANCH   8  20
ENDBRANCH   5   8
ENDBRANCH   3   4
ENDBRANCH   2   3
ENDBRANCH   1   2
BRANCH   1  36
ATOM     36  C   UNL A   1      38.266  23.347  26.300  1.00  0.00     0.002 C 
BRANCH  36  37
ATOM     37  C   UNL A   1      39.175  24.565  26.481  1.00  0.00     0.021 C 
BRANCH  37  38
ATOM     38  C   UNL A   1      40.229  24.411  27.573  1.00  0.00     0.116 C 
BRANCH  38  39
ATOM     39  N   UNL A   1      41.063  23.238  27.364  1.00  0.00    -0.352 N 
ATOM     40  C   UNL A   1      42.367  23.170  26.939  1.00  0.00     0.251 C 
ATOM     41  H   UNL A   1      40.633  22.373  27.552  1.00  0.00     0.163 HD
ATOM     42  O   UNL A   1      42.865  22.095  26.623  1.00  0.00    -0.269 OA
BRANCH  40  43
ATOM     43  C   UNL A   1      43.166  24.408  26.845  1.00  0.00     0.039 A 
ATOM     44  C   UNL A   1      43.759  24.924  28.000  1.00  0.00     0.014 A 
ATOM     45  C   UNL A   1      43.339  25.049  25.614  1.00  0.00     0.014 A 
ATOM     46  C   UNL A   1      44.587  26.044  27.910  1.00  0.00     0.010 A 
ATOM     47  C   UNL A   1      44.209  26.130  25.516  1.00  0.00     0.010 A 
ATOM     48  C   UNL A   1      44.847  26.632  26.661  1.00  0.00    -0.014 A 
BRANCH  48  49
ATOM     49  C   UNL A   1      45.804  27.757  26.519  1.00  0.00     0.031 A 
ATOM     50  C   UNL A   1      47.274  27.486  26.388  1.00  0.00     0.074 A 
ATOM     51  C   UNL A   1      45.354  29.024  26.599  1.00  0.00     0.049 A 
ATOM     52  N   UNL A   1      48.272  28.333  26.371  1.00  0.00    -0.248 NA
ATOM     53  C   UNL A   1      47.677  26.075  26.283  1.00  0.00     0.031 C 
ATOM     54  C   UNL A   1      43.952  29.418  26.763  1.00  0.00     0.029 A 
ATOM     55  N   UNL A   1      46.032  30.216  26.573  1.00  0.00    -0.354 N 
ATOM     56  C   UNL A   1      49.420  27.558  26.271  1.00  0.00     0.074 A 
ATOM     57  C   UNL A   1      48.999  26.173  26.270  1.00  0.00     0.031 C 
ATOM     58  C   UNL A   1      43.876  30.757  26.812  1.00  0.00     0.029 A 
ATOM     59  C   UNL A   1      45.221  31.314  26.725  1.00  0.00     0.049 A 
ATOM     60  H   UNL A   1      47.008  30.279  26.458  1.00  0.00     0.167 HD
ATOM     61  C   UNL A   1      50.707  27.966  26.172  1.00  0.00     0.037 A 
ATOM     62  C   UNL A   1      45.529  32.623  26.802  1.00  0.00     0.037 A 
ATOM     63  C   UNL A   1      51.122  29.343  26.148  1.00  0.00     0.049 A 
ATOM     64  C   UNL A   1      46.968  33.049  26.718  1.00  0.00     0.074 A 
ATOM     65  C   UNL A   1      52.396  29.858  25.975  1.00  0.00     0.029 A 
ATOM     66  N   UNL A   1      50.271  30.427  26.307  1.00  0.00    -0.354 N 
ATOM     67  N   UNL A   1      48.038  32.309  26.564  1.00  0.00    -0.248 NA
ATOM     68  C   UNL A   1      47.240  34.488  26.828  1.00  0.00     0.031 C 
ATOM     69  C   UNL A   1      52.320  31.252  26.067  1.00  0.00     0.029 A 
ATOM     70  C   UNL A   1      50.995  31.606  26.264  1.00  0.00     0.049 A 
ATOM     71  H   UNL A   1      49.297  30.365  26.431  1.00  0.00     0.167 HD
ATOM     72  C   UNL A   1      49.110  33.191  26.541  1.00  0.00     0.074 A 
ATOM     73  C   UNL A   1      48.559  34.523  26.684  1.00  0.00     0.031 C 
ATOM     74  C   UNL A   1      50.432  32.923  26.414  1.00  0.00     0.037 A 
BRANCH  61  75
ATOM     75  C   UNL A   1      51.762  26.904  26.079  1.00  0.00     0.057 A 
ATOM     76  C   UNL A   1      52.432  26.431  27.214  1.00  0.00     0.134 A 
ATOM     77  C   UNL A   1      52.089  26.327  24.845  1.00  0.00     0.134 A 
ATOM     78  F   UNL A   1      52.172  26.952  28.422  1.00  0.00    -0.206 F 
ATOM     79  C   UNL A   1      53.409  25.438  27.123  1.00  0.00     0.040 A 
ATOM     80  C   UNL A   1      53.048  25.318  24.745  1.00  0.00     0.040 A 
ATOM     81  F   UNL A   1      51.481  26.732  23.721  1.00  0.00    -0.206 F 
ATOM     82  C   UNL A   1      53.715  24.875  25.886  1.00  0.00     0.006 A 
ENDBRANCH  61  75
BRANCH  62  83
ATOM     83  C   UNL A   1      44.451  33.628  26.965  1.00  0.00     0.057 A 
ATOM     84  C   UNL A   1      43.994  33.992  28.236  1.00  0.00     0.134 A 
ATOM     85  C   UNL A   1      43.854  34.247  25.861  1.00  0.00     0.134 A 
ATOM     86  F   UNL A   1      44.517  33.418  29.329  1.00  0.00    -0.206 F 
ATOM     87  C   UNL A   1      42.975  34.929  28.405  1.00  0.00     0.040 A 
ATOM     88  C   UNL A   1      42.846  35.200  26.015  1.00  0.00     0.040 A 
ATOM     89  F   UNL A   1      44.252  33.944  24.616  1.00  0.00    -0.206 F 
ATOM     90  C   UNL A   1      42.401  35.540  27.291  1.00  0.00     0.006 A 
ENDBRANCH  62  83
BRANCH  74  91
ATOM     91  C   UNL A   1      51.370  34.091  26.413  1.00  0.00     0.057 A 
ATOM     92  C   UNL A   1      51.925  34.585  27.600  1.00  0.00     0.134 A 
ATOM     93  C   UNL A   1      51.758  34.698  25.213  1.00  0.00     0.134 A 
ATOM     94  F   UNL A   1      51.580  34.054  28.784  1.00  0.00    -0.206 F 
ATOM     95  C   UNL A   1      52.824  35.652  27.594  1.00  0.00     0.040 A 
ATOM     96  C   UNL A   1      52.672  35.752  25.191  1.00  0.00     0.040 A 
ATOM     97  F   UNL A   1      51.265  34.268  24.042  1.00  0.00    -0.206 F 
ATOM     98  C   UNL A   1      53.205  36.233  26.386  1.00  0.00     0.006 A 
ENDBRANCH  74  91
ENDBRANCH  48  49
ENDBRANCH  40  43
ENDBRANCH  38  39
ENDBRANCH  37  38
ENDBRANCH  36  37
ENDBRANCH   1  36
TORSDOF 18
ENDMDL
