MODEL 1
REMARK VINA RESULT:     -12.1      0.000      0.000
REMARK SMILES CC(C)[N@H+](C)Cc1cc2c(cc1Cl)C=C(C(=O)NCCCCCCNC(=O)c1ccc(-c3c4nc(c(-c5c(F)cccc5F)c5ccc([nH]5)c(-c5c(F)cccc5F)c5nc(c(-c6c(F)cccc6F)c6ccc3[nH]6)C=C5)C=C4)cc1)[C@@H](C(F)(F)F)O2
REMARK SMILES IDX 21 1 20 2 19 3 18 4 16 5 17 6 15 8 7 9 8 10 12 11 9 12 11 13
REMARK SMILES IDX 13 14 10 15 87 16 14 17 82 18 6 19 4 20 5 21 2 23 1 24 3 25
REMARK SMILES IDX 83 26 84 27 85 28 86 29 22 30 23 31 24 32 25 33 26 34 27 36
REMARK SMILES IDX 28 37 29 38 81 39 30 40 80 41 31 42 32 43 33 44 74 45 34 46
REMARK SMILES IDX 79 47 73 48 75 49 35 50 78 51 72 52 71 53 36 55 62 56 45 57
REMARK SMILES IDX 61 58 46 59 49 60 60 61 76 62 47 63 48 64 59 66 77 67 50 68
REMARK SMILES IDX 37 69 38 70 43 71 39 72 40 73 42 74 44 75 41 76 63 77 64 78
REMARK SMILES IDX 69 79 65 80 66 81 68 82 70 83 67 84 51 85 52 86 57 87 53 88
REMARK SMILES IDX 54 89 56 90 58 91 55 92
REMARK H PARENT 18 7 4 22 25 35 75 54 49 65
REMARK Flexibility Score: inf
ROOT
ATOM      1  C   UNL A   1      36.863  21.964  24.069  1.00  0.00     0.002 C 
ENDROOT
BRANCH   1   2
ATOM      2  C   UNL A   1      36.221  23.234  24.635  1.00  0.00     0.021 C 
BRANCH   2   3
ATOM      3  C   UNL A   1      36.280  23.345  26.153  1.00  0.00     0.116 C 
BRANCH   3   4
ATOM      4  N   UNL A   1      35.029  22.967  26.774  1.00  0.00    -0.352 N 
ATOM      5  C   UNL A   1      33.731  23.321  26.645  1.00  0.00     0.251 C 
ATOM      6  O   UNL A   1      32.945  22.732  27.395  1.00  0.00    -0.270 OA
ATOM      7  H   UNL A   1      35.154  22.277  27.465  1.00  0.00     0.163 HD
BRANCH   5   8
ATOM      8  C   UNL A   1      33.214  24.344  25.688  1.00  0.00     0.067 C 
ATOM      9  C   UNL A   1      31.419  28.692  23.840  1.00  0.00     0.029 A 
ATOM     10  C   UNL A   1      31.618  27.406  23.309  1.00  0.00     0.058 A 
ATOM     11  C   UNL A   1      31.901  28.960  25.135  1.00  0.00     0.050 A 
ATOM     12  C   UNL A   1      32.203  26.402  24.080  1.00  0.00     0.128 A 
ATOM     13  C   UNL A   1      32.463  27.942  25.909  1.00  0.00     0.033 A 
ATOM     14  Cl  UNL A   1      31.860  30.537  25.841  1.00  0.00    -0.084 Cl
ATOM     15  C   UNL A   1      32.601  26.656  25.387  1.00  0.00     0.019 A 
ATOM     16  O   UNL A   1      32.371  25.198  23.471  1.00  0.00    -0.475 OA
ATOM     17  C   UNL A   1      33.162  25.587  26.194  1.00  0.00     0.025 C 
ATOM     18  C   UNL A   1      32.712  24.050  24.298  1.00  0.00     0.314 C 
BRANCH   9  19
ATOM     19  C   UNL A   1      30.704  29.726  23.000  1.00  0.00     0.300 C 
BRANCH  19  20
ATOM     20  N   UNL A   1      29.292  29.884  23.364  1.00  0.00    -0.332 N 
ATOM     21  C   UNL A   1      28.993  31.249  23.781  1.00  0.00     0.333 C 
ATOM     22  H   UNL A   1      29.202  29.258  24.164  1.00  0.00     0.348 HD
BRANCH  20  23
ATOM     23  C   UNL A   1      28.270  29.327  22.462  1.00  0.00     0.177 C 
ATOM     24  C   UNL A   1      26.968  28.866  23.126  1.00  0.00     0.075 C 
ATOM     25  C   UNL A   1      27.959  30.287  21.307  1.00  0.00     0.075 C 
ENDBRANCH  20  23
ENDBRANCH  19  20
ENDBRANCH   9  19
BRANCH  18  26
ATOM     26  C   UNL A   1      31.515  23.087  24.259  1.00  0.00     0.429 C 
ATOM     27  F   UNL A   1      30.706  23.302  25.329  1.00  0.00    -0.167 F 
ATOM     28  F   UNL A   1      30.738  23.248  23.165  1.00  0.00    -0.167 F 
ATOM     29  F   UNL A   1      31.895  21.790  24.294  1.00  0.00    -0.167 F 
ENDBRANCH  18  26
ENDBRANCH   5   8
ENDBRANCH   3   4
ENDBRANCH   2   3
ENDBRANCH   1   2
BRANCH   1  30
ATOM     30  C   UNL A   1      37.005  20.794  25.052  1.00  0.00     0.002 C 
BRANCH  30  31
ATOM     31  C   UNL A   1      38.216  19.886  24.832  1.00  0.00     0.021 C 
BRANCH  31  32
ATOM     32  C   UNL A   1      39.384  20.143  25.773  1.00  0.00     0.116 C 
BRANCH  32  33
ATOM     33  N   UNL A   1      40.302  19.019  25.841  1.00  0.00    -0.352 N 
ATOM     34  C   UNL A   1      41.657  19.032  26.077  1.00  0.00     0.251 C 
ATOM     35  H   UNL A   1      39.902  18.130  25.700  1.00  0.00     0.163 HD
ATOM     36  O   UNL A   1      42.329  18.014  25.957  1.00  0.00    -0.269 OA
BRANCH  34  37
ATOM     37  C   UNL A   1      42.299  20.311  26.443  1.00  0.00     0.039 A 
ATOM     38  C   UNL A   1      42.246  20.770  27.762  1.00  0.00     0.014 A 
ATOM     39  C   UNL A   1      42.889  21.086  25.443  1.00  0.00     0.014 A 
ATOM     40  C   UNL A   1      42.636  22.072  28.048  1.00  0.00     0.010 A 
ATOM     41  C   UNL A   1      43.350  22.367  25.749  1.00  0.00     0.010 A 
ATOM     42  C   UNL A   1      43.181  22.889  27.043  1.00  0.00    -0.014 A 
BRANCH  42  43
ATOM     43  C   UNL A   1      43.540  24.295  27.355  1.00  0.00     0.031 A 
ATOM     44  C   UNL A   1      44.961  24.771  27.211  1.00  0.00     0.074 A 
ATOM     45  C   UNL A   1      42.575  25.156  27.725  1.00  0.00     0.049 A 
ATOM     46  N   UNL A   1      45.467  25.952  27.467  1.00  0.00    -0.248 NA
ATOM     47  C   UNL A   1      45.943  23.794  26.716  1.00  0.00     0.031 C 
ATOM     48  C   UNL A   1      41.157  24.821  27.877  1.00  0.00     0.029 A 
ATOM     49  N   UNL A   1      42.636  26.492  28.026  1.00  0.00    -0.354 N 
ATOM     50  C   UNL A   1      46.824  25.854  27.186  1.00  0.00     0.074 A 
ATOM     51  C   UNL A   1      47.070  24.491  26.762  1.00  0.00     0.031 C 
ATOM     52  C   UNL A   1      40.477  25.929  28.203  1.00  0.00     0.029 A 
ATOM     53  C   UNL A   1      41.417  27.036  28.347  1.00  0.00     0.049 A 
ATOM     54  H   UNL A   1      43.472  27.011  28.014  1.00  0.00     0.167 HD
ATOM     55  C   UNL A   1      47.778  26.814  27.266  1.00  0.00     0.037 A 
ATOM     56  C   UNL A   1      41.095  28.283  28.738  1.00  0.00     0.037 A 
ATOM     57  C   UNL A   1      47.529  28.173  27.670  1.00  0.00     0.049 A 
ATOM     58  C   UNL A   1      42.181  29.308  28.880  1.00  0.00     0.074 A 
ATOM     59  C   UNL A   1      48.423  29.227  27.759  1.00  0.00     0.029 A 
ATOM     60  N   UNL A   1      46.290  28.668  28.051  1.00  0.00    -0.354 N 
ATOM     61  N   UNL A   1      43.460  29.199  28.616  1.00  0.00    -0.248 NA
ATOM     62  C   UNL A   1      41.779  30.625  29.393  1.00  0.00     0.031 C 
ATOM     63  C   UNL A   1      47.732  30.349  28.231  1.00  0.00     0.029 A 
ATOM     64  C   UNL A   1      46.401  30.004  28.400  1.00  0.00     0.049 A 
ATOM     65  H   UNL A   1      45.456  28.146  28.071  1.00  0.00     0.167 HD
ATOM     66  C   UNL A   1      44.016  30.433  28.924  1.00  0.00     0.074 A 
ATOM     67  C   UNL A   1      42.929  31.283  29.370  1.00  0.00     0.031 C 
ATOM     68  C   UNL A   1      45.311  30.827  28.853  1.00  0.00     0.037 A 
BRANCH  55  69
ATOM     69  C   UNL A   1      49.185  26.420  26.925  1.00  0.00     0.057 A 
ATOM     70  C   UNL A   1      50.052  25.945  27.917  1.00  0.00     0.134 A 
ATOM     71  C   UNL A   1      49.693  26.537  25.625  1.00  0.00     0.134 A 
ATOM     72  F   UNL A   1      49.632  25.813  29.183  1.00  0.00    -0.206 F 
ATOM     73  C   UNL A   1      51.374  25.600  27.628  1.00  0.00     0.040 A 
ATOM     74  C   UNL A   1      51.006  26.175  25.319  1.00  0.00     0.040 A 
ATOM     75  F   UNL A   1      48.910  26.972  24.626  1.00  0.00    -0.206 F 
ATOM     76  C   UNL A   1      51.853  25.710  26.323  1.00  0.00     0.006 A 
ENDBRANCH  55  69
BRANCH  56  77
ATOM     77  C   UNL A   1      39.686  28.621  29.053  1.00  0.00     0.057 A 
ATOM     78  C   UNL A   1      39.155  28.408  30.331  1.00  0.00     0.134 A 
ATOM     79  C   UNL A   1      38.842  29.173  28.085  1.00  0.00     0.134 A 
ATOM     80  F   UNL A   1      39.914  27.879  31.302  1.00  0.00    -0.206 F 
ATOM     81  C   UNL A   1      37.829  28.722  30.632  1.00  0.00     0.040 A 
ATOM     82  C   UNL A   1      37.522  29.514  28.378  1.00  0.00     0.040 A 
ATOM     83  F   UNL A   1      39.303  29.418  26.849  1.00  0.00    -0.206 F 
ATOM     84  C   UNL A   1      37.011  29.283  29.654  1.00  0.00     0.006 A 
ENDBRANCH  56  77
BRANCH  68  85
ATOM     85  C   UNL A   1      45.607  32.238  29.262  1.00  0.00     0.057 A 
ATOM     86  C   UNL A   1      45.526  33.285  28.337  1.00  0.00     0.134 A 
ATOM     87  C   UNL A   1      45.976  32.559  30.575  1.00  0.00     0.134 A 
ATOM     88  F   UNL A   1      45.182  33.044  27.063  1.00  0.00    -0.206 F 
ATOM     89  C   UNL A   1      45.796  34.604  28.704  1.00  0.00     0.040 A 
ATOM     90  C   UNL A   1      46.227  33.877  30.960  1.00  0.00     0.040 A 
ATOM     91  F   UNL A   1      46.053  31.601  31.512  1.00  0.00    -0.206 F 
ATOM     92  C   UNL A   1      46.141  34.903  30.021  1.00  0.00     0.006 A 
ENDBRANCH  68  85
ENDBRANCH  42  43
ENDBRANCH  34  37
ENDBRANCH  32  33
ENDBRANCH  31  32
ENDBRANCH  30  31
ENDBRANCH   1  30
TORSDOF 17
ENDMDL
MODEL 2
REMARK VINA RESULT:     -11.7      1.871      2.450
REMARK SMILES CC(C)[N@H+](C)Cc1cc2c(cc1Cl)C=C(C(=O)NCCCCCCNC(=O)c1ccc(-c3c4nc(c(-c5c(F)cccc5F)c5ccc([nH]5)c(-c5c(F)cccc5F)c5nc(c(-c6c(F)cccc6F)c6ccc3[nH]6)C=C5)C=C4)cc1)[C@@H](C(F)(F)F)O2
REMARK SMILES IDX 21 1 20 2 19 3 18 4 16 5 17 6 15 8 7 9 8 10 12 11 9 12 11 13
REMARK SMILES IDX 13 14 10 15 87 16 14 17 82 18 6 19 4 20 5 21 2 23 1 24 3 25
REMARK SMILES IDX 83 26 84 27 85 28 86 29 22 30 23 31 24 32 25 33 26 34 27 36
REMARK SMILES IDX 28 37 29 38 81 39 30 40 80 41 31 42 32 43 33 44 74 45 34 46
REMARK SMILES IDX 79 47 73 48 75 49 35 50 78 51 72 52 71 53 36 55 62 56 45 57
REMARK SMILES IDX 61 58 46 59 49 60 60 61 76 62 47 63 48 64 59 66 77 67 50 68
REMARK SMILES IDX 37 69 38 70 43 71 39 72 40 73 42 74 44 75 41 76 63 77 64 78
REMARK SMILES IDX 69 79 65 80 66 81 68 82 70 83 67 84 51 85 52 86 57 87 53 88
REMARK SMILES IDX 54 89 56 90 58 91 55 92
REMARK H PARENT 18 7 4 22 25 35 75 54 49 65
REMARK Flexibility Score: inf
ROOT
ATOM      1  C   UNL A   1      35.675  19.819  25.064  1.00  0.00     0.002 C 
ENDROOT
BRANCH   1   2
ATOM      2  C   UNL A   1      34.234  19.784  24.547  1.00  0.00     0.021 C 
BRANCH   2   3
ATOM      3  C   UNL A   1      33.174  19.736  25.640  1.00  0.00     0.116 C 
BRANCH   3   4
ATOM      4  N   UNL A   1      33.488  20.620  26.741  1.00  0.00    -0.352 N 
ATOM      5  C   UNL A   1      33.315  21.931  27.017  1.00  0.00     0.251 C 
ATOM      6  O   UNL A   1      33.744  22.302  28.114  1.00  0.00    -0.270 OA
ATOM      7  H   UNL A   1      33.942  20.147  27.475  1.00  0.00     0.163 HD
BRANCH   5   8
ATOM      8  C   UNL A   1      32.664  22.919  26.105  1.00  0.00     0.067 C 
ATOM      9  C   UNL A   1      31.797  27.128  23.446  1.00  0.00     0.029 A 
ATOM     10  C   UNL A   1      31.055  25.965  23.716  1.00  0.00     0.058 A 
ATOM     11  C   UNL A   1      33.136  27.178  23.875  1.00  0.00     0.050 A 
ATOM     12  C   UNL A   1      31.610  24.925  24.461  1.00  0.00     0.128 A 
ATOM     13  C   UNL A   1      33.676  26.142  24.642  1.00  0.00     0.033 A 
ATOM     14  Cl  UNL A   1      34.201  28.479  23.473  1.00  0.00    -0.084 Cl
ATOM     15  C   UNL A   1      32.907  25.020  24.949  1.00  0.00     0.019 A 
ATOM     16  O   UNL A   1      30.820  23.835  24.651  1.00  0.00    -0.475 OA
ATOM     17  C   UNL A   1      33.453  23.952  25.766  1.00  0.00     0.025 C 
ATOM     18  C   UNL A   1      31.232  22.851  25.641  1.00  0.00     0.314 C 
BRANCH   9  19
ATOM     19  C   UNL A   1      31.128  28.266  22.708  1.00  0.00     0.300 C 
BRANCH  19  20
ATOM     20  N   UNL A   1      30.140  28.978  23.525  1.00  0.00    -0.332 N 
ATOM     21  C   UNL A   1      30.776  29.917  24.442  1.00  0.00     0.333 C 
ATOM     22  H   UNL A   1      29.712  28.221  24.058  1.00  0.00     0.348 HD
BRANCH  20  23
ATOM     23  C   UNL A   1      28.957  29.546  22.857  1.00  0.00     0.177 C 
ATOM     24  C   UNL A   1      27.670  28.724  22.957  1.00  0.00     0.075 C 
ATOM     25  C   UNL A   1      28.697  30.988  23.311  1.00  0.00     0.075 C 
ENDBRANCH  20  23
ENDBRANCH  19  20
ENDBRANCH   9  19
BRANCH  18  26
ATOM     26  C   UNL A   1      30.204  22.893  26.783  1.00  0.00     0.429 C 
ATOM     27  F   UNL A   1      29.578  24.099  26.805  1.00  0.00    -0.167 F 
ATOM     28  F   UNL A   1      29.228  21.967  26.655  1.00  0.00    -0.167 F 
ATOM     29  F   UNL A   1      30.773  22.711  27.996  1.00  0.00    -0.167 F 
ENDBRANCH  18  26
ENDBRANCH   5   8
ENDBRANCH   3   4
ENDBRANCH   2   3
ENDBRANCH   1   2
BRANCH   1  30
ATOM     30  C   UNL A   1      36.436  21.130  24.829  1.00  0.00     0.002 C 
BRANCH  30  31
ATOM     31  C   UNL A   1      37.954  21.000  24.682  1.00  0.00     0.021 C 
BRANCH  31  32
ATOM     32  C   UNL A   1      38.694  20.687  25.974  1.00  0.00     0.116 C 
BRANCH  32  33
ATOM     33  N   UNL A   1      39.680  19.633  25.809  1.00  0.00    -0.352 N 
ATOM     34  C   UNL A   1      41.041  19.695  25.998  1.00  0.00     0.251 C 
ATOM     35  H   UNL A   1      39.328  18.758  25.524  1.00  0.00     0.163 HD
ATOM     36  O   UNL A   1      41.766  18.762  25.674  1.00  0.00    -0.269 OA
BRANCH  34  37
ATOM     37  C   UNL A   1      41.621  20.929  26.565  1.00  0.00     0.039 A 
ATOM     38  C   UNL A   1      41.672  21.108  27.950  1.00  0.00     0.014 A 
ATOM     39  C   UNL A   1      42.044  21.940  25.701  1.00  0.00     0.014 A 
ATOM     40  C   UNL A   1      41.992  22.357  28.466  1.00  0.00     0.010 A 
ATOM     41  C   UNL A   1      42.438  23.172  26.227  1.00  0.00     0.010 A 
ATOM     42  C   UNL A   1      42.367  23.406  27.610  1.00  0.00    -0.014 A 
BRANCH  42  43
ATOM     43  C   UNL A   1      42.651  24.749  28.176  1.00  0.00     0.031 A 
ATOM     44  C   UNL A   1      44.056  25.137  28.556  1.00  0.00     0.074 A 
ATOM     45  C   UNL A   1      41.648  25.636  28.306  1.00  0.00     0.049 A 
ATOM     46  N   UNL A   1      44.489  26.250  29.092  1.00  0.00    -0.248 NA
ATOM     47  C   UNL A   1      45.111  24.144  28.301  1.00  0.00     0.031 C 
ATOM     48  C   UNL A   1      40.249  25.387  27.950  1.00  0.00     0.029 A 
ATOM     49  N   UNL A   1      41.652  26.931  28.757  1.00  0.00    -0.354 N 
ATOM     50  C   UNL A   1      45.859  26.085  29.257  1.00  0.00     0.074 A 
ATOM     51  C   UNL A   1      46.183  24.755  28.788  1.00  0.00     0.031 C 
ATOM     52  C   UNL A   1      39.538  26.504  28.159  1.00  0.00     0.029 A 
ATOM     53  C   UNL A   1      40.415  27.525  28.722  1.00  0.00     0.049 A 
ATOM     54  H   UNL A   1      42.463  27.389  29.074  1.00  0.00     0.167 HD
ATOM     55  C   UNL A   1      46.765  26.965  29.749  1.00  0.00     0.037 A 
ATOM     56  C   UNL A   1      40.026  28.749  29.124  1.00  0.00     0.037 A 
ATOM     57  C   UNL A   1      46.444  28.295  30.198  1.00  0.00     0.049 A 
ATOM     58  C   UNL A   1      41.039  29.678  29.724  1.00  0.00     0.074 A 
ATOM     59  C   UNL A   1      47.294  29.271  30.689  1.00  0.00     0.029 A 
ATOM     60  N   UNL A   1      45.167  28.837  30.209  1.00  0.00    -0.354 N 
ATOM     61  N   UNL A   1      42.329  29.507  29.880  1.00  0.00    -0.248 NA
ATOM     62  C   UNL A   1      40.536  30.967  30.222  1.00  0.00     0.031 C 
ATOM     63  C   UNL A   1      46.525  30.389  31.033  1.00  0.00     0.029 A 
ATOM     64  C   UNL A   1      45.202  30.123  30.721  1.00  0.00     0.049 A 
ATOM     65  H   UNL A   1      44.355  28.374  29.899  1.00  0.00     0.167 HD
ATOM     66  C   UNL A   1      42.794  30.665  30.487  1.00  0.00     0.074 A 
ATOM     67  C   UNL A   1      41.651  31.542  30.647  1.00  0.00     0.031 C 
ATOM     68  C   UNL A   1      44.052  30.974  30.884  1.00  0.00     0.037 A 
BRANCH  55  69
ATOM     69  C   UNL A   1      48.191  26.509  29.843  1.00  0.00     0.057 A 
ATOM     70  C   UNL A   1      48.642  25.804  30.966  1.00  0.00     0.134 A 
ATOM     71  C   UNL A   1      49.126  26.789  28.838  1.00  0.00     0.134 A 
ATOM     72  F   UNL A   1      47.801  25.507  31.966  1.00  0.00    -0.206 F 
ATOM     73  C   UNL A   1      49.972  25.395  31.086  1.00  0.00     0.040 A 
ATOM     74  C   UNL A   1      50.453  26.367  28.937  1.00  0.00     0.040 A 
ATOM     75  F   UNL A   1      48.755  27.448  27.729  1.00  0.00    -0.206 F 
ATOM     76  C   UNL A   1      50.881  25.672  30.067  1.00  0.00     0.006 A 
ENDBRANCH  55  69
BRANCH  56  77
ATOM     77  C   UNL A   1      38.605  29.152  29.000  1.00  0.00     0.057 A 
ATOM     78  C   UNL A   1      37.734  29.098  30.095  1.00  0.00     0.134 A 
ATOM     79  C   UNL A   1      38.088  29.610  27.784  1.00  0.00     0.134 A 
ATOM     80  F   UNL A   1      38.170  28.666  31.287  1.00  0.00    -0.206 F 
ATOM     81  C   UNL A   1      36.395  29.475  29.983  1.00  0.00     0.040 A 
ATOM     82  C   UNL A   1      36.758  30.013  27.663  1.00  0.00     0.040 A 
ATOM     83  F   UNL A   1      38.880  29.703  26.706  1.00  0.00    -0.206 F 
ATOM     84  C   UNL A   1      35.906  29.940  28.764  1.00  0.00     0.006 A 
ENDBRANCH  56  77
BRANCH  68  85
ATOM     85  C   UNL A   1      44.246  32.317  31.522  1.00  0.00     0.057 A 
ATOM     86  C   UNL A   1      44.163  32.470  32.910  1.00  0.00     0.134 A 
ATOM     87  C   UNL A   1      44.514  33.459  30.756  1.00  0.00     0.134 A 
ATOM     88  F   UNL A   1      43.905  31.416  33.698  1.00  0.00    -0.206 F 
ATOM     89  C   UNL A   1      44.343  33.714  33.517  1.00  0.00     0.040 A 
ATOM     90  C   UNL A   1      44.718  34.704  31.353  1.00  0.00     0.040 A 
ATOM     91  F   UNL A   1      44.624  33.372  29.422  1.00  0.00    -0.206 F 
ATOM     92  C   UNL A   1      44.629  34.833  32.737  1.00  0.00     0.006 A 
ENDBRANCH  68  85
ENDBRANCH  42  43
ENDBRANCH  34  37
ENDBRANCH  32  33
ENDBRANCH  31  32
ENDBRANCH  30  31
ENDBRANCH   1  30
TORSDOF 17
ENDMDL
MODEL 3
REMARK VINA RESULT:     -11.7      4.953      8.569
REMARK SMILES CC(C)[N@H+](C)Cc1cc2c(cc1Cl)C=C(C(=O)NCCCCCCNC(=O)c1ccc(-c3c4nc(c(-c5c(F)cccc5F)c5ccc([nH]5)c(-c5c(F)cccc5F)c5nc(c(-c6c(F)cccc6F)c6ccc3[nH]6)C=C5)C=C4)cc1)[C@@H](C(F)(F)F)O2
REMARK SMILES IDX 21 1 20 2 19 3 18 4 16 5 17 6 15 8 7 9 8 10 12 11 9 12 11 13
REMARK SMILES IDX 13 14 10 15 87 16 14 17 82 18 6 19 4 20 5 21 2 23 1 24 3 25
REMARK SMILES IDX 83 26 84 27 85 28 86 29 22 30 23 31 24 32 25 33 26 34 27 36
REMARK SMILES IDX 28 37 29 38 81 39 30 40 80 41 31 42 32 43 33 44 74 45 34 46
REMARK SMILES IDX 79 47 73 48 75 49 35 50 78 51 72 52 71 53 36 55 62 56 45 57
REMARK SMILES IDX 61 58 46 59 49 60 60 61 76 62 47 63 48 64 59 66 77 67 50 68
REMARK SMILES IDX 37 69 38 70 43 71 39 72 40 73 42 74 44 75 41 76 63 77 64 78
REMARK SMILES IDX 69 79 65 80 66 81 68 82 70 83 67 84 51 85 52 86 57 87 53 88
REMARK SMILES IDX 54 89 56 90 58 91 55 92
REMARK H PARENT 18 7 4 22 25 35 75 54 49 65
REMARK Flexibility Score: inf
ROOT
ATOM      1  C   UNL A   1      37.412  22.895  25.086  1.00  0.00     0.002 C 
ENDROOT
BRANCH   1   2
ATOM      2  C   UNL A   1      37.386  21.363  25.097  1.00  0.00     0.021 C 
BRANCH   2   3
ATOM      3  C   UNL A   1      35.988  20.758  25.042  1.00  0.00     0.116 C 
BRANCH   3   4
ATOM      4  N   UNL A   1      35.206  21.089  26.213  1.00  0.00    -0.352 N 
ATOM      5  C   UNL A   1      34.290  22.028  26.539  1.00  0.00     0.251 C 
ATOM      6  O   UNL A   1      33.846  21.956  27.689  1.00  0.00    -0.270 OA
ATOM      7  H   UNL A   1      35.386  20.476  26.962  1.00  0.00     0.163 HD
BRANCH   5   8
ATOM      8  C   UNL A   1      33.806  23.105  25.625  1.00  0.00     0.067 C 
ATOM      9  C   UNL A   1      31.968  27.515  23.979  1.00  0.00     0.029 A 
ATOM     10  C   UNL A   1      32.269  26.286  23.368  1.00  0.00     0.058 A 
ATOM     11  C   UNL A   1      32.330  27.695  25.327  1.00  0.00     0.050 A 
ATOM     12  C   UNL A   1      32.835  25.246  24.104  1.00  0.00     0.128 A 
ATOM     13  C   UNL A   1      32.874  26.640  26.064  1.00  0.00     0.033 A 
ATOM     14  Cl  UNL A   1      32.159  29.206  26.149  1.00  0.00    -0.084 Cl
ATOM     15  C   UNL A   1      33.113  25.408  25.455  1.00  0.00     0.019 A 
ATOM     16  O   UNL A   1      33.107  24.104  23.418  1.00  0.00    -0.475 OA
ATOM     17  C   UNL A   1      33.655  24.299  26.221  1.00  0.00     0.025 C 
ATOM     18  C   UNL A   1      33.433  22.906  24.179  1.00  0.00     0.314 C 
BRANCH   9  19
ATOM     19  C   UNL A   1      31.276  28.586  23.165  1.00  0.00     0.300 C 
BRANCH  19  20
ATOM     20  N   UNL A   1      29.908  28.857  23.618  1.00  0.00    -0.332 N 
ATOM     21  C   UNL A   1      29.596  30.280  23.568  1.00  0.00     0.333 C 
ATOM     22  H   UNL A   1      29.936  28.550  24.591  1.00  0.00     0.348 HD
BRANCH  20  23
ATOM     23  C   UNL A   1      28.818  28.016  23.096  1.00  0.00     0.177 C 
ATOM     24  C   UNL A   1      28.597  26.682  23.815  1.00  0.00     0.075 C 
ATOM     25  C   UNL A   1      27.500  28.795  23.016  1.00  0.00     0.075 C 
ENDBRANCH  20  23
ENDBRANCH  19  20
ENDBRANCH   9  19
BRANCH  18  26
ATOM     26  C   UNL A   1      32.289  21.903  23.963  1.00  0.00     0.429 C 
ATOM     27  F   UNL A   1      32.161  21.615  22.642  1.00  0.00    -0.167 F 
ATOM     28  F   UNL A   1      32.493  20.720  24.585  1.00  0.00    -0.167 F 
ATOM     29  F   UNL A   1      31.098  22.379  24.390  1.00  0.00    -0.167 F 
ENDBRANCH  18  26
ENDBRANCH   5   8
ENDBRANCH   3   4
ENDBRANCH   2   3
ENDBRANCH   1   2
BRANCH   1  30
ATOM     30  C   UNL A   1      38.338  23.552  26.119  1.00  0.00     0.002 C 
BRANCH  30  31
ATOM     31  C   UNL A   1      39.402  22.640  26.733  1.00  0.00     0.021 C 
BRANCH  31  32
ATOM     32  C   UNL A   1      40.731  23.320  27.027  1.00  0.00     0.116 C 
BRANCH  32  33
ATOM     33  N   UNL A   1      41.171  24.176  25.939  1.00  0.00    -0.352 N 
ATOM     34  C   UNL A   1      41.389  25.533  25.952  1.00  0.00     0.251 C 
ATOM     35  H   UNL A   1      41.335  23.725  25.079  1.00  0.00     0.163 HD
ATOM     36  O   UNL A   1      41.616  26.146  24.915  1.00  0.00    -0.269 OA
BRANCH  34  37
ATOM     37  C   UNL A   1      41.306  26.252  27.239  1.00  0.00     0.039 A 
ATOM     38  C   UNL A   1      40.188  26.090  28.062  1.00  0.00     0.014 A 
ATOM     39  C   UNL A   1      42.319  27.149  27.583  1.00  0.00     0.014 A 
ATOM     40  C   UNL A   1      40.006  26.943  29.143  1.00  0.00     0.010 A 
ATOM     41  C   UNL A   1      42.168  27.954  28.715  1.00  0.00     0.010 A 
ATOM     42  C   UNL A   1      40.988  27.892  29.474  1.00  0.00    -0.014 A 
BRANCH  42  43
ATOM     43  C   UNL A   1      40.750  28.832  30.598  1.00  0.00     0.031 A 
ATOM     44  C   UNL A   1      39.656  29.863  30.515  1.00  0.00     0.074 A 
ATOM     45  C   UNL A   1      41.493  28.726  31.715  1.00  0.00     0.049 A 
ATOM     46  N   UNL A   1      39.322  30.785  31.383  1.00  0.00    -0.248 NA
ATOM     47  C   UNL A   1      38.828  29.857  29.299  1.00  0.00     0.031 C 
ATOM     48  C   UNL A   1      42.567  27.752  31.925  1.00  0.00     0.029 A 
ATOM     49  N   UNL A   1      41.450  29.433  32.889  1.00  0.00    -0.354 N 
ATOM     50  C   UNL A   1      38.265  31.481  30.810  1.00  0.00     0.074 A 
ATOM     51  C   UNL A   1      38.026  30.891  29.510  1.00  0.00     0.031 C 
ATOM     52  C   UNL A   1      43.053  27.897  33.167  1.00  0.00     0.029 A 
ATOM     53  C   UNL A   1      42.372  29.012  33.815  1.00  0.00     0.049 A 
ATOM     54  H   UNL A   1      40.818  30.170  33.051  1.00  0.00     0.167 HD
ATOM     55  C   UNL A   1      37.552  32.513  31.325  1.00  0.00     0.037 A 
ATOM     56  C   UNL A   1      42.655  29.489  35.041  1.00  0.00     0.037 A 
ATOM     57  C   UNL A   1      37.778  33.086  32.627  1.00  0.00     0.049 A 
ATOM     58  C   UNL A   1      41.893  30.673  35.558  1.00  0.00     0.074 A 
ATOM     59  C   UNL A   1      37.094  34.117  33.249  1.00  0.00     0.029 A 
ATOM     60  N   UNL A   1      38.767  32.675  33.508  1.00  0.00    -0.354 N 
ATOM     61  N   UNL A   1      40.900  31.325  35.004  1.00  0.00    -0.248 NA
ATOM     62  C   UNL A   1      42.306  31.200  36.867  1.00  0.00     0.031 C 
ATOM     63  C   UNL A   1      37.694  34.354  34.491  1.00  0.00     0.029 A 
ATOM     64  C   UNL A   1      38.727  33.447  34.658  1.00  0.00     0.049 A 
ATOM     65  H   UNL A   1      39.403  31.943  33.341  1.00  0.00     0.167 HD
ATOM     66  C   UNL A   1      40.564  32.334  35.896  1.00  0.00     0.074 A 
ATOM     67  C   UNL A   1      41.443  32.191  37.040  1.00  0.00     0.031 C 
ATOM     68  C   UNL A   1      39.619  33.297  35.778  1.00  0.00     0.037 A 
BRANCH  55  69
ATOM     69  C   UNL A   1      36.469  33.100  30.469  1.00  0.00     0.057 A 
ATOM     70  C   UNL A   1      36.782  33.988  29.432  1.00  0.00     0.134 A 
ATOM     71  C   UNL A   1      35.115  32.812  30.685  1.00  0.00     0.134 A 
ATOM     72  F   UNL A   1      38.058  34.311  29.174  1.00  0.00    -0.206 F 
ATOM     73  C   UNL A   1      35.788  34.569  28.641  1.00  0.00     0.040 A 
ATOM     74  C   UNL A   1      34.114  33.369  29.887  1.00  0.00     0.040 A 
ATOM     75  F   UNL A   1      34.748  31.958  31.652  1.00  0.00    -0.206 F 
ATOM     76  C   UNL A   1      34.449  34.255  28.865  1.00  0.00     0.006 A 
ENDBRANCH  55  69
BRANCH  56  77
ATOM     77  C   UNL A   1      43.729  28.865  35.849  1.00  0.00     0.057 A 
ATOM     78  C   UNL A   1      43.468  27.776  36.689  1.00  0.00     0.134 A 
ATOM     79  C   UNL A   1      45.043  29.338  35.793  1.00  0.00     0.134 A 
ATOM     80  F   UNL A   1      42.227  27.278  36.788  1.00  0.00    -0.206 F 
ATOM     81  C   UNL A   1      44.475  27.186  37.454  1.00  0.00     0.040 A 
ATOM     82  C   UNL A   1      46.065  28.743  36.533  1.00  0.00     0.040 A 
ATOM     83  F   UNL A   1      45.357  30.366  34.990  1.00  0.00    -0.206 F 
ATOM     84  C   UNL A   1      45.780  27.666  37.371  1.00  0.00     0.006 A 
ENDBRANCH  56  77
BRANCH  68  85
ATOM     85  C   UNL A   1      39.494  34.260  36.920  1.00  0.00     0.057 A 
ATOM     86  C   UNL A   1      38.757  33.925  38.062  1.00  0.00     0.134 A 
ATOM     87  C   UNL A   1      40.104  35.520  36.886  1.00  0.00     0.134 A 
ATOM     88  F   UNL A   1      38.146  32.735  38.154  1.00  0.00    -0.206 F 
ATOM     89  C   UNL A   1      38.634  34.810  39.133  1.00  0.00     0.040 A 
ATOM     90  C   UNL A   1      40.006  36.405  37.961  1.00  0.00     0.040 A 
ATOM     91  F   UNL A   1      40.838  35.891  35.827  1.00  0.00    -0.206 F 
ATOM     92  C   UNL A   1      39.266  36.051  39.088  1.00  0.00     0.006 A 
ENDBRANCH  68  85
ENDBRANCH  42  43
ENDBRANCH  34  37
ENDBRANCH  32  33
ENDBRANCH  31  32
ENDBRANCH  30  31
ENDBRANCH   1  30
TORSDOF 17
ENDMDL
