MODEL 1
REMARK VINA RESULT:     -12.2      0.000      0.000
REMARK SMILES CCN(C(=O)Cc1c(C(=O)NCCCCCCNC(=O)c2ccc(-c3c4nc(c(-c5c(F)cccc5F)c5ccc([nH]5)c(-c5c(F)cccc5F)c5nc(c(-c6c(F)cccc6F)c6ccc3[nH]6)C=C5)C=C4)cc2)[nH]c2ccccc12)c1cccc(C)c1
REMARK SMILES IDX 13 1 12 2 11 3 9 4 10 5 8 7 7 8 81 9 75 10 76 11 80 12 77 14
REMARK SMILES IDX 79 15 78 16 6 17 4 18 5 19 3 20 2 21 1 22 82 23 83 24 88 25
REMARK SMILES IDX 84 26 86 27 85 28 87 29 14 30 15 31 16 32 17 33 18 34 19 35
REMARK SMILES IDX 20 37 21 38 22 39 74 40 23 41 73 42 24 43 25 44 26 45 67 46
REMARK SMILES IDX 27 47 72 48 66 49 68 50 28 51 71 52 65 53 64 54 29 56 55 57
REMARK SMILES IDX 38 58 54 59 39 60 42 61 53 62 69 63 40 64 41 65 52 67 70 68
REMARK SMILES IDX 43 69 30 70 31 71 36 72 32 73 33 74 35 75 37 76 34 77 56 78
REMARK SMILES IDX 57 79 62 80 58 81 59 82 61 83 63 84 60 85 44 86 45 87 50 88
REMARK SMILES IDX 46 89 47 90 49 91 51 92 48 93
REMARK H PARENT 11 6 75 13 18 36 68 55 42 66
REMARK Flexibility Score: inf
ROOT
ATOM      1  C   UNL A   1      35.998  22.535  26.084  1.00  0.00     0.021 C 
ENDROOT
BRANCH   1   2
ATOM      2  C   UNL A   1      35.087  23.746  25.866  1.00  0.00     0.116 C 
BRANCH   2   3
ATOM      3  N   UNL A   1      33.917  23.627  26.706  1.00  0.00    -0.351 N 
ATOM      4  C   UNL A   1      32.821  22.811  26.701  1.00  0.00     0.268 C 
ATOM      5  O   UNL A   1      31.918  23.140  27.468  1.00  0.00    -0.268 OA
ATOM      6  H   UNL A   1      33.908  24.278  27.444  1.00  0.00     0.163 HD
BRANCH   4   7
ATOM      7  C   UNL A   1      32.734  21.625  25.871  1.00  0.00     0.109 A 
ATOM      8  C   UNL A   1      32.326  21.570  24.532  1.00  0.00    -0.000 A 
ATOM      9  C   UNL A   1      32.475  20.214  24.088  1.00  0.00     0.004 A 
ATOM     10  N   UNL A   1      33.096  20.344  26.213  1.00  0.00    -0.350 N 
ATOM     11  C   UNL A   1      32.868  19.459  25.187  1.00  0.00     0.046 A 
ATOM     12  C   UNL A   1      32.271  19.550  22.859  1.00  0.00     0.010 A 
ATOM     13  H   UNL A   1      33.473  20.090  27.086  1.00  0.00     0.167 HD
ATOM     14  C   UNL A   1      33.003  18.066  25.146  1.00  0.00     0.027 A 
ATOM     15  C   UNL A   1      32.413  18.159  22.793  1.00  0.00     0.001 A 
ATOM     16  C   UNL A   1      32.756  17.428  23.927  1.00  0.00     0.002 A 
BRANCH   8  17
ATOM     17  C   UNL A   1      31.829  22.712  23.681  1.00  0.00     0.139 C 
BRANCH  17  18
ATOM     18  C   UNL A   1      32.914  23.618  23.090  1.00  0.00     0.231 C 
ATOM     19  O   UNL A   1      33.927  23.077  22.631  1.00  0.00    -0.274 OA
BRANCH  18  20
ATOM     20  N   UNL A   1      32.711  25.012  23.058  1.00  0.00    -0.312 N 
BRANCH  20  21
ATOM     21  C   UNL A   1      33.128  25.862  21.926  1.00  0.00     0.122 C 
ATOM     22  C   UNL A   1      32.532  25.515  20.568  1.00  0.00     0.028 C 
ENDBRANCH  20  21
BRANCH  20  23
ATOM     23  C   UNL A   1      32.276  25.703  24.246  1.00  0.00     0.044 A 
ATOM     24  C   UNL A   1      30.992  25.517  24.773  1.00  0.00     0.026 A 
ATOM     25  C   UNL A   1      33.137  26.582  24.921  1.00  0.00     0.029 A 
ATOM     26  C   UNL A   1      30.588  26.172  25.939  1.00  0.00     0.002 A 
ATOM     27  C   UNL A   1      32.743  27.251  26.090  1.00  0.00    -0.049 A 
ATOM     28  C   UNL A   1      31.460  27.035  26.597  1.00  0.00     0.003 A 
ATOM     29  C   UNL A   1      33.669  28.215  26.770  1.00  0.00     0.044 C 
ENDBRANCH  20  23
ENDBRANCH  18  20
ENDBRANCH  17  18
ENDBRANCH   8  17
ENDBRANCH   4   7
ENDBRANCH   2   3
ENDBRANCH   1   2
BRANCH   1  30
ATOM     30  C   UNL A   1      36.308  21.763  24.790  1.00  0.00     0.002 C 
BRANCH  30  31
ATOM     31  C   UNL A   1      36.455  20.246  24.959  1.00  0.00     0.002 C 
BRANCH  31  32
ATOM     32  C   UNL A   1      37.867  19.703  24.727  1.00  0.00     0.021 C 
BRANCH  32  33
ATOM     33  C   UNL A   1      38.889  20.124  25.777  1.00  0.00     0.116 C 
BRANCH  33  34
ATOM     34  N   UNL A   1      40.050  19.252  25.784  1.00  0.00    -0.352 N 
ATOM     35  C   UNL A   1      41.366  19.555  26.019  1.00  0.00     0.251 C 
ATOM     36  H   UNL A   1      39.865  18.305  25.590  1.00  0.00     0.163 HD
ATOM     37  O   UNL A   1      42.235  18.721  25.780  1.00  0.00    -0.269 OA
BRANCH  35  38
ATOM     38  C   UNL A   1      41.749  20.880  26.553  1.00  0.00     0.039 A 
ATOM     39  C   UNL A   1      41.639  21.103  27.928  1.00  0.00     0.014 A 
ATOM     40  C   UNL A   1      42.152  21.919  25.706  1.00  0.00     0.014 A 
ATOM     41  C   UNL A   1      41.949  22.358  28.456  1.00  0.00     0.010 A 
ATOM     42  C   UNL A   1      42.527  23.150  26.242  1.00  0.00     0.010 A 
ATOM     43  C   UNL A   1      42.402  23.390  27.618  1.00  0.00    -0.014 A 
BRANCH  43  44
ATOM     44  C   UNL A   1      42.693  24.735  28.171  1.00  0.00     0.031 A 
ATOM     45  C   UNL A   1      44.105  25.120  28.521  1.00  0.00     0.074 A 
ATOM     46  C   UNL A   1      41.687  25.606  28.372  1.00  0.00     0.049 A 
ATOM     47  N   UNL A   1      44.561  26.250  28.999  1.00  0.00    -0.248 NA
ATOM     48  C   UNL A   1      45.140  24.089  28.334  1.00  0.00     0.031 C 
ATOM     49  C   UNL A   1      40.270  25.336  28.122  1.00  0.00     0.029 A 
ATOM     50  N   UNL A   1      41.703  26.900  28.830  1.00  0.00    -0.354 N 
ATOM     51  C   UNL A   1      45.926  26.063  29.178  1.00  0.00     0.074 A 
ATOM     52  C   UNL A   1      46.216  24.693  28.814  1.00  0.00     0.031 C 
ATOM     53  C   UNL A   1      39.558  26.440  28.399  1.00  0.00     0.029 A 
ATOM     54  C   UNL A   1      40.463  27.486  28.865  1.00  0.00     0.049 A 
ATOM     55  H   UNL A   1      42.528  27.362  29.108  1.00  0.00     0.167 HD
ATOM     56  C   UNL A   1      46.860  26.956  29.583  1.00  0.00     0.037 A 
ATOM     57  C   UNL A   1      40.100  28.733  29.220  1.00  0.00     0.037 A 
ATOM     58  C   UNL A   1      46.576  28.327  29.917  1.00  0.00     0.049 A 
ATOM     59  C   UNL A   1      41.159  29.718  29.633  1.00  0.00     0.074 A 
ATOM     60  C   UNL A   1      47.458  29.326  30.291  1.00  0.00     0.029 A 
ATOM     61  N   UNL A   1      45.310  28.893  29.908  1.00  0.00    -0.354 N 
ATOM     62  N   UNL A   1      42.454  29.545  29.735  1.00  0.00    -0.248 NA
ATOM     63  C   UNL A   1      40.706  31.076  29.960  1.00  0.00     0.031 C 
ATOM     64  C   UNL A   1      46.720  30.490  30.540  1.00  0.00     0.029 A 
ATOM     65  C   UNL A   1      45.386  30.226  30.279  1.00  0.00     0.049 A 
ATOM     66  H   UNL A   1      44.481  28.418  29.673  1.00  0.00     0.167 HD
ATOM     67  C   UNL A   1      42.974  30.777  30.109  1.00  0.00     0.074 A 
ATOM     68  C   UNL A   1      41.854  31.692  30.199  1.00  0.00     0.031 C 
ATOM     69  C   UNL A   1      44.262  31.122  30.355  1.00  0.00     0.037 A 
BRANCH  56  70
ATOM     70  C   UNL A   1      48.279  26.475  29.678  1.00  0.00     0.057 A 
ATOM     71  C   UNL A   1      48.775  25.865  30.838  1.00  0.00     0.134 A 
ATOM     72  C   UNL A   1      49.153  26.600  28.591  1.00  0.00     0.134 A 
ATOM     73  F   UNL A   1      47.993  25.726  31.920  1.00  0.00    -0.206 F 
ATOM     74  C   UNL A   1      50.097  25.426  30.926  1.00  0.00     0.040 A 
ATOM     75  C   UNL A   1      50.470  26.140  28.657  1.00  0.00     0.040 A 
ATOM     76  F   UNL A   1      48.743  27.170  27.448  1.00  0.00    -0.206 F 
ATOM     77  C   UNL A   1      50.947  25.558  29.829  1.00  0.00     0.006 A 
ENDBRANCH  56  70
BRANCH  57  78
ATOM     78  C   UNL A   1      38.674  29.139  29.153  1.00  0.00     0.057 A 
ATOM     79  C   UNL A   1      38.117  29.616  27.961  1.00  0.00     0.134 A 
ATOM     80  C   UNL A   1      37.841  29.070  30.275  1.00  0.00     0.134 A 
ATOM     81  F   UNL A   1      38.871  29.721  26.858  1.00  0.00    -0.206 F 
ATOM     82  C   UNL A   1      36.786  30.033  27.891  1.00  0.00     0.040 A 
ATOM     83  C   UNL A   1      36.502  29.460  30.214  1.00  0.00     0.040 A 
ATOM     84  F   UNL A   1      38.314  28.612  31.443  1.00  0.00    -0.206 F 
ATOM     85  C   UNL A   1      35.974  29.952  29.022  1.00  0.00     0.006 A 
ENDBRANCH  57  78
BRANCH  69  86
ATOM     86  C   UNL A   1      44.526  32.557  30.706  1.00  0.00     0.057 A 
ATOM     87  C   UNL A   1      44.538  33.006  32.033  1.00  0.00     0.134 A 
ATOM     88  C   UNL A   1      44.784  33.498  29.701  1.00  0.00     0.134 A 
ATOM     89  F   UNL A   1      44.285  32.156  33.040  1.00  0.00    -0.206 F 
ATOM     90  C   UNL A   1      44.765  34.347  32.346  1.00  0.00     0.040 A 
ATOM     91  C   UNL A   1      45.038  34.836  30.004  1.00  0.00     0.040 A 
ATOM     92  F   UNL A   1      44.796  33.133  28.411  1.00  0.00    -0.206 F 
ATOM     93  C   UNL A   1      45.020  35.266  31.330  1.00  0.00     0.006 A 
ENDBRANCH  69  86
ENDBRANCH  43  44
ENDBRANCH  35  38
ENDBRANCH  33  34
ENDBRANCH  32  33
ENDBRANCH  31  32
ENDBRANCH  30  31
ENDBRANCH   1  30
TORSDOF 18
ENDMDL
MODEL 2
REMARK VINA RESULT:     -11.8      0.504      5.957
REMARK SMILES CCN(C(=O)Cc1c(C(=O)NCCCCCCNC(=O)c2ccc(-c3c4nc(c(-c5c(F)cccc5F)c5ccc([nH]5)c(-c5c(F)cccc5F)c5nc(c(-c6c(F)cccc6F)c6ccc3[nH]6)C=C5)C=C4)cc2)[nH]c2ccccc12)c1cccc(C)c1
REMARK SMILES IDX 13 1 12 2 11 3 9 4 10 5 8 7 7 8 81 9 75 10 76 11 80 12 77 14
REMARK SMILES IDX 79 15 78 16 6 17 4 18 5 19 3 20 2 21 1 22 82 23 83 24 88 25
REMARK SMILES IDX 84 26 86 27 85 28 87 29 14 30 15 31 16 32 17 33 18 34 19 35
REMARK SMILES IDX 20 37 21 38 22 39 74 40 23 41 73 42 24 43 25 44 26 45 67 46
REMARK SMILES IDX 27 47 72 48 66 49 68 50 28 51 71 52 65 53 64 54 29 56 55 57
REMARK SMILES IDX 38 58 54 59 39 60 42 61 53 62 69 63 40 64 41 65 52 67 70 68
REMARK SMILES IDX 43 69 30 70 31 71 36 72 32 73 33 74 35 75 37 76 34 77 56 78
REMARK SMILES IDX 57 79 62 80 58 81 59 82 61 83 63 84 60 85 44 86 45 87 50 88
REMARK SMILES IDX 46 89 47 90 49 91 51 92 48 93
REMARK H PARENT 11 6 75 13 18 36 68 55 42 66
REMARK Flexibility Score: inf
ROOT
ATOM      1  C   UNL A   1      36.078  22.382  26.038  1.00  0.00     0.021 C 
ENDROOT
BRANCH   1   2
ATOM      2  C   UNL A   1      35.128  23.569  25.860  1.00  0.00     0.116 C 
BRANCH   2   3
ATOM      3  N   UNL A   1      33.987  23.409  26.733  1.00  0.00    -0.351 N 
ATOM      4  C   UNL A   1      32.921  22.555  26.760  1.00  0.00     0.268 C 
ATOM      5  O   UNL A   1      32.030  22.851  27.553  1.00  0.00    -0.268 OA
ATOM      6  H   UNL A   1      33.976  24.059  27.472  1.00  0.00     0.163 HD
BRANCH   4   7
ATOM      7  C   UNL A   1      32.851  21.366  25.932  1.00  0.00     0.109 A 
ATOM      8  C   UNL A   1      32.382  21.291  24.614  1.00  0.00    -0.000 A 
ATOM      9  C   UNL A   1      32.575  19.944  24.160  1.00  0.00     0.004 A 
ATOM     10  N   UNL A   1      33.290  20.103  26.252  1.00  0.00    -0.350 N 
ATOM     11  C   UNL A   1      33.056  19.209  25.237  1.00  0.00     0.046 A 
ATOM     12  C   UNL A   1      32.345  19.271  22.940  1.00  0.00     0.010 A 
ATOM     13  H   UNL A   1      33.721  19.868  27.106  1.00  0.00     0.167 HD
ATOM     14  C   UNL A   1      33.256  17.825  25.186  1.00  0.00     0.027 A 
ATOM     15  C   UNL A   1      32.551  17.890  22.864  1.00  0.00     0.001 A 
ATOM     16  C   UNL A   1      32.982  17.176  23.978  1.00  0.00     0.002 A 
BRANCH   8  17
ATOM     17  C   UNL A   1      31.791  22.408  23.791  1.00  0.00     0.139 C 
BRANCH  17  18
ATOM     18  C   UNL A   1      32.801  23.368  23.153  1.00  0.00     0.231 C 
ATOM     19  O   UNL A   1      33.849  22.885  22.706  1.00  0.00    -0.274 OA
BRANCH  18  20
ATOM     20  N   UNL A   1      32.495  24.740  23.066  1.00  0.00    -0.312 N 
BRANCH  20  21
ATOM     21  C   UNL A   1      32.631  25.520  21.821  1.00  0.00     0.122 C 
ATOM     22  C   UNL A   1      31.536  26.542  21.542  1.00  0.00     0.028 C 
ENDBRANCH  20  21
BRANCH  20  23
ATOM     23  C   UNL A   1      32.238  25.497  24.266  1.00  0.00     0.044 A 
ATOM     24  C   UNL A   1      31.033  25.372  24.967  1.00  0.00     0.026 A 
ATOM     25  C   UNL A   1      33.201  26.381  24.776  1.00  0.00     0.029 A 
ATOM     26  C   UNL A   1      30.803  26.092  26.143  1.00  0.00     0.002 A 
ATOM     27  C   UNL A   1      32.982  27.114  25.952  1.00  0.00    -0.049 A 
ATOM     28  C   UNL A   1      31.774  26.959  26.636  1.00  0.00     0.003 A 
ATOM     29  C   UNL A   1      34.012  28.082  26.455  1.00  0.00     0.044 C 
ENDBRANCH  20  23
ENDBRANCH  18  20
ENDBRANCH  17  18
ENDBRANCH   8  17
ENDBRANCH   4   7
ENDBRANCH   2   3
ENDBRANCH   1   2
BRANCH   1  30
ATOM     30  C   UNL A   1      36.356  21.619  24.732  1.00  0.00     0.002 C 
BRANCH  30  31
ATOM     31  C   UNL A   1      36.573  20.110  24.895  1.00  0.00     0.002 C 
BRANCH  31  32
ATOM     32  C   UNL A   1      38.021  19.643  24.725  1.00  0.00     0.021 C 
BRANCH  32  33
ATOM     33  C   UNL A   1      38.930  19.952  25.909  1.00  0.00     0.116 C 
BRANCH  33  34
ATOM     34  N   UNL A   1      40.147  19.161  25.879  1.00  0.00    -0.352 N 
ATOM     35  C   UNL A   1      41.447  19.552  26.072  1.00  0.00     0.251 C 
ATOM     36  H   UNL A   1      40.020  18.202  25.692  1.00  0.00     0.163 HD
ATOM     37  O   UNL A   1      42.362  18.778  25.806  1.00  0.00    -0.269 OA
BRANCH  35  38
ATOM     38  C   UNL A   1      41.756  20.902  26.592  1.00  0.00     0.039 A 
ATOM     39  C   UNL A   1      42.093  21.906  25.681  1.00  0.00     0.014 A 
ATOM     40  C   UNL A   1      41.781  21.167  27.966  1.00  0.00     0.014 A 
ATOM     41  C   UNL A   1      42.436  23.178  26.143  1.00  0.00     0.010 A 
ATOM     42  C   UNL A   1      42.056  22.455  28.423  1.00  0.00     0.010 A 
ATOM     43  C   UNL A   1      42.413  23.465  27.518  1.00  0.00    -0.014 A 
BRANCH  43  44
ATOM     44  C   UNL A   1      42.816  24.803  28.014  1.00  0.00     0.031 A 
ATOM     45  C   UNL A   1      41.775  25.858  28.275  1.00  0.00     0.074 A 
ATOM     46  C   UNL A   1      44.119  25.076  28.217  1.00  0.00     0.049 A 
ATOM     47  N   UNL A   1      41.927  27.078  28.724  1.00  0.00    -0.248 NA
ATOM     48  C   UNL A   1      40.380  25.504  27.966  1.00  0.00     0.031 C 
ATOM     49  C   UNL A   1      45.227  24.158  27.953  1.00  0.00     0.029 A 
ATOM     50  N   UNL A   1      44.730  26.207  28.697  1.00  0.00    -0.354 N 
ATOM     51  C   UNL A   1      40.656  27.637  28.741  1.00  0.00     0.074 A 
ATOM     52  C   UNL A   1      39.751  26.645  28.203  1.00  0.00     0.031 C 
ATOM     53  C   UNL A   1      46.380  24.750  28.304  1.00  0.00     0.029 A 
ATOM     54  C   UNL A   1      46.094  26.094  28.797  1.00  0.00     0.049 A 
ATOM     55  H   UNL A   1      44.237  27.023  28.945  1.00  0.00     0.167 HD
ATOM     56  C   UNL A   1      40.269  28.856  29.189  1.00  0.00     0.037 A 
ATOM     57  C   UNL A   1      47.009  26.971  29.250  1.00  0.00     0.037 A 
ATOM     58  C   UNL A   1      41.165  29.831  29.752  1.00  0.00     0.049 A 
ATOM     59  C   UNL A   1      46.553  28.305  29.775  1.00  0.00     0.074 A 
ATOM     60  C   UNL A   1      40.867  31.076  30.279  1.00  0.00     0.029 A 
ATOM     61  N   UNL A   1      42.537  29.666  29.867  1.00  0.00    -0.354 N 
ATOM     62  N   UNL A   1      45.339  28.794  29.844  1.00  0.00    -0.248 NA
ATOM     63  C   UNL A   1      47.593  29.198  30.300  1.00  0.00     0.031 C 
ATOM     64  C   UNL A   1      42.065  31.677  30.684  1.00  0.00     0.029 A 
ATOM     65  C   UNL A   1      43.101  30.790  30.448  1.00  0.00     0.049 A 
ATOM     66  H   UNL A   1      43.036  28.868  29.578  1.00  0.00     0.167 HD
ATOM     67  C   UNL A   1      45.464  30.038  30.449  1.00  0.00     0.074 A 
ATOM     68  C   UNL A   1      46.873  30.220  30.739  1.00  0.00     0.031 C 
ATOM     69  C   UNL A   1      44.503  30.949  30.737  1.00  0.00     0.037 A 
BRANCH  56  70
ATOM     70  C   UNL A   1      38.810  29.194  29.093  1.00  0.00     0.057 A 
ATOM     71  C   UNL A   1      37.958  29.104  30.203  1.00  0.00     0.134 A 
ATOM     72  C   UNL A   1      38.252  29.635  27.887  1.00  0.00     0.134 A 
ATOM     73  F   UNL A   1      38.425  28.675  31.385  1.00  0.00    -0.206 F 
ATOM     74  C   UNL A   1      36.600  29.411  30.109  1.00  0.00     0.040 A 
ATOM     75  C   UNL A   1      36.901  29.971  27.787  1.00  0.00     0.040 A 
ATOM     76  F   UNL A   1      39.012  29.749  26.786  1.00  0.00    -0.206 F 
ATOM     77  C   UNL A   1      36.069  29.853  28.898  1.00  0.00     0.006 A 
ENDBRANCH  56  70
BRANCH  57  78
ATOM     78  C   UNL A   1      48.446  26.599  29.275  1.00  0.00     0.057 A 
ATOM     79  C   UNL A   1      49.296  26.939  28.215  1.00  0.00     0.134 A 
ATOM     80  C   UNL A   1      49.000  25.890  30.346  1.00  0.00     0.134 A 
ATOM     81  F   UNL A   1      48.818  27.603  27.154  1.00  0.00    -0.206 F 
ATOM     82  C   UNL A   1      50.641  26.567  28.209  1.00  0.00     0.040 A 
ATOM     83  C   UNL A   1      50.349  25.532  30.365  1.00  0.00     0.040 A 
ATOM     84  F   UNL A   1      48.239  25.544  31.395  1.00  0.00    -0.206 F 
ATOM     85  C   UNL A   1      51.171  25.863  29.290  1.00  0.00     0.006 A 
ENDBRANCH  57  78
BRANCH  69  86
ATOM     86  C   UNL A   1      44.941  32.203  31.436  1.00  0.00     0.057 A 
ATOM     87  C   UNL A   1      45.330  33.348  30.730  1.00  0.00     0.134 A 
ATOM     88  C   UNL A   1      44.962  32.265  32.836  1.00  0.00     0.134 A 
ATOM     89  F   UNL A   1      45.344  33.346  29.388  1.00  0.00    -0.206 F 
ATOM     90  C   UNL A   1      45.756  34.501  31.391  1.00  0.00     0.040 A 
ATOM     91  C   UNL A   1      45.360  33.422  33.507  1.00  0.00     0.040 A 
ATOM     92  F   UNL A   1      44.594  31.207  33.572  1.00  0.00    -0.206 F 
ATOM     93  C   UNL A   1      45.767  34.541  32.783  1.00  0.00     0.006 A 
ENDBRANCH  69  86
ENDBRANCH  43  44
ENDBRANCH  35  38
ENDBRANCH  33  34
ENDBRANCH  32  33
ENDBRANCH  31  32
ENDBRANCH  30  31
ENDBRANCH   1  30
TORSDOF 18
ENDMDL
MODEL 3
REMARK VINA RESULT:     -11.8      1.069      4.013
REMARK SMILES CCN(C(=O)Cc1c(C(=O)NCCCCCCNC(=O)c2ccc(-c3c4nc(c(-c5c(F)cccc5F)c5ccc([nH]5)c(-c5c(F)cccc5F)c5nc(c(-c6c(F)cccc6F)c6ccc3[nH]6)C=C5)C=C4)cc2)[nH]c2ccccc12)c1cccc(C)c1
REMARK SMILES IDX 13 1 12 2 11 3 9 4 10 5 8 7 7 8 81 9 75 10 76 11 80 12 77 14
REMARK SMILES IDX 79 15 78 16 6 17 4 18 5 19 3 20 2 21 1 22 82 23 83 24 88 25
REMARK SMILES IDX 84 26 86 27 85 28 87 29 14 30 15 31 16 32 17 33 18 34 19 35
REMARK SMILES IDX 20 37 21 38 22 39 74 40 23 41 73 42 24 43 25 44 26 45 67 46
REMARK SMILES IDX 27 47 72 48 66 49 68 50 28 51 71 52 65 53 64 54 29 56 55 57
REMARK SMILES IDX 38 58 54 59 39 60 42 61 53 62 69 63 40 64 41 65 52 67 70 68
REMARK SMILES IDX 43 69 30 70 31 71 36 72 32 73 33 74 35 75 37 76 34 77 56 78
REMARK SMILES IDX 57 79 62 80 58 81 59 82 61 83 63 84 60 85 44 86 45 87 50 88
REMARK SMILES IDX 46 89 47 90 49 91 51 92 48 93
REMARK H PARENT 11 6 75 13 18 36 68 55 42 66
REMARK Flexibility Score: inf
ROOT
ATOM      1  C   UNL A   1      36.866  22.872  25.495  1.00  0.00     0.021 C 
ENDROOT
BRANCH   1   2
ATOM      2  C   UNL A   1      35.921  24.075  25.530  1.00  0.00     0.116 C 
BRANCH   2   3
ATOM      3  N   UNL A   1      35.309  24.247  24.232  1.00  0.00    -0.351 N 
ATOM      4  C   UNL A   1      34.308  25.042  23.748  1.00  0.00     0.268 C 
ATOM      5  O   UNL A   1      33.918  24.765  22.616  1.00  0.00    -0.268 OA
ATOM      6  H   UNL A   1      35.700  23.660  23.544  1.00  0.00     0.163 HD
BRANCH   4   7
ATOM      7  C   UNL A   1      33.759  26.152  24.502  1.00  0.00     0.109 A 
ATOM      8  C   UNL A   1      33.017  26.071  25.688  1.00  0.00    -0.000 A 
ATOM      9  C   UNL A   1      32.754  27.411  26.128  1.00  0.00     0.004 A 
ATOM     10  N   UNL A   1      33.915  27.492  24.241  1.00  0.00    -0.350 N 
ATOM     11  C   UNL A   1      33.247  28.271  25.154  1.00  0.00     0.046 A 
ATOM     12  C   UNL A   1      32.103  27.972  27.249  1.00  0.00     0.010 A 
ATOM     13  H   UNL A   1      34.442  27.851  23.491  1.00  0.00     0.167 HD
ATOM     14  C   UNL A   1      33.066  29.658  25.200  1.00  0.00     0.027 A 
ATOM     15  C   UNL A   1      31.923  29.357  27.321  1.00  0.00     0.001 A 
ATOM     16  C   UNL A   1      32.383  30.185  26.300  1.00  0.00     0.002 A 
BRANCH   8  17
ATOM     17  C   UNL A   1      32.573  24.820  26.404  1.00  0.00     0.139 C 
BRANCH  17  18
ATOM     18  C   UNL A   1      31.246  24.220  25.928  1.00  0.00     0.231 C 
ATOM     19  O   UNL A   1      30.334  24.114  26.758  1.00  0.00    -0.274 OA
BRANCH  18  20
ATOM     20  N   UNL A   1      31.097  23.846  24.578  1.00  0.00    -0.312 N 
BRANCH  20  21
ATOM     21  C   UNL A   1      30.288  24.614  23.613  1.00  0.00     0.122 C 
ATOM     22  C   UNL A   1      29.889  26.022  24.038  1.00  0.00     0.028 C 
ENDBRANCH  20  21
BRANCH  20  23
ATOM     23  C   UNL A   1      31.562  22.556  24.133  1.00  0.00     0.044 A 
ATOM     24  C   UNL A   1      31.597  22.218  22.775  1.00  0.00     0.026 A 
ATOM     25  C   UNL A   1      32.007  21.597  25.055  1.00  0.00     0.029 A 
ATOM     26  C   UNL A   1      32.072  20.974  22.352  1.00  0.00     0.002 A 
ATOM     27  C   UNL A   1      32.483  20.342  24.645  1.00  0.00    -0.049 A 
ATOM     28  C   UNL A   1      32.516  20.039  23.283  1.00  0.00     0.003 A 
ATOM     29  C   UNL A   1      32.915  19.320  25.654  1.00  0.00     0.044 C 
ENDBRANCH  20  23
ENDBRANCH  18  20
ENDBRANCH  17  18
ENDBRANCH   8  17
ENDBRANCH   4   7
ENDBRANCH   2   3
ENDBRANCH   1   2
BRANCH   1  30
ATOM     30  C   UNL A   1      36.463  21.807  24.461  1.00  0.00     0.002 C 
BRANCH  30  31
ATOM     31  C   UNL A   1      36.560  20.357  24.950  1.00  0.00     0.002 C 
BRANCH  31  32
ATOM     32  C   UNL A   1      37.937  19.710  24.786  1.00  0.00     0.021 C 
BRANCH  32  33
ATOM     33  C   UNL A   1      38.922  20.022  25.908  1.00  0.00     0.116 C 
BRANCH  33  34
ATOM     34  N   UNL A   1      40.118  19.204  25.823  1.00  0.00    -0.352 N 
ATOM     35  C   UNL A   1      41.431  19.559  25.990  1.00  0.00     0.251 C 
ATOM     36  H   UNL A   1      39.963  18.254  25.614  1.00  0.00     0.163 HD
ATOM     37  O   UNL A   1      42.320  18.771  25.677  1.00  0.00    -0.269 OA
BRANCH  35  38
ATOM     38  C   UNL A   1      41.788  20.886  26.536  1.00  0.00     0.039 A 
ATOM     39  C   UNL A   1      41.723  21.078  27.918  1.00  0.00     0.014 A 
ATOM     40  C   UNL A   1      42.122  21.955  25.697  1.00  0.00     0.014 A 
ATOM     41  C   UNL A   1      42.007  22.332  28.461  1.00  0.00     0.010 A 
ATOM     42  C   UNL A   1      42.473  23.188  26.244  1.00  0.00     0.010 A 
ATOM     43  C   UNL A   1      42.393  23.396  27.629  1.00  0.00    -0.014 A 
BRANCH  43  44
ATOM     44  C   UNL A   1      42.657  24.739  28.198  1.00  0.00     0.031 A 
ATOM     45  C   UNL A   1      44.051  25.124  28.614  1.00  0.00     0.074 A 
ATOM     46  C   UNL A   1      41.642  25.610  28.356  1.00  0.00     0.049 A 
ATOM     47  N   UNL A   1      44.485  26.253  29.115  1.00  0.00    -0.248 NA
ATOM     48  C   UNL A   1      45.094  24.095  28.471  1.00  0.00     0.031 C 
ATOM     49  C   UNL A   1      40.239  25.340  28.040  1.00  0.00     0.029 A 
ATOM     50  N   UNL A   1      41.637  26.902  28.819  1.00  0.00    -0.354 N 
ATOM     51  C   UNL A   1      45.840  26.066  29.356  1.00  0.00     0.074 A 
ATOM     52  C   UNL A   1      46.147  24.698  29.001  1.00  0.00     0.031 C 
ATOM     53  C   UNL A   1      39.514  26.443  28.289  1.00  0.00     0.029 A 
ATOM     54  C   UNL A   1      40.396  27.487  28.799  1.00  0.00     0.049 A 
ATOM     55  H   UNL A   1      42.447  27.364  29.135  1.00  0.00     0.167 HD
ATOM     56  C   UNL A   1      46.754  26.959  29.806  1.00  0.00     0.037 A 
ATOM     57  C   UNL A   1      40.017  28.733  29.140  1.00  0.00     0.037 A 
ATOM     58  C   UNL A   1      46.454  28.328  30.130  1.00  0.00     0.049 A 
ATOM     59  C   UNL A   1      41.055  29.717  29.604  1.00  0.00     0.074 A 
ATOM     60  C   UNL A   1      47.317  29.327  30.547  1.00  0.00     0.029 A 
ATOM     61  N   UNL A   1      45.190  28.894  30.066  1.00  0.00    -0.354 N 
ATOM     62  N   UNL A   1      42.344  29.545  29.765  1.00  0.00    -0.248 NA
ATOM     63  C   UNL A   1      40.586  31.074  29.915  1.00  0.00     0.031 C 
ATOM     64  C   UNL A   1      46.568  30.489  30.766  1.00  0.00     0.029 A 
ATOM     65  C   UNL A   1      45.248  30.225  30.444  1.00  0.00     0.049 A 
ATOM     66  H   UNL A   1      44.372  28.419  29.791  1.00  0.00     0.167 HD
ATOM     67  C   UNL A   1      42.846  30.776  30.165  1.00  0.00     0.074 A 
ATOM     68  C   UNL A   1      41.722  31.690  30.207  1.00  0.00     0.031 C 
ATOM     69  C   UNL A   1      44.120  31.121  30.471  1.00  0.00     0.037 A 
BRANCH  56  70
ATOM     70  C   UNL A   1      48.167  26.478  29.963  1.00  0.00     0.057 A 
ATOM     71  C   UNL A   1      49.116  26.632  28.944  1.00  0.00     0.134 A 
ATOM     72  C   UNL A   1      48.591  25.874  31.154  1.00  0.00     0.134 A 
ATOM     73  F   UNL A   1      48.772  27.190  27.773  1.00  0.00    -0.206 F 
ATOM     74  C   UNL A   1      50.428  26.176  29.090  1.00  0.00     0.040 A 
ATOM     75  C   UNL A   1      49.907  25.439  31.322  1.00  0.00     0.040 A 
ATOM     76  F   UNL A   1      47.736  25.699  32.172  1.00  0.00    -0.206 F 
ATOM     77  C   UNL A   1      50.828  25.582  30.287  1.00  0.00     0.006 A 
ENDBRANCH  56  70
BRANCH  57  78
ATOM     78  C   UNL A   1      38.594  29.138  29.010  1.00  0.00     0.057 A 
ATOM     79  C   UNL A   1      37.727  29.084  30.108  1.00  0.00     0.134 A 
ATOM     80  C   UNL A   1      38.067  29.575  27.790  1.00  0.00     0.134 A 
ATOM     81  F   UNL A   1      38.171  28.657  31.298  1.00  0.00    -0.206 F 
ATOM     82  C   UNL A   1      36.380  29.429  29.992  1.00  0.00     0.040 A 
ATOM     83  C   UNL A   1      36.728  29.946  27.665  1.00  0.00     0.040 A 
ATOM     84  F   UNL A   1      38.850  29.657  26.704  1.00  0.00    -0.206 F 
ATOM     85  C   UNL A   1      35.878  29.865  28.766  1.00  0.00     0.006 A 
ENDBRANCH  57  78
BRANCH  69  86
ATOM     86  C   UNL A   1      44.368  32.555  30.838  1.00  0.00     0.057 A 
ATOM     87  C   UNL A   1      44.662  33.527  29.875  1.00  0.00     0.134 A 
ATOM     88  C   UNL A   1      44.299  32.967  32.176  1.00  0.00     0.134 A 
ATOM     89  F   UNL A   1      44.756  33.192  28.578  1.00  0.00    -0.206 F 
ATOM     90  C   UNL A   1      44.910  34.854  30.230  1.00  0.00     0.040 A 
ATOM     91  C   UNL A   1      44.519  34.296  32.540  1.00  0.00     0.040 A 
ATOM     92  F   UNL A   1      44.013  32.089  33.147  1.00  0.00    -0.206 F 
ATOM     93  C   UNL A   1      44.835  35.242  31.566  1.00  0.00     0.006 A 
ENDBRANCH  69  86
ENDBRANCH  43  44
ENDBRANCH  35  38
ENDBRANCH  33  34
ENDBRANCH  32  33
ENDBRANCH  31  32
ENDBRANCH  30  31
ENDBRANCH   1  30
TORSDOF 18
ENDMDL
