MODEL 1
REMARK VINA RESULT:     -11.5      0.000      0.000
REMARK SMILES CCc1cccc(CC)c1N1/C(=[NH+]/C(=O)CCCC(=O)NCCCCCCNC(=O)c2ccc(-c3c4nc(c(-c5c(F)cccc5F)c5ccc([nH]5)c(-c5c(F)cccc5F)c5nc(c(-c6c(F)cccc6F)c6ccc3[nH]6)C=C5)C=C4)cc2)S[C@@H]2CS(=O)(=O)C[C@@H]21
REMARK SMILES IDX 23 1 22 2 21 3 19 4 20 5 18 7 17 8 16 9 14 10 11 11 12 12
REMARK SMILES IDX 92 13 13 14 85 15 86 16 91 17 87 19 88 20 15 21 89 22 90 23
REMARK SMILES IDX 10 24 3 25 4 26 5 27 7 28 6 29 2 30 1 31 8 32 9 33 24 34
REMARK SMILES IDX 25 35 26 36 27 37 28 38 29 39 30 41 31 42 32 43 84 44 33 45
REMARK SMILES IDX 83 46 34 47 35 48 36 49 77 50 37 51 82 52 76 53 78 54 38 55
REMARK SMILES IDX 81 56 75 57 74 58 39 60 65 61 48 62 64 63 49 64 52 65 63 66
REMARK SMILES IDX 79 67 50 68 51 69 62 71 80 72 53 73 40 74 41 75 46 76 42 77
REMARK SMILES IDX 43 78 45 79 47 80 44 81 66 82 67 83 72 84 68 85 69 86 71 87
REMARK SMILES IDX 73 88 70 89 54 90 55 91 60 92 56 93 57 94 59 95 61 96 58 97
REMARK H PARENT 21 6 13 18 28 40 78 59 52 70
REMARK Flexibility Score: inf
ROOT
ATOM      1  C   UNL A   1      33.614  27.356  23.029  1.00  0.00     0.021 C 
ENDROOT
BRANCH   1   2
ATOM      2  C   UNL A   1      32.549  26.942  22.015  1.00  0.00     0.116 C 
BRANCH   2   3
ATOM      3  N   UNL A   1      31.312  27.635  22.284  1.00  0.00    -0.356 N 
ATOM      4  C   UNL A   1      30.244  27.226  23.021  1.00  0.00     0.220 C 
ATOM      5  O   UNL A   1      29.225  27.918  23.019  1.00  0.00    -0.275 OA
ATOM      6  H   UNL A   1      31.229  28.528  21.877  1.00  0.00     0.163 HD
BRANCH   4   7
ATOM      7  C   UNL A   1      30.348  25.983  23.877  1.00  0.00     0.100 C 
BRANCH   7   8
ATOM      8  C   UNL A   1      29.664  26.013  25.243  1.00  0.00     0.022 C 
BRANCH   8   9
ATOM      9  C   UNL A   1      29.786  24.788  26.151  1.00  0.00     0.128 C 
BRANCH   9  10
ATOM     10  C   UNL A   1      31.187  24.275  26.494  1.00  0.00     0.307 C 
ATOM     11  N   UNL A   1      33.254  21.446  25.379  1.00  0.00    -0.216 N 
ATOM     12  C   UNL A   1      32.595  22.421  26.137  1.00  0.00     0.319 C 
ATOM     13  C   UNL A   1      34.600  21.058  25.872  1.00  0.00     0.212 C 
ATOM     14  N   UNL A   1      31.626  23.192  25.765  1.00  0.00    -0.204 N 
ATOM     15  S   UNL A   1      33.408  22.494  27.720  1.00  0.00    -0.029 SA
ATOM     16  C   UNL A   1      34.986  22.096  26.939  1.00  0.00     0.120 C 
ATOM     17  C   UNL A   1      35.702  21.050  24.816  1.00  0.00     0.188 C 
ATOM     18  H   UNL A   1      31.176  22.992  24.913  1.00  0.00     0.316 HD
ATOM     19  C   UNL A   1      35.546  23.314  26.222  1.00  0.00     0.156 C 
ATOM     20  S   UNL A   1      36.546  22.610  24.942  1.00  0.00     0.155 S 
ATOM     21  O   UNL A   1      31.825  24.861  27.365  1.00  0.00    -0.247 OA
ATOM     22  O   UNL A   1      36.352  23.365  23.727  1.00  0.00    -0.229 OA
ATOM     23  O   UNL A   1      37.862  22.359  25.497  1.00  0.00    -0.229 OA
BRANCH  11  24
ATOM     24  C   UNL A   1      32.744  20.759  24.250  1.00  0.00     0.134 A 
ATOM     25  C   UNL A   1      32.526  21.439  23.017  1.00  0.00    -0.001 A 
ATOM     26  C   UNL A   1      32.112  20.710  21.881  1.00  0.00     0.008 A 
ATOM     27  C   UNL A   1      32.005  19.329  21.906  1.00  0.00     0.001 A 
ATOM     28  C   UNL A   1      32.554  19.340  24.280  1.00  0.00    -0.001 A 
ATOM     29  C   UNL A   1      32.241  18.651  23.089  1.00  0.00     0.008 A 
BRANCH  25  30
ATOM     30  C   UNL A   1      32.732  22.932  22.827  1.00  0.00     0.036 C 
ATOM     31  C   UNL A   1      33.183  23.336  21.429  1.00  0.00     0.009 C 
ENDBRANCH  25  30
BRANCH  28  32
ATOM     32  C   UNL A   1      32.701  18.490  25.533  1.00  0.00     0.036 C 
ATOM     33  C   UNL A   1      32.494  16.991  25.323  1.00  0.00     0.009 C 
ENDBRANCH  28  32
ENDBRANCH  11  24
ENDBRANCH   9  10
ENDBRANCH   8   9
ENDBRANCH   7   8
ENDBRANCH   4   7
ENDBRANCH   2   3
ENDBRANCH   1   2
BRANCH   1  34
ATOM     34  C   UNL A   1      33.561  28.847  23.348  1.00  0.00     0.002 C 
BRANCH  34  35
ATOM     35  C   UNL A   1      33.317  29.146  24.832  1.00  0.00     0.002 C 
BRANCH  35  36
ATOM     36  C   UNL A   1      34.030  28.203  25.806  1.00  0.00     0.021 C 
BRANCH  36  37
ATOM     37  C   UNL A   1      33.705  28.454  27.275  1.00  0.00     0.116 C 
BRANCH  37  38
ATOM     38  N   UNL A   1      33.657  29.877  27.573  1.00  0.00    -0.352 N 
ATOM     39  C   UNL A   1      34.573  30.664  28.221  1.00  0.00     0.251 C 
ATOM     40  H   UNL A   1      32.847  30.344  27.266  1.00  0.00     0.163 HD
ATOM     41  O   UNL A   1      34.257  31.780  28.622  1.00  0.00    -0.269 OA
BRANCH  39  42
ATOM     42  C   UNL A   1      35.942  30.161  28.436  1.00  0.00     0.039 A 
ATOM     43  C   UNL A   1      36.849  30.189  27.374  1.00  0.00     0.014 A 
ATOM     44  C   UNL A   1      36.321  29.645  29.678  1.00  0.00     0.014 A 
ATOM     45  C   UNL A   1      38.156  29.745  27.576  1.00  0.00     0.010 A 
ATOM     46  C   UNL A   1      37.643  29.277  29.899  1.00  0.00     0.010 A 
ATOM     47  C   UNL A   1      38.570  29.314  28.847  1.00  0.00    -0.014 A 
BRANCH  47  48
ATOM     48  C   UNL A   1      39.971  28.896  29.095  1.00  0.00     0.031 A 
ATOM     49  C   UNL A   1      40.944  29.851  29.728  1.00  0.00     0.074 A 
ATOM     50  C   UNL A   1      40.383  27.682  28.685  1.00  0.00     0.049 A 
ATOM     51  N   UNL A   1      42.218  29.689  29.976  1.00  0.00    -0.248 NA
ATOM     52  C   UNL A   1      40.421  31.173  30.105  1.00  0.00     0.031 C 
ATOM     53  C   UNL A   1      39.544  26.690  28.009  1.00  0.00     0.029 A 
ATOM     54  N   UNL A   1      41.612  27.080  28.768  1.00  0.00    -0.354 N 
ATOM     55  C   UNL A   1      42.651  30.889  30.523  1.00  0.00     0.074 A 
ATOM     56  C   UNL A   1      41.518  31.790  30.515  1.00  0.00     0.031 C 
ATOM     57  C   UNL A   1      40.278  25.595  27.759  1.00  0.00     0.029 A 
ATOM     58  C   UNL A   1      41.644  25.823  28.218  1.00  0.00     0.049 A 
ATOM     59  H   UNL A   1      42.396  27.509  29.181  1.00  0.00     0.167 HD
ATOM     60  C   UNL A   1      43.875  31.206  31.010  1.00  0.00     0.037 A 
ATOM     61  C   UNL A   1      42.664  24.953  28.091  1.00  0.00     0.037 A 
ATOM     62  C   UNL A   1      44.995  30.300  31.021  1.00  0.00     0.049 A 
ATOM     63  C   UNL A   1      44.017  25.326  28.628  1.00  0.00     0.074 A 
ATOM     64  C   UNL A   1      46.258  30.498  31.549  1.00  0.00     0.029 A 
ATOM     65  N   UNL A   1      44.987  29.028  30.468  1.00  0.00    -0.354 N 
ATOM     66  N   UNL A   1      44.394  26.434  29.218  1.00  0.00    -0.248 NA
ATOM     67  C   UNL A   1      45.082  24.325  28.490  1.00  0.00     0.031 C 
ATOM     68  C   UNL A   1      47.033  29.369  31.262  1.00  0.00     0.029 A 
ATOM     69  C   UNL A   1      46.234  28.441  30.612  1.00  0.00     0.049 A 
ATOM     70  H   UNL A   1      44.210  28.604  30.036  1.00  0.00     0.167 HD
ATOM     71  C   UNL A   1      45.732  26.257  29.543  1.00  0.00     0.074 A 
ATOM     72  C   UNL A   1      46.095  24.927  29.097  1.00  0.00     0.031 C 
ATOM     73  C   UNL A   1      46.583  27.117  30.156  1.00  0.00     0.037 A 
BRANCH  60  74
ATOM     74  C   UNL A   1      44.062  32.594  31.554  1.00  0.00     0.057 A 
ATOM     75  C   UNL A   1      44.546  33.645  30.761  1.00  0.00     0.134 A 
ATOM     76  C   UNL A   1      43.752  32.887  32.888  1.00  0.00     0.134 A 
ATOM     77  F   UNL A   1      44.872  33.434  29.477  1.00  0.00    -0.206 F 
ATOM     78  C   UNL A   1      44.754  34.922  31.285  1.00  0.00     0.040 A 
ATOM     79  C   UNL A   1      43.925  34.168  33.415  1.00  0.00     0.040 A 
ATOM     80  F   UNL A   1      43.277  31.934  33.703  1.00  0.00    -0.206 F 
ATOM     81  C   UNL A   1      44.439  35.187  32.616  1.00  0.00     0.006 A 
ENDBRANCH  60  74
BRANCH  61  82
ATOM     82  C   UNL A   1      42.428  23.637  27.446  1.00  0.00     0.057 A 
ATOM     83  C   UNL A   1      42.556  23.477  26.063  1.00  0.00     0.134 A 
ATOM     84  C   UNL A   1      42.098  22.504  28.200  1.00  0.00     0.134 A 
ATOM     85  F   UNL A   1      42.857  24.528  25.287  1.00  0.00    -0.206 F 
ATOM     86  C   UNL A   1      42.357  22.239  25.449  1.00  0.00     0.040 A 
ATOM     87  C   UNL A   1      41.919  21.255  27.603  1.00  0.00     0.040 A 
ATOM     88  F   UNL A   1      41.972  22.589  29.532  1.00  0.00    -0.206 F 
ATOM     89  C   UNL A   1      42.045  21.122  26.221  1.00  0.00     0.006 A 
ENDBRANCH  61  82
BRANCH  73  90
ATOM     90  C   UNL A   1      47.984  26.636  30.408  1.00  0.00     0.057 A 
ATOM     91  C   UNL A   1      48.334  25.950  31.577  1.00  0.00     0.134 A 
ATOM     92  C   UNL A   1      48.986  26.828  29.447  1.00  0.00     0.134 A 
ATOM     93  F   UNL A   1      47.425  25.744  32.543  1.00  0.00    -0.206 F 
ATOM     94  C   UNL A   1      49.635  25.492  31.793  1.00  0.00     0.040 A 
ATOM     95  C   UNL A   1      50.282  26.349  29.638  1.00  0.00     0.040 A 
ATOM     96  F   UNL A   1      48.716  27.469  28.300  1.00  0.00    -0.206 F 
ATOM     97  C   UNL A   1      50.611  25.684  30.817  1.00  0.00     0.006 A 
ENDBRANCH  73  90
ENDBRANCH  47  48
ENDBRANCH  39  42
ENDBRANCH  37  38
ENDBRANCH  36  37
ENDBRANCH  35  36
ENDBRANCH  34  35
ENDBRANCH   1  34
TORSDOF 19
ENDMDL
MODEL 2
REMARK VINA RESULT:     -11.4      2.674      8.255
REMARK SMILES CCc1cccc(CC)c1N1/C(=[NH+]/C(=O)CCCC(=O)NCCCCCCNC(=O)c2ccc(-c3c4nc(c(-c5c(F)cccc5F)c5ccc([nH]5)c(-c5c(F)cccc5F)c5nc(c(-c6c(F)cccc6F)c6ccc3[nH]6)C=C5)C=C4)cc2)S[C@@H]2CS(=O)(=O)C[C@@H]21
REMARK SMILES IDX 23 1 22 2 21 3 19 4 20 5 18 7 17 8 16 9 14 10 11 11 12 12
REMARK SMILES IDX 92 13 13 14 85 15 86 16 91 17 87 19 88 20 15 21 89 22 90 23
REMARK SMILES IDX 10 24 3 25 4 26 5 27 7 28 6 29 2 30 1 31 8 32 9 33 24 34
REMARK SMILES IDX 25 35 26 36 27 37 28 38 29 39 30 41 31 42 32 43 84 44 33 45
REMARK SMILES IDX 83 46 34 47 35 48 36 49 77 50 37 51 82 52 76 53 78 54 38 55
REMARK SMILES IDX 81 56 75 57 74 58 39 60 65 61 48 62 64 63 49 64 52 65 63 66
REMARK SMILES IDX 79 67 50 68 51 69 62 71 80 72 53 73 40 74 41 75 46 76 42 77
REMARK SMILES IDX 43 78 45 79 47 80 44 81 66 82 67 83 72 84 68 85 69 86 71 87
REMARK SMILES IDX 73 88 70 89 54 90 55 91 60 92 56 93 57 94 59 95 61 96 58 97
REMARK H PARENT 21 6 13 18 28 40 78 59 52 70
REMARK Flexibility Score: inf
ROOT
ATOM      1  C   UNL A   1      32.296  23.110  26.706  1.00  0.00     0.021 C 
ENDROOT
BRANCH   1   2
ATOM      2  C   UNL A   1      31.414  22.235  25.817  1.00  0.00     0.116 C 
BRANCH   2   3
ATOM      3  N   UNL A   1      32.143  21.064  25.393  1.00  0.00    -0.356 N 
ATOM      4  C   UNL A   1      32.417  20.638  24.130  1.00  0.00     0.220 C 
ATOM      5  O   UNL A   1      32.945  19.535  23.981  1.00  0.00    -0.275 OA
ATOM      6  H   UNL A   1      32.490  20.494  26.118  1.00  0.00     0.163 HD
BRANCH   4   7
ATOM      7  C   UNL A   1      32.140  21.542  22.950  1.00  0.00     0.100 C 
BRANCH   7   8
ATOM      8  C   UNL A   1      33.285  22.424  22.458  1.00  0.00     0.022 C 
BRANCH   8   9
ATOM      9  C   UNL A   1      32.947  23.721  21.720  1.00  0.00     0.128 C 
BRANCH   9  10
ATOM     10  C   UNL A   1      33.306  25.051  22.386  1.00  0.00     0.307 C 
ATOM     11  N   UNL A   1      31.406  28.021  23.427  1.00  0.00    -0.216 N 
ATOM     12  C   UNL A   1      32.369  27.147  22.909  1.00  0.00     0.319 C 
ATOM     13  C   UNL A   1      31.937  29.274  24.022  1.00  0.00     0.212 C 
ATOM     14  N   UNL A   1      32.247  25.880  22.682  1.00  0.00    -0.204 N 
ATOM     15  S   UNL A   1      33.870  28.083  22.702  1.00  0.00    -0.029 SA
ATOM     16  C   UNL A   1      33.457  29.084  24.147  1.00  0.00     0.120 C 
ATOM     17  C   UNL A   1      31.400  29.615  25.409  1.00  0.00     0.188 C 
ATOM     18  H   UNL A   1      31.346  25.487  22.722  1.00  0.00     0.316 HD
ATOM     19  C   UNL A   1      33.726  28.306  25.425  1.00  0.00     0.156 C 
ATOM     20  S   UNL A   1      32.596  29.024  26.583  1.00  0.00     0.155 S 
ATOM     21  O   UNL A   1      34.489  25.282  22.629  1.00  0.00    -0.247 OA
ATOM     22  O   UNL A   1      32.012  27.972  27.382  1.00  0.00    -0.229 OA
ATOM     23  O   UNL A   1      33.245  30.177  27.176  1.00  0.00    -0.229 OA
BRANCH  11  24
ATOM     24  C   UNL A   1      30.000  27.861  23.380  1.00  0.00     0.134 A 
ATOM     25  C   UNL A   1      29.361  26.794  24.076  1.00  0.00    -0.001 A 
ATOM     26  C   UNL A   1      27.951  26.717  24.094  1.00  0.00     0.008 A 
ATOM     27  C   UNL A   1      27.164  27.708  23.532  1.00  0.00     0.001 A 
ATOM     28  C   UNL A   1      29.172  28.837  22.737  1.00  0.00    -0.001 A 
ATOM     29  C   UNL A   1      27.769  28.766  22.876  1.00  0.00     0.008 A 
BRANCH  25  30
ATOM     30  C   UNL A   1      30.109  25.716  24.839  1.00  0.00     0.036 C 
ATOM     31  C   UNL A   1      29.667  25.541  26.287  1.00  0.00     0.009 C 
ENDBRANCH  25  30
BRANCH  28  32
ATOM     32  C   UNL A   1      29.712  30.000  21.917  1.00  0.00     0.036 C 
ATOM     33  C   UNL A   1      28.646  30.851  21.227  1.00  0.00     0.009 C 
ENDBRANCH  28  32
ENDBRANCH  11  24
ENDBRANCH   9  10
ENDBRANCH   8   9
ENDBRANCH   7   8
ENDBRANCH   4   7
ENDBRANCH   2   3
ENDBRANCH   1   2
BRANCH   1  34
ATOM     34  C   UNL A   1      33.277  23.953  25.898  1.00  0.00     0.002 C 
BRANCH  34  35
ATOM     35  C   UNL A   1      34.735  23.784  26.338  1.00  0.00     0.002 C 
BRANCH  35  36
ATOM     36  C   UNL A   1      35.652  23.136  25.297  1.00  0.00     0.021 C 
BRANCH  36  37
ATOM     37  C   UNL A   1      37.034  23.774  25.194  1.00  0.00     0.116 C 
BRANCH  37  38
ATOM     38  N   UNL A   1      38.086  22.819  25.503  1.00  0.00    -0.352 N 
ATOM     39  C   UNL A   1      39.302  23.022  26.103  1.00  0.00     0.251 C 
ATOM     40  H   UNL A   1      37.898  21.888  25.243  1.00  0.00     0.163 HD
ATOM     41  O   UNL A   1      40.173  22.160  26.044  1.00  0.00    -0.269 OA
BRANCH  39  42
ATOM     42  C   UNL A   1      39.558  24.286  26.817  1.00  0.00     0.039 A 
ATOM     43  C   UNL A   1      39.057  24.448  28.110  1.00  0.00     0.014 A 
ATOM     44  C   UNL A   1      40.275  25.315  26.202  1.00  0.00     0.014 A 
ATOM     45  C   UNL A   1      39.321  25.627  28.807  1.00  0.00     0.010 A 
ATOM     46  C   UNL A   1      40.605  26.456  26.924  1.00  0.00     0.010 A 
ATOM     47  C   UNL A   1      40.122  26.627  28.229  1.00  0.00    -0.014 A 
BRANCH  47  48
ATOM     48  C   UNL A   1      40.464  27.860  28.978  1.00  0.00     0.031 A 
ATOM     49  C   UNL A   1      41.792  27.981  29.670  1.00  0.00     0.074 A 
ATOM     50  C   UNL A   1      39.550  28.842  29.091  1.00  0.00     0.049 A 
ATOM     51  N   UNL A   1      42.251  28.954  30.415  1.00  0.00    -0.248 NA
ATOM     52  C   UNL A   1      42.715  26.844  29.531  1.00  0.00     0.031 C 
ATOM     53  C   UNL A   1      38.206  28.815  28.510  1.00  0.00     0.029 A 
ATOM     54  N   UNL A   1      39.608  30.047  29.742  1.00  0.00    -0.354 N 
ATOM     55  C   UNL A   1      43.506  28.542  30.843  1.00  0.00     0.074 A 
ATOM     56  C   UNL A   1      43.710  27.205  30.325  1.00  0.00     0.031 C 
ATOM     57  C   UNL A   1      37.575  29.960  28.811  1.00  0.00     0.029 A 
ATOM     58  C   UNL A   1      38.453  30.782  29.639  1.00  0.00     0.049 A 
ATOM     59  H   UNL A   1      40.402  30.355  30.236  1.00  0.00     0.167 HD
ATOM     60  C   UNL A   1      44.415  29.222  31.581  1.00  0.00     0.037 A 
ATOM     61  C   UNL A   1      38.133  31.980  30.161  1.00  0.00     0.037 A 
ATOM     62  C   UNL A   1      44.206  30.555  32.086  1.00  0.00     0.049 A 
ATOM     63  C   UNL A   1      39.152  32.716  30.987  1.00  0.00     0.074 A 
ATOM     64  C   UNL A   1      45.086  31.359  32.788  1.00  0.00     0.029 A 
ATOM     65  N   UNL A   1      43.027  31.275  31.950  1.00  0.00    -0.354 N 
ATOM     66  N   UNL A   1      40.366  32.351  31.316  1.00  0.00    -0.248 NA
ATOM     67  C   UNL A   1      38.758  34.033  31.503  1.00  0.00     0.031 C 
ATOM     68  C   UNL A   1      44.420  32.541  33.129  1.00  0.00     0.029 A 
ATOM     69  C   UNL A   1      43.146  32.501  32.584  1.00  0.00     0.049 A 
ATOM     70  H   UNL A   1      42.225  30.961  31.473  1.00  0.00     0.167 HD
ATOM     71  C   UNL A   1      40.892  33.399  32.059  1.00  0.00     0.074 A 
ATOM     72  C   UNL A   1      39.866  34.422  32.116  1.00  0.00     0.031 C 
ATOM     73  C   UNL A   1      42.113  33.507  32.639  1.00  0.00     0.037 A 
BRANCH  60  74
ATOM     74  C   UNL A   1      45.708  28.525  31.895  1.00  0.00     0.057 A 
ATOM     75  C   UNL A   1      45.876  27.755  33.056  1.00  0.00     0.134 A 
ATOM     76  C   UNL A   1      46.802  28.620  31.026  1.00  0.00     0.134 A 
ATOM     77  F   UNL A   1      44.873  27.627  33.938  1.00  0.00    -0.206 F 
ATOM     78  C   UNL A   1      47.093  27.142  33.359  1.00  0.00     0.040 A 
ATOM     79  C   UNL A   1      48.014  27.986  31.302  1.00  0.00     0.040 A 
ATOM     80  F   UNL A   1      46.713  29.333  29.893  1.00  0.00    -0.206 F 
ATOM     81  C   UNL A   1      48.166  27.255  32.478  1.00  0.00     0.006 A 
ENDBRANCH  60  74
BRANCH  61  82
ATOM     82  C   UNL A   1      36.794  32.562  29.894  1.00  0.00     0.057 A 
ATOM     83  C   UNL A   1      36.554  33.326  28.747  1.00  0.00     0.134 A 
ATOM     84  C   UNL A   1      35.717  32.345  30.762  1.00  0.00     0.134 A 
ATOM     85  F   UNL A   1      37.549  33.581  27.885  1.00  0.00    -0.206 F 
ATOM     86  C   UNL A   1      35.294  33.860  28.475  1.00  0.00     0.040 A 
ATOM     87  C   UNL A   1      34.446  32.852  30.491  1.00  0.00     0.040 A 
ATOM     88  F   UNL A   1      35.879  31.611  31.872  1.00  0.00    -0.206 F 
ATOM     89  C   UNL A   1      34.233  33.617  29.346  1.00  0.00     0.006 A 
ENDBRANCH  61  82
BRANCH  73  90
ATOM     90  C   UNL A   1      42.420  34.787  33.363  1.00  0.00     0.057 A 
ATOM     91  C   UNL A   1      43.090  35.849  32.742  1.00  0.00     0.134 A 
ATOM     92  C   UNL A   1      42.002  34.975  34.687  1.00  0.00     0.134 A 
ATOM     93  F   UNL A   1      43.529  35.731  31.479  1.00  0.00    -0.206 F 
ATOM     94  C   UNL A   1      43.355  37.041  33.419  1.00  0.00     0.040 A 
ATOM     95  C   UNL A   1      42.234  36.172  35.364  1.00  0.00     0.040 A 
ATOM     96  F   UNL A   1      41.346  34.002  35.339  1.00  0.00    -0.206 F 
ATOM     97  C   UNL A   1      42.918  37.207  34.732  1.00  0.00     0.006 A 
ENDBRANCH  73  90
ENDBRANCH  47  48
ENDBRANCH  39  42
ENDBRANCH  37  38
ENDBRANCH  36  37
ENDBRANCH  35  36
ENDBRANCH  34  35
ENDBRANCH   1  34
TORSDOF 19
ENDMDL
MODEL 3
REMARK VINA RESULT:     -11.2      1.640      2.321
REMARK SMILES CCc1cccc(CC)c1N1/C(=[NH+]/C(=O)CCCC(=O)NCCCCCCNC(=O)c2ccc(-c3c4nc(c(-c5c(F)cccc5F)c5ccc([nH]5)c(-c5c(F)cccc5F)c5nc(c(-c6c(F)cccc6F)c6ccc3[nH]6)C=C5)C=C4)cc2)S[C@@H]2CS(=O)(=O)C[C@@H]21
REMARK SMILES IDX 23 1 22 2 21 3 19 4 20 5 18 7 17 8 16 9 14 10 11 11 12 12
REMARK SMILES IDX 92 13 13 14 85 15 86 16 91 17 87 19 88 20 15 21 89 22 90 23
REMARK SMILES IDX 10 24 3 25 4 26 5 27 7 28 6 29 2 30 1 31 8 32 9 33 24 34
REMARK SMILES IDX 25 35 26 36 27 37 28 38 29 39 30 41 31 42 32 43 84 44 33 45
REMARK SMILES IDX 83 46 34 47 35 48 36 49 77 50 37 51 82 52 76 53 78 54 38 55
REMARK SMILES IDX 81 56 75 57 74 58 39 60 65 61 48 62 64 63 49 64 52 65 63 66
REMARK SMILES IDX 79 67 50 68 51 69 62 71 80 72 53 73 40 74 41 75 46 76 42 77
REMARK SMILES IDX 43 78 45 79 47 80 44 81 66 82 67 83 72 84 68 85 69 86 71 87
REMARK SMILES IDX 73 88 70 89 54 90 55 91 60 92 56 93 57 94 59 95 61 96 58 97
REMARK H PARENT 21 6 13 18 28 40 78 59 52 70
REMARK Flexibility Score: inf
ROOT
ATOM      1  C   UNL A   1      33.131  27.119  22.369  1.00  0.00     0.021 C 
ENDROOT
BRANCH   1   2
ATOM      2  C   UNL A   1      31.704  26.611  22.176  1.00  0.00     0.116 C 
BRANCH   2   3
ATOM      3  N   UNL A   1      30.761  27.677  22.419  1.00  0.00    -0.356 N 
ATOM      4  C   UNL A   1      29.588  27.641  23.108  1.00  0.00     0.220 C 
ATOM      5  O   UNL A   1      28.861  28.635  23.088  1.00  0.00    -0.275 OA
ATOM      6  H   UNL A   1      30.999  28.551  22.032  1.00  0.00     0.163 HD
BRANCH   4   7
ATOM      7  C   UNL A   1      29.234  26.425  23.936  1.00  0.00     0.100 C 
BRANCH   7   8
ATOM      8  C   UNL A   1      29.869  26.310  25.320  1.00  0.00     0.022 C 
BRANCH   8   9
ATOM      9  C   UNL A   1      29.930  24.935  25.987  1.00  0.00     0.128 C 
BRANCH   9  10
ATOM     10  C   UNL A   1      31.301  24.371  26.366  1.00  0.00     0.307 C 
ATOM     11  N   UNL A   1      33.261  21.429  25.358  1.00  0.00    -0.216 N 
ATOM     12  C   UNL A   1      32.632  22.450  26.080  1.00  0.00     0.319 C 
ATOM     13  C   UNL A   1      34.581  20.996  25.883  1.00  0.00     0.212 C 
ATOM     14  N   UNL A   1      31.704  23.252  25.672  1.00  0.00    -0.204 N 
ATOM     15  S   UNL A   1      33.423  22.529  27.674  1.00  0.00    -0.029 SA
ATOM     16  C   UNL A   1      34.995  22.043  26.930  1.00  0.00     0.120 C 
ATOM     17  C   UNL A   1      35.698  20.913  24.847  1.00  0.00     0.188 C 
ATOM     18  H   UNL A   1      31.260  23.050  24.818  1.00  0.00     0.316 HD
ATOM     19  C   UNL A   1      35.619  23.217  26.192  1.00  0.00     0.156 C 
ATOM     20  S   UNL A   1      36.606  22.438  24.948  1.00  0.00     0.155 S 
ATOM     21  O   UNL A   1      31.951  24.952  27.233  1.00  0.00    -0.247 OA
ATOM     22  O   UNL A   1      36.465  23.168  23.710  1.00  0.00    -0.229 OA
ATOM     23  O   UNL A   1      37.902  22.145  25.531  1.00  0.00    -0.229 OA
BRANCH  11  24
ATOM     24  C   UNL A   1      32.740  20.735  24.239  1.00  0.00     0.134 A 
ATOM     25  C   UNL A   1      32.490  21.412  23.010  1.00  0.00    -0.001 A 
ATOM     26  C   UNL A   1      32.065  20.677  21.881  1.00  0.00     0.008 A 
ATOM     27  C   UNL A   1      31.976  19.296  21.908  1.00  0.00     0.001 A 
ATOM     28  C   UNL A   1      32.568  19.313  24.272  1.00  0.00    -0.001 A 
ATOM     29  C   UNL A   1      32.243  18.620  23.086  1.00  0.00     0.008 A 
BRANCH  25  30
ATOM     30  C   UNL A   1      32.674  22.907  22.817  1.00  0.00     0.036 C 
ATOM     31  C   UNL A   1      33.405  23.296  21.537  1.00  0.00     0.009 C 
ENDBRANCH  25  30
BRANCH  28  32
ATOM     32  C   UNL A   1      32.749  18.466  25.522  1.00  0.00     0.036 C 
ATOM     33  C   UNL A   1      32.597  16.960  25.307  1.00  0.00     0.009 C 
ENDBRANCH  28  32
ENDBRANCH  11  24
ENDBRANCH   9  10
ENDBRANCH   8   9
ENDBRANCH   7   8
ENDBRANCH   4   7
ENDBRANCH   2   3
ENDBRANCH   1   2
BRANCH   1  34
ATOM     34  C   UNL A   1      33.172  28.507  23.000  1.00  0.00     0.002 C 
BRANCH  34  35
ATOM     35  C   UNL A   1      33.979  28.563  24.302  1.00  0.00     0.002 C 
BRANCH  35  36
ATOM     36  C   UNL A   1      33.489  27.621  25.405  1.00  0.00     0.021 C 
BRANCH  36  37
ATOM     37  C   UNL A   1      33.648  28.173  26.818  1.00  0.00     0.116 C 
BRANCH  37  38
ATOM     38  N   UNL A   1      33.547  29.624  26.838  1.00  0.00    -0.352 N 
ATOM     39  C   UNL A   1      34.311  30.543  27.507  1.00  0.00     0.251 C 
ATOM     40  H   UNL A   1      32.821  30.001  26.291  1.00  0.00     0.163 HD
ATOM     41  O   UNL A   1      33.925  31.701  27.625  1.00  0.00    -0.269 OA
BRANCH  39  42
ATOM     42  C   UNL A   1      35.603  30.131  28.087  1.00  0.00     0.039 A 
ATOM     43  C   UNL A   1      35.645  29.706  29.417  1.00  0.00     0.014 A 
ATOM     44  C   UNL A   1      36.772  30.184  27.324  1.00  0.00     0.014 A 
ATOM     45  C   UNL A   1      36.855  29.283  29.965  1.00  0.00     0.010 A 
ATOM     46  C   UNL A   1      37.961  29.689  27.846  1.00  0.00     0.010 A 
ATOM     47  C   UNL A   1      38.016  29.244  29.175  1.00  0.00    -0.014 A 
BRANCH  47  48
ATOM     48  C   UNL A   1      39.298  28.741  29.723  1.00  0.00     0.031 A 
ATOM     49  C   UNL A   1      39.928  29.411  30.911  1.00  0.00     0.074 A 
ATOM     50  C   UNL A   1      39.928  27.723  29.106  1.00  0.00     0.049 A 
ATOM     51  N   UNL A   1      41.067  29.151  31.499  1.00  0.00    -0.248 NA
ATOM     52  C   UNL A   1      39.194  30.543  31.497  1.00  0.00     0.031 C 
ATOM     53  C   UNL A   1      39.443  27.029  27.912  1.00  0.00     0.029 A 
ATOM     54  N   UNL A   1      41.118  27.104  29.392  1.00  0.00    -0.354 N 
ATOM     55  C   UNL A   1      41.192  30.093  32.512  1.00  0.00     0.074 A 
ATOM     56  C   UNL A   1      40.043  30.967  32.420  1.00  0.00     0.031 C 
ATOM     57  C   UNL A   1      40.315  26.065  27.581  1.00  0.00     0.029 A 
ATOM     58  C   UNL A   1      41.438  26.100  28.513  1.00  0.00     0.049 A 
ATOM     59  H   UNL A   1      41.687  27.356  30.155  1.00  0.00     0.167 HD
ATOM     60  C   UNL A   1      42.165  30.205  33.449  1.00  0.00     0.037 A 
ATOM     61  C   UNL A   1      42.521  25.302  28.457  1.00  0.00     0.037 A 
ATOM     62  C   UNL A   1      43.301  29.326  33.538  1.00  0.00     0.049 A 
ATOM     63  C   UNL A   1      43.594  25.449  29.500  1.00  0.00     0.074 A 
ATOM     64  C   UNL A   1      44.308  29.312  34.487  1.00  0.00     0.029 A 
ATOM     65  N   UNL A   1      43.586  28.310  32.637  1.00  0.00    -0.354 N 
ATOM     66  N   UNL A   1      43.661  26.290  30.502  1.00  0.00    -0.248 NA
ATOM     67  C   UNL A   1      44.735  24.530  29.407  1.00  0.00     0.031 C 
ATOM     68  C   UNL A   1      45.234  28.327  34.126  1.00  0.00     0.029 A 
ATOM     69  C   UNL A   1      44.771  27.683  32.989  1.00  0.00     0.049 A 
ATOM     70  H   UNL A   1      43.028  28.069  31.862  1.00  0.00     0.167 HD
ATOM     71  C   UNL A   1      44.837  25.990  31.175  1.00  0.00     0.074 A 
ATOM     72  C   UNL A   1      45.444  24.876  30.473  1.00  0.00     0.031 C 
ATOM     73  C   UNL A   1      45.367  26.580  32.275  1.00  0.00     0.037 A 
BRANCH  60  74
ATOM     74  C   UNL A   1      42.040  31.330  34.438  1.00  0.00     0.057 A 
ATOM     75  C   UNL A   1      41.299  31.201  35.621  1.00  0.00     0.134 A 
ATOM     76  C   UNL A   1      42.671  32.559  34.207  1.00  0.00     0.134 A 
ATOM     77  F   UNL A   1      40.660  30.055  35.903  1.00  0.00    -0.206 F 
ATOM     78  C   UNL A   1      41.155  32.264  36.515  1.00  0.00     0.040 A 
ATOM     79  C   UNL A   1      42.562  33.618  35.109  1.00  0.00     0.040 A 
ATOM     80  F   UNL A   1      43.404  32.752  33.100  1.00  0.00    -0.206 F 
ATOM     81  C   UNL A   1      41.792  33.477  36.261  1.00  0.00     0.006 A 
ENDBRANCH  60  74
BRANCH  61  82
ATOM     82  C   UNL A   1      42.623  24.280  27.386  1.00  0.00     0.057 A 
ATOM     83  C   UNL A   1      42.169  22.973  27.589  1.00  0.00     0.134 A 
ATOM     84  C   UNL A   1      43.150  24.592  26.127  1.00  0.00     0.134 A 
ATOM     85  F   UNL A   1      41.667  22.609  28.779  1.00  0.00    -0.206 F 
ATOM     86  C   UNL A   1      42.242  22.009  26.582  1.00  0.00     0.040 A 
ATOM     87  C   UNL A   1      43.207  23.646  25.103  1.00  0.00     0.040 A 
ATOM     88  F   UNL A   1      43.591  25.831  25.865  1.00  0.00    -0.206 F 
ATOM     89  C   UNL A   1      42.755  22.347  25.331  1.00  0.00     0.006 A 
ENDBRANCH  61  82
BRANCH  73  90
ATOM     90  C   UNL A   1      46.654  26.015  32.806  1.00  0.00     0.057 A 
ATOM     91  C   UNL A   1      46.677  24.961  33.729  1.00  0.00     0.134 A 
ATOM     92  C   UNL A   1      47.887  26.507  32.357  1.00  0.00     0.134 A 
ATOM     93  F   UNL A   1      45.532  24.452  34.209  1.00  0.00    -0.206 F 
ATOM     94  C   UNL A   1      47.879  24.432  34.203  1.00  0.00     0.040 A 
ATOM     95  C   UNL A   1      49.094  25.967  32.800  1.00  0.00     0.040 A 
ATOM     96  F   UNL A   1      47.937  27.509  31.466  1.00  0.00    -0.206 F 
ATOM     97  C   UNL A   1      49.092  24.931  33.731  1.00  0.00     0.006 A 
ENDBRANCH  73  90
ENDBRANCH  47  48
ENDBRANCH  39  42
ENDBRANCH  37  38
ENDBRANCH  36  37
ENDBRANCH  35  36
ENDBRANCH  34  35
ENDBRANCH   1  34
TORSDOF 19
ENDMDL
