MODEL 1
REMARK VINA RESULT:     -11.0      0.000      0.000
REMARK SMILES CC(C)(C)OC(=O)[C@@H](C(=O)NCCCCCCNC(=O)c1ccc(-c2c3nc(c(-c4c(F)cccc4F)c4ccc([nH]4)c(-c4c(F)cccc4F)c4nc(c(-c5c(F)cccc5F)c5ccc2[nH]5)C=C4)C=C3)cc1)[C@@H]([NH3+])Cc1cccc(F)c1
REMARK SMILES IDX 14 1 13 2 12 3 11 4 9 5 10 6 8 8 6 9 7 10 5 11 2 12 1 13
REMARK SMILES IDX 3 14 4 15 75 16 76 17 77 21 78 22 79 23 84 24 80 25 82 26
REMARK SMILES IDX 81 27 83 28 15 29 16 30 17 31 18 32 19 33 20 35 21 36 22 37
REMARK SMILES IDX 74 38 23 39 73 40 24 41 25 42 26 43 67 44 27 45 72 46 66 47
REMARK SMILES IDX 68 48 28 49 71 50 65 51 64 52 29 54 55 55 38 56 54 57 39 58
REMARK SMILES IDX 42 59 53 60 69 61 40 62 41 63 52 65 70 66 43 67 30 68 31 69
REMARK SMILES IDX 36 70 32 71 33 72 35 73 37 74 34 75 56 76 57 77 62 78 58 79
REMARK SMILES IDX 59 80 61 81 63 82 60 83 44 84 45 85 50 86 46 87 47 88 49 89
REMARK SMILES IDX 51 90 48 91
REMARK H PARENT 11 7 76 18 76 19 76 20 18 34 68 53 42 64
REMARK Flexibility Score: inf
ROOT
ATOM      1  C   UNL A   1      37.570  21.944  25.247  1.00  0.00     0.002 C 
ENDROOT
BRANCH   1   2
ATOM      2  C   UNL A   1      36.886  23.162  24.617  1.00  0.00     0.021 C 
BRANCH   2   3
ATOM      3  C   UNL A   1      35.996  23.928  25.595  1.00  0.00     0.116 C 
BRANCH   3   4
ATOM      4  N   UNL A   1      35.512  23.004  26.602  1.00  0.00    -0.355 N 
ATOM      5  C   UNL A   1      34.210  22.798  26.959  1.00  0.00     0.240 C 
ATOM      6  O   UNL A   1      33.964  22.498  28.125  1.00  0.00    -0.274 OA
ATOM      7  H   UNL A   1      36.191  22.471  27.076  1.00  0.00     0.163 HD
BRANCH   5   8
ATOM      8  C   UNL A   1      33.143  22.934  25.888  1.00  0.00     0.246 C 
BRANCH   8   9
ATOM      9  C   UNL A   1      32.252  24.106  26.236  1.00  0.00     0.325 C 
ATOM     10  O   UNL A   1      31.552  24.133  27.242  1.00  0.00    -0.251 OA
BRANCH   9  11
ATOM     11  O   UNL A   1      32.282  25.071  25.283  1.00  0.00    -0.459 OA
BRANCH  11  12
ATOM     12  C   UNL A   1      31.090  25.419  24.529  1.00  0.00     0.104 C 
ATOM     13  C   UNL A   1      31.514  26.609  23.656  1.00  0.00     0.056 C 
ATOM     14  C   UNL A   1      29.952  25.862  25.453  1.00  0.00     0.056 C 
ATOM     15  C   UNL A   1      30.652  24.277  23.603  1.00  0.00     0.056 C 
ENDBRANCH  11  12
ENDBRANCH   9  11
ENDBRANCH   8   9
BRANCH   8  16
ATOM     16  C   UNL A   1      32.376  21.602  25.687  1.00  0.00     0.209 C 
BRANCH  16  17
ATOM     17  N   UNL A   1      30.950  21.731  26.073  1.00  0.00    -0.354 N 
ATOM     18  H   UNL A   1      30.538  22.528  25.588  1.00  0.00     0.344 HD
ATOM     19  H   UNL A   1      30.882  21.873  27.080  1.00  0.00     0.344 HD
ATOM     20  H   UNL A   1      30.449  20.881  25.814  1.00  0.00     0.344 HD
ENDBRANCH  16  17
BRANCH  16  21
ATOM     21  C   UNL A   1      32.373  21.133  24.193  1.00  0.00     0.102 C 
BRANCH  21  22
ATOM     22  C   UNL A   1      32.843  19.721  23.925  1.00  0.00    -0.039 A 
ATOM     23  C   UNL A   1      32.201  18.924  22.963  1.00  0.00     0.004 A 
ATOM     24  C   UNL A   1      33.962  19.204  24.592  1.00  0.00     0.043 A 
ATOM     25  C   UNL A   1      32.708  17.664  22.625  1.00  0.00     0.003 A 
ATOM     26  C   UNL A   1      34.446  17.942  24.260  1.00  0.00     0.123 A 
ATOM     27  C   UNL A   1      33.839  17.175  23.273  1.00  0.00     0.039 A 
ATOM     28  F   UNL A   1      35.524  17.461  24.895  1.00  0.00    -0.207 F 
ENDBRANCH  21  22
ENDBRANCH  16  21
ENDBRANCH   8  16
ENDBRANCH   5   8
ENDBRANCH   3   4
ENDBRANCH   2   3
ENDBRANCH   1   2
BRANCH   1  29
ATOM     29  C   UNL A   1      37.228  20.614  24.572  1.00  0.00     0.002 C 
BRANCH  29  30
ATOM     30  C   UNL A   1      38.220  19.487  24.865  1.00  0.00     0.021 C 
BRANCH  30  31
ATOM     31  C   UNL A   1      39.178  19.789  26.011  1.00  0.00     0.116 C 
BRANCH  31  32
ATOM     32  N   UNL A   1      40.442  19.083  25.858  1.00  0.00    -0.352 N 
ATOM     33  C   UNL A   1      41.718  19.571  25.958  1.00  0.00     0.251 C 
ATOM     34  H   UNL A   1      40.369  18.124  25.654  1.00  0.00     0.163 HD
ATOM     35  O   UNL A   1      42.674  18.897  25.581  1.00  0.00    -0.269 OA
BRANCH  33  36
ATOM     36  C   UNL A   1      41.936  20.923  26.508  1.00  0.00     0.039 A 
ATOM     37  C   UNL A   1      41.932  21.101  27.893  1.00  0.00     0.014 A 
ATOM     38  C   UNL A   1      42.153  22.011  25.656  1.00  0.00     0.014 A 
ATOM     39  C   UNL A   1      42.204  22.361  28.425  1.00  0.00     0.010 A 
ATOM     40  C   UNL A   1      42.501  23.247  26.189  1.00  0.00     0.010 A 
ATOM     41  C   UNL A   1      42.525  23.436  27.578  1.00  0.00    -0.014 A 
BRANCH  41  42
ATOM     42  C   UNL A   1      42.888  24.766  28.129  1.00  0.00     0.031 A 
ATOM     43  C   UNL A   1      41.825  25.806  28.354  1.00  0.00     0.074 A 
ATOM     44  C   UNL A   1      44.181  25.056  28.373  1.00  0.00     0.049 A 
ATOM     45  N   UNL A   1      41.952  27.042  28.767  1.00  0.00    -0.248 NA
ATOM     46  C   UNL A   1      40.439  25.417  28.048  1.00  0.00     0.031 C 
ATOM     47  C   UNL A   1      45.307  24.147  28.154  1.00  0.00     0.029 A 
ATOM     48  N   UNL A   1      44.766  26.201  28.849  1.00  0.00    -0.354 N 
ATOM     49  C   UNL A   1      40.670  27.577  28.760  1.00  0.00     0.074 A 
ATOM     50  C   UNL A   1      39.787  26.552  28.248  1.00  0.00     0.031 C 
ATOM     51  C   UNL A   1      46.444  24.761  28.517  1.00  0.00     0.029 A 
ATOM     52  C   UNL A   1      46.134  26.119  28.953  1.00  0.00     0.049 A 
ATOM     53  H   UNL A   1      44.255  27.007  29.093  1.00  0.00     0.167 HD
ATOM     54  C   UNL A   1      40.262  28.802  29.167  1.00  0.00     0.037 A 
ATOM     55  C   UNL A   1      47.038  27.038  29.345  1.00  0.00     0.037 A 
ATOM     56  C   UNL A   1      41.143  29.812  29.694  1.00  0.00     0.049 A 
ATOM     57  C   UNL A   1      46.559  28.399  29.772  1.00  0.00     0.074 A 
ATOM     58  C   UNL A   1      40.819  31.065  30.183  1.00  0.00     0.029 A 
ATOM     59  N   UNL A   1      42.521  29.687  29.793  1.00  0.00    -0.354 N 
ATOM     60  N   UNL A   1      45.336  28.867  29.827  1.00  0.00    -0.248 NA
ATOM     61  C   UNL A   1      47.587  29.358  30.198  1.00  0.00     0.031 C 
ATOM     62  C   UNL A   1      42.006  31.719  30.528  1.00  0.00     0.029 A 
ATOM     63  C   UNL A   1      43.063  30.850  30.312  1.00  0.00     0.049 A 
ATOM     64  H   UNL A   1      43.036  28.889  29.533  1.00  0.00     0.167 HD
ATOM     65  C   UNL A   1      45.445  30.159  30.325  1.00  0.00     0.074 A 
ATOM     66  C   UNL A   1      46.852  30.396  30.569  1.00  0.00     0.031 C 
ATOM     67  C   UNL A   1      44.466  31.068  30.561  1.00  0.00     0.037 A 
BRANCH  54  68
ATOM     68  C   UNL A   1      38.799  29.120  29.062  1.00  0.00     0.057 A 
ATOM     69  C   UNL A   1      37.945  29.057  30.171  1.00  0.00     0.134 A 
ATOM     70  C   UNL A   1      38.244  29.538  27.845  1.00  0.00     0.134 A 
ATOM     71  F   UNL A   1      38.409  28.653  31.363  1.00  0.00    -0.206 F 
ATOM     72  C   UNL A   1      36.590  29.375  30.070  1.00  0.00     0.040 A 
ATOM     73  C   UNL A   1      36.897  29.887  27.738  1.00  0.00     0.040 A 
ATOM     74  F   UNL A   1      39.005  29.627  26.744  1.00  0.00    -0.206 F 
ATOM     75  C   UNL A   1      36.064  29.800  28.852  1.00  0.00     0.006 A 
ENDBRANCH  54  68
BRANCH  55  76
ATOM     76  C   UNL A   1      48.485  26.703  29.366  1.00  0.00     0.057 A 
ATOM     77  C   UNL A   1      49.313  26.998  28.277  1.00  0.00     0.134 A 
ATOM     78  C   UNL A   1      49.070  26.060  30.465  1.00  0.00     0.134 A 
ATOM     79  F   UNL A   1      48.808  27.598  27.189  1.00  0.00    -0.206 F 
ATOM     80  C   UNL A   1      50.662  26.643  28.266  1.00  0.00     0.040 A 
ATOM     81  C   UNL A   1      50.425  25.726  30.479  1.00  0.00     0.040 A 
ATOM     82  F   UNL A   1      48.334  25.757  31.543  1.00  0.00    -0.206 F 
ATOM     83  C   UNL A   1      51.223  26.008  29.372  1.00  0.00     0.006 A 
ENDBRANCH  55  76
BRANCH  67  84
ATOM     84  C   UNL A   1      44.877  32.385  31.155  1.00  0.00     0.057 A 
ATOM     85  C   UNL A   1      45.186  33.496  30.359  1.00  0.00     0.134 A 
ATOM     86  C   UNL A   1      44.923  32.553  32.544  1.00  0.00     0.134 A 
ATOM     87  F   UNL A   1      45.174  33.399  29.021  1.00  0.00    -0.206 F 
ATOM     88  C   UNL A   1      45.550  34.719  30.925  1.00  0.00     0.040 A 
ATOM     89  C   UNL A   1      45.255  33.779  33.123  1.00  0.00     0.040 A 
ATOM     90  F   UNL A   1      44.628  31.533  33.364  1.00  0.00    -0.206 F 
ATOM     91  C   UNL A   1      45.578  34.864  32.311  1.00  0.00     0.006 A 
ENDBRANCH  67  84
ENDBRANCH  41  42
ENDBRANCH  33  36
ENDBRANCH  31  32
ENDBRANCH  30  31
ENDBRANCH  29  30
ENDBRANCH   1  29
TORSDOF 20
ENDMDL
MODEL 2
REMARK VINA RESULT:     -11.0      5.048     10.203
REMARK SMILES CC(C)(C)OC(=O)[C@@H](C(=O)NCCCCCCNC(=O)c1ccc(-c2c3nc(c(-c4c(F)cccc4F)c4ccc([nH]4)c(-c4c(F)cccc4F)c4nc(c(-c5c(F)cccc5F)c5ccc2[nH]5)C=C4)C=C3)cc1)[C@@H]([NH3+])Cc1cccc(F)c1
REMARK SMILES IDX 14 1 13 2 12 3 11 4 9 5 10 6 8 8 6 9 7 10 5 11 2 12 1 13
REMARK SMILES IDX 3 14 4 15 75 16 76 17 77 21 78 22 79 23 84 24 80 25 82 26
REMARK SMILES IDX 81 27 83 28 15 29 16 30 17 31 18 32 19 33 20 35 21 36 22 37
REMARK SMILES IDX 74 38 23 39 73 40 24 41 25 42 26 43 67 44 27 45 72 46 66 47
REMARK SMILES IDX 68 48 28 49 71 50 65 51 64 52 29 54 55 55 38 56 54 57 39 58
REMARK SMILES IDX 42 59 53 60 69 61 40 62 41 63 52 65 70 66 43 67 30 68 31 69
REMARK SMILES IDX 36 70 32 71 33 72 35 73 37 74 34 75 56 76 57 77 62 78 58 79
REMARK SMILES IDX 59 80 61 81 63 82 60 83 44 84 45 85 50 86 46 87 47 88 49 89
REMARK SMILES IDX 51 90 48 91
REMARK H PARENT 11 7 76 18 76 19 76 20 18 34 68 53 42 64
REMARK Flexibility Score: inf
ROOT
ATOM      1  C   UNL A   1      32.904  30.149  27.222  1.00  0.00     0.002 C 
ENDROOT
BRANCH   1   2
ATOM      2  C   UNL A   1      32.984  28.618  27.239  1.00  0.00     0.021 C 
BRANCH   2   3
ATOM      3  C   UNL A   1      34.047  28.059  26.294  1.00  0.00     0.116 C 
BRANCH   3   4
ATOM      4  N   UNL A   1      34.080  28.877  25.098  1.00  0.00    -0.355 N 
ATOM      5  C   UNL A   1      33.525  28.571  23.887  1.00  0.00     0.240 C 
ATOM      6  O   UNL A   1      34.081  28.980  22.869  1.00  0.00    -0.274 OA
ATOM      7  H   UNL A   1      34.549  29.740  25.164  1.00  0.00     0.163 HD
BRANCH   5   8
ATOM      8  C   UNL A   1      32.245  27.756  23.870  1.00  0.00     0.246 C 
BRANCH   8   9
ATOM      9  C   UNL A   1      32.604  26.287  23.847  1.00  0.00     0.325 C 
ATOM     10  O   UNL A   1      33.743  25.884  23.642  1.00  0.00    -0.251 OA
BRANCH   9  11
ATOM     11  O   UNL A   1      31.517  25.493  24.016  1.00  0.00    -0.459 OA
BRANCH  11  12
ATOM     12  C   UNL A   1      31.281  24.801  25.272  1.00  0.00     0.104 C 
ATOM     13  C   UNL A   1      30.065  25.511  25.885  1.00  0.00     0.056 C 
ATOM     14  C   UNL A   1      32.473  24.945  26.223  1.00  0.00     0.056 C 
ATOM     15  C   UNL A   1      30.914  23.329  25.047  1.00  0.00     0.056 C 
ENDBRANCH  11  12
ENDBRANCH   9  11
ENDBRANCH   8   9
BRANCH   8  16
ATOM     16  C   UNL A   1      31.317  28.193  22.708  1.00  0.00     0.209 C 
BRANCH  16  17
ATOM     17  N   UNL A   1      31.265  27.168  21.638  1.00  0.00    -0.354 N 
ATOM     18  H   UNL A   1      30.374  27.235  21.146  1.00  0.00     0.344 HD
ATOM     19  H   UNL A   1      31.356  26.240  22.051  1.00  0.00     0.344 HD
ATOM     20  H   UNL A   1      32.028  27.323  20.980  1.00  0.00     0.344 HD
ENDBRANCH  16  17
BRANCH  16  21
ATOM     21  C   UNL A   1      29.836  28.402  23.171  1.00  0.00     0.102 C 
BRANCH  21  22
ATOM     22  C   UNL A   1      29.209  29.741  22.856  1.00  0.00    -0.039 A 
ATOM     23  C   UNL A   1      29.279  30.799  23.778  1.00  0.00     0.004 A 
ATOM     24  C   UNL A   1      28.597  29.966  21.616  1.00  0.00     0.043 A 
ATOM     25  C   UNL A   1      28.809  32.072  23.441  1.00  0.00     0.003 A 
ATOM     26  C   UNL A   1      28.116  31.234  21.299  1.00  0.00     0.123 A 
ATOM     27  C   UNL A   1      28.231  32.291  22.193  1.00  0.00     0.039 A 
ATOM     28  F   UNL A   1      27.544  31.442  20.105  1.00  0.00    -0.207 F 
ENDBRANCH  21  22
ENDBRANCH  16  21
ENDBRANCH   8  16
ENDBRANCH   5   8
ENDBRANCH   3   4
ENDBRANCH   2   3
ENDBRANCH   1   2
BRANCH   1  29
ATOM     29  C   UNL A   1      31.611  30.702  26.619  1.00  0.00     0.002 C 
BRANCH  29  30
ATOM     30  C   UNL A   1      31.478  32.223  26.706  1.00  0.00     0.021 C 
BRANCH  30  31
ATOM     31  C   UNL A   1      32.717  32.922  27.251  1.00  0.00     0.116 C 
BRANCH  31  32
ATOM     32  N   UNL A   1      32.444  34.307  27.605  1.00  0.00    -0.352 N 
ATOM     33  C   UNL A   1      32.985  35.061  28.613  1.00  0.00     0.251 C 
ATOM     34  H   UNL A   1      31.778  34.765  27.043  1.00  0.00     0.163 HD
ATOM     35  O   UNL A   1      32.486  36.141  28.919  1.00  0.00    -0.269 OA
BRANCH  33  36
ATOM     36  C   UNL A   1      34.165  34.557  29.342  1.00  0.00     0.039 A 
ATOM     37  C   UNL A   1      33.990  33.987  30.604  1.00  0.00     0.014 A 
ATOM     38  C   UNL A   1      35.440  34.640  28.774  1.00  0.00     0.014 A 
ATOM     39  C   UNL A   1      35.088  33.447  31.274  1.00  0.00     0.010 A 
ATOM     40  C   UNL A   1      36.519  34.030  29.407  1.00  0.00     0.010 A 
ATOM     41  C   UNL A   1      36.355  33.433  30.665  1.00  0.00    -0.014 A 
BRANCH  41  42
ATOM     42  C   UNL A   1      37.519  32.797  31.330  1.00  0.00     0.031 A 
ATOM     43  C   UNL A   1      38.181  31.596  30.711  1.00  0.00     0.074 A 
ATOM     44  C   UNL A   1      37.944  33.265  32.521  1.00  0.00     0.049 A 
ATOM     45  N   UNL A   1      39.166  30.867  31.170  1.00  0.00    -0.248 NA
ATOM     46  C   UNL A   1      37.647  31.137  29.419  1.00  0.00     0.031 C 
ATOM     47  C   UNL A   1      37.356  34.395  33.244  1.00  0.00     0.029 A 
ATOM     48  N   UNL A   1      38.963  32.843  33.336  1.00  0.00    -0.354 N 
ATOM     49  C   UNL A   1      39.363  29.862  30.232  1.00  0.00     0.074 A 
ATOM     50  C   UNL A   1      38.358  30.039  29.206  1.00  0.00     0.031 C 
ATOM     51  C   UNL A   1      38.039  34.590  34.383  1.00  0.00     0.029 A 
ATOM     52  C   UNL A   1      39.083  33.575  34.493  1.00  0.00     0.049 A 
ATOM     53  H   UNL A   1      39.552  32.086  33.115  1.00  0.00     0.167 HD
ATOM     54  C   UNL A   1      40.309  28.894  30.214  1.00  0.00     0.037 A 
ATOM     55  C   UNL A   1      39.931  33.439  35.530  1.00  0.00     0.037 A 
ATOM     56  C   UNL A   1      41.319  28.734  31.228  1.00  0.00     0.049 A 
ATOM     57  C   UNL A   1      40.960  32.341  35.493  1.00  0.00     0.074 A 
ATOM     58  C   UNL A   1      42.355  27.818  31.273  1.00  0.00     0.029 A 
ATOM     59  N   UNL A   1      41.414  29.503  32.378  1.00  0.00    -0.354 N 
ATOM     60  N   UNL A   1      41.179  31.441  34.565  1.00  0.00    -0.248 NA
ATOM     61  C   UNL A   1      41.865  32.244  36.647  1.00  0.00     0.031 C 
ATOM     62  C   UNL A   1      43.045  27.997  32.475  1.00  0.00     0.029 A 
ATOM     63  C   UNL A   1      42.476  29.065  33.151  1.00  0.00     0.049 A 
ATOM     64  H   UNL A   1      40.815  30.249  32.611  1.00  0.00     0.167 HD
ATOM     65  C   UNL A   1      42.265  30.697  35.006  1.00  0.00     0.074 A 
ATOM     66  C   UNL A   1      42.668  31.258  36.278  1.00  0.00     0.031 C 
ATOM     67  C   UNL A   1      42.874  29.642  34.410  1.00  0.00     0.037 A 
BRANCH  54  68
ATOM     68  C   UNL A   1      40.301  27.933  29.060  1.00  0.00     0.057 A 
ATOM     69  C   UNL A   1      39.549  26.752  29.085  1.00  0.00     0.134 A 
ATOM     70  C   UNL A   1      41.018  28.216  27.890  1.00  0.00     0.134 A 
ATOM     71  F   UNL A   1      38.848  26.415  30.178  1.00  0.00    -0.206 F 
ATOM     72  C   UNL A   1      39.529  25.875  28.000  1.00  0.00     0.040 A 
ATOM     73  C   UNL A   1      40.982  27.362  26.787  1.00  0.00     0.040 A 
ATOM     74  F   UNL A   1      41.754  29.334  27.794  1.00  0.00    -0.206 F 
ATOM     75  C   UNL A   1      40.241  26.183  26.843  1.00  0.00     0.006 A 
ENDBRANCH  54  68
BRANCH  55  76
ATOM     76  C   UNL A   1      39.858  34.370  36.685  1.00  0.00     0.057 A 
ATOM     77  C   UNL A   1      39.140  34.036  37.839  1.00  0.00     0.134 A 
ATOM     78  C   UNL A   1      40.483  35.622  36.655  1.00  0.00     0.134 A 
ATOM     79  F   UNL A   1      38.504  32.858  37.921  1.00  0.00    -0.206 F 
ATOM     80  C   UNL A   1      39.022  34.923  38.910  1.00  0.00     0.040 A 
ATOM     81  C   UNL A   1      40.398  36.508  37.731  1.00  0.00     0.040 A 
ATOM     82  F   UNL A   1      41.194  35.999  35.583  1.00  0.00    -0.206 F 
ATOM     83  C   UNL A   1      39.656  36.163  38.859  1.00  0.00     0.006 A 
ENDBRANCH  55  76
BRANCH  67  84
ATOM     84  C   UNL A   1      44.072  29.056  35.103  1.00  0.00     0.057 A 
ATOM     85  C   UNL A   1      43.954  28.043  36.063  1.00  0.00     0.134 A 
ATOM     86  C   UNL A   1      45.363  29.485  34.771  1.00  0.00     0.134 A 
ATOM     87  F   UNL A   1      42.746  27.596  36.436  1.00  0.00    -0.206 F 
ATOM     88  C   UNL A   1      45.077  27.496  36.686  1.00  0.00     0.040 A 
ATOM     89  C   UNL A   1      46.495  28.924  35.364  1.00  0.00     0.040 A 
ATOM     90  F   UNL A   1      45.548  30.444  33.851  1.00  0.00    -0.206 F 
ATOM     91  C   UNL A   1      46.353  27.931  36.331  1.00  0.00     0.006 A 
ENDBRANCH  67  84
ENDBRANCH  41  42
ENDBRANCH  33  36
ENDBRANCH  31  32
ENDBRANCH  30  31
ENDBRANCH  29  30
ENDBRANCH   1  29
TORSDOF 20
ENDMDL
MODEL 3
REMARK VINA RESULT:     -11.0      1.227      6.238
REMARK SMILES CC(C)(C)OC(=O)[C@@H](C(=O)NCCCCCCNC(=O)c1ccc(-c2c3nc(c(-c4c(F)cccc4F)c4ccc([nH]4)c(-c4c(F)cccc4F)c4nc(c(-c5c(F)cccc5F)c5ccc2[nH]5)C=C4)C=C3)cc1)[C@@H]([NH3+])Cc1cccc(F)c1
REMARK SMILES IDX 14 1 13 2 12 3 11 4 9 5 10 6 8 8 6 9 7 10 5 11 2 12 1 13
REMARK SMILES IDX 3 14 4 15 75 16 76 17 77 21 78 22 79 23 84 24 80 25 82 26
REMARK SMILES IDX 81 27 83 28 15 29 16 30 17 31 18 32 19 33 20 35 21 36 22 37
REMARK SMILES IDX 74 38 23 39 73 40 24 41 25 42 26 43 67 44 27 45 72 46 66 47
REMARK SMILES IDX 68 48 28 49 71 50 65 51 64 52 29 54 55 55 38 56 54 57 39 58
REMARK SMILES IDX 42 59 53 60 69 61 40 62 41 63 52 65 70 66 43 67 30 68 31 69
REMARK SMILES IDX 36 70 32 71 33 72 35 73 37 74 34 75 56 76 57 77 62 78 58 79
REMARK SMILES IDX 59 80 61 81 63 82 60 83 44 84 45 85 50 86 46 87 47 88 49 89
REMARK SMILES IDX 51 90 48 91
REMARK H PARENT 11 7 76 18 76 19 76 20 18 34 68 53 42 64
REMARK Flexibility Score: inf
ROOT
ATOM      1  C   UNL A   1      37.642  21.924  25.024  1.00  0.00     0.002 C 
ENDROOT
BRANCH   1   2
ATOM      2  C   UNL A   1      36.782  23.054  24.447  1.00  0.00     0.021 C 
BRANCH   2   3
ATOM      3  C   UNL A   1      36.057  23.867  25.518  1.00  0.00     0.116 C 
BRANCH   3   4
ATOM      4  N   UNL A   1      35.580  22.961  26.545  1.00  0.00    -0.355 N 
ATOM      5  C   UNL A   1      34.289  22.819  26.969  1.00  0.00     0.240 C 
ATOM      6  O   UNL A   1      34.090  22.523  28.146  1.00  0.00    -0.274 OA
ATOM      7  H   UNL A   1      36.255  22.391  26.979  1.00  0.00     0.163 HD
BRANCH   5   8
ATOM      8  C   UNL A   1      33.176  23.019  25.958  1.00  0.00     0.246 C 
BRANCH   8   9
ATOM      9  C   UNL A   1      32.288  24.149  26.429  1.00  0.00     0.325 C 
ATOM     10  O   UNL A   1      31.397  23.994  27.256  1.00  0.00    -0.251 OA
BRANCH   9  11
ATOM     11  O   UNL A   1      32.560  25.314  25.788  1.00  0.00    -0.459 OA
BRANCH  11  12
ATOM     12  C   UNL A   1      31.649  25.854  24.795  1.00  0.00     0.104 C 
ATOM     13  C   UNL A   1      30.638  26.681  25.603  1.00  0.00     0.056 C 
ATOM     14  C   UNL A   1      30.901  24.741  24.055  1.00  0.00     0.056 C 
ATOM     15  C   UNL A   1      32.366  26.796  23.820  1.00  0.00     0.056 C 
ENDBRANCH  11  12
ENDBRANCH   9  11
ENDBRANCH   8   9
BRANCH   8  16
ATOM     16  C   UNL A   1      32.415  21.694  25.692  1.00  0.00     0.209 C 
BRANCH  16  17
ATOM     17  N   UNL A   1      30.966  21.832  25.974  1.00  0.00    -0.354 N 
ATOM     18  H   UNL A   1      30.703  22.817  25.925  1.00  0.00     0.344 HD
ATOM     19  H   UNL A   1      30.765  21.472  26.906  1.00  0.00     0.344 HD
ATOM     20  H   UNL A   1      30.433  21.305  25.283  1.00  0.00     0.344 HD
ENDBRANCH  16  17
BRANCH  16  21
ATOM     21  C   UNL A   1      32.518  21.235  24.199  1.00  0.00     0.102 C 
BRANCH  21  22
ATOM     22  C   UNL A   1      32.890  19.790  23.957  1.00  0.00    -0.039 A 
ATOM     23  C   UNL A   1      32.155  19.002  23.055  1.00  0.00     0.004 A 
ATOM     24  C   UNL A   1      34.008  19.228  24.588  1.00  0.00     0.043 A 
ATOM     25  C   UNL A   1      32.569  17.705  22.738  1.00  0.00     0.003 A 
ATOM     26  C   UNL A   1      34.400  17.928  24.277  1.00  0.00     0.123 A 
ATOM     27  C   UNL A   1      33.700  17.168  23.348  1.00  0.00     0.039 A 
ATOM     28  F   UNL A   1      35.478  17.404  24.876  1.00  0.00    -0.207 F 
ENDBRANCH  21  22
ENDBRANCH  16  21
ENDBRANCH   8  16
ENDBRANCH   5   8
ENDBRANCH   3   4
ENDBRANCH   2   3
ENDBRANCH   1   2
BRANCH   1  29
ATOM     29  C   UNL A   1      37.197  20.521  24.603  1.00  0.00     0.002 C 
BRANCH  29  30
ATOM     30  C   UNL A   1      38.167  19.409  25.004  1.00  0.00     0.021 C 
BRANCH  30  31
ATOM     31  C   UNL A   1      39.307  19.875  25.902  1.00  0.00     0.116 C 
BRANCH  31  32
ATOM     32  N   UNL A   1      40.381  18.895  25.964  1.00  0.00    -0.352 N 
ATOM     33  C   UNL A   1      41.731  19.103  26.076  1.00  0.00     0.251 C 
ATOM     34  H   UNL A   1      40.099  17.953  25.919  1.00  0.00     0.163 HD
ATOM     35  O   UNL A   1      42.520  18.180  25.889  1.00  0.00    -0.269 OA
BRANCH  33  36
ATOM     36  C   UNL A   1      42.231  20.451  26.406  1.00  0.00     0.039 A 
ATOM     37  C   UNL A   1      42.650  21.291  25.372  1.00  0.00     0.014 A 
ATOM     38  C   UNL A   1      42.278  20.886  27.734  1.00  0.00     0.014 A 
ATOM     39  C   UNL A   1      43.062  22.591  25.667  1.00  0.00     0.010 A 
ATOM     40  C   UNL A   1      42.613  22.206  28.017  1.00  0.00     0.010 A 
ATOM     41  C   UNL A   1      43.013  23.070  26.987  1.00  0.00    -0.014 A 
BRANCH  41  42
ATOM     42  C   UNL A   1      43.378  24.472  27.309  1.00  0.00     0.031 A 
ATOM     43  C   UNL A   1      44.816  24.910  27.256  1.00  0.00     0.074 A 
ATOM     44  C   UNL A   1      42.422  25.336  27.705  1.00  0.00     0.049 A 
ATOM     45  N   UNL A   1      45.338  26.071  27.561  1.00  0.00    -0.248 NA
ATOM     46  C   UNL A   1      45.802  23.904  26.831  1.00  0.00     0.031 C 
ATOM     47  C   UNL A   1      40.999  25.019  27.839  1.00  0.00     0.029 A 
ATOM     48  N   UNL A   1      42.505  26.654  28.076  1.00  0.00    -0.354 N 
ATOM     49  C   UNL A   1      46.707  25.931  27.375  1.00  0.00     0.074 A 
ATOM     50  C   UNL A   1      46.943  24.558  26.986  1.00  0.00     0.031 C 
ATOM     51  C   UNL A   1      40.340  26.118  28.239  1.00  0.00     0.029 A 
ATOM     52  C   UNL A   1      41.296  27.203  28.432  1.00  0.00     0.049 A 
ATOM     53  H   UNL A   1      43.350  27.159  28.087  1.00  0.00     0.167 HD
ATOM     54  C   UNL A   1      47.678  26.867  27.493  1.00  0.00     0.037 A 
ATOM     55  C   UNL A   1      40.994  28.439  28.874  1.00  0.00     0.037 A 
ATOM     56  C   UNL A   1      47.436  28.238  27.862  1.00  0.00     0.049 A 
ATOM     57  C   UNL A   1      42.095  29.454  29.016  1.00  0.00     0.074 A 
ATOM     58  C   UNL A   1      48.346  29.277  27.957  1.00  0.00     0.029 A 
ATOM     59  N   UNL A   1      46.197  28.759  28.204  1.00  0.00    -0.354 N 
ATOM     60  N   UNL A   1      43.377  29.327  28.768  1.00  0.00    -0.248 NA
ATOM     61  C   UNL A   1      41.707  30.789  29.493  1.00  0.00     0.031 C 
ATOM     62  C   UNL A   1      47.667  30.412  28.408  1.00  0.00     0.029 A 
ATOM     63  C   UNL A   1      46.324  30.097  28.535  1.00  0.00     0.049 A 
ATOM     64  H   UNL A   1      45.353  28.251  28.211  1.00  0.00     0.167 HD
ATOM     65  C   UNL A   1      43.939  30.570  29.025  1.00  0.00     0.074 A 
ATOM     66  C   UNL A   1      42.858  31.441  29.436  1.00  0.00     0.031 C 
ATOM     67  C   UNL A   1      45.236  30.956  28.930  1.00  0.00     0.037 A 
BRANCH  54  68
ATOM     68  C   UNL A   1      49.092  26.444  27.218  1.00  0.00     0.057 A 
ATOM     69  C   UNL A   1      49.943  25.996  28.237  1.00  0.00     0.134 A 
ATOM     70  C   UNL A   1      49.595  26.439  25.910  1.00  0.00     0.134 A 
ATOM     71  F   UNL A   1      49.528  25.984  29.513  1.00  0.00    -0.206 F 
ATOM     72  C   UNL A   1      51.249  25.582  27.970  1.00  0.00     0.040 A 
ATOM     73  C   UNL A   1      50.889  26.001  25.627  1.00  0.00     0.040 A 
ATOM     74  F   UNL A   1      48.833  26.849  24.885  1.00  0.00    -0.206 F 
ATOM     75  C   UNL A   1      51.723  25.576  26.660  1.00  0.00     0.006 A 
ENDBRANCH  54  68
BRANCH  55  76
ATOM     76  C   UNL A   1      39.590  28.794  29.201  1.00  0.00     0.057 A 
ATOM     77  C   UNL A   1      39.083  28.624  30.495  1.00  0.00     0.134 A 
ATOM     78  C   UNL A   1      38.715  29.291  28.227  1.00  0.00     0.134 A 
ATOM     79  F   UNL A   1      39.867  28.136  31.468  1.00  0.00    -0.206 F 
ATOM     80  C   UNL A   1      37.751  28.907  30.803  1.00  0.00     0.040 A 
ATOM     81  C   UNL A   1      37.388  29.606  28.528  1.00  0.00     0.040 A 
ATOM     82  F   UNL A   1      39.140  29.486  26.971  1.00  0.00    -0.206 F 
ATOM     83  C   UNL A   1      36.901  29.404  29.818  1.00  0.00     0.006 A 
ENDBRANCH  55  76
BRANCH  67  84
ATOM     84  C   UNL A   1      45.551  32.394  29.228  1.00  0.00     0.057 A 
ATOM     85  C   UNL A   1      45.937  32.822  30.505  1.00  0.00     0.134 A 
ATOM     86  C   UNL A   1      45.507  33.356  28.211  1.00  0.00     0.134 A 
ATOM     87  F   UNL A   1      45.987  31.955  31.527  1.00  0.00    -0.206 F 
ATOM     88  C   UNL A   1      46.243  34.159  30.764  1.00  0.00     0.040 A 
ATOM     89  C   UNL A   1      45.841  34.689  28.450  1.00  0.00     0.040 A 
ATOM     90  F   UNL A   1      45.156  33.011  26.962  1.00  0.00    -0.206 F 
ATOM     91  C   UNL A   1      46.203  35.096  29.732  1.00  0.00     0.006 A 
ENDBRANCH  67  84
ENDBRANCH  41  42
ENDBRANCH  33  36
ENDBRANCH  31  32
ENDBRANCH  30  31
ENDBRANCH  29  30
ENDBRANCH   1  29
TORSDOF 20
ENDMDL
