MODEL 1
REMARK VINA RESULT:     -10.8      0.000      0.000
REMARK SMILES CC(C)C[C@H](NC(N)=O)C(=O)N[C@@H](C(=O)NCCCCCCNC(=O)c1ccc(-c2c3nc(c(-c4c(F)cccc4F)c4ccc([nH]4)c(-c4c(F)cccc4F)c4nc(c(-c5c(F)cccc5F)c5ccc2[nH]5)C=C4)C=C3)cc1)C(C)C
REMARK SMILES IDX 18 1 17 2 16 3 14 4 15 5 13 7 12 8 10 9 11 10 5 12 4 13 2 14
REMARK SMILES IDX 1 15 3 16 6 17 7 18 8 20 9 21 80 24 81 25 82 26 19 27 20 28
REMARK SMILES IDX 21 29 22 30 23 31 24 32 25 34 26 35 27 36 79 37 28 38 78 39
REMARK SMILES IDX 29 40 30 41 31 42 72 43 32 44 77 45 71 46 73 47 33 48 76 49
REMARK SMILES IDX 70 50 69 51 34 53 60 54 43 55 59 56 44 57 47 58 58 59 74 60
REMARK SMILES IDX 45 61 46 62 57 64 75 65 48 66 35 67 36 68 41 69 37 70 38 71
REMARK SMILES IDX 40 72 42 73 39 74 61 75 62 76 67 77 63 78 64 79 66 80 68 81
REMARK SMILES IDX 65 82 49 83 50 84 55 85 51 86 52 87 54 88 56 89 53 90
REMARK H PARENT 16 6 12 11 6 19 8 22 8 23 23 33 73 52 47 63
REMARK Flexibility Score: inf
ROOT
ATOM      1  C   UNL A   1      37.409  22.993  25.283  1.00  0.00     0.021 C 
ENDROOT
BRANCH   1   2
ATOM      2  C   UNL A   1      36.183  23.649  25.897  1.00  0.00     0.116 C 
BRANCH   2   3
ATOM      3  N   UNL A   1      35.501  22.792  26.829  1.00  0.00    -0.354 N 
ATOM      4  C   UNL A   1      34.206  22.384  26.896  1.00  0.00     0.242 C 
ATOM      5  O   UNL A   1      33.970  21.578  27.802  1.00  0.00    -0.273 OA
ATOM      6  H   UNL A   1      36.074  22.439  27.547  1.00  0.00     0.163 HD
BRANCH   4   7
ATOM      7  C   UNL A   1      33.122  22.780  25.823  1.00  0.00     0.173 C 
BRANCH   7   8
ATOM      8  N   UNL A   1      31.791  22.830  26.445  1.00  0.00    -0.342 N 
ATOM      9  C   UNL A   1      30.843  23.809  26.526  1.00  0.00     0.243 C 
ATOM     10  O   UNL A   1      29.909  23.598  27.309  1.00  0.00    -0.273 OA
ATOM     11  H   UNL A   1      31.531  21.991  26.892  1.00  0.00     0.164 HD
BRANCH   9  12
ATOM     12  C   UNL A   1      30.881  25.132  25.708  1.00  0.00     0.173 C 
BRANCH  12  13
ATOM     13  C   UNL A   1      31.659  26.238  26.435  1.00  0.00     0.038 C 
BRANCH  13  14
ATOM     14  C   UNL A   1      33.138  26.376  26.012  1.00  0.00    -0.015 C 
ATOM     15  C   UNL A   1      33.356  26.123  24.518  1.00  0.00     0.007 C 
ATOM     16  C   UNL A   1      33.650  27.772  26.371  1.00  0.00     0.007 C 
ENDBRANCH  13  14
ENDBRANCH  12  13
BRANCH  12  17
ATOM     17  N   UNL A   1      29.543  25.530  25.261  1.00  0.00    -0.327 N 
ATOM     18  C   UNL A   1      29.287  26.215  24.114  1.00  0.00     0.312 C 
ATOM     19  H   UNL A   1      28.777  25.285  25.830  1.00  0.00     0.166 HD
ATOM     20  N   UNL A   1      27.958  26.375  23.897  1.00  0.00    -0.352 N 
ATOM     21  O   UNL A   1      30.112  26.649  23.330  1.00  0.00    -0.249 OA
ATOM     22  H   UNL A   1      27.307  26.015  24.542  1.00  0.00     0.161 HD
ATOM     23  H   UNL A   1      27.645  26.850  23.094  1.00  0.00     0.161 HD
ENDBRANCH  12  17
ENDBRANCH   9  12
ENDBRANCH   7   8
BRANCH   7  24
ATOM     24  C   UNL A   1      33.190  21.720  24.674  1.00  0.00     0.015 C 
ATOM     25  C   UNL A   1      32.414  20.428  24.921  1.00  0.00     0.010 C 
ATOM     26  C   UNL A   1      32.704  22.324  23.347  1.00  0.00     0.010 C 
ENDBRANCH   7  24
ENDBRANCH   4   7
ENDBRANCH   2   3
ENDBRANCH   1   2
BRANCH   1  27
ATOM     27  C   UNL A   1      37.095  21.952  24.212  1.00  0.00     0.002 C 
BRANCH  27  28
ATOM     28  C   UNL A   1      36.825  20.538  24.738  1.00  0.00     0.002 C 
BRANCH  28  29
ATOM     29  C   UNL A   1      38.043  19.610  24.791  1.00  0.00     0.021 C 
BRANCH  29  30
ATOM     30  C   UNL A   1      38.978  19.835  25.976  1.00  0.00     0.116 C 
BRANCH  30  31
ATOM     31  N   UNL A   1      40.215  19.088  25.849  1.00  0.00    -0.352 N 
ATOM     32  C   UNL A   1      41.510  19.508  25.999  1.00  0.00     0.251 C 
ATOM     33  H   UNL A   1      40.108  18.137  25.621  1.00  0.00     0.163 HD
ATOM     34  O   UNL A   1      42.434  18.764  25.685  1.00  0.00    -0.269 OA
BRANCH  32  35
ATOM     35  C   UNL A   1      41.801  20.859  26.522  1.00  0.00     0.039 A 
ATOM     36  C   UNL A   1      41.717  21.073  27.900  1.00  0.00     0.014 A 
ATOM     37  C   UNL A   1      42.110  21.920  25.664  1.00  0.00     0.014 A 
ATOM     38  C   UNL A   1      41.979  22.340  28.422  1.00  0.00     0.010 A 
ATOM     39  C   UNL A   1      42.435  23.168  26.191  1.00  0.00     0.010 A 
ATOM     40  C   UNL A   1      42.357  23.393  27.573  1.00  0.00    -0.014 A 
BRANCH  40  41
ATOM     41  C   UNL A   1      42.644  24.741  28.120  1.00  0.00     0.031 A 
ATOM     42  C   UNL A   1      44.043  25.106  28.534  1.00  0.00     0.074 A 
ATOM     43  C   UNL A   1      41.640  25.623  28.279  1.00  0.00     0.049 A 
ATOM     44  N   UNL A   1      44.487  26.222  29.055  1.00  0.00    -0.248 NA
ATOM     45  C   UNL A   1      45.076  24.072  28.364  1.00  0.00     0.031 C 
ATOM     46  C   UNL A   1      40.233  25.370  27.960  1.00  0.00     0.029 A 
ATOM     47  N   UNL A   1      41.648  26.910  28.753  1.00  0.00    -0.354 N 
ATOM     48  C   UNL A   1      45.841  26.018  29.287  1.00  0.00     0.074 A 
ATOM     49  C   UNL A   1      46.137  24.656  28.899  1.00  0.00     0.031 C 
ATOM     50  C   UNL A   1      39.518  26.475  28.225  1.00  0.00     0.029 A 
ATOM     51  C   UNL A   1      40.408  27.502  28.756  1.00  0.00     0.049 A 
ATOM     52  H   UNL A   1      42.463  27.365  29.062  1.00  0.00     0.167 HD
ATOM     53  C   UNL A   1      46.761  26.894  29.758  1.00  0.00     0.037 A 
ATOM     54  C   UNL A   1      40.035  28.737  29.142  1.00  0.00     0.037 A 
ATOM     55  C   UNL A   1      46.470  28.257  30.116  1.00  0.00     0.049 A 
ATOM     56  C   UNL A   1      41.077  29.696  29.644  1.00  0.00     0.074 A 
ATOM     57  C   UNL A   1      47.342  29.241  30.548  1.00  0.00     0.029 A 
ATOM     58  N   UNL A   1      45.207  28.828  30.082  1.00  0.00    -0.354 N 
ATOM     59  N   UNL A   1      42.366  29.512  29.794  1.00  0.00    -0.248 NA
ATOM     60  C   UNL A   1      40.613  31.038  30.022  1.00  0.00     0.031 C 
ATOM     61  C   UNL A   1      46.600  30.398  30.808  1.00  0.00     0.029 A 
ATOM     62  C   UNL A   1      45.273  30.147  30.498  1.00  0.00     0.049 A 
ATOM     63  H   UNL A   1      44.384  28.365  29.802  1.00  0.00     0.167 HD
ATOM     64  C   UNL A   1      42.872  30.720  30.256  1.00  0.00     0.074 A 
ATOM     65  C   UNL A   1      41.751  31.634  30.348  1.00  0.00     0.031 C 
ATOM     66  C   UNL A   1      44.148  31.045  30.575  1.00  0.00     0.037 A 
BRANCH  53  67
ATOM     67  C   UNL A   1      48.171  26.402  29.905  1.00  0.00     0.057 A 
ATOM     68  C   UNL A   1      49.101  26.508  28.863  1.00  0.00     0.134 A 
ATOM     69  C   UNL A   1      48.611  25.838  31.109  1.00  0.00     0.134 A 
ATOM     70  F   UNL A   1      48.740  27.026  27.680  1.00  0.00    -0.206 F 
ATOM     71  C   UNL A   1      50.411  26.047  29.004  1.00  0.00     0.040 A 
ATOM     72  C   UNL A   1      49.927  25.398  31.271  1.00  0.00     0.040 A 
ATOM     73  F   UNL A   1      47.774  25.712  32.150  1.00  0.00    -0.206 F 
ATOM     74  C   UNL A   1      50.828  25.495  30.214  1.00  0.00     0.006 A 
ENDBRANCH  53  67
BRANCH  54  75
ATOM     75  C   UNL A   1      38.614  29.150  29.032  1.00  0.00     0.057 A 
ATOM     76  C   UNL A   1      37.761  29.097  30.140  1.00  0.00     0.134 A 
ATOM     77  C   UNL A   1      38.074  29.601  27.822  1.00  0.00     0.134 A 
ATOM     78  F   UNL A   1      38.217  28.658  31.322  1.00  0.00    -0.206 F 
ATOM     79  C   UNL A   1      36.417  29.461  30.046  1.00  0.00     0.040 A 
ATOM     80  C   UNL A   1      36.738  29.989  27.719  1.00  0.00     0.040 A 
ATOM     81  F   UNL A   1      38.843  29.683  26.726  1.00  0.00    -0.206 F 
ATOM     82  C   UNL A   1      35.903  29.913  28.831  1.00  0.00     0.006 A 
ENDBRANCH  54  75
BRANCH  66  83
ATOM     83  C   UNL A   1      44.405  32.454  31.018  1.00  0.00     0.057 A 
ATOM     84  C   UNL A   1      44.678  33.478  30.102  1.00  0.00     0.134 A 
ATOM     85  C   UNL A   1      44.345  32.797  32.374  1.00  0.00     0.134 A 
ATOM     86  F   UNL A   1      44.762  33.211  28.789  1.00  0.00    -0.206 F 
ATOM     87  C   UNL A   1      44.910  34.788  30.522  1.00  0.00     0.040 A 
ATOM     88  C   UNL A   1      44.549  34.108  32.805  1.00  0.00     0.040 A 
ATOM     89  F   UNL A   1      44.079  31.864  33.301  1.00  0.00    -0.206 F 
ATOM     90  C   UNL A   1      44.839  35.107  31.878  1.00  0.00     0.006 A 
ENDBRANCH  66  83
ENDBRANCH  40  41
ENDBRANCH  32  35
ENDBRANCH  30  31
ENDBRANCH  29  30
ENDBRANCH  28  29
ENDBRANCH  27  28
ENDBRANCH   1  27
TORSDOF 19
ENDMDL
MODEL 2
REMARK VINA RESULT:     -10.8      0.200      1.363
REMARK SMILES CC(C)C[C@H](NC(N)=O)C(=O)N[C@@H](C(=O)NCCCCCCNC(=O)c1ccc(-c2c3nc(c(-c4c(F)cccc4F)c4ccc([nH]4)c(-c4c(F)cccc4F)c4nc(c(-c5c(F)cccc5F)c5ccc2[nH]5)C=C4)C=C3)cc1)C(C)C
REMARK SMILES IDX 18 1 17 2 16 3 14 4 15 5 13 7 12 8 10 9 11 10 5 12 4 13 2 14
REMARK SMILES IDX 1 15 3 16 6 17 7 18 8 20 9 21 80 24 81 25 82 26 19 27 20 28
REMARK SMILES IDX 21 29 22 30 23 31 24 32 25 34 26 35 27 36 79 37 28 38 78 39
REMARK SMILES IDX 29 40 30 41 31 42 72 43 32 44 77 45 71 46 73 47 33 48 76 49
REMARK SMILES IDX 70 50 69 51 34 53 60 54 43 55 59 56 44 57 47 58 58 59 74 60
REMARK SMILES IDX 45 61 46 62 57 64 75 65 48 66 35 67 36 68 41 69 37 70 38 71
REMARK SMILES IDX 40 72 42 73 39 74 61 75 62 76 67 77 63 78 64 79 66 80 68 81
REMARK SMILES IDX 65 82 49 83 50 84 55 85 51 86 52 87 54 88 56 89 53 90
REMARK H PARENT 16 6 12 11 6 19 8 22 8 23 23 33 73 52 47 63
REMARK Flexibility Score: inf
ROOT
ATOM      1  C   UNL A   1      37.440  22.973  25.157  1.00  0.00     0.021 C 
ENDROOT
BRANCH   1   2
ATOM      2  C   UNL A   1      36.313  23.730  25.840  1.00  0.00     0.116 C 
BRANCH   2   3
ATOM      3  N   UNL A   1      35.622  22.936  26.821  1.00  0.00    -0.354 N 
ATOM      4  C   UNL A   1      34.321  22.555  26.916  1.00  0.00     0.242 C 
ATOM      5  O   UNL A   1      34.077  21.803  27.866  1.00  0.00    -0.273 OA
ATOM      6  H   UNL A   1      36.194  22.612  27.553  1.00  0.00     0.163 HD
BRANCH   4   7
ATOM      7  C   UNL A   1      33.237  22.912  25.831  1.00  0.00     0.173 C 
BRANCH   7   8
ATOM      8  N   UNL A   1      31.897  22.913  26.436  1.00  0.00    -0.342 N 
ATOM      9  C   UNL A   1      30.916  23.860  26.513  1.00  0.00     0.243 C 
ATOM     10  O   UNL A   1      29.980  23.611  27.282  1.00  0.00    -0.273 OA
ATOM     11  H   UNL A   1      31.659  22.062  26.872  1.00  0.00     0.164 HD
BRANCH   9  12
ATOM     12  C   UNL A   1      30.922  25.190  25.708  1.00  0.00     0.173 C 
BRANCH  12  13
ATOM     13  C   UNL A   1      31.672  26.309  26.445  1.00  0.00     0.038 C 
BRANCH  13  14
ATOM     14  C   UNL A   1      32.710  27.067  25.588  1.00  0.00    -0.015 C 
ATOM     15  C   UNL A   1      33.814  27.716  26.428  1.00  0.00     0.007 C 
ATOM     16  C   UNL A   1      33.339  26.112  24.572  1.00  0.00     0.007 C 
ENDBRANCH  13  14
ENDBRANCH  12  13
BRANCH  12  17
ATOM     17  N   UNL A   1      29.573  25.560  25.265  1.00  0.00    -0.327 N 
ATOM     18  C   UNL A   1      29.298  26.211  24.103  1.00  0.00     0.312 C 
ATOM     19  H   UNL A   1      28.817  25.320  25.847  1.00  0.00     0.166 HD
ATOM     20  N   UNL A   1      27.965  26.348  23.895  1.00  0.00    -0.352 N 
ATOM     21  O   UNL A   1      30.109  26.636  23.300  1.00  0.00    -0.249 OA
ATOM     22  H   UNL A   1      27.325  25.997  24.557  1.00  0.00     0.161 HD
ATOM     23  H   UNL A   1      27.637  26.799  23.084  1.00  0.00     0.161 HD
ENDBRANCH  12  17
ENDBRANCH   9  12
ENDBRANCH   7   8
BRANCH   7  24
ATOM     24  C   UNL A   1      33.358  21.856  24.682  1.00  0.00     0.015 C 
ATOM     25  C   UNL A   1      32.241  20.816  24.621  1.00  0.00     0.010 C 
ATOM     26  C   UNL A   1      33.441  22.550  23.313  1.00  0.00     0.010 C 
ENDBRANCH   7  24
ENDBRANCH   4   7
ENDBRANCH   2   3
ENDBRANCH   1   2
BRANCH   1  27
ATOM     27  C   UNL A   1      36.972  21.852  24.231  1.00  0.00     0.002 C 
BRANCH  27  28
ATOM     28  C   UNL A   1      36.947  20.455  24.862  1.00  0.00     0.002 C 
BRANCH  28  29
ATOM     29  C   UNL A   1      38.261  19.673  24.786  1.00  0.00     0.021 C 
BRANCH  29  30
ATOM     30  C   UNL A   1      39.167  19.808  26.007  1.00  0.00     0.116 C 
BRANCH  30  31
ATOM     31  N   UNL A   1      40.417  19.089  25.846  1.00  0.00    -0.352 N 
ATOM     32  C   UNL A   1      41.706  19.537  25.969  1.00  0.00     0.251 C 
ATOM     33  H   UNL A   1      40.326  18.137  25.614  1.00  0.00     0.163 HD
ATOM     34  O   UNL A   1      42.639  18.816  25.628  1.00  0.00    -0.269 OA
BRANCH  32  35
ATOM     35  C   UNL A   1      41.978  20.891  26.495  1.00  0.00     0.039 A 
ATOM     36  C   UNL A   1      41.909  21.096  27.876  1.00  0.00     0.014 A 
ATOM     37  C   UNL A   1      42.257  21.961  25.640  1.00  0.00     0.014 A 
ATOM     38  C   UNL A   1      42.154  22.365  28.401  1.00  0.00     0.010 A 
ATOM     39  C   UNL A   1      42.566  23.212  26.169  1.00  0.00     0.010 A 
ATOM     40  C   UNL A   1      42.502  23.429  27.553  1.00  0.00    -0.014 A 
BRANCH  40  41
ATOM     41  C   UNL A   1      42.771  24.779  28.103  1.00  0.00     0.031 A 
ATOM     42  C   UNL A   1      44.167  25.165  28.510  1.00  0.00     0.074 A 
ATOM     43  C   UNL A   1      41.755  25.645  28.272  1.00  0.00     0.049 A 
ATOM     44  N   UNL A   1      44.597  26.285  29.032  1.00  0.00    -0.248 NA
ATOM     45  C   UNL A   1      45.215  24.147  28.329  1.00  0.00     0.031 C 
ATOM     46  C   UNL A   1      40.350  25.370  27.962  1.00  0.00     0.029 A 
ATOM     47  N   UNL A   1      41.745  26.929  28.751  1.00  0.00    -0.354 N 
ATOM     48  C   UNL A   1      45.955  26.102  29.255  1.00  0.00     0.074 A 
ATOM     49  C   UNL A   1      46.270  24.746  28.859  1.00  0.00     0.031 C 
ATOM     50  C   UNL A   1      39.619  26.463  28.235  1.00  0.00     0.029 A 
ATOM     51  C   UNL A   1      40.497  27.503  28.765  1.00  0.00     0.049 A 
ATOM     52  H   UNL A   1      42.555  27.397  29.057  1.00  0.00     0.167 HD
ATOM     53  C   UNL A   1      46.864  26.991  29.723  1.00  0.00     0.037 A 
ATOM     54  C   UNL A   1      40.106  28.729  29.157  1.00  0.00     0.037 A 
ATOM     55  C   UNL A   1      46.554  28.347  30.088  1.00  0.00     0.049 A 
ATOM     56  C   UNL A   1      41.137  29.702  29.657  1.00  0.00     0.074 A 
ATOM     57  C   UNL A   1      47.413  29.343  30.518  1.00  0.00     0.029 A 
ATOM     58  N   UNL A   1      45.282  28.898  30.064  1.00  0.00    -0.354 N 
ATOM     59  N   UNL A   1      42.430  29.538  29.798  1.00  0.00    -0.248 NA
ATOM     60  C   UNL A   1      40.654  31.036  30.043  1.00  0.00     0.031 C 
ATOM     61  C   UNL A   1      46.655  30.488  30.787  1.00  0.00     0.029 A 
ATOM     62  C   UNL A   1      45.330  30.217  30.485  1.00  0.00     0.049 A 
ATOM     63  H   UNL A   1      44.465  28.423  29.788  1.00  0.00     0.167 HD
ATOM     64  C   UNL A   1      42.919  30.752  30.261  1.00  0.00     0.074 A 
ATOM     65  C   UNL A   1      41.785  31.649  30.364  1.00  0.00     0.031 C 
ATOM     66  C   UNL A   1      44.192  31.097  30.573  1.00  0.00     0.037 A 
BRANCH  53  67
ATOM     67  C   UNL A   1      48.283  26.520  29.859  1.00  0.00     0.057 A 
ATOM     68  C   UNL A   1      49.227  26.719  28.843  1.00  0.00     0.134 A 
ATOM     69  C   UNL A   1      48.717  25.883  31.028  1.00  0.00     0.134 A 
ATOM     70  F   UNL A   1      48.872  27.311  27.693  1.00  0.00    -0.206 F 
ATOM     71  C   UNL A   1      50.544  26.278  28.973  1.00  0.00     0.040 A 
ATOM     72  C   UNL A   1      50.040  25.461  31.181  1.00  0.00     0.040 A 
ATOM     73  F   UNL A   1      47.867  25.665  32.043  1.00  0.00    -0.206 F 
ATOM     74  C   UNL A   1      50.955  25.652  30.148  1.00  0.00     0.006 A 
ENDBRANCH  53  67
BRANCH  54  75
ATOM     75  C   UNL A   1      38.679  29.120  29.058  1.00  0.00     0.057 A 
ATOM     76  C   UNL A   1      38.130  29.543  27.842  1.00  0.00     0.134 A 
ATOM     77  C   UNL A   1      37.831  29.085  30.172  1.00  0.00     0.134 A 
ATOM     78  F   UNL A   1      38.897  29.612  26.745  1.00  0.00    -0.206 F 
ATOM     79  C   UNL A   1      36.795  29.935  27.740  1.00  0.00     0.040 A 
ATOM     80  C   UNL A   1      36.488  29.453  30.079  1.00  0.00     0.040 A 
ATOM     81  F   UNL A   1      38.295  28.680  31.363  1.00  0.00    -0.206 F 
ATOM     82  C   UNL A   1      35.968  29.886  28.861  1.00  0.00     0.006 A 
ENDBRANCH  54  75
BRANCH  66  83
ATOM     83  C   UNL A   1      44.429  32.508  31.019  1.00  0.00     0.057 A 
ATOM     84  C   UNL A   1      44.404  32.870  32.372  1.00  0.00     0.134 A 
ATOM     85  C   UNL A   1      44.718  33.511  30.086  1.00  0.00     0.134 A 
ATOM     86  F   UNL A   1      44.120  31.957  33.315  1.00  0.00    -0.206 F 
ATOM     87  C   UNL A   1      44.632  34.185  32.779  1.00  0.00     0.040 A 
ATOM     88  C   UNL A   1      44.973  34.824  30.481  1.00  0.00     0.040 A 
ATOM     89  F   UNL A   1      44.767  33.228  28.775  1.00  0.00    -0.206 F 
ATOM     90  C   UNL A   1      44.924  35.166  31.831  1.00  0.00     0.006 A 
ENDBRANCH  66  83
ENDBRANCH  40  41
ENDBRANCH  32  35
ENDBRANCH  30  31
ENDBRANCH  29  30
ENDBRANCH  28  29
ENDBRANCH  27  28
ENDBRANCH   1  27
TORSDOF 19
ENDMDL
MODEL 3
REMARK VINA RESULT:     -10.6      4.240      9.249
REMARK SMILES CC(C)C[C@H](NC(N)=O)C(=O)N[C@@H](C(=O)NCCCCCCNC(=O)c1ccc(-c2c3nc(c(-c4c(F)cccc4F)c4ccc([nH]4)c(-c4c(F)cccc4F)c4nc(c(-c5c(F)cccc5F)c5ccc2[nH]5)C=C4)C=C3)cc1)C(C)C
REMARK SMILES IDX 18 1 17 2 16 3 14 4 15 5 13 7 12 8 10 9 11 10 5 12 4 13 2 14
REMARK SMILES IDX 1 15 3 16 6 17 7 18 8 20 9 21 80 24 81 25 82 26 19 27 20 28
REMARK SMILES IDX 21 29 22 30 23 31 24 32 25 34 26 35 27 36 79 37 28 38 78 39
REMARK SMILES IDX 29 40 30 41 31 42 72 43 32 44 77 45 71 46 73 47 33 48 76 49
REMARK SMILES IDX 70 50 69 51 34 53 60 54 43 55 59 56 44 57 47 58 58 59 74 60
REMARK SMILES IDX 45 61 46 62 57 64 75 65 48 66 35 67 36 68 41 69 37 70 38 71
REMARK SMILES IDX 40 72 42 73 39 74 61 75 62 76 67 77 63 78 64 79 66 80 68 81
REMARK SMILES IDX 65 82 49 83 50 84 55 85 51 86 52 87 54 88 56 89 53 90
REMARK H PARENT 16 6 12 11 6 19 8 22 8 23 23 33 73 52 47 63
REMARK Flexibility Score: inf
ROOT
ATOM      1  C   UNL A   1      33.606  29.445  27.189  1.00  0.00     0.021 C 
ENDROOT
BRANCH   1   2
ATOM      2  C   UNL A   1      34.078  28.413  26.178  1.00  0.00     0.116 C 
BRANCH   2   3
ATOM      3  N   UNL A   1      34.136  28.933  24.838  1.00  0.00    -0.354 N 
ATOM      4  C   UNL A   1      33.583  28.492  23.677  1.00  0.00     0.242 C 
ATOM      5  O   UNL A   1      33.780  29.229  22.705  1.00  0.00    -0.273 OA
ATOM      6  H   UNL A   1      34.672  29.753  24.746  1.00  0.00     0.163 HD
BRANCH   4   7
ATOM      7  C   UNL A   1      32.643  27.230  23.595  1.00  0.00     0.173 C 
BRANCH   7   8
ATOM      8  N   UNL A   1      32.679  26.660  22.240  1.00  0.00    -0.342 N 
ATOM      9  C   UNL A   1      33.000  25.421  21.765  1.00  0.00     0.243 C 
ATOM     10  O   UNL A   1      33.133  25.326  20.539  1.00  0.00    -0.273 OA
ATOM     11  H   UNL A   1      32.422  27.299  21.536  1.00  0.00     0.164 HD
BRANCH   9  12
ATOM     12  C   UNL A   1      33.199  24.166  22.662  1.00  0.00     0.173 C 
BRANCH  12  13
ATOM     13  C   UNL A   1      34.623  24.082  23.230  1.00  0.00     0.038 C 
BRANCH  13  14
ATOM     14  C   UNL A   1      34.706  23.669  24.716  1.00  0.00    -0.015 C 
ATOM     15  C   UNL A   1      36.146  23.536  25.217  1.00  0.00     0.007 C 
ATOM     16  C   UNL A   1      33.959  24.689  25.577  1.00  0.00     0.007 C 
ENDBRANCH  13  14
ENDBRANCH  12  13
BRANCH  12  17
ATOM     17  N   UNL A   1      32.744  22.944  21.991  1.00  0.00    -0.327 N 
ATOM     18  C   UNL A   1      32.135  21.904  22.620  1.00  0.00     0.312 C 
ATOM     19  H   UNL A   1      32.889  22.872  21.020  1.00  0.00     0.166 HD
ATOM     20  N   UNL A   1      31.736  20.941  21.752  1.00  0.00    -0.352 N 
ATOM     21  O   UNL A   1      31.934  21.797  23.817  1.00  0.00    -0.249 OA
ATOM     22  H   UNL A   1      31.908  21.046  20.788  1.00  0.00     0.161 HD
ATOM     23  H   UNL A   1      31.276  20.137  22.085  1.00  0.00     0.161 HD
ENDBRANCH  12  17
ENDBRANCH   9  12
ENDBRANCH   7   8
BRANCH   7  24
ATOM     24  C   UNL A   1      31.203  27.691  23.996  1.00  0.00     0.015 C 
ATOM     25  C   UNL A   1      30.205  27.816  22.846  1.00  0.00     0.010 C 
ATOM     26  C   UNL A   1      30.603  26.746  25.050  1.00  0.00     0.010 C 
ENDBRANCH   7  24
ENDBRANCH   4   7
ENDBRANCH   2   3
ENDBRANCH   1   2
BRANCH   1  27
ATOM     27  C   UNL A   1      32.093  29.648  27.220  1.00  0.00     0.002 C 
BRANCH  27  28
ATOM     28  C   UNL A   1      31.559  30.703  26.244  1.00  0.00     0.002 C 
BRANCH  28  29
ATOM     29  C   UNL A   1      31.403  32.114  26.818  1.00  0.00     0.021 C 
BRANCH  29  30
ATOM     30  C   UNL A   1      32.692  32.927  26.898  1.00  0.00     0.116 C 
BRANCH  30  31
ATOM     31  N   UNL A   1      32.512  34.173  27.619  1.00  0.00    -0.352 N 
ATOM     32  C   UNL A   1      33.146  34.634  28.743  1.00  0.00     0.251 C 
ATOM     33  H   UNL A   1      31.832  34.779  27.246  1.00  0.00     0.163 HD
ATOM     34  O   UNL A   1      32.736  35.645  29.305  1.00  0.00    -0.269 OA
BRANCH  32  35
ATOM     35  C   UNL A   1      34.312  33.909  29.291  1.00  0.00     0.039 A 
ATOM     36  C   UNL A   1      35.593  34.356  28.954  1.00  0.00     0.014 A 
ATOM     37  C   UNL A   1      34.152  32.775  30.094  1.00  0.00     0.014 A 
ATOM     38  C   UNL A   1      36.712  33.688  29.451  1.00  0.00     0.010 A 
ATOM     39  C   UNL A   1      35.268  32.150  30.643  1.00  0.00     0.010 A 
ATOM     40  C   UNL A   1      36.558  32.590  30.314  1.00  0.00    -0.014 A 
BRANCH  40  41
ATOM     41  C   UNL A   1      37.743  31.878  30.853  1.00  0.00     0.031 A 
ATOM     42  C   UNL A   1      38.265  32.211  32.224  1.00  0.00     0.074 A 
ATOM     43  C   UNL A   1      38.370  30.961  30.094  1.00  0.00     0.049 A 
ATOM     44  N   UNL A   1      39.299  31.718  32.857  1.00  0.00    -0.248 NA
ATOM     45  C   UNL A   1      37.544  33.253  32.972  1.00  0.00     0.031 C 
ATOM     46  C   UNL A   1      37.989  30.587  28.730  1.00  0.00     0.029 A 
ATOM     47  N   UNL A   1      39.465  30.179  30.360  1.00  0.00    -0.354 N 
ATOM     48  C   UNL A   1      39.361  32.398  34.066  1.00  0.00     0.074 A 
ATOM     49  C   UNL A   1      38.292  33.373  34.058  1.00  0.00     0.031 C 
ATOM     50  C   UNL A   1      38.822  29.631  28.290  1.00  0.00     0.029 A 
ATOM     51  C   UNL A   1      39.810  29.344  29.326  1.00  0.00     0.049 A 
ATOM     52  H   UNL A   1      39.958  30.214  31.211  1.00  0.00     0.167 HD
ATOM     53  C   UNL A   1      40.215  32.210  35.100  1.00  0.00     0.037 A 
ATOM     54  C   UNL A   1      40.808  28.446  29.227  1.00  0.00     0.037 A 
ATOM     55  C   UNL A   1      41.257  31.219  35.117  1.00  0.00     0.049 A 
ATOM     56  C   UNL A   1      41.732  28.245  30.395  1.00  0.00     0.074 A 
ATOM     57  C   UNL A   1      42.138  30.910  36.139  1.00  0.00     0.029 A 
ATOM     58  N   UNL A   1      41.559  30.375  34.060  1.00  0.00    -0.354 N 
ATOM     59  N   UNL A   1      41.736  28.847  31.559  1.00  0.00    -0.248 NA
ATOM     60  C   UNL A   1      42.784  27.230  30.238  1.00  0.00     0.031 C 
ATOM     61  C   UNL A   1      42.996  29.901  35.687  1.00  0.00     0.029 A 
ATOM     62  C   UNL A   1      42.622  29.554  34.399  1.00  0.00     0.049 A 
ATOM     63  H   UNL A   1      41.088  30.360  33.196  1.00  0.00     0.167 HD
ATOM     64  C   UNL A   1      42.769  28.267  32.284  1.00  0.00     0.074 A 
ATOM     65  C   UNL A   1      43.361  27.255  31.432  1.00  0.00     0.031 C 
ATOM     66  C   UNL A   1      43.192  28.546  33.541  1.00  0.00     0.037 A 
BRANCH  53  67
ATOM     67  C   UNL A   1      40.048  33.093  36.302  1.00  0.00     0.057 A 
ATOM     68  C   UNL A   1      39.146  32.781  37.328  1.00  0.00     0.134 A 
ATOM     69  C   UNL A   1      40.815  34.256  36.448  1.00  0.00     0.134 A 
ATOM     70  F   UNL A   1      38.373  31.688  37.243  1.00  0.00    -0.206 F 
ATOM     71  C   UNL A   1      38.993  33.606  38.443  1.00  0.00     0.040 A 
ATOM     72  C   UNL A   1      40.690  35.076  37.572  1.00  0.00     0.040 A 
ATOM     73  F   UNL A   1      41.701  34.612  35.507  1.00  0.00    -0.206 F 
ATOM     74  C   UNL A   1      39.771  34.755  38.570  1.00  0.00     0.006 A 
ENDBRANCH  53  67
BRANCH  54  75
ATOM     75  C   UNL A   1      40.963  27.643  27.989  1.00  0.00     0.057 A 
ATOM     76  C   UNL A   1      41.742  28.106  26.923  1.00  0.00     0.134 A 
ATOM     77  C   UNL A   1      40.337  26.400  27.840  1.00  0.00     0.134 A 
ATOM     78  F   UNL A   1      42.353  29.297  27.002  1.00  0.00    -0.206 F 
ATOM     79  C   UNL A   1      41.879  27.371  25.744  1.00  0.00     0.040 A 
ATOM     80  C   UNL A   1      40.483  25.645  26.676  1.00  0.00     0.040 A 
ATOM     81  F   UNL A   1      39.585  25.898  28.830  1.00  0.00    -0.206 F 
ATOM     82  C   UNL A   1      41.250  26.134  25.621  1.00  0.00     0.006 A 
ENDBRANCH  54  75
BRANCH  66  83
ATOM     83  C   UNL A   1      44.322  27.722  34.081  1.00  0.00     0.057 A 
ATOM     84  C   UNL A   1      44.103  26.492  34.715  1.00  0.00     0.134 A 
ATOM     85  C   UNL A   1      45.647  28.149  33.936  1.00  0.00     0.134 A 
ATOM     86  F   UNL A   1      42.854  26.033  34.896  1.00  0.00    -0.206 F 
ATOM     87  C   UNL A   1      45.161  25.729  35.209  1.00  0.00     0.040 A 
ATOM     88  C   UNL A   1      46.716  27.384  34.403  1.00  0.00     0.040 A 
ATOM     89  F   UNL A   1      45.926  29.314  33.331  1.00  0.00    -0.206 F 
ATOM     90  C   UNL A   1      46.474  26.172  35.048  1.00  0.00     0.006 A 
ENDBRANCH  66  83
ENDBRANCH  40  41
ENDBRANCH  32  35
ENDBRANCH  30  31
ENDBRANCH  29  30
ENDBRANCH  28  29
ENDBRANCH  27  28
ENDBRANCH   1  27
TORSDOF 19
ENDMDL
