MODEL 1
REMARK VINA RESULT:     -11.2      0.000      0.000
REMARK SMILES Cn1nc(N2CCC(CC(=O)NCCCCCCNC(=O)c3ccc(-c4c5nc(c(-c6c(F)cccc6F)c6ccc([nH]6)c(-c6c(F)cccc6F)c6nc(c(-c7c(F)cccc7F)c7ccc4[nH]7)C=C6)C=C5)cc3)CC2)c(=O)n(C)c1=O
REMARK SMILES IDX 15 1 14 2 13 3 12 4 10 5 11 6 9 8 8 9 5 10 6 11 77 12 7 13
REMARK SMILES IDX 76 14 4 15 1 16 2 17 3 18 82 19 80 20 83 21 78 22 81 23
REMARK SMILES IDX 79 24 16 25 17 26 18 27 19 28 20 29 21 31 22 32 23 33 75 34
REMARK SMILES IDX 24 35 74 36 25 37 26 38 27 39 68 40 28 41 73 42 67 43 69 44
REMARK SMILES IDX 29 45 72 46 66 47 65 48 30 50 56 51 39 52 55 53 40 54 43 55
REMARK SMILES IDX 54 56 70 57 41 58 42 59 53 61 71 62 44 63 31 64 32 65 37 66
REMARK SMILES IDX 33 67 34 68 36 69 38 70 35 71 57 72 58 73 63 74 59 75 60 76
REMARK SMILES IDX 62 77 64 78 61 79 45 80 46 81 51 82 47 83 48 84 50 85 52 86
REMARK SMILES IDX 49 87
REMARK H PARENT 12 7 19 30 69 49 43 60
REMARK Flexibility Score: inf
ROOT
ATOM      1  C   UNL A   1      34.910  32.878  28.091  1.00  0.00     0.002 C 
ENDROOT
BRANCH   1   2
ATOM      2  C   UNL A   1      34.741  31.402  28.441  1.00  0.00     0.021 C 
BRANCH   2   3
ATOM      3  C   UNL A   1      34.400  30.492  27.253  1.00  0.00     0.116 C 
BRANCH   3   4
ATOM      4  N   UNL A   1      33.361  29.542  27.615  1.00  0.00    -0.356 N 
ATOM      5  C   UNL A   1      32.162  29.260  27.028  1.00  0.00     0.220 C 
ATOM      6  O   UNL A   1      31.400  28.485  27.609  1.00  0.00    -0.275 OA
ATOM      7  H   UNL A   1      33.555  29.011  28.419  1.00  0.00     0.163 HD
BRANCH   5   8
ATOM      8  C   UNL A   1      31.773  29.870  25.691  1.00  0.00     0.103 C 
BRANCH   8   9
ATOM      9  C   UNL A   1      31.914  28.917  24.483  1.00  0.00     0.002 C 
ATOM     10  N   UNL A   1      32.059  26.135  23.782  1.00  0.00    -0.351 N 
ATOM     11  C   UNL A   1      33.280  26.894  23.664  1.00  0.00     0.118 C 
ATOM     12  C   UNL A   1      30.850  26.841  23.404  1.00  0.00     0.118 C 
ATOM     13  C   UNL A   1      33.193  28.081  24.602  1.00  0.00     0.025 C 
ATOM     14  C   UNL A   1      30.660  28.020  24.364  1.00  0.00     0.025 C 
BRANCH  10  15
ATOM     15  C   UNL A   1      32.078  24.795  24.117  1.00  0.00     0.215 A 
ATOM     16  C   UNL A   1      32.154  21.600  22.479  1.00  0.00     0.180 C 
ATOM     17  N   UNL A   1      32.090  22.560  23.570  1.00  0.00    -0.216 N 
ATOM     18  N   UNL A   1      32.088  23.878  23.193  1.00  0.00    -0.145 NA
ATOM     19  C   UNL A   1      31.979  22.102  24.881  1.00  0.00     0.346 A 
ATOM     20  N   UNL A   1      31.932  23.071  25.864  1.00  0.00    -0.259 N 
ATOM     21  O   UNL A   1      31.925  20.899  25.148  1.00  0.00    -0.246 OA
ATOM     22  C   UNL A   1      32.028  24.417  25.594  1.00  0.00     0.299 A 
ATOM     23  C   UNL A   1      31.780  22.684  27.250  1.00  0.00     0.159 C 
ATOM     24  O   UNL A   1      32.040  25.309  26.438  1.00  0.00    -0.265 OA
ENDBRANCH  10  15
ENDBRANCH   8   9
ENDBRANCH   5   8
ENDBRANCH   3   4
ENDBRANCH   2   3
ENDBRANCH   1   2
BRANCH   1  25
ATOM     25  C   UNL A   1      34.609  33.849  29.232  1.00  0.00     0.002 C 
BRANCH  25  26
ATOM     26  C   UNL A   1      33.279  34.604  29.121  1.00  0.00     0.021 C 
BRANCH  26  27
ATOM     27  C   UNL A   1      33.326  36.068  29.555  1.00  0.00     0.116 C 
BRANCH  27  28
ATOM     28  N   UNL A   1      32.447  36.331  30.683  1.00  0.00    -0.352 N 
ATOM     29  C   UNL A   1      32.497  35.834  31.961  1.00  0.00     0.251 C 
ATOM     30  H   UNL A   1      31.710  36.958  30.504  1.00  0.00     0.163 HD
ATOM     31  O   UNL A   1      31.548  35.986  32.723  1.00  0.00    -0.269 OA
BRANCH  29  32
ATOM     32  C   UNL A   1      33.697  35.104  32.416  1.00  0.00     0.039 A 
ATOM     33  C   UNL A   1      33.560  33.792  32.875  1.00  0.00     0.014 A 
ATOM     34  C   UNL A   1      34.951  35.722  32.402  1.00  0.00     0.014 A 
ATOM     35  C   UNL A   1      34.693  33.077  33.267  1.00  0.00     0.010 A 
ATOM     36  C   UNL A   1      36.086  34.988  32.735  1.00  0.00     0.010 A 
ATOM     37  C   UNL A   1      35.967  33.660  33.171  1.00  0.00    -0.014 A 
BRANCH  37  38
ATOM     38  C   UNL A   1      37.190  32.898  33.521  1.00  0.00     0.031 A 
ATOM     39  C   UNL A   1      37.910  33.179  34.809  1.00  0.00     0.074 A 
ATOM     40  C   UNL A   1      37.681  31.995  32.652  1.00  0.00     0.049 A 
ATOM     41  N   UNL A   1      39.031  32.674  35.256  1.00  0.00    -0.248 NA
ATOM     42  C   UNL A   1      37.297  34.172  35.707  1.00  0.00     0.031 C 
ATOM     43  C   UNL A   1      37.084  31.655  31.359  1.00  0.00     0.029 A 
ATOM     44  N   UNL A   1      38.800  31.203  32.721  1.00  0.00    -0.354 N 
ATOM     45  C   UNL A   1      39.260  33.289  36.480  1.00  0.00     0.074 A 
ATOM     46  C   UNL A   1      38.191  34.242  36.683  1.00  0.00     0.031 C 
ATOM     47  C   UNL A   1      37.827  30.705  30.770  1.00  0.00     0.029 A 
ATOM     48  C   UNL A   1      38.973  30.399  31.621  1.00  0.00     0.049 A 
ATOM     49  H   UNL A   1      39.418  31.210  33.486  1.00  0.00     0.167 HD
ATOM     50  C   UNL A   1      40.259  33.061  37.365  1.00  0.00     0.037 A 
ATOM     51  C   UNL A   1      39.948  29.517  31.329  1.00  0.00     0.037 A 
ATOM     52  C   UNL A   1      41.315  32.104  37.163  1.00  0.00     0.049 A 
ATOM     53  C   UNL A   1      41.063  29.305  32.315  1.00  0.00     0.074 A 
ATOM     54  C   UNL A   1      42.362  31.785  38.010  1.00  0.00     0.029 A 
ATOM     55  N   UNL A   1      41.457  31.310  36.034  1.00  0.00    -0.354 N 
ATOM     56  N   UNL A   1      41.251  29.869  33.483  1.00  0.00    -0.248 NA
ATOM     57  C   UNL A   1      42.097  28.328  31.946  1.00  0.00     0.031 C 
ATOM     58  C   UNL A   1      43.159  30.826  37.377  1.00  0.00     0.029 A 
ATOM     59  C   UNL A   1      42.579  30.508  36.159  1.00  0.00     0.049 A 
ATOM     60  H   UNL A   1      40.849  31.314  35.259  1.00  0.00     0.167 HD
ATOM     61  C   UNL A   1      42.404  29.296  34.003  1.00  0.00     0.074 A 
ATOM     62  C   UNL A   1      42.867  28.332  33.026  1.00  0.00     0.031 C 
ATOM     63  C   UNL A   1      43.020  29.543  35.184  1.00  0.00     0.037 A 
BRANCH  50  64
ATOM     64  C   UNL A   1      40.252  33.850  38.643  1.00  0.00     0.057 A 
ATOM     65  C   UNL A   1      39.524  33.426  39.762  1.00  0.00     0.134 A 
ATOM     66  C   UNL A   1      41.023  35.011  38.775  1.00  0.00     0.134 A 
ATOM     67  F   UNL A   1      38.754  32.328  39.697  1.00  0.00    -0.206 F 
ATOM     68  C   UNL A   1      39.551  34.136  40.963  1.00  0.00     0.040 A 
ATOM     69  C   UNL A   1      41.080  35.715  39.980  1.00  0.00     0.040 A 
ATOM     70  F   UNL A   1      41.747  35.470  37.744  1.00  0.00    -0.206 F 
ATOM     71  C   UNL A   1      40.340  35.279  41.078  1.00  0.00     0.006 A 
ENDBRANCH  50  64
BRANCH  51  72
ATOM     72  C   UNL A   1      39.887  28.741  30.066  1.00  0.00     0.057 A 
ATOM     73  C   UNL A   1      40.546  29.190  28.916  1.00  0.00     0.134 A 
ATOM     74  C   UNL A   1      39.195  27.527  29.980  1.00  0.00     0.134 A 
ATOM     75  F   UNL A   1      41.212  30.354  28.932  1.00  0.00    -0.206 F 
ATOM     76  C   UNL A   1      40.511  28.467  27.722  1.00  0.00     0.040 A 
ATOM     77  C   UNL A   1      39.172  26.780  28.800  1.00  0.00     0.040 A 
ATOM     78  F   UNL A   1      38.552  27.036  31.049  1.00  0.00    -0.206 F 
ATOM     79  C   UNL A   1      39.829  27.253  27.665  1.00  0.00     0.006 A 
ENDBRANCH  51  72
BRANCH  63  80
ATOM     80  C   UNL A   1      44.238  28.731  35.513  1.00  0.00     0.057 A 
ATOM     81  C   UNL A   1      45.524  29.138  35.140  1.00  0.00     0.134 A 
ATOM     82  C   UNL A   1      44.125  27.557  36.270  1.00  0.00     0.134 A 
ATOM     83  F   UNL A   1      45.700  30.247  34.406  1.00  0.00    -0.206 F 
ATOM     84  C   UNL A   1      46.653  28.397  35.491  1.00  0.00     0.040 A 
ATOM     85  C   UNL A   1      45.248  26.822  36.651  1.00  0.00     0.040 A 
ATOM     86  F   UNL A   1      42.921  27.117  36.670  1.00  0.00    -0.206 F 
ATOM     87  C   UNL A   1      46.517  27.239  36.257  1.00  0.00     0.006 A 
ENDBRANCH  63  80
ENDBRANCH  37  38
ENDBRANCH  29  32
ENDBRANCH  27  28
ENDBRANCH  26  27
ENDBRANCH  25  26
ENDBRANCH   1  25
TORSDOF 15
ENDMDL
MODEL 2
REMARK VINA RESULT:     -11.1      7.655     12.575
REMARK SMILES Cn1nc(N2CCC(CC(=O)NCCCCCCNC(=O)c3ccc(-c4c5nc(c(-c6c(F)cccc6F)c6ccc([nH]6)c(-c6c(F)cccc6F)c6nc(c(-c7c(F)cccc7F)c7ccc4[nH]7)C=C6)C=C5)cc3)CC2)c(=O)n(C)c1=O
REMARK SMILES IDX 15 1 14 2 13 3 12 4 10 5 11 6 9 8 8 9 5 10 6 11 77 12 7 13
REMARK SMILES IDX 76 14 4 15 1 16 2 17 3 18 82 19 80 20 83 21 78 22 81 23
REMARK SMILES IDX 79 24 16 25 17 26 18 27 19 28 20 29 21 31 22 32 23 33 75 34
REMARK SMILES IDX 24 35 74 36 25 37 26 38 27 39 68 40 28 41 73 42 67 43 69 44
REMARK SMILES IDX 29 45 72 46 66 47 65 48 30 50 56 51 39 52 55 53 40 54 43 55
REMARK SMILES IDX 54 56 70 57 41 58 42 59 53 61 71 62 44 63 31 64 32 65 37 66
REMARK SMILES IDX 33 67 34 68 36 69 38 70 35 71 57 72 58 73 63 74 59 75 60 76
REMARK SMILES IDX 62 77 64 78 61 79 45 80 46 81 51 82 47 83 48 84 50 85 52 86
REMARK SMILES IDX 49 87
REMARK H PARENT 12 7 19 30 69 49 43 60
REMARK Flexibility Score: inf
ROOT
ATOM      1  C   UNL A   1      40.831  27.675  27.265  1.00  0.00     0.002 C 
ENDROOT
BRANCH   1   2
ATOM      2  C   UNL A   1      40.018  28.942  27.006  1.00  0.00     0.021 C 
BRANCH   2   3
ATOM      3  C   UNL A   1      39.569  29.688  28.270  1.00  0.00     0.116 C 
BRANCH   3   4
ATOM      4  N   UNL A   1      38.120  29.807  28.307  1.00  0.00    -0.356 N 
ATOM      5  C   UNL A   1      37.235  29.642  29.331  1.00  0.00     0.220 C 
ATOM      6  O   UNL A   1      36.031  29.683  29.070  1.00  0.00    -0.275 OA
ATOM      7  H   UNL A   1      37.707  30.049  27.447  1.00  0.00     0.163 HD
BRANCH   5   8
ATOM      8  C   UNL A   1      37.708  29.426  30.760  1.00  0.00     0.103 C 
BRANCH   8   9
ATOM      9  C   UNL A   1      37.673  30.689  31.649  1.00  0.00     0.002 C 
ATOM     10  N   UNL A   1      36.270  33.168  32.028  1.00  0.00    -0.351 N 
ATOM     11  C   UNL A   1      37.606  33.259  31.493  1.00  0.00     0.118 C 
ATOM     12  C   UNL A   1      36.075  32.146  33.039  1.00  0.00     0.118 C 
ATOM     13  C   UNL A   1      37.935  31.946  30.810  1.00  0.00     0.025 C 
ATOM     14  C   UNL A   1      36.321  30.778  32.393  1.00  0.00     0.025 C 
BRANCH  10  15
ATOM     15  C   UNL A   1      35.295  34.080  31.677  1.00  0.00     0.215 A 
ATOM     16  C   UNL A   1      33.052  34.725  28.948  1.00  0.00     0.180 C 
ATOM     17  N   UNL A   1      33.729  34.927  30.219  1.00  0.00    -0.216 N 
ATOM     18  N   UNL A   1      34.678  33.990  30.534  1.00  0.00    -0.145 NA
ATOM     19  C   UNL A   1      33.429  36.051  30.985  1.00  0.00     0.346 A 
ATOM     20  N   UNL A   1      34.105  36.172  32.183  1.00  0.00    -0.259 N 
ATOM     21  O   UNL A   1      32.605  36.891  30.614  1.00  0.00    -0.246 OA
ATOM     22  C   UNL A   1      35.000  35.230  32.636  1.00  0.00     0.299 A 
ATOM     23  C   UNL A   1      33.879  37.328  33.024  1.00  0.00     0.159 C 
ATOM     24  O   UNL A   1      35.586  35.271  33.714  1.00  0.00    -0.265 OA
ENDBRANCH  10  15
ENDBRANCH   8   9
ENDBRANCH   5   8
ENDBRANCH   3   4
ENDBRANCH   2   3
ENDBRANCH   1   2
BRANCH   1  25
ATOM     25  C   UNL A   1      40.317  26.804  28.411  1.00  0.00     0.002 C 
BRANCH  25  26
ATOM     26  C   UNL A   1      39.525  25.561  27.989  1.00  0.00     0.021 C 
BRANCH  26  27
ATOM     27  C   UNL A   1      39.778  25.084  26.561  1.00  0.00     0.116 C 
BRANCH  27  28
ATOM     28  N   UNL A   1      40.496  23.820  26.527  1.00  0.00    -0.352 N 
ATOM     29  C   UNL A   1      41.833  23.582  26.336  1.00  0.00     0.251 C 
ATOM     30  H   UNL A   1      39.941  23.018  26.662  1.00  0.00     0.163 HD
ATOM     31  O   UNL A   1      42.236  22.445  26.112  1.00  0.00    -0.269 OA
BRANCH  29  32
ATOM     32  C   UNL A   1      42.792  24.704  26.389  1.00  0.00     0.039 A 
ATOM     33  C   UNL A   1      43.390  25.029  27.610  1.00  0.00     0.014 A 
ATOM     34  C   UNL A   1      43.084  25.443  25.239  1.00  0.00     0.014 A 
ATOM     35  C   UNL A   1      44.329  26.061  27.663  1.00  0.00     0.010 A 
ATOM     36  C   UNL A   1      44.065  26.429  25.282  1.00  0.00     0.010 A 
ATOM     37  C   UNL A   1      44.695  26.747  26.494  1.00  0.00    -0.014 A 
BRANCH  37  38
ATOM     38  C   UNL A   1      45.737  27.802  26.517  1.00  0.00     0.031 A 
ATOM     39  C   UNL A   1      45.344  29.246  26.641  1.00  0.00     0.074 A 
ATOM     40  C   UNL A   1      47.031  27.461  26.368  1.00  0.00     0.049 A 
ATOM     41  N   UNL A   1      46.099  30.315  26.604  1.00  0.00    -0.248 NA
ATOM     42  C   UNL A   1      43.910  29.530  26.812  1.00  0.00     0.031 C 
ATOM     43  C   UNL A   1      47.532  26.094  26.215  1.00  0.00     0.029 A 
ATOM     44  N   UNL A   1      48.161  28.238  26.315  1.00  0.00    -0.354 N 
ATOM     45  C   UNL A   1      45.234  31.392  26.741  1.00  0.00     0.074 A 
ATOM     46  C   UNL A   1      43.893  30.855  26.810  1.00  0.00     0.031 C 
ATOM     47  C   UNL A   1      48.870  26.127  26.112  1.00  0.00     0.029 A 
ATOM     48  C   UNL A   1      49.317  27.516  26.150  1.00  0.00     0.049 A 
ATOM     49  H   UNL A   1      48.144  29.219  26.389  1.00  0.00     0.167 HD
ATOM     50  C   UNL A   1      45.535  32.710  26.827  1.00  0.00     0.037 A 
ATOM     51  C   UNL A   1      50.595  27.927  26.038  1.00  0.00     0.037 A 
ATOM     52  C   UNL A   1      46.873  33.239  26.769  1.00  0.00     0.049 A 
ATOM     53  C   UNL A   1      50.899  29.398  26.105  1.00  0.00     0.074 A 
ATOM     54  C   UNL A   1      47.283  34.557  26.867  1.00  0.00     0.029 A 
ATOM     55  N   UNL A   1      48.019  32.474  26.598  1.00  0.00    -0.354 N 
ATOM     56  N   UNL A   1      50.076  30.406  26.268  1.00  0.00    -0.248 NA
ATOM     57  C   UNL A   1      52.310  29.789  25.981  1.00  0.00     0.031 C 
ATOM     58  C   UNL A   1      48.672  34.594  26.717  1.00  0.00     0.029 A 
ATOM     59  C   UNL A   1      49.134  33.295  26.580  1.00  0.00     0.049 A 
ATOM     60  H   UNL A   1      48.036  31.494  26.506  1.00  0.00     0.167 HD
ATOM     61  C   UNL A   1      50.869  31.545  26.297  1.00  0.00     0.074 A 
ATOM     62  C   UNL A   1      52.240  31.103  26.146  1.00  0.00     0.031 C 
ATOM     63  C   UNL A   1      50.495  32.839  26.441  1.00  0.00     0.037 A 
BRANCH  50  64
ATOM     64  C   UNL A   1      44.399  33.674  27.009  1.00  0.00     0.057 A 
ATOM     65  C   UNL A   1      43.903  33.993  28.280  1.00  0.00     0.134 A 
ATOM     66  C   UNL A   1      43.832  34.332  25.911  1.00  0.00     0.134 A 
ATOM     67  F   UNL A   1      44.395  33.387  29.373  1.00  0.00    -0.206 F 
ATOM     68  C   UNL A   1      42.876  34.921  28.452  1.00  0.00     0.040 A 
ATOM     69  C   UNL A   1      42.823  35.283  26.072  1.00  0.00     0.040 A 
ATOM     70  F   UNL A   1      44.262  34.078  24.666  1.00  0.00    -0.206 F 
ATOM     71  C   UNL A   1      42.339  35.578  27.346  1.00  0.00     0.006 A 
ENDBRANCH  50  64
BRANCH  51  72
ATOM     72  C   UNL A   1      51.682  26.928  25.893  1.00  0.00     0.057 A 
ATOM     73  C   UNL A   1      52.333  26.408  27.018  1.00  0.00     0.134 A 
ATOM     74  C   UNL A   1      52.082  26.450  24.639  1.00  0.00     0.134 A 
ATOM     75  F   UNL A   1      52.005  26.839  28.245  1.00  0.00    -0.206 F 
ATOM     76  C   UNL A   1      53.349  25.459  26.903  1.00  0.00     0.040 A 
ATOM     77  C   UNL A   1      53.080  25.482  24.510  1.00  0.00     0.040 A 
ATOM     78  F   UNL A   1      51.491  26.900  23.522  1.00  0.00    -0.206 F 
ATOM     79  C   UNL A   1      53.719  24.986  25.645  1.00  0.00     0.006 A 
ENDBRANCH  51  72
BRANCH  63  80
ATOM     80  C   UNL A   1      51.581  33.873  26.488  1.00  0.00     0.057 A 
ATOM     81  C   UNL A   1      52.039  34.519  25.334  1.00  0.00     0.134 A 
ATOM     82  C   UNL A   1      52.129  34.272  27.714  1.00  0.00     0.134 A 
ATOM     83  F   UNL A   1      51.563  34.177  24.127  1.00  0.00    -0.206 F 
ATOM     84  C   UNL A   1      53.019  35.511  25.395  1.00  0.00     0.040 A 
ATOM     85  C   UNL A   1      53.088  35.282  27.792  1.00  0.00     0.040 A 
ATOM     86  F   UNL A   1      51.724  33.701  28.859  1.00  0.00    -0.206 F 
ATOM     87  C   UNL A   1      53.539  35.902  26.629  1.00  0.00     0.006 A 
ENDBRANCH  63  80
ENDBRANCH  37  38
ENDBRANCH  29  32
ENDBRANCH  27  28
ENDBRANCH  26  27
ENDBRANCH  25  26
ENDBRANCH   1  25
TORSDOF 15
ENDMDL
MODEL 3
REMARK VINA RESULT:     -11.0      1.856      6.668
REMARK SMILES Cn1nc(N2CCC(CC(=O)NCCCCCCNC(=O)c3ccc(-c4c5nc(c(-c6c(F)cccc6F)c6ccc([nH]6)c(-c6c(F)cccc6F)c6nc(c(-c7c(F)cccc7F)c7ccc4[nH]7)C=C6)C=C5)cc3)CC2)c(=O)n(C)c1=O
REMARK SMILES IDX 15 1 14 2 13 3 12 4 10 5 11 6 9 8 8 9 5 10 6 11 77 12 7 13
REMARK SMILES IDX 76 14 4 15 1 16 2 17 3 18 82 19 80 20 83 21 78 22 81 23
REMARK SMILES IDX 79 24 16 25 17 26 18 27 19 28 20 29 21 31 22 32 23 33 75 34
REMARK SMILES IDX 24 35 74 36 25 37 26 38 27 39 68 40 28 41 73 42 67 43 69 44
REMARK SMILES IDX 29 45 72 46 66 47 65 48 30 50 56 51 39 52 55 53 40 54 43 55
REMARK SMILES IDX 54 56 70 57 41 58 42 59 53 61 71 62 44 63 31 64 32 65 37 66
REMARK SMILES IDX 33 67 34 68 36 69 38 70 35 71 57 72 58 73 63 74 59 75 60 76
REMARK SMILES IDX 62 77 64 78 61 79 45 80 46 81 51 82 47 83 48 84 50 85 52 86
REMARK SMILES IDX 49 87
REMARK H PARENT 12 7 19 30 69 49 43 60
REMARK Flexibility Score: inf
ROOT
ATOM      1  C   UNL A   1      32.679  29.973  26.846  1.00  0.00     0.002 C 
ENDROOT
BRANCH   1   2
ATOM      2  C   UNL A   1      32.352  28.537  27.250  1.00  0.00     0.021 C 
BRANCH   2   3
ATOM      3  C   UNL A   1      33.119  27.459  26.473  1.00  0.00     0.116 C 
BRANCH   3   4
ATOM      4  N   UNL A   1      32.996  27.674  25.040  1.00  0.00    -0.356 N 
ATOM      5  C   UNL A   1      31.950  27.468  24.190  1.00  0.00     0.220 C 
ATOM      6  O   UNL A   1      32.144  27.618  22.982  1.00  0.00    -0.275 OA
ATOM      7  H   UNL A   1      33.807  28.029  24.609  1.00  0.00     0.163 HD
BRANCH   5   8
ATOM      8  C   UNL A   1      30.575  27.076  24.708  1.00  0.00     0.103 C 
BRANCH   8   9
ATOM      9  C   UNL A   1      30.294  25.557  24.706  1.00  0.00     0.002 C 
ATOM     10  N   UNL A   1      31.602  22.999  24.740  1.00  0.00    -0.351 N 
ATOM     11  C   UNL A   1      30.975  23.386  23.499  1.00  0.00     0.118 C 
ATOM     12  C   UNL A   1      30.888  23.383  25.942  1.00  0.00     0.118 C 
ATOM     13  C   UNL A   1      30.897  24.899  23.459  1.00  0.00     0.025 C 
ATOM     14  C   UNL A   1      30.836  24.914  26.003  1.00  0.00     0.025 C 
BRANCH  10  15
ATOM     15  C   UNL A   1      32.738  22.213  24.753  1.00  0.00     0.215 A 
ATOM     16  C   UNL A   1      33.620  18.735  24.615  1.00  0.00     0.180 C 
ATOM     17  N   UNL A   1      33.802  20.173  24.732  1.00  0.00    -0.216 N 
ATOM     18  N   UNL A   1      32.650  20.915  24.699  1.00  0.00    -0.145 NA
ATOM     19  C   UNL A   1      35.082  20.690  24.923  1.00  0.00     0.346 A 
ATOM     20  N   UNL A   1      35.178  22.064  25.017  1.00  0.00    -0.259 N 
ATOM     21  O   UNL A   1      36.073  19.960  25.005  1.00  0.00    -0.246 OA
ATOM     22  C   UNL A   1      34.092  22.901  24.891  1.00  0.00     0.299 A 
ATOM     23  C   UNL A   1      36.465  22.682  25.252  1.00  0.00     0.159 C 
ATOM     24  O   UNL A   1      34.138  24.128  24.919  1.00  0.00    -0.265 OA
ENDBRANCH  10  15
ENDBRANCH   8   9
ENDBRANCH   5   8
ENDBRANCH   3   4
ENDBRANCH   2   3
ENDBRANCH   1   2
BRANCH   1  25
ATOM     25  C   UNL A   1      31.539  30.722  26.156  1.00  0.00     0.002 C 
BRANCH  25  26
ATOM     26  C   UNL A   1      31.401  32.202  26.532  1.00  0.00     0.021 C 
BRANCH  26  27
ATOM     27  C   UNL A   1      32.603  32.801  27.260  1.00  0.00     0.116 C 
BRANCH  27  28
ATOM     28  N   UNL A   1      32.400  34.203  27.586  1.00  0.00    -0.352 N 
ATOM     29  C   UNL A   1      32.978  34.962  28.572  1.00  0.00     0.251 C 
ATOM     30  H   UNL A   1      31.754  34.678  27.014  1.00  0.00     0.163 HD
ATOM     31  O   UNL A   1      32.528  36.069  28.849  1.00  0.00    -0.269 OA
BRANCH  29  32
ATOM     32  C   UNL A   1      34.144  34.436  29.311  1.00  0.00     0.039 A 
ATOM     33  C   UNL A   1      33.938  33.783  30.529  1.00  0.00     0.014 A 
ATOM     34  C   UNL A   1      35.437  34.604  28.807  1.00  0.00     0.014 A 
ATOM     35  C   UNL A   1      35.028  33.245  31.214  1.00  0.00     0.010 A 
ATOM     36  C   UNL A   1      36.515  34.013  29.460  1.00  0.00     0.010 A 
ATOM     37  C   UNL A   1      36.320  33.329  30.670  1.00  0.00    -0.014 A 
BRANCH  37  38
ATOM     38  C   UNL A   1      37.483  32.709  31.349  1.00  0.00     0.031 A 
ATOM     39  C   UNL A   1      38.165  31.519  30.737  1.00  0.00     0.074 A 
ATOM     40  C   UNL A   1      37.887  33.185  32.542  1.00  0.00     0.049 A 
ATOM     41  N   UNL A   1      39.146  30.794  31.213  1.00  0.00    -0.248 NA
ATOM     42  C   UNL A   1      37.669  31.072  29.426  1.00  0.00     0.031 C 
ATOM     43  C   UNL A   1      37.287  34.319  33.246  1.00  0.00     0.029 A 
ATOM     44  N   UNL A   1      38.893  32.768  33.377  1.00  0.00    -0.354 N 
ATOM     45  C   UNL A   1      39.379  29.807  30.264  1.00  0.00     0.074 A 
ATOM     46  C   UNL A   1      38.405  29.991  29.211  1.00  0.00     0.031 C 
ATOM     47  C   UNL A   1      37.954  34.525  34.393  1.00  0.00     0.029 A 
ATOM     48  C   UNL A   1      38.999  33.514  34.525  1.00  0.00     0.049 A 
ATOM     49  H   UNL A   1      39.483  32.008  33.172  1.00  0.00     0.167 HD
ATOM     50  C   UNL A   1      40.335  28.848  30.261  1.00  0.00     0.037 A 
ATOM     51  C   UNL A   1      39.841  33.394  35.570  1.00  0.00     0.037 A 
ATOM     52  C   UNL A   1      41.309  28.675  31.307  1.00  0.00     0.049 A 
ATOM     53  C   UNL A   1      40.873  32.302  35.557  1.00  0.00     0.074 A 
ATOM     54  C   UNL A   1      42.332  27.746  31.387  1.00  0.00     0.029 A 
ATOM     55  N   UNL A   1      41.382  29.451  32.456  1.00  0.00    -0.354 N 
ATOM     56  N   UNL A   1      41.105  31.395  34.639  1.00  0.00    -0.248 NA
ATOM     57  C   UNL A   1      41.767  32.221  36.720  1.00  0.00     0.031 C 
ATOM     58  C   UNL A   1      42.999  27.934  32.601  1.00  0.00     0.029 A 
ATOM     59  C   UNL A   1      42.426  29.014  33.254  1.00  0.00     0.049 A 
ATOM     60  H   UNL A   1      40.781  30.200  32.671  1.00  0.00     0.167 HD
ATOM     61  C   UNL A   1      42.187  30.657  35.097  1.00  0.00     0.074 A 
ATOM     62  C   UNL A   1      42.574  31.228  36.371  1.00  0.00     0.031 C 
ATOM     63  C   UNL A   1      42.808  29.602  34.513  1.00  0.00     0.037 A 
BRANCH  50  64
ATOM     64  C   UNL A   1      40.387  27.919  29.084  1.00  0.00     0.057 A 
ATOM     65  C   UNL A   1      39.639  26.735  29.049  1.00  0.00     0.134 A 
ATOM     66  C   UNL A   1      41.146  28.236  27.950  1.00  0.00     0.134 A 
ATOM     67  F   UNL A   1      38.900  26.367  30.109  1.00  0.00    -0.206 F 
ATOM     68  C   UNL A   1      39.653  25.893  27.937  1.00  0.00     0.040 A 
ATOM     69  C   UNL A   1      41.147  27.415  26.821  1.00  0.00     0.040 A 
ATOM     70  F   UNL A   1      41.883  29.356  27.914  1.00  0.00    -0.206 F 
ATOM     71  C   UNL A   1      40.402  26.238  26.813  1.00  0.00     0.006 A 
ENDBRANCH  50  64
BRANCH  51  72
ATOM     72  C   UNL A   1      39.766  34.362  36.693  1.00  0.00     0.057 A 
ATOM     73  C   UNL A   1      38.976  34.096  37.817  1.00  0.00     0.134 A 
ATOM     74  C   UNL A   1      40.494  35.558  36.685  1.00  0.00     0.134 A 
ATOM     75  F   UNL A   1      38.243  32.974  37.875  1.00  0.00    -0.206 F 
ATOM     76  C   UNL A   1      38.903  34.988  38.888  1.00  0.00     0.040 A 
ATOM     77  C   UNL A   1      40.450  36.448  37.760  1.00  0.00     0.040 A 
ATOM     78  F   UNL A   1      41.279  35.867  35.642  1.00  0.00    -0.206 F 
ATOM     79  C   UNL A   1      39.649  36.164  38.865  1.00  0.00     0.006 A 
ENDBRANCH  51  72
BRANCH  63  80
ATOM     80  C   UNL A   1      43.998  29.022  35.218  1.00  0.00     0.057 A 
ATOM     81  C   UNL A   1      43.878  27.967  36.129  1.00  0.00     0.134 A 
ATOM     82  C   UNL A   1      45.289  29.485  34.931  1.00  0.00     0.134 A 
ATOM     83  F   UNL A   1      42.670  27.483  36.456  1.00  0.00    -0.206 F 
ATOM     84  C   UNL A   1      44.998  27.405  36.745  1.00  0.00     0.040 A 
ATOM     85  C   UNL A   1      46.418  28.914  35.518  1.00  0.00     0.040 A 
ATOM     86  F   UNL A   1      45.474  30.487  34.057  1.00  0.00    -0.206 F 
ATOM     87  C   UNL A   1      46.274  27.873  36.432  1.00  0.00     0.006 A 
ENDBRANCH  63  80
ENDBRANCH  37  38
ENDBRANCH  29  32
ENDBRANCH  27  28
ENDBRANCH  26  27
ENDBRANCH  25  26
ENDBRANCH   1  25
TORSDOF 15
ENDMDL
