MODEL 1
REMARK VINA RESULT:      -9.4      0.000      0.000
REMARK SMILES C[C@@H]1CCC[C@@H](C)C1[N@H+]1CCO[C@H](CC(=O)NCCCCCCNC(=O)c2ccc(-c3c4nc(c(-c5c(F)cccc5F)c5ccc([nH]5)c(-c5c(F)cccc5F)c5nc(c(-c6c(F)cccc6F)c6ccc3[nH]6)C=C5)C=C4)cc2)C1
REMARK SMILES IDX 20 1 19 2 18 3 17 4 15 5 16 6 14 8 13 9 9 10 10 11 81 12
REMARK SMILES IDX 11 14 12 15 8 16 1 17 2 18 3 19 4 20 6 21 5 22 7 23 21 24
REMARK SMILES IDX 22 25 23 26 24 27 25 28 26 30 27 31 28 32 80 33 29 34 79 35
REMARK SMILES IDX 30 36 31 37 32 38 73 39 33 40 78 41 72 42 74 43 34 44 77 45
REMARK SMILES IDX 71 46 70 47 35 49 61 50 44 51 60 52 45 53 48 54 59 55 75 56
REMARK SMILES IDX 46 57 47 58 58 60 76 61 49 62 36 63 37 64 42 65 38 66 39 67
REMARK SMILES IDX 41 68 43 69 40 70 62 71 63 72 68 73 64 74 65 75 67 76 69 77
REMARK SMILES IDX 66 78 50 79 51 80 56 81 52 82 53 83 55 84 57 85 54 86
REMARK H PARENT 17 7 9 13 24 29 74 48 48 59
REMARK Flexibility Score: inf
ROOT
ATOM      1  C   UNL A   1      46.013  22.922  24.272  1.00  0.00     0.002 C 
ENDROOT
BRANCH   1   2
ATOM      2  C   UNL A   1      45.695  24.244  24.978  1.00  0.00     0.021 C 
BRANCH   2   3
ATOM      3  C   UNL A   1      46.940  25.062  25.342  1.00  0.00     0.116 C 
BRANCH   3   4
ATOM      4  N   UNL A   1      47.021  26.273  24.549  1.00  0.00    -0.356 N 
ATOM      5  C   UNL A   1      46.707  27.553  24.898  1.00  0.00     0.222 C 
ATOM      6  O   UNL A   1      46.810  28.436  24.045  1.00  0.00    -0.275 OA
ATOM      7  H   UNL A   1      47.349  26.155  23.628  1.00  0.00     0.163 HD
BRANCH   5   8
ATOM      8  C   UNL A   1      46.237  27.880  26.304  1.00  0.00     0.138 C 
BRANCH   8   9
ATOM      9  C   UNL A   1      45.367  29.135  26.303  1.00  0.00     0.182 C 
ATOM     10  N   UNL A   1      45.101  31.475  27.227  1.00  0.00    -0.328 N 
ATOM     11  C   UNL A   1      43.778  31.047  27.677  1.00  0.00     0.291 C 
ATOM     12  C   UNL A   1      45.989  30.299  27.116  1.00  0.00     0.295 C 
ATOM     13  H   UNL A   1      45.401  32.093  27.982  1.00  0.00     0.348 HD
ATOM     14  C   UNL A   1      43.196  29.916  26.838  1.00  0.00     0.222 C 
ATOM     15  O   UNL A   1      44.080  28.791  26.856  1.00  0.00    -0.366 OA
BRANCH  10  16
ATOM     16  C   UNL A   1      45.292  32.555  26.233  1.00  0.00     0.189 C 
ATOM     17  C   UNL A   1      44.159  33.730  24.270  1.00  0.00     0.014 C 
ATOM     18  C   UNL A   1      44.046  33.382  25.766  1.00  0.00     0.045 C 
ATOM     19  C   UNL A   1      43.752  34.659  26.574  1.00  0.00     0.009 C 
ATOM     20  C   UNL A   1      44.972  35.499  26.932  1.00  0.00     0.001 C 
ATOM     21  C   UNL A   1      46.485  33.528  26.501  1.00  0.00     0.045 C 
ATOM     22  C   UNL A   1      46.138  34.675  27.460  1.00  0.00     0.009 C 
ATOM     23  C   UNL A   1      47.793  32.819  26.871  1.00  0.00     0.014 C 
ENDBRANCH  10  16
ENDBRANCH   8   9
ENDBRANCH   5   8
ENDBRANCH   3   4
ENDBRANCH   2   3
ENDBRANCH   1   2
BRANCH   1  24
ATOM     24  C   UNL A   1      45.814  21.672  25.137  1.00  0.00     0.002 C 
BRANCH  24  25
ATOM     25  C   UNL A   1      45.073  20.517  24.455  1.00  0.00     0.021 C 
BRANCH  25  26
ATOM     26  C   UNL A   1      44.598  19.423  25.407  1.00  0.00     0.116 C 
BRANCH  26  27
ATOM     27  N   UNL A   1      43.184  19.128  25.220  1.00  0.00    -0.352 N 
ATOM     28  C   UNL A   1      42.088  19.755  25.748  1.00  0.00     0.251 C 
ATOM     29  H   UNL A   1      42.988  18.366  24.629  1.00  0.00     0.163 HD
ATOM     30  O   UNL A   1      40.982  19.209  25.704  1.00  0.00    -0.269 OA
BRANCH  28  31
ATOM     31  C   UNL A   1      42.221  21.086  26.373  1.00  0.00     0.039 A 
ATOM     32  C   UNL A   1      42.282  21.182  27.766  1.00  0.00     0.014 A 
ATOM     33  C   UNL A   1      42.254  22.241  25.586  1.00  0.00     0.014 A 
ATOM     34  C   UNL A   1      42.431  22.433  28.366  1.00  0.00     0.010 A 
ATOM     35  C   UNL A   1      42.476  23.479  26.182  1.00  0.00     0.010 A 
ATOM     36  C   UNL A   1      42.560  23.588  27.578  1.00  0.00    -0.014 A 
BRANCH  36  37
ATOM     37  C   UNL A   1      42.785  24.920  28.194  1.00  0.00     0.031 A 
ATOM     38  C   UNL A   1      44.143  25.294  28.719  1.00  0.00     0.074 A 
ATOM     39  C   UNL A   1      41.748  25.767  28.342  1.00  0.00     0.049 A 
ATOM     40  N   UNL A   1      44.516  26.380  29.348  1.00  0.00    -0.248 NA
ATOM     41  C   UNL A   1      45.217  24.305  28.539  1.00  0.00     0.031 C 
ATOM     42  C   UNL A   1      40.373  25.500  27.918  1.00  0.00     0.029 A 
ATOM     43  N   UNL A   1      41.687  27.017  28.902  1.00  0.00    -0.354 N 
ATOM     44  C   UNL A   1      45.861  26.198  29.650  1.00  0.00     0.074 A 
ATOM     45  C   UNL A   1      46.222  24.877  29.185  1.00  0.00     0.031 C 
ATOM     46  C   UNL A   1      39.608  26.563  28.214  1.00  0.00     0.029 A 
ATOM     47  C   UNL A   1      40.427  27.567  28.885  1.00  0.00     0.049 A 
ATOM     48  H   UNL A   1      42.471  27.478  29.280  1.00  0.00     0.167 HD
ATOM     49  C   UNL A   1      46.720  27.062  30.242  1.00  0.00     0.037 A 
ATOM     50  C   UNL A   1      39.981  28.743  29.367  1.00  0.00     0.037 A 
ATOM     51  C   UNL A   1      46.357  28.383  30.687  1.00  0.00     0.049 A 
ATOM     52  C   UNL A   1      40.951  29.681  30.029  1.00  0.00     0.074 A 
ATOM     53  C   UNL A   1      47.169  29.360  31.239  1.00  0.00     0.029 A 
ATOM     54  N   UNL A   1      45.075  28.910  30.640  1.00  0.00    -0.354 N 
ATOM     55  N   UNL A   1      42.236  29.528  30.241  1.00  0.00    -0.248 NA
ATOM     56  C   UNL A   1      40.410  30.959  30.513  1.00  0.00     0.031 C 
ATOM     57  C   UNL A   1      46.368  30.455  31.576  1.00  0.00     0.029 A 
ATOM     58  C   UNL A   1      45.068  30.185  31.180  1.00  0.00     0.049 A 
ATOM     59  H   UNL A   1      44.287  28.446  30.276  1.00  0.00     0.167 HD
ATOM     60  C   UNL A   1      42.663  30.697  30.857  1.00  0.00     0.074 A 
ATOM     61  C   UNL A   1      41.501  31.556  30.971  1.00  0.00     0.031 C 
ATOM     62  C   UNL A   1      43.905  31.030  31.287  1.00  0.00     0.037 A 
BRANCH  49  63
ATOM     63  C   UNL A   1      48.134  26.600  30.450  1.00  0.00     0.057 A 
ATOM     64  C   UNL A   1      48.522  25.890  31.595  1.00  0.00     0.134 A 
ATOM     65  C   UNL A   1      49.115  26.844  29.481  1.00  0.00     0.134 A 
ATOM     66  F   UNL A   1      47.635  25.630  32.567  1.00  0.00    -0.206 F 
ATOM     67  C   UNL A   1      49.840  25.471  31.783  1.00  0.00     0.040 A 
ATOM     68  C   UNL A   1      50.430  26.403  29.644  1.00  0.00     0.040 A 
ATOM     69  F   UNL A   1      48.813  27.510  28.357  1.00  0.00    -0.206 F 
ATOM     70  C   UNL A   1      50.797  25.722  30.803  1.00  0.00     0.006 A 
ENDBRANCH  49  63
BRANCH  50  71
ATOM     71  C   UNL A   1      38.548  29.103  29.222  1.00  0.00     0.057 A 
ATOM     72  C   UNL A   1      37.664  28.999  30.301  1.00  0.00     0.134 A 
ATOM     73  C   UNL A   1      38.031  29.568  28.007  1.00  0.00     0.134 A 
ATOM     74  F   UNL A   1      38.096  28.544  31.486  1.00  0.00    -0.206 F 
ATOM     75  C   UNL A   1      36.313  29.327  30.174  1.00  0.00     0.040 A 
ATOM     76  C   UNL A   1      36.688  29.925  27.873  1.00  0.00     0.040 A 
ATOM     77  F   UNL A   1      38.828  29.700  26.936  1.00  0.00    -0.206 F 
ATOM     78  C   UNL A   1      35.823  29.799  28.957  1.00  0.00     0.006 A 
ENDBRANCH  50  71
BRANCH  62  79
ATOM     79  C   UNL A   1      44.081  32.393  31.892  1.00  0.00     0.057 A 
ATOM     80  C   UNL A   1      43.978  32.611  33.273  1.00  0.00     0.134 A 
ATOM     81  C   UNL A   1      44.399  33.494  31.087  1.00  0.00     0.134 A 
ATOM     82  F   UNL A   1      43.664  31.603  34.099  1.00  0.00    -0.206 F 
ATOM     83  C   UNL A   1      44.163  33.879  33.826  1.00  0.00     0.040 A 
ATOM     84  C   UNL A   1      44.616  34.760  31.632  1.00  0.00     0.040 A 
ATOM     85  F   UNL A   1      44.521  33.353  29.759  1.00  0.00    -0.206 F 
ATOM     86  C   UNL A   1      44.491  34.957  33.005  1.00  0.00     0.006 A 
ENDBRANCH  62  79
ENDBRANCH  36  37
ENDBRANCH  28  31
ENDBRANCH  26  27
ENDBRANCH  25  26
ENDBRANCH  24  25
ENDBRANCH   1  24
TORSDOF 15
ENDMDL
MODEL 2
REMARK VINA RESULT:      -9.4      6.103     12.316
REMARK SMILES C[C@@H]1CCC[C@@H](C)C1[N@H+]1CCO[C@H](CC(=O)NCCCCCCNC(=O)c2ccc(-c3c4nc(c(-c5c(F)cccc5F)c5ccc([nH]5)c(-c5c(F)cccc5F)c5nc(c(-c6c(F)cccc6F)c6ccc3[nH]6)C=C5)C=C4)cc2)C1
REMARK SMILES IDX 20 1 19 2 18 3 17 4 15 5 16 6 14 8 13 9 9 10 10 11 81 12
REMARK SMILES IDX 11 14 12 15 8 16 1 17 2 18 3 19 4 20 6 21 5 22 7 23 21 24
REMARK SMILES IDX 22 25 23 26 24 27 25 28 26 30 27 31 28 32 80 33 29 34 79 35
REMARK SMILES IDX 30 36 31 37 32 38 73 39 33 40 78 41 72 42 74 43 34 44 77 45
REMARK SMILES IDX 71 46 70 47 35 49 61 50 44 51 60 52 45 53 48 54 59 55 75 56
REMARK SMILES IDX 46 57 47 58 58 60 76 61 49 62 36 63 37 64 42 65 38 66 39 67
REMARK SMILES IDX 41 68 43 69 40 70 62 71 63 72 68 73 64 74 65 75 67 76 69 77
REMARK SMILES IDX 66 78 50 79 51 80 56 81 52 82 53 83 55 84 57 85 54 86
REMARK H PARENT 17 7 9 13 24 29 74 48 48 59
REMARK Flexibility Score: inf
ROOT
ATOM      1  C   UNL A   1      34.427  32.335  28.925  1.00  0.00     0.002 C 
ENDROOT
BRANCH   1   2
ATOM      2  C   UNL A   1      35.375  31.708  27.899  1.00  0.00     0.021 C 
BRANCH   2   3
ATOM      3  C   UNL A   1      35.071  30.236  27.598  1.00  0.00     0.116 C 
BRANCH   3   4
ATOM      4  N   UNL A   1      33.666  29.939  27.803  1.00  0.00    -0.356 N 
ATOM      5  C   UNL A   1      32.687  29.731  26.876  1.00  0.00     0.222 C 
ATOM      6  O   UNL A   1      31.537  29.536  27.272  1.00  0.00    -0.275 OA
ATOM      7  H   UNL A   1      33.378  29.878  28.742  1.00  0.00     0.163 HD
BRANCH   5   8
ATOM      8  C   UNL A   1      33.008  29.748  25.393  1.00  0.00     0.138 C 
BRANCH   8   9
ATOM      9  C   UNL A   1      32.532  28.460  24.724  1.00  0.00     0.182 C 
ATOM     10  N   UNL A   1      33.251  26.231  23.770  1.00  0.00    -0.328 N 
ATOM     11  C   UNL A   1      32.573  26.643  22.541  1.00  0.00     0.291 C 
ATOM     12  C   UNL A   1      33.671  27.428  24.527  1.00  0.00     0.295 C 
ATOM     13  H   UNL A   1      34.058  25.718  23.413  1.00  0.00     0.348 HD
ATOM     14  C   UNL A   1      31.448  27.641  22.784  1.00  0.00     0.222 C 
ATOM     15  O   UNL A   1      31.960  28.803  23.444  1.00  0.00    -0.366 OA
BRANCH  10  16
ATOM     16  C   UNL A   1      32.821  25.055  24.559  1.00  0.00     0.189 C 
ATOM     17  C   UNL A   1      30.830  24.079  25.826  1.00  0.00     0.014 C 
ATOM     18  C   UNL A   1      31.330  24.580  24.459  1.00  0.00     0.045 C 
ATOM     19  C   UNL A   1      31.040  23.520  23.380  1.00  0.00     0.009 C 
ATOM     20  C   UNL A   1      32.069  22.403  23.271  1.00  0.00     0.001 C 
ATOM     21  C   UNL A   1      33.762  23.810  24.500  1.00  0.00     0.045 C 
ATOM     22  C   UNL A   1      33.507  22.903  23.289  1.00  0.00     0.009 C 
ATOM     23  C   UNL A   1      35.247  24.145  24.690  1.00  0.00     0.014 C 
ENDBRANCH  10  16
ENDBRANCH   8   9
ENDBRANCH   5   8
ENDBRANCH   3   4
ENDBRANCH   2   3
ENDBRANCH   1   2
BRANCH   1  24
ATOM     24  C   UNL A   1      34.573  33.853  29.086  1.00  0.00     0.002 C 
BRANCH  24  25
ATOM     25  C   UNL A   1      33.260  34.644  29.046  1.00  0.00     0.021 C 
BRANCH  25  26
ATOM     26  C   UNL A   1      33.374  36.080  29.548  1.00  0.00     0.116 C 
BRANCH  26  27
ATOM     27  N   UNL A   1      32.526  36.311  30.709  1.00  0.00    -0.352 N 
ATOM     28  C   UNL A   1      32.589  35.752  31.957  1.00  0.00     0.251 C 
ATOM     29  H   UNL A   1      31.800  36.962  30.576  1.00  0.00     0.163 HD
ATOM     30  O   UNL A   1      31.633  35.856  32.730  1.00  0.00    -0.269 OA
BRANCH  28  31
ATOM     31  C   UNL A   1      33.799  35.023  32.385  1.00  0.00     0.039 A 
ATOM     32  C   UNL A   1      33.670  33.728  32.895  1.00  0.00     0.014 A 
ATOM     33  C   UNL A   1      35.058  35.628  32.313  1.00  0.00     0.014 A 
ATOM     34  C   UNL A   1      34.810  33.021  33.281  1.00  0.00     0.010 A 
ATOM     35  C   UNL A   1      36.197  34.896  32.629  1.00  0.00     0.010 A 
ATOM     36  C   UNL A   1      36.085  33.587  33.122  1.00  0.00    -0.014 A 
BRANCH  36  37
ATOM     37  C   UNL A   1      37.313  32.827  33.465  1.00  0.00     0.031 A 
ATOM     38  C   UNL A   1      38.065  33.129  34.730  1.00  0.00     0.074 A 
ATOM     39  C   UNL A   1      37.789  31.910  32.599  1.00  0.00     0.049 A 
ATOM     40  N   UNL A   1      39.190  32.620  35.165  1.00  0.00    -0.248 NA
ATOM     41  C   UNL A   1      37.492  34.159  35.611  1.00  0.00     0.031 C 
ATOM     42  C   UNL A   1      37.176  31.561  31.317  1.00  0.00     0.029 A 
ATOM     43  N   UNL A   1      38.904  31.114  32.664  1.00  0.00    -0.354 N 
ATOM     44  C   UNL A   1      39.465  33.277  36.359  1.00  0.00     0.074 A 
ATOM     45  C   UNL A   1      38.420  34.258  36.550  1.00  0.00     0.031 C 
ATOM     46  C   UNL A   1      37.912  30.608  30.724  1.00  0.00     0.029 A 
ATOM     47  C   UNL A   1      39.068  30.307  31.563  1.00  0.00     0.049 A 
ATOM     48  H   UNL A   1      39.527  31.119  33.426  1.00  0.00     0.167 HD
ATOM     49  C   UNL A   1      40.485  33.067  37.225  1.00  0.00     0.037 A 
ATOM     50  C   UNL A   1      40.046  29.433  31.258  1.00  0.00     0.037 A 
ATOM     51  C   UNL A   1      41.513  32.076  37.037  1.00  0.00     0.049 A 
ATOM     52  C   UNL A   1      41.173  29.224  32.231  1.00  0.00     0.074 A 
ATOM     53  C   UNL A   1      42.552  31.740  37.888  1.00  0.00     0.029 A 
ATOM     54  N   UNL A   1      41.638  31.268  35.916  1.00  0.00    -0.354 N 
ATOM     55  N   UNL A   1      41.381  29.798  33.392  1.00  0.00    -0.248 NA
ATOM     56  C   UNL A   1      42.197  28.239  31.856  1.00  0.00     0.031 C 
ATOM     57  C   UNL A   1      43.337  30.768  37.258  1.00  0.00     0.029 A 
ATOM     58  C   UNL A   1      42.753  30.456  36.041  1.00  0.00     0.049 A 
ATOM     59  H   UNL A   1      41.024  31.272  35.147  1.00  0.00     0.167 HD
ATOM     60  C   UNL A   1      42.543  29.228  33.896  1.00  0.00     0.074 A 
ATOM     61  C   UNL A   1      42.985  28.251  32.922  1.00  0.00     0.031 C 
ATOM     62  C   UNL A   1      43.183  29.488  35.063  1.00  0.00     0.037 A 
BRANCH  49  63
ATOM     63  C   UNL A   1      40.542  33.933  38.452  1.00  0.00     0.057 A 
ATOM     64  C   UNL A   1      41.279  35.125  38.486  1.00  0.00     0.134 A 
ATOM     65  C   UNL A   1      39.828  33.585  39.605  1.00  0.00     0.134 A 
ATOM     66  F   UNL A   1      41.994  35.513  37.419  1.00  0.00    -0.206 F 
ATOM     67  C   UNL A   1      41.332  35.919  39.632  1.00  0.00     0.040 A 
ATOM     68  C   UNL A   1      39.849  34.387  40.748  1.00  0.00     0.040 A 
ATOM     69  F   UNL A   1      39.095  32.463  39.641  1.00  0.00    -0.206 F 
ATOM     70  C   UNL A   1      40.610  35.554  40.766  1.00  0.00     0.006 A 
ENDBRANCH  49  63
BRANCH  50  71
ATOM     71  C   UNL A   1      39.989  28.677  29.982  1.00  0.00     0.057 A 
ATOM     72  C   UNL A   1      40.635  29.149  28.834  1.00  0.00     0.134 A 
ATOM     73  C   UNL A   1      39.297  27.464  29.881  1.00  0.00     0.134 A 
ATOM     74  F   UNL A   1      41.300  30.313  28.863  1.00  0.00    -0.206 F 
ATOM     75  C   UNL A   1      40.582  28.451  27.626  1.00  0.00     0.040 A 
ATOM     76  C   UNL A   1      39.258  26.742  28.686  1.00  0.00     0.040 A 
ATOM     77  F   UNL A   1      38.665  26.953  30.948  1.00  0.00    -0.206 F 
ATOM     78  C   UNL A   1      39.896  27.239  27.553  1.00  0.00     0.006 A 
ENDBRANCH  50  71
BRANCH  62  79
ATOM     79  C   UNL A   1      44.414  28.683  35.367  1.00  0.00     0.057 A 
ATOM     80  C   UNL A   1      45.694  29.117  34.999  1.00  0.00     0.134 A 
ATOM     81  C   UNL A   1      44.320  27.478  36.073  1.00  0.00     0.134 A 
ATOM     82  F   UNL A   1      45.854  30.257  34.309  1.00  0.00    -0.206 F 
ATOM     83  C   UNL A   1      46.833  28.370  35.303  1.00  0.00     0.040 A 
ATOM     84  C   UNL A   1      45.453  26.736  36.410  1.00  0.00     0.040 A 
ATOM     85  F   UNL A   1      43.125  27.008  36.464  1.00  0.00    -0.206 F 
ATOM     86  C   UNL A   1      46.714  27.179  36.018  1.00  0.00     0.006 A 
ENDBRANCH  62  79
ENDBRANCH  36  37
ENDBRANCH  28  31
ENDBRANCH  26  27
ENDBRANCH  25  26
ENDBRANCH  24  25
ENDBRANCH   1  24
TORSDOF 15
ENDMDL
MODEL 3
REMARK VINA RESULT:      -9.3      3.646      7.275
REMARK SMILES C[C@@H]1CCC[C@@H](C)C1[N@H+]1CCO[C@H](CC(=O)NCCCCCCNC(=O)c2ccc(-c3c4nc(c(-c5c(F)cccc5F)c5ccc([nH]5)c(-c5c(F)cccc5F)c5nc(c(-c6c(F)cccc6F)c6ccc3[nH]6)C=C5)C=C4)cc2)C1
REMARK SMILES IDX 20 1 19 2 18 3 17 4 15 5 16 6 14 8 13 9 9 10 10 11 81 12
REMARK SMILES IDX 11 14 12 15 8 16 1 17 2 18 3 19 4 20 6 21 5 22 7 23 21 24
REMARK SMILES IDX 22 25 23 26 24 27 25 28 26 30 27 31 28 32 80 33 29 34 79 35
REMARK SMILES IDX 30 36 31 37 32 38 73 39 33 40 78 41 72 42 74 43 34 44 77 45
REMARK SMILES IDX 71 46 70 47 35 49 61 50 44 51 60 52 45 53 48 54 59 55 75 56
REMARK SMILES IDX 46 57 47 58 58 60 76 61 49 62 36 63 37 64 42 65 38 66 39 67
REMARK SMILES IDX 41 68 43 69 40 70 62 71 63 72 68 73 64 74 65 75 67 76 69 77
REMARK SMILES IDX 66 78 50 79 51 80 56 81 52 82 53 83 55 84 57 85 54 86
REMARK H PARENT 17 7 9 13 24 29 74 48 48 59
REMARK Flexibility Score: inf
ROOT
ATOM      1  C   UNL A   1      37.095  22.274  25.414  1.00  0.00     0.002 C 
ENDROOT
BRANCH   1   2
ATOM      2  C   UNL A   1      36.297  21.208  24.657  1.00  0.00     0.021 C 
BRANCH   2   3
ATOM      3  C   UNL A   1      34.998  20.796  25.361  1.00  0.00     0.116 C 
BRANCH   3   4
ATOM      4  N   UNL A   1      34.923  21.361  26.694  1.00  0.00    -0.356 N 
ATOM      5  C   UNL A   1      33.972  22.179  27.230  1.00  0.00     0.222 C 
ATOM      6  O   UNL A   1      34.128  22.583  28.383  1.00  0.00    -0.275 OA
ATOM      7  H   UNL A   1      35.662  21.120  27.299  1.00  0.00     0.163 HD
BRANCH   5   8
ATOM      8  C   UNL A   1      32.755  22.585  26.420  1.00  0.00     0.138 C 
BRANCH   8   9
ATOM      9  C   UNL A   1      32.916  24.006  25.881  1.00  0.00     0.182 C 
ATOM     10  N   UNL A   1      31.810  25.865  24.572  1.00  0.00    -0.328 N 
ATOM     11  C   UNL A   1      32.993  25.837  23.712  1.00  0.00     0.291 C 
ATOM     12  C   UNL A   1      31.629  24.543  25.206  1.00  0.00     0.295 C 
ATOM     13  H   UNL A   1      31.060  26.062  23.907  1.00  0.00     0.348 HD
ATOM     14  C   UNL A   1      34.238  25.322  24.423  1.00  0.00     0.222 C 
ATOM     15  O   UNL A   1      34.001  24.006  24.930  1.00  0.00    -0.366 OA
BRANCH  10  16
ATOM     16  C   UNL A   1      31.440  27.051  25.377  1.00  0.00     0.189 C 
ATOM     17  C   UNL A   1      31.536  28.007  27.743  1.00  0.00     0.014 C 
ATOM     18  C   UNL A   1      32.372  27.481  26.562  1.00  0.00     0.045 C 
ATOM     19  C   UNL A   1      33.470  28.501  26.209  1.00  0.00     0.009 C 
ATOM     20  C   UNL A   1      33.032  29.644  25.302  1.00  0.00     0.001 C 
ATOM     21  C   UNL A   1      31.014  28.319  24.571  1.00  0.00     0.045 C 
ATOM     22  C   UNL A   1      32.197  29.184  24.115  1.00  0.00     0.009 C 
ATOM     23  C   UNL A   1      30.017  28.031  23.442  1.00  0.00     0.014 C 
ENDBRANCH  10  16
ENDBRANCH   8   9
ENDBRANCH   5   8
ENDBRANCH   3   4
ENDBRANCH   2   3
ENDBRANCH   1   2
BRANCH   1  24
ATOM     24  C   UNL A   1      38.525  21.859  25.783  1.00  0.00     0.002 C 
BRANCH  24  25
ATOM     25  C   UNL A   1      38.981  20.511  25.213  1.00  0.00     0.021 C 
BRANCH  25  26
ATOM     26  C   UNL A   1      39.513  19.533  26.256  1.00  0.00     0.116 C 
BRANCH  26  27
ATOM     27  N   UNL A   1      40.821  19.013  25.885  1.00  0.00    -0.352 N 
ATOM     28  C   UNL A   1      42.016  19.669  25.765  1.00  0.00     0.251 C 
ATOM     29  H   UNL A   1      40.850  18.048  25.690  1.00  0.00     0.163 HD
ATOM     30  O   UNL A   1      42.961  19.132  25.180  1.00  0.00    -0.269 OA
BRANCH  28  31
ATOM     31  C   UNL A   1      42.183  21.021  26.334  1.00  0.00     0.039 A 
ATOM     32  C   UNL A   1      42.050  21.202  27.713  1.00  0.00     0.014 A 
ATOM     33  C   UNL A   1      42.440  22.116  25.502  1.00  0.00     0.014 A 
ATOM     34  C   UNL A   1      42.229  22.472  28.263  1.00  0.00     0.010 A 
ATOM     35  C   UNL A   1      42.690  23.365  26.060  1.00  0.00     0.010 A 
ATOM     36  C   UNL A   1      42.581  23.557  27.445  1.00  0.00    -0.014 A 
BRANCH  36  37
ATOM     37  C   UNL A   1      42.840  24.902  28.019  1.00  0.00     0.031 A 
ATOM     38  C   UNL A   1      44.216  25.271  28.498  1.00  0.00     0.074 A 
ATOM     39  C   UNL A   1      41.818  25.767  28.171  1.00  0.00     0.049 A 
ATOM     40  N   UNL A   1      44.620  26.368  29.087  1.00  0.00    -0.248 NA
ATOM     41  C   UNL A   1      45.272  24.263  28.316  1.00  0.00     0.031 C 
ATOM     42  C   UNL A   1      40.429  25.508  27.790  1.00  0.00     0.029 A 
ATOM     43  N   UNL A   1      41.789  27.033  28.698  1.00  0.00    -0.354 N 
ATOM     44  C   UNL A   1      45.970  26.176  29.358  1.00  0.00     0.074 A 
ATOM     45  C   UNL A   1      46.301  24.838  28.920  1.00  0.00     0.031 C 
ATOM     46  C   UNL A   1      39.687  26.589  28.078  1.00  0.00     0.029 A 
ATOM     47  C   UNL A   1      40.537  27.600  28.700  1.00  0.00     0.049 A 
ATOM     48  H   UNL A   1      42.589  27.493  29.043  1.00  0.00     0.167 HD
ATOM     49  C   UNL A   1      46.855  27.043  29.904  1.00  0.00     0.037 A 
ATOM     50  C   UNL A   1      40.118  28.794  29.160  1.00  0.00     0.037 A 
ATOM     51  C   UNL A   1      46.523  28.380  30.323  1.00  0.00     0.049 A 
ATOM     52  C   UNL A   1      41.118  29.736  29.772  1.00  0.00     0.074 A 
ATOM     53  C   UNL A   1      47.362  29.360  30.826  1.00  0.00     0.029 A 
ATOM     54  N   UNL A   1      45.246  28.924  30.295  1.00  0.00    -0.354 N 
ATOM     55  N   UNL A   1      42.406  29.571  29.954  1.00  0.00    -0.248 NA
ATOM     56  C   UNL A   1      40.608  31.034  30.234  1.00  0.00     0.031 C 
ATOM     57  C   UNL A   1      46.584  30.476  31.154  1.00  0.00     0.029 A 
ATOM     58  C   UNL A   1      45.270  30.213  30.800  1.00  0.00     0.049 A 
ATOM     59  H   UNL A   1      44.443  28.461  29.964  1.00  0.00     0.167 HD
ATOM     60  C   UNL A   1      42.865  30.750  30.527  1.00  0.00     0.074 A 
ATOM     61  C   UNL A   1      41.718  31.628  30.648  1.00  0.00     0.031 C 
ATOM     62  C   UNL A   1      44.122  31.077  30.915  1.00  0.00     0.037 A 
BRANCH  49  63
ATOM     63  C   UNL A   1      48.269  26.567  30.088  1.00  0.00     0.057 A 
ATOM     64  C   UNL A   1      49.254  26.772  29.112  1.00  0.00     0.134 A 
ATOM     65  C   UNL A   1      48.656  25.918  31.266  1.00  0.00     0.134 A 
ATOM     66  F   UNL A   1      48.948  27.378  27.954  1.00  0.00    -0.206 F 
ATOM     67  C   UNL A   1      50.562  26.319  29.287  1.00  0.00     0.040 A 
ATOM     68  C   UNL A   1      49.970  25.488  31.466  1.00  0.00     0.040 A 
ATOM     69  F   UNL A   1      47.768  25.695  32.246  1.00  0.00    -0.206 F 
ATOM     70  C   UNL A   1      50.925  25.680  30.470  1.00  0.00     0.006 A 
ENDBRANCH  49  63
BRANCH  50  71
ATOM     71  C   UNL A   1      38.688  29.170  29.043  1.00  0.00     0.057 A 
ATOM     72  C   UNL A   1      38.149  29.593  27.822  1.00  0.00     0.134 A 
ATOM     73  C   UNL A   1      37.824  29.109  30.143  1.00  0.00     0.134 A 
ATOM     74  F   UNL A   1      38.930  29.687  26.737  1.00  0.00    -0.206 F 
ATOM     75  C   UNL A   1      36.807  29.957  27.703  1.00  0.00     0.040 A 
ATOM     76  C   UNL A   1      36.473  29.446  30.031  1.00  0.00     0.040 A 
ATOM     77  F   UNL A   1      38.275  28.703  31.339  1.00  0.00    -0.206 F 
ATOM     78  C   UNL A   1      35.963  29.877  28.809  1.00  0.00     0.006 A 
ENDBRANCH  50  71
BRANCH  62  79
ATOM     79  C   UNL A   1      44.332  32.453  31.478  1.00  0.00     0.057 A 
ATOM     80  C   UNL A   1      44.621  33.553  30.660  1.00  0.00     0.134 A 
ATOM     81  C   UNL A   1      44.204  32.687  32.853  1.00  0.00     0.134 A 
ATOM     82  F   UNL A   1      44.769  33.397  29.336  1.00  0.00    -0.206 F 
ATOM     83  C   UNL A   1      44.796  34.832  31.193  1.00  0.00     0.040 A 
ATOM     84  C   UNL A   1      44.347  33.966  33.394  1.00  0.00     0.040 A 
ATOM     85  F   UNL A   1      43.921  31.679  33.692  1.00  0.00    -0.206 F 
ATOM     86  C   UNL A   1      44.651  35.041  32.563  1.00  0.00     0.006 A 
ENDBRANCH  62  79
ENDBRANCH  36  37
ENDBRANCH  28  31
ENDBRANCH  26  27
ENDBRANCH  25  26
ENDBRANCH  24  25
ENDBRANCH   1  24
TORSDOF 15
ENDMDL
