MODEL 1
REMARK VINA RESULT:     -11.2      0.000      0.000
REMARK SMILES COc1cccc(N(CC(=O)NCCCCCCNC(=O)c2ccc(-c3c4nc(c(-c5c(F)cccc5F)c5ccc([nH]5)c(-c5c(F)cccc5F)c5nc(c(-c6c(F)cccc6F)c6ccc3[nH]6)C=C5)C=C4)cc2)S(=O)(=O)c2ccc(C)cc2)c1
REMARK SMILES IDX 15 1 14 2 13 3 12 4 10 5 11 6 9 8 8 9 7 10 3 11 4 12 86 13
REMARK SMILES IDX 5 14 6 15 2 16 1 17 76 18 77 19 78 20 79 21 80 22 85 23
REMARK SMILES IDX 81 24 84 25 82 26 83 27 16 28 17 29 18 30 19 31 20 32 21 34
REMARK SMILES IDX 22 35 23 36 75 37 24 38 74 39 25 40 26 41 27 42 68 43 28 44
REMARK SMILES IDX 73 45 67 46 69 47 29 48 72 49 66 50 65 51 30 53 56 54 39 55
REMARK SMILES IDX 55 56 40 57 43 58 54 59 70 60 41 61 42 62 53 64 71 65 44 66
REMARK SMILES IDX 31 67 32 68 37 69 33 70 34 71 36 72 38 73 35 74 57 75 58 76
REMARK SMILES IDX 63 77 59 78 60 79 62 80 64 81 61 82 45 83 46 84 51 85 47 86
REMARK SMILES IDX 48 87 50 88 52 89 49 90
REMARK H PARENT 12 7 19 33 69 52 43 63
REMARK Flexibility Score: inf
ROOT
ATOM      1  C   UNL A   1      31.330  29.043  24.963  1.00  0.00     0.002 C 
ENDROOT
BRANCH   1   2
ATOM      2  C   UNL A   1      30.760  28.799  23.561  1.00  0.00     0.021 C 
BRANCH   2   3
ATOM      3  C   UNL A   1      30.308  27.361  23.329  1.00  0.00     0.116 C 
BRANCH   3   4
ATOM      4  N   UNL A   1      30.195  26.619  24.567  1.00  0.00    -0.355 N 
ATOM      5  C   UNL A   1      30.504  25.315  24.827  1.00  0.00     0.240 C 
ATOM      6  O   UNL A   1      30.456  24.940  26.001  1.00  0.00    -0.273 OA
ATOM      7  H   UNL A   1      29.843  27.129  25.332  1.00  0.00     0.163 HD
BRANCH   5   8
ATOM      8  C   UNL A   1      30.986  24.383  23.722  1.00  0.00     0.235 C 
BRANCH   8   9
ATOM      9  N   UNL A   1      32.306  23.764  23.998  1.00  0.00    -0.257 N 
BRANCH   9  10
ATOM     10  C   UNL A   1      32.407  22.357  24.442  1.00  0.00     0.056 A 
ATOM     11  C   UNL A   1      32.526  19.962  23.898  1.00  0.00     0.120 A 
ATOM     12  C   UNL A   1      32.942  19.672  25.193  1.00  0.00     0.046 A 
ATOM     13  C   UNL A   1      32.268  21.291  23.534  1.00  0.00     0.073 A 
ATOM     14  C   UNL A   1      33.101  20.698  26.113  1.00  0.00     0.006 A 
ATOM     15  C   UNL A   1      32.831  22.021  25.741  1.00  0.00     0.027 A 
BRANCH  11  16
ATOM     16  O   UNL A   1      32.390  18.870  23.086  1.00  0.00    -0.497 OA
ATOM     17  C   UNL A   1      33.287  17.790  23.316  1.00  0.00     0.278 C 
ENDBRANCH  11  16
ENDBRANCH   9  10
BRANCH   9  18
ATOM     18  S   UNL A   1      33.669  24.428  23.182  1.00  0.00     0.264 S 
ATOM     19  O   UNL A   1      33.715  23.828  21.859  1.00  0.00    -0.201 OA
ATOM     20  O   UNL A   1      33.599  25.870  23.314  1.00  0.00    -0.201 OA
BRANCH  18  21
ATOM     21  C   UNL A   1      35.147  23.914  24.025  1.00  0.00     0.088 A 
ATOM     22  C   UNL A   1      35.918  22.885  23.474  1.00  0.00     0.022 A 
ATOM     23  C   UNL A   1      35.458  24.437  25.283  1.00  0.00     0.022 A 
ATOM     24  C   UNL A   1      37.040  22.419  24.160  1.00  0.00     0.005 A 
ATOM     25  C   UNL A   1      36.582  23.963  25.965  1.00  0.00     0.005 A 
ATOM     26  C   UNL A   1      37.384  22.958  25.407  1.00  0.00    -0.051 A 
ATOM     27  C   UNL A   1      38.595  22.444  26.128  1.00  0.00     0.044 C 
ENDBRANCH  18  21
ENDBRANCH   9  18
ENDBRANCH   8   9
ENDBRANCH   5   8
ENDBRANCH   3   4
ENDBRANCH   2   3
ENDBRANCH   1   2
BRANCH   1  28
ATOM     28  C   UNL A   1      32.830  29.356  25.006  1.00  0.00     0.002 C 
BRANCH  28  29
ATOM     29  C   UNL A   1      33.683  28.326  25.750  1.00  0.00     0.021 C 
BRANCH  29  30
ATOM     30  C   UNL A   1      33.734  28.526  27.261  1.00  0.00     0.116 C 
BRANCH  30  31
ATOM     31  N   UNL A   1      33.700  29.935  27.623  1.00  0.00    -0.352 N 
ATOM     32  C   UNL A   1      34.657  30.700  28.241  1.00  0.00     0.251 C 
ATOM     33  H   UNL A   1      32.870  30.409  27.389  1.00  0.00     0.163 HD
ATOM     34  O   UNL A   1      34.379  31.818  28.661  1.00  0.00    -0.269 OA
BRANCH  32  35
ATOM     35  C   UNL A   1      36.023  30.165  28.414  1.00  0.00     0.039 A 
ATOM     36  C   UNL A   1      36.904  30.194  27.330  1.00  0.00     0.014 A 
ATOM     37  C   UNL A   1      36.430  29.627  29.638  1.00  0.00     0.014 A 
ATOM     38  C   UNL A   1      38.212  29.734  27.491  1.00  0.00     0.010 A 
ATOM     39  C   UNL A   1      37.754  29.243  29.818  1.00  0.00     0.010 A 
ATOM     40  C   UNL A   1      38.656  29.284  28.744  1.00  0.00    -0.014 A 
BRANCH  40  41
ATOM     41  C   UNL A   1      40.061  28.853  28.950  1.00  0.00     0.031 A 
ATOM     42  C   UNL A   1      41.071  29.808  29.524  1.00  0.00     0.074 A 
ATOM     43  C   UNL A   1      40.444  27.625  28.555  1.00  0.00     0.049 A 
ATOM     44  N   UNL A   1      42.351  29.634  29.728  1.00  0.00    -0.248 NA
ATOM     45  C   UNL A   1      40.580  31.146  29.889  1.00  0.00     0.031 C 
ATOM     46  C   UNL A   1      39.572  26.628  27.932  1.00  0.00     0.029 A 
ATOM     47  N   UNL A   1      41.669  27.011  28.607  1.00  0.00    -0.354 N 
ATOM     48  C   UNL A   1      42.821  30.840  30.230  1.00  0.00     0.074 A 
ATOM     49  C   UNL A   1      41.700  31.757  30.242  1.00  0.00     0.031 C 
ATOM     50  C   UNL A   1      40.285  25.520  27.678  1.00  0.00     0.029 A 
ATOM     51  C   UNL A   1      41.670  25.741  28.085  1.00  0.00     0.049 A 
ATOM     52  H   UNL A   1      42.473  27.439  28.983  1.00  0.00     0.167 HD
ATOM     53  C   UNL A   1      44.066  31.151  30.663  1.00  0.00     0.037 A 
ATOM     54  C   UNL A   1      42.674  24.856  27.940  1.00  0.00     0.037 A 
ATOM     55  C   UNL A   1      45.175  30.232  30.658  1.00  0.00     0.049 A 
ATOM     56  C   UNL A   1      44.049  25.220  28.423  1.00  0.00     0.074 A 
ATOM     57  C   UNL A   1      46.458  30.426  31.137  1.00  0.00     0.029 A 
ATOM     58  N   UNL A   1      45.132  28.947  30.137  1.00  0.00    -0.354 N 
ATOM     59  N   UNL A   1      44.463  26.337  28.972  1.00  0.00    -0.248 NA
ATOM     60  C   UNL A   1      45.094  24.198  28.276  1.00  0.00     0.031 C 
ATOM     61  C   UNL A   1      47.208  29.278  30.854  1.00  0.00     0.029 A 
ATOM     62  C   UNL A   1      46.376  28.346  30.254  1.00  0.00     0.049 A 
ATOM     63  H   UNL A   1      44.336  28.523  29.743  1.00  0.00     0.167 HD
ATOM     64  C   UNL A   1      45.809  26.146  29.256  1.00  0.00     0.074 A 
ATOM     65  C   UNL A   1      46.137  24.800  28.832  1.00  0.00     0.031 C 
ATOM     66  C   UNL A   1      46.692  27.008  29.820  1.00  0.00     0.037 A 
BRANCH  53  67
ATOM     67  C   UNL A   1      44.288  32.551  31.166  1.00  0.00     0.057 A 
ATOM     68  C   UNL A   1      44.693  33.590  30.315  1.00  0.00     0.134 A 
ATOM     69  C   UNL A   1      44.097  32.864  32.518  1.00  0.00     0.134 A 
ATOM     70  F   UNL A   1      44.904  33.358  29.011  1.00  0.00    -0.206 F 
ATOM     71  C   UNL A   1      44.943  34.875  30.799  1.00  0.00     0.040 A 
ATOM     72  C   UNL A   1      44.312  34.154  33.007  1.00  0.00     0.040 A 
ATOM     73  F   UNL A   1      43.701  31.922  33.387  1.00  0.00    -0.206 F 
ATOM     74  C   UNL A   1      44.748  35.162  32.148  1.00  0.00     0.006 A 
ENDBRANCH  53  67
BRANCH  54  75
ATOM     75  C   UNL A   1      42.398  23.531  27.332  1.00  0.00     0.057 A 
ATOM     76  C   UNL A   1      42.521  23.328  25.953  1.00  0.00     0.134 A 
ATOM     77  C   UNL A   1      42.040  22.428  28.117  1.00  0.00     0.134 A 
ATOM     78  F   UNL A   1      42.847  24.350  25.148  1.00  0.00    -0.206 F 
ATOM     79  C   UNL A   1      42.290  22.080  25.374  1.00  0.00     0.040 A 
ATOM     80  C   UNL A   1      41.829  21.168  27.554  1.00  0.00     0.040 A 
ATOM     81  F   UNL A   1      41.916  22.555  29.447  1.00  0.00    -0.206 F 
ATOM     82  C   UNL A   1      41.950  20.993  26.178  1.00  0.00     0.006 A 
ENDBRANCH  54  75
BRANCH  66  83
ATOM     83  C   UNL A   1      48.093  26.512  30.034  1.00  0.00     0.057 A 
ATOM     84  C   UNL A   1      48.473  25.843  31.205  1.00  0.00     0.134 A 
ATOM     85  C   UNL A   1      49.066  26.673  29.038  1.00  0.00     0.134 A 
ATOM     86  F   UNL A   1      47.595  25.668  32.204  1.00  0.00    -0.206 F 
ATOM     87  C   UNL A   1      49.775  25.372  31.387  1.00  0.00     0.040 A 
ATOM     88  C   UNL A   1      50.361  26.180  29.196  1.00  0.00     0.040 A 
ATOM     89  F   UNL A   1      48.767  27.297  27.889  1.00  0.00    -0.206 F 
ATOM     90  C   UNL A   1      50.721  25.534  30.376  1.00  0.00     0.006 A 
ENDBRANCH  66  83
ENDBRANCH  40  41
ENDBRANCH  32  35
ENDBRANCH  30  31
ENDBRANCH  29  30
ENDBRANCH  28  29
ENDBRANCH   1  28
TORSDOF 18
ENDMDL
MODEL 2
REMARK VINA RESULT:     -11.1      3.419      7.035
REMARK SMILES COc1cccc(N(CC(=O)NCCCCCCNC(=O)c2ccc(-c3c4nc(c(-c5c(F)cccc5F)c5ccc([nH]5)c(-c5c(F)cccc5F)c5nc(c(-c6c(F)cccc6F)c6ccc3[nH]6)C=C5)C=C4)cc2)S(=O)(=O)c2ccc(C)cc2)c1
REMARK SMILES IDX 15 1 14 2 13 3 12 4 10 5 11 6 9 8 8 9 7 10 3 11 4 12 86 13
REMARK SMILES IDX 5 14 6 15 2 16 1 17 76 18 77 19 78 20 79 21 80 22 85 23
REMARK SMILES IDX 81 24 84 25 82 26 83 27 16 28 17 29 18 30 19 31 20 32 21 34
REMARK SMILES IDX 22 35 23 36 75 37 24 38 74 39 25 40 26 41 27 42 68 43 28 44
REMARK SMILES IDX 73 45 67 46 69 47 29 48 72 49 66 50 65 51 30 53 56 54 39 55
REMARK SMILES IDX 55 56 40 57 43 58 54 59 70 60 41 61 42 62 53 64 71 65 44 66
REMARK SMILES IDX 31 67 32 68 37 69 33 70 34 71 36 72 38 73 35 74 57 75 58 76
REMARK SMILES IDX 63 77 59 78 60 79 62 80 64 81 61 82 45 83 46 84 51 85 47 86
REMARK SMILES IDX 48 87 50 88 52 89 49 90
REMARK H PARENT 12 7 19 33 69 52 43 63
REMARK Flexibility Score: inf
ROOT
ATOM      1  C   UNL A   1      31.797  29.500  27.208  1.00  0.00     0.002 C 
ENDROOT
BRANCH   1   2
ATOM      2  C   UNL A   1      32.239  28.145  26.645  1.00  0.00     0.021 C 
BRANCH   2   3
ATOM      3  C   UNL A   1      31.168  27.456  25.805  1.00  0.00     0.116 C 
BRANCH   3   4
ATOM      4  N   UNL A   1      30.692  26.236  26.421  1.00  0.00    -0.355 N 
ATOM      5  C   UNL A   1      30.727  24.955  25.950  1.00  0.00     0.240 C 
ATOM      6  O   UNL A   1      30.386  24.054  26.719  1.00  0.00    -0.273 OA
ATOM      7  H   UNL A   1      30.285  26.346  27.311  1.00  0.00     0.163 HD
BRANCH   5   8
ATOM      8  C   UNL A   1      31.258  24.643  24.556  1.00  0.00     0.235 C 
BRANCH   8   9
ATOM      9  N   UNL A   1      32.538  23.894  24.561  1.00  0.00    -0.257 N 
BRANCH   9  10
ATOM     10  C   UNL A   1      32.554  22.418  24.654  1.00  0.00     0.056 A 
ATOM     11  C   UNL A   1      32.434  20.220  23.559  1.00  0.00     0.120 A 
ATOM     12  C   UNL A   1      32.918  19.603  24.707  1.00  0.00     0.046 A 
ATOM     13  C   UNL A   1      32.261  21.611  23.539  1.00  0.00     0.073 A 
ATOM     14  C   UNL A   1      33.229  20.366  25.822  1.00  0.00     0.006 A 
ATOM     15  C   UNL A   1      33.043  21.754  25.794  1.00  0.00     0.027 A 
BRANCH  11  16
ATOM     16  O   UNL A   1      32.148  19.364  22.530  1.00  0.00    -0.497 OA
ATOM     17  C   UNL A   1      32.495  17.998  22.722  1.00  0.00     0.278 C 
ENDBRANCH  11  16
ENDBRANCH   9  10
BRANCH   9  18
ATOM     18  S   UNL A   1      33.890  24.645  23.804  1.00  0.00     0.264 S 
ATOM     19  O   UNL A   1      33.795  24.372  22.380  1.00  0.00    -0.201 OA
ATOM     20  O   UNL A   1      33.945  26.017  24.270  1.00  0.00    -0.201 OA
BRANCH  18  21
ATOM     21  C   UNL A   1      35.377  23.857  24.375  1.00  0.00     0.088 A 
ATOM     22  C   UNL A   1      35.923  22.812  23.621  1.00  0.00     0.022 A 
ATOM     23  C   UNL A   1      35.914  24.187  25.622  1.00  0.00     0.022 A 
ATOM     24  C   UNL A   1      37.047  22.135  24.092  1.00  0.00     0.005 A 
ATOM     25  C   UNL A   1      37.040  23.501  26.088  1.00  0.00     0.005 A 
ATOM     26  C   UNL A   1      37.618  22.477  25.325  1.00  0.00    -0.051 A 
ATOM     27  C   UNL A   1      38.828  21.736  25.813  1.00  0.00     0.044 C 
ENDBRANCH  18  21
ENDBRANCH   9  18
ENDBRANCH   8   9
ENDBRANCH   5   8
ENDBRANCH   3   4
ENDBRANCH   2   3
ENDBRANCH   1   2
BRANCH   1  28
ATOM     28  C   UNL A   1      31.414  30.544  26.153  1.00  0.00     0.002 C 
BRANCH  28  29
ATOM     29  C   UNL A   1      31.327  31.983  26.670  1.00  0.00     0.021 C 
BRANCH  29  30
ATOM     30  C   UNL A   1      32.677  32.654  26.895  1.00  0.00     0.116 C 
BRANCH  30  31
ATOM     31  N   UNL A   1      32.537  33.951  27.539  1.00  0.00    -0.352 N 
ATOM     32  C   UNL A   1      33.208  34.463  28.621  1.00  0.00     0.251 C 
ATOM     33  H   UNL A   1      31.864  34.548  27.140  1.00  0.00     0.163 HD
ATOM     34  O   UNL A   1      32.814  35.491  29.162  1.00  0.00    -0.269 OA
BRANCH  32  35
ATOM     35  C   UNL A   1      34.398  33.763  29.145  1.00  0.00     0.039 A 
ATOM     36  C   UNL A   1      35.665  34.284  28.870  1.00  0.00     0.014 A 
ATOM     37  C   UNL A   1      34.266  32.591  29.895  1.00  0.00     0.014 A 
ATOM     38  C   UNL A   1      36.797  33.660  29.395  1.00  0.00     0.010 A 
ATOM     39  C   UNL A   1      35.387  32.016  30.482  1.00  0.00     0.010 A 
ATOM     40  C   UNL A   1      36.665  32.539  30.231  1.00  0.00    -0.014 A 
BRANCH  40  41
ATOM     41  C   UNL A   1      37.853  31.902  30.852  1.00  0.00     0.031 A 
ATOM     42  C   UNL A   1      38.580  30.796  30.138  1.00  0.00     0.074 A 
ATOM     43  C   UNL A   1      38.235  32.271  32.089  1.00  0.00     0.049 A 
ATOM     44  N   UNL A   1      39.600  30.083  30.540  1.00  0.00    -0.248 NA
ATOM     45  C   UNL A   1      38.071  30.423  28.810  1.00  0.00     0.031 C 
ATOM     46  C   UNL A   1      37.576  33.291  32.907  1.00  0.00     0.029 A 
ATOM     47  N   UNL A   1      39.261  31.822  32.879  1.00  0.00    -0.354 N 
ATOM     48  C   UNL A   1      39.847  29.171  29.524  1.00  0.00     0.074 A 
ATOM     49  C   UNL A   1      38.831  29.379  28.514  1.00  0.00     0.031 C 
ATOM     50  C   UNL A   1      38.228  33.403  34.074  1.00  0.00     0.029 A 
ATOM     51  C   UNL A   1      39.324  32.439  34.103  1.00  0.00     0.049 A 
ATOM     52  H   UNL A   1      39.895  31.122  32.595  1.00  0.00     0.167 HD
ATOM     53  C   UNL A   1      40.843  28.257  29.427  1.00  0.00     0.037 A 
ATOM     54  C   UNL A   1      40.164  32.246  35.137  1.00  0.00     0.037 A 
ATOM     55  C   UNL A   1      41.858  28.060  30.430  1.00  0.00     0.049 A 
ATOM     56  C   UNL A   1      41.260  31.226  35.014  1.00  0.00     0.074 A 
ATOM     57  C   UNL A   1      42.947  27.209  30.400  1.00  0.00     0.029 A 
ATOM     58  N   UNL A   1      41.898  28.719  31.651  1.00  0.00    -0.354 N 
ATOM     59  N   UNL A   1      41.532  30.424  34.012  1.00  0.00    -0.248 NA
ATOM     60  C   UNL A   1      42.169  31.090  36.159  1.00  0.00     0.031 C 
ATOM     61  C   UNL A   1      43.615  27.312  31.625  1.00  0.00     0.029 A 
ATOM     62  C   UNL A   1      42.977  28.270  32.396  1.00  0.00     0.049 A 
ATOM     63  H   UNL A   1      41.255  29.404  31.945  1.00  0.00     0.167 HD
ATOM     64  C   UNL A   1      42.657  29.705  34.395  1.00  0.00     0.074 A 
ATOM     65  C   UNL A   1      43.022  30.176  35.716  1.00  0.00     0.031 C 
ATOM     66  C   UNL A   1      43.326  28.742  33.713  1.00  0.00     0.037 A 
BRANCH  53  67
ATOM     67  C   UNL A   1      40.866  27.395  28.195  1.00  0.00     0.057 A 
ATOM     68  C   UNL A   1      41.597  27.752  27.053  1.00  0.00     0.134 A 
ATOM     69  C   UNL A   1      40.147  26.193  28.149  1.00  0.00     0.134 A 
ATOM     70  F   UNL A   1      42.300  28.894  27.024  1.00  0.00    -0.206 F 
ATOM     71  C   UNL A   1      41.575  26.970  25.897  1.00  0.00     0.040 A 
ATOM     72  C   UNL A   1      40.145  25.387  27.010  1.00  0.00     0.040 A 
ATOM     73  F   UNL A   1      39.434  25.785  29.209  1.00  0.00    -0.206 F 
ATOM     74  C   UNL A   1      40.850  25.781  25.874  1.00  0.00     0.006 A 
ENDBRANCH  53  67
BRANCH  54  75
ATOM     75  C   UNL A   1      40.008  33.062  36.367  1.00  0.00     0.057 A 
ATOM     76  C   UNL A   1      40.777  34.211  36.576  1.00  0.00     0.134 A 
ATOM     77  C   UNL A   1      39.061  32.733  37.346  1.00  0.00     0.134 A 
ATOM     78  F   UNL A   1      41.710  34.569  35.681  1.00  0.00    -0.206 F 
ATOM     79  C   UNL A   1      40.620  35.000  37.716  1.00  0.00     0.040 A 
ATOM     80  C   UNL A   1      38.876  33.525  38.479  1.00  0.00     0.040 A 
ATOM     81  F   UNL A   1      38.285  31.648  37.199  1.00  0.00    -0.206 F 
ATOM     82  C   UNL A   1      39.661  34.660  38.669  1.00  0.00     0.006 A 
ENDBRANCH  54  75
BRANCH  66  83
ATOM     83  C   UNL A   1      44.539  28.151  34.373  1.00  0.00     0.057 A 
ATOM     84  C   UNL A   1      45.810  28.725  34.241  1.00  0.00     0.134 A 
ATOM     85  C   UNL A   1      44.426  27.013  35.183  1.00  0.00     0.134 A 
ATOM     86  F   UNL A   1      45.990  29.808  33.469  1.00  0.00    -0.206 F 
ATOM     87  C   UNL A   1      46.928  28.177  34.872  1.00  0.00     0.040 A 
ATOM     88  C   UNL A   1      45.530  26.474  35.843  1.00  0.00     0.040 A 
ATOM     89  F   UNL A   1      43.237  26.418  35.360  1.00  0.00    -0.206 F 
ATOM     90  C   UNL A   1      46.787  27.051  35.683  1.00  0.00     0.006 A 
ENDBRANCH  66  83
ENDBRANCH  40  41
ENDBRANCH  32  35
ENDBRANCH  30  31
ENDBRANCH  29  30
ENDBRANCH  28  29
ENDBRANCH   1  28
TORSDOF 18
ENDMDL
MODEL 3
REMARK VINA RESULT:     -10.9      3.795      7.901
REMARK SMILES COc1cccc(N(CC(=O)NCCCCCCNC(=O)c2ccc(-c3c4nc(c(-c5c(F)cccc5F)c5ccc([nH]5)c(-c5c(F)cccc5F)c5nc(c(-c6c(F)cccc6F)c6ccc3[nH]6)C=C5)C=C4)cc2)S(=O)(=O)c2ccc(C)cc2)c1
REMARK SMILES IDX 15 1 14 2 13 3 12 4 10 5 11 6 9 8 8 9 7 10 3 11 4 12 86 13
REMARK SMILES IDX 5 14 6 15 2 16 1 17 76 18 77 19 78 20 79 21 80 22 85 23
REMARK SMILES IDX 81 24 84 25 82 26 83 27 16 28 17 29 18 30 19 31 20 32 21 34
REMARK SMILES IDX 22 35 23 36 75 37 24 38 74 39 25 40 26 41 27 42 68 43 28 44
REMARK SMILES IDX 73 45 67 46 69 47 29 48 72 49 66 50 65 51 30 53 56 54 39 55
REMARK SMILES IDX 55 56 40 57 43 58 54 59 70 60 41 61 42 62 53 64 71 65 44 66
REMARK SMILES IDX 31 67 32 68 37 69 33 70 34 71 36 72 38 73 35 74 57 75 58 76
REMARK SMILES IDX 63 77 59 78 60 79 62 80 64 81 61 82 45 83 46 84 51 85 47 86
REMARK SMILES IDX 48 87 50 88 52 89 49 90
REMARK H PARENT 12 7 19 33 69 52 43 63
REMARK Flexibility Score: inf
ROOT
ATOM      1  C   UNL A   1      32.307  29.422  26.677  1.00  0.00     0.002 C 
ENDROOT
BRANCH   1   2
ATOM      2  C   UNL A   1      31.404  28.355  27.307  1.00  0.00     0.021 C 
BRANCH   2   3
ATOM      3  C   UNL A   1      31.295  27.082  26.474  1.00  0.00     0.116 C 
BRANCH   3   4
ATOM      4  N   UNL A   1      32.375  26.157  26.749  1.00  0.00    -0.355 N 
ATOM      5  C   UNL A   1      32.691  24.984  26.126  1.00  0.00     0.240 C 
ATOM      6  O   UNL A   1      33.747  24.434  26.446  1.00  0.00    -0.273 OA
ATOM      7  H   UNL A   1      32.968  26.411  27.493  1.00  0.00     0.163 HD
BRANCH   5   8
ATOM      8  C   UNL A   1      31.819  24.425  25.008  1.00  0.00     0.235 C 
BRANCH   8   9
ATOM      9  N   UNL A   1      32.283  24.797  23.649  1.00  0.00    -0.257 N 
BRANCH   9  10
ATOM     10  C   UNL A   1      32.196  26.194  23.173  1.00  0.00     0.056 A 
ATOM     11  C   UNL A   1      30.835  28.110  22.448  1.00  0.00     0.120 A 
ATOM     12  C   UNL A   1      31.926  28.959  22.590  1.00  0.00     0.046 A 
ATOM     13  C   UNL A   1      30.975  26.746  22.742  1.00  0.00     0.073 A 
ATOM     14  C   UNL A   1      33.143  28.454  23.024  1.00  0.00     0.006 A 
ATOM     15  C   UNL A   1      33.274  27.089  23.305  1.00  0.00     0.027 A 
BRANCH  11  16
ATOM     16  O   UNL A   1      29.694  28.717  22.000  1.00  0.00    -0.497 OA
ATOM     17  C   UNL A   1      29.677  30.140  22.030  1.00  0.00     0.278 C 
ENDBRANCH  11  16
ENDBRANCH   9  10
BRANCH   9  18
ATOM     18  S   UNL A   1      33.489  23.799  22.932  1.00  0.00     0.264 S 
ATOM     19  O   UNL A   1      33.279  23.832  21.495  1.00  0.00    -0.201 OA
ATOM     20  O   UNL A   1      34.771  24.200  23.479  1.00  0.00    -0.201 OA
BRANCH  18  21
ATOM     21  C   UNL A   1      33.223  22.119  23.446  1.00  0.00     0.088 A 
ATOM     22  C   UNL A   1      34.049  21.574  24.435  1.00  0.00     0.022 A 
ATOM     23  C   UNL A   1      32.293  21.317  22.779  1.00  0.00     0.022 A 
ATOM     24  C   UNL A   1      33.901  20.235  24.798  1.00  0.00     0.005 A 
ATOM     25  C   UNL A   1      32.153  19.976  23.147  1.00  0.00     0.005 A 
ATOM     26  C   UNL A   1      32.949  19.428  24.162  1.00  0.00    -0.051 A 
ATOM     27  C   UNL A   1      32.806  17.991  24.567  1.00  0.00     0.044 C 
ENDBRANCH  18  21
ENDBRANCH   9  18
ENDBRANCH   8   9
ENDBRANCH   5   8
ENDBRANCH   3   4
ENDBRANCH   2   3
ENDBRANCH   1   2
BRANCH   1  28
ATOM     28  C   UNL A   1      31.574  30.466  25.826  1.00  0.00     0.002 C 
BRANCH  28  29
ATOM     29  C   UNL A   1      31.375  31.825  26.501  1.00  0.00     0.021 C 
BRANCH  29  30
ATOM     30  C   UNL A   1      32.642  32.418  27.108  1.00  0.00     0.116 C 
BRANCH  30  31
ATOM     31  N   UNL A   1      32.469  33.817  27.465  1.00  0.00    -0.352 N 
ATOM     32  C   UNL A   1      33.084  34.548  28.450  1.00  0.00     0.251 C 
ATOM     33  H   UNL A   1      31.815  34.313  26.921  1.00  0.00     0.163 HD
ATOM     34  O   UNL A   1      32.663  35.661  28.749  1.00  0.00    -0.269 OA
BRANCH  32  35
ATOM     35  C   UNL A   1      34.249  33.985  29.161  1.00  0.00     0.039 A 
ATOM     36  C   UNL A   1      34.032  33.135  30.249  1.00  0.00     0.014 A 
ATOM     37  C   UNL A   1      35.552  34.302  28.765  1.00  0.00     0.014 A 
ATOM     38  C   UNL A   1      35.121  32.558  30.903  1.00  0.00     0.010 A 
ATOM     39  C   UNL A   1      36.632  33.666  29.367  1.00  0.00     0.010 A 
ATOM     40  C   UNL A   1      36.428  32.795  30.448  1.00  0.00    -0.014 A 
BRANCH  40  41
ATOM     41  C   UNL A   1      37.594  32.139  31.090  1.00  0.00     0.031 A 
ATOM     42  C   UNL A   1      38.328  31.034  30.381  1.00  0.00     0.074 A 
ATOM     43  C   UNL A   1      37.949  32.490  32.340  1.00  0.00     0.049 A 
ATOM     44  N   UNL A   1      39.332  30.307  30.800  1.00  0.00    -0.248 NA
ATOM     45  C   UNL A   1      37.848  30.681  29.037  1.00  0.00     0.031 C 
ATOM     46  C   UNL A   1      37.280  33.507  33.154  1.00  0.00     0.029 A 
ATOM     47  N   UNL A   1      38.952  32.022  33.150  1.00  0.00    -0.354 N 
ATOM     48  C   UNL A   1      39.594  29.404  29.779  1.00  0.00     0.074 A 
ATOM     49  C   UNL A   1      38.606  29.634  28.748  1.00  0.00     0.031 C 
ATOM     50  C   UNL A   1      37.904  33.599  34.338  1.00  0.00     0.029 A 
ATOM     51  C   UNL A   1      38.990  32.624  34.382  1.00  0.00     0.049 A 
ATOM     52  H   UNL A   1      39.585  31.319  32.874  1.00  0.00     0.167 HD
ATOM     53  C   UNL A   1      40.584  28.482  29.697  1.00  0.00     0.037 A 
ATOM     54  C   UNL A   1      39.802  32.412  35.435  1.00  0.00     0.037 A 
ATOM     55  C   UNL A   1      41.571  28.263  30.722  1.00  0.00     0.049 A 
ATOM     56  C   UNL A   1      40.890  31.382  35.326  1.00  0.00     0.074 A 
ATOM     57  C   UNL A   1      42.653  27.402  30.709  1.00  0.00     0.029 A 
ATOM     58  N   UNL A   1      41.588  28.907  31.951  1.00  0.00    -0.354 N 
ATOM     59  N   UNL A   1      41.180  30.589  34.322  1.00  0.00    -0.248 NA
ATOM     60  C   UNL A   1      41.770  31.223  36.492  1.00  0.00     0.031 C 
ATOM     61  C   UNL A   1      43.292  27.483  31.951  1.00  0.00     0.029 A 
ATOM     62  C   UNL A   1      42.644  28.439  32.717  1.00  0.00     0.049 A 
ATOM     63  H   UNL A   1      40.945  29.595  32.237  1.00  0.00     0.167 HD
ATOM     64  C   UNL A   1      42.288  29.854  34.725  1.00  0.00     0.074 A 
ATOM     65  C   UNL A   1      42.625  30.306  36.059  1.00  0.00     0.031 C 
ATOM     66  C   UNL A   1      42.964  28.893  34.048  1.00  0.00     0.037 A 
BRANCH  53  67
ATOM     67  C   UNL A   1      40.629  27.634  28.456  1.00  0.00     0.057 A 
ATOM     68  C   UNL A   1      39.953  26.408  28.368  1.00  0.00     0.134 A 
ATOM     69  C   UNL A   1      41.360  28.047  27.334  1.00  0.00     0.134 A 
ATOM     70  F   UNL A   1      39.243  25.947  29.408  1.00  0.00    -0.206 F 
ATOM     71  C   UNL A   1      40.040  25.605  27.229  1.00  0.00     0.040 A 
ATOM     72  C   UNL A   1      41.427  27.268  26.177  1.00  0.00     0.040 A 
ATOM     73  F   UNL A   1      42.024  29.213  27.344  1.00  0.00    -0.206 F 
ATOM     74  C   UNL A   1      40.775  26.037  26.127  1.00  0.00     0.006 A 
ENDBRANCH  53  67
BRANCH  54  75
ATOM     75  C   UNL A   1      39.623  33.214  36.669  1.00  0.00     0.057 A 
ATOM     76  C   UNL A   1      40.337  34.400  36.871  1.00  0.00     0.134 A 
ATOM     77  C   UNL A   1      38.709  32.835  37.661  1.00  0.00     0.134 A 
ATOM     78  F   UNL A   1      41.237  34.808  35.965  1.00  0.00    -0.206 F 
ATOM     79  C   UNL A   1      40.157  35.176  38.017  1.00  0.00     0.040 A 
ATOM     80  C   UNL A   1      38.501  33.613  38.800  1.00  0.00     0.040 A 
ATOM     81  F   UNL A   1      37.986  31.713  37.521  1.00  0.00    -0.206 F 
ATOM     82  C   UNL A   1      39.230  34.786  38.982  1.00  0.00     0.006 A 
ENDBRANCH  54  75
BRANCH  66  83
ATOM     83  C   UNL A   1      44.155  28.282  34.730  1.00  0.00     0.057 A 
ATOM     84  C   UNL A   1      45.433  28.849  34.641  1.00  0.00     0.134 A 
ATOM     85  C   UNL A   1      44.012  27.133  35.519  1.00  0.00     0.134 A 
ATOM     86  F   UNL A   1      45.642  29.942  33.891  1.00  0.00    -0.206 F 
ATOM     87  C   UNL A   1      46.530  28.282  35.293  1.00  0.00     0.040 A 
ATOM     88  C   UNL A   1      45.095  26.575  36.200  1.00  0.00     0.040 A 
ATOM     89  F   UNL A   1      42.814  26.544  35.655  1.00  0.00    -0.206 F 
ATOM     90  C   UNL A   1      46.359  27.145  36.082  1.00  0.00     0.006 A 
ENDBRANCH  66  83
ENDBRANCH  40  41
ENDBRANCH  32  35
ENDBRANCH  30  31
ENDBRANCH  29  30
ENDBRANCH  28  29
ENDBRANCH   1  28
TORSDOF 18
ENDMDL
