MODEL 1
REMARK VINA RESULT:     -11.1      0.000      0.000
REMARK SMILES Cc1n[nH]c(C)c1S(=O)(=O)N[C@H](C(=O)NCCCCCCNC(=O)c1ccc(-c2c3nc(c(-c4c(F)cccc4F)c4ccc([nH]4)c(-c4c(F)cccc4F)c4nc(c(-c5c(F)cccc5F)c5ccc2[nH]5)C=C4)C=C3)cc1)C(C)C
REMARK SMILES IDX 18 1 17 2 16 3 15 4 13 5 14 6 12 8 11 9 8 11 9 12 10 13 7 14
REMARK SMILES IDX 1 15 2 16 3 17 4 18 5 19 6 21 79 22 80 23 81 24 19 25 20 26
REMARK SMILES IDX 21 27 22 28 23 29 24 31 25 32 26 33 78 34 27 35 77 36 28 37
REMARK SMILES IDX 29 38 30 39 71 40 31 41 76 42 70 43 72 44 32 45 75 46 69 47
REMARK SMILES IDX 68 48 33 50 59 51 42 52 58 53 43 54 46 55 57 56 73 57 44 58
REMARK SMILES IDX 45 59 56 61 74 62 47 63 34 64 35 65 40 66 36 67 37 68 39 69
REMARK SMILES IDX 41 70 38 71 60 72 61 73 66 74 62 75 63 76 65 77 67 78 64 79
REMARK SMILES IDX 48 80 49 81 54 82 50 83 51 84 53 85 55 86 52 87
REMARK H PARENT 15 7 11 10 4 20 22 30 72 49 46 60
REMARK Flexibility Score: inf
ROOT
ATOM      1  C   UNL A   1      32.987  29.985  27.323  1.00  0.00     0.002 C 
ENDROOT
BRANCH   1   2
ATOM      2  C   UNL A   1      34.148  29.514  26.439  1.00  0.00     0.021 C 
BRANCH   2   3
ATOM      3  C   UNL A   1      33.820  28.323  25.533  1.00  0.00     0.116 C 
BRANCH   3   4
ATOM      4  N   UNL A   1      33.946  28.713  24.143  1.00  0.00    -0.355 N 
ATOM      5  C   UNL A   1      33.546  28.071  23.010  1.00  0.00     0.238 C 
ATOM      6  O   UNL A   1      34.045  28.453  21.942  1.00  0.00    -0.273 OA
ATOM      7  H   UNL A   1      34.391  29.578  23.994  1.00  0.00     0.163 HD
BRANCH   5   8
ATOM      8  C   UNL A   1      32.441  26.955  23.019  1.00  0.00     0.161 C 
BRANCH   8   9
ATOM      9  N   UNL A   1      31.419  27.670  22.206  1.00  0.00    -0.198 NA
ATOM     10  H   UNL A   1      31.912  27.959  21.361  1.00  0.00     0.142 HD
BRANCH   9  11
ATOM     11  S   UNL A   1      30.525  28.992  22.646  1.00  0.00     0.244 S 
ATOM     12  O   UNL A   1      30.453  29.897  21.531  1.00  0.00    -0.207 OA
ATOM     13  O   UNL A   1      31.047  29.433  23.925  1.00  0.00    -0.207 OA
BRANCH  11  14
ATOM     14  C   UNL A   1      28.910  28.534  22.997  1.00  0.00     0.125 A 
ATOM     15  C   UNL A   1      27.620  30.709  22.305  1.00  0.00     0.070 C 
ATOM     16  C   UNL A   1      27.749  29.322  22.821  1.00  0.00     0.079 A 
ATOM     17  N   UNL A   1      26.650  28.648  23.196  1.00  0.00    -0.179 NA
ATOM     18  N   UNL A   1      27.119  27.483  23.666  1.00  0.00    -0.281 N 
ATOM     19  C   UNL A   1      28.475  27.349  23.564  1.00  0.00     0.052 A 
ATOM     20  H   UNL A   1      26.537  26.786  24.049  1.00  0.00     0.190 HD
ATOM     21  C   UNL A   1      29.190  26.144  24.041  1.00  0.00     0.067 C 
ENDBRANCH  11  14
ENDBRANCH   9  11
ENDBRANCH   8   9
BRANCH   8  22
ATOM     22  C   UNL A   1      32.957  25.637  22.397  1.00  0.00     0.010 C 
ATOM     23  C   UNL A   1      32.331  24.405  23.064  1.00  0.00     0.009 C 
ATOM     24  C   UNL A   1      32.668  25.516  20.895  1.00  0.00     0.009 C 
ENDBRANCH   8  22
ENDBRANCH   5   8
ENDBRANCH   3   4
ENDBRANCH   2   3
ENDBRANCH   1   2
BRANCH   1  25
ATOM     25  C   UNL A   1      31.785  30.562  26.570  1.00  0.00     0.002 C 
BRANCH  25  26
ATOM     26  C   UNL A   1      31.422  32.010  26.912  1.00  0.00     0.021 C 
BRANCH  26  27
ATOM     27  C   UNL A   1      32.548  33.028  26.741  1.00  0.00     0.116 C 
BRANCH  27  28
ATOM     28  N   UNL A   1      32.386  34.190  27.598  1.00  0.00    -0.352 N 
ATOM     29  C   UNL A   1      33.092  34.558  28.718  1.00  0.00     0.251 C 
ATOM     30  H   UNL A   1      31.662  34.806  27.337  1.00  0.00     0.163 HD
ATOM     31  O   UNL A   1      32.705  35.487  29.419  1.00  0.00    -0.269 OA
BRANCH  29  32
ATOM     32  C   UNL A   1      34.308  33.808  29.098  1.00  0.00     0.039 A 
ATOM     33  C   UNL A   1      35.558  34.342  28.775  1.00  0.00     0.014 A 
ATOM     34  C   UNL A   1      34.215  32.591  29.779  1.00  0.00     0.014 A 
ATOM     35  C   UNL A   1      36.719  33.701  29.216  1.00  0.00     0.010 A 
ATOM     36  C   UNL A   1      35.370  31.983  30.264  1.00  0.00     0.010 A 
ATOM     37  C   UNL A   1      36.632  32.542  30.004  1.00  0.00    -0.014 A 
BRANCH  37  38
ATOM     38  C   UNL A   1      37.837  31.930  30.619  1.00  0.00     0.031 A 
ATOM     39  C   UNL A   1      38.591  30.848  29.900  1.00  0.00     0.074 A 
ATOM     40  C   UNL A   1      38.184  32.276  31.873  1.00  0.00     0.049 A 
ATOM     41  N   UNL A   1      39.577  30.104  30.332  1.00  0.00    -0.248 NA
ATOM     42  C   UNL A   1      38.167  30.549  28.524  1.00  0.00     0.031 C 
ATOM     43  C   UNL A   1      37.504  33.281  32.694  1.00  0.00     0.029 A 
ATOM     44  N   UNL A   1      39.179  31.801  32.691  1.00  0.00    -0.354 N 
ATOM     45  C   UNL A   1      39.878  29.236  29.292  1.00  0.00     0.074 A 
ATOM     46  C   UNL A   1      38.952  29.524  28.218  1.00  0.00     0.031 C 
ATOM     47  C   UNL A   1      38.098  33.343  33.896  1.00  0.00     0.029 A 
ATOM     48  C   UNL A   1      39.172  32.357  33.947  1.00  0.00     0.049 A 
ATOM     49  H   UNL A   1      39.836  31.126  32.404  1.00  0.00     0.167 HD
ATOM     50  C   UNL A   1      40.848  28.292  29.235  1.00  0.00     0.037 A 
ATOM     51  C   UNL A   1      39.927  32.086  35.029  1.00  0.00     0.037 A 
ATOM     52  C   UNL A   1      41.789  28.028  30.292  1.00  0.00     0.049 A 
ATOM     53  C   UNL A   1      40.987  31.025  34.941  1.00  0.00     0.074 A 
ATOM     54  C   UNL A   1      42.865  27.158  30.289  1.00  0.00     0.029 A 
ATOM     55  N   UNL A   1      41.761  28.626  31.541  1.00  0.00    -0.354 N 
ATOM     56  N   UNL A   1      41.312  30.266  33.924  1.00  0.00    -0.248 NA
ATOM     57  C   UNL A   1      41.785  30.782  36.153  1.00  0.00     0.031 C 
ATOM     58  C   UNL A   1      43.462  27.195  31.553  1.00  0.00     0.029 A 
ATOM     59  C   UNL A   1      42.781  28.118  32.330  1.00  0.00     0.049 A 
ATOM     60  H   UNL A   1      41.114  29.310  31.827  1.00  0.00     0.167 HD
ATOM     61  C   UNL A   1      42.358  29.466  34.366  1.00  0.00     0.074 A 
ATOM     62  C   UNL A   1      42.626  29.845  35.737  1.00  0.00     0.031 C 
ATOM     63  C   UNL A   1      43.033  28.501  33.695  1.00  0.00     0.037 A 
BRANCH  50  64
ATOM     64  C   UNL A   1      40.946  27.467  27.987  1.00  0.00     0.057 A 
ATOM     65  C   UNL A   1      41.741  27.860  26.903  1.00  0.00     0.134 A 
ATOM     66  C   UNL A   1      40.288  26.235  27.893  1.00  0.00     0.134 A 
ATOM     67  F   UNL A   1      42.391  29.034  26.927  1.00  0.00    -0.206 F 
ATOM     68  C   UNL A   1      41.866  27.064  25.763  1.00  0.00     0.040 A 
ATOM     69  C   UNL A   1      40.422  25.419  26.768  1.00  0.00     0.040 A 
ATOM     70  F   UNL A   1      39.516  25.797  28.899  1.00  0.00    -0.206 F 
ATOM     71  C   UNL A   1      41.211  25.835  25.697  1.00  0.00     0.006 A 
ENDBRANCH  50  64
BRANCH  51  72
ATOM     72  C   UNL A   1      39.697  32.820  36.298  1.00  0.00     0.057 A 
ATOM     73  C   UNL A   1      40.457  33.949  36.628  1.00  0.00     0.134 A 
ATOM     74  C   UNL A   1      38.724  32.406  37.216  1.00  0.00     0.134 A 
ATOM     75  F   UNL A   1      41.417  34.381  35.798  1.00  0.00    -0.206 F 
ATOM     76  C   UNL A   1      40.270  34.628  37.832  1.00  0.00     0.040 A 
ATOM     77  C   UNL A   1      38.511  33.090  38.413  1.00  0.00     0.040 A 
ATOM     78  F   UNL A   1      37.959  31.336  36.954  1.00  0.00    -0.206 F 
ATOM     79  C   UNL A   1      39.291  34.200  38.727  1.00  0.00     0.006 A 
ENDBRANCH  51  72
BRANCH  63  80
ATOM     80  C   UNL A   1      44.132  27.796  34.430  1.00  0.00     0.057 A 
ATOM     81  C   UNL A   1      45.429  28.321  34.488  1.00  0.00     0.134 A 
ATOM     82  C   UNL A   1      43.883  26.606  35.124  1.00  0.00     0.134 A 
ATOM     83  F   UNL A   1      45.735  29.450  33.831  1.00  0.00    -0.206 F 
ATOM     84  C   UNL A   1      46.444  27.678  35.198  1.00  0.00     0.040 A 
ATOM     85  C   UNL A   1      44.883  25.966  35.856  1.00  0.00     0.040 A 
ATOM     86  F   UNL A   1      42.659  26.055  35.113  1.00  0.00    -0.206 F 
ATOM     87  C   UNL A   1      46.169  26.501  35.892  1.00  0.00     0.006 A 
ENDBRANCH  63  80
ENDBRANCH  37  38
ENDBRANCH  29  32
ENDBRANCH  27  28
ENDBRANCH  26  27
ENDBRANCH  25  26
ENDBRANCH   1  25
TORSDOF 17
ENDMDL
MODEL 2
REMARK VINA RESULT:     -11.1      5.216      9.964
REMARK SMILES Cc1n[nH]c(C)c1S(=O)(=O)N[C@H](C(=O)NCCCCCCNC(=O)c1ccc(-c2c3nc(c(-c4c(F)cccc4F)c4ccc([nH]4)c(-c4c(F)cccc4F)c4nc(c(-c5c(F)cccc5F)c5ccc2[nH]5)C=C4)C=C3)cc1)C(C)C
REMARK SMILES IDX 18 1 17 2 16 3 15 4 13 5 14 6 12 8 11 9 8 11 9 12 10 13 7 14
REMARK SMILES IDX 1 15 2 16 3 17 4 18 5 19 6 21 79 22 80 23 81 24 19 25 20 26
REMARK SMILES IDX 21 27 22 28 23 29 24 31 25 32 26 33 78 34 27 35 77 36 28 37
REMARK SMILES IDX 29 38 30 39 71 40 31 41 76 42 70 43 72 44 32 45 75 46 69 47
REMARK SMILES IDX 68 48 33 50 59 51 42 52 58 53 43 54 46 55 57 56 73 57 44 58
REMARK SMILES IDX 45 59 56 61 74 62 47 63 34 64 35 65 40 66 36 67 37 68 39 69
REMARK SMILES IDX 41 70 38 71 60 72 61 73 66 74 62 75 63 76 65 77 67 78 64 79
REMARK SMILES IDX 48 80 49 81 54 82 50 83 51 84 53 85 55 86 52 87
REMARK H PARENT 15 7 11 10 4 20 22 30 72 49 46 60
REMARK Flexibility Score: inf
ROOT
ATOM      1  C   UNL A   1      36.672  22.152  25.656  1.00  0.00     0.002 C 
ENDROOT
BRANCH   1   2
ATOM      2  C   UNL A   1      35.275  21.915  26.241  1.00  0.00     0.021 C 
BRANCH   2   3
ATOM      3  C   UNL A   1      34.659  23.132  26.940  1.00  0.00     0.116 C 
BRANCH   3   4
ATOM      4  N   UNL A   1      33.240  22.918  27.141  1.00  0.00    -0.355 N 
ATOM      5  C   UNL A   1      32.180  23.719  26.846  1.00  0.00     0.238 C 
ATOM      6  O   UNL A   1      31.103  23.453  27.398  1.00  0.00    -0.273 OA
ATOM      7  H   UNL A   1      33.005  22.056  27.557  1.00  0.00     0.163 HD
BRANCH   5   8
ATOM      8  C   UNL A   1      32.269  24.882  25.793  1.00  0.00     0.161 C 
BRANCH   8   9
ATOM      9  N   UNL A   1      30.902  24.743  25.217  1.00  0.00    -0.198 NA
ATOM     10  H   UNL A   1      30.645  23.771  25.385  1.00  0.00     0.142 HD
BRANCH   9  11
ATOM     11  S   UNL A   1      30.430  25.042  23.659  1.00  0.00     0.244 S 
ATOM     12  O   UNL A   1      29.347  25.988  23.675  1.00  0.00    -0.207 OA
ATOM     13  O   UNL A   1      30.275  23.749  23.022  1.00  0.00    -0.207 OA
BRANCH  11  14
ATOM     14  C   UNL A   1      31.702  25.784  22.780  1.00  0.00     0.125 A 
ATOM     15  C   UNL A   1      33.290  23.735  22.390  1.00  0.00     0.070 C 
ATOM     16  C   UNL A   1      32.867  25.155  22.285  1.00  0.00     0.079 A 
ATOM     17  N   UNL A   1      33.651  26.035  21.641  1.00  0.00    -0.179 NA
ATOM     18  N   UNL A   1      33.023  27.210  21.789  1.00  0.00    -0.281 N 
ATOM     19  C   UNL A   1      31.835  27.123  22.459  1.00  0.00     0.052 A 
ATOM     20  H   UNL A   1      33.385  28.059  21.445  1.00  0.00     0.190 HD
ATOM     21  C   UNL A   1      30.996  28.310  22.741  1.00  0.00     0.067 C 
ENDBRANCH  11  14
ENDBRANCH   9  11
ENDBRANCH   8   9
BRANCH   8  22
ATOM     22  C   UNL A   1      32.552  26.243  26.469  1.00  0.00     0.010 C 
ATOM     23  C   UNL A   1      33.665  27.018  25.751  1.00  0.00     0.009 C 
ATOM     24  C   UNL A   1      31.329  27.170  26.511  1.00  0.00     0.009 C 
ENDBRANCH   8  22
ENDBRANCH   5   8
ENDBRANCH   3   4
ENDBRANCH   2   3
ENDBRANCH   1   2
BRANCH   1  25
ATOM     25  C   UNL A   1      37.079  21.200  24.529  1.00  0.00     0.002 C 
BRANCH  25  26
ATOM     26  C   UNL A   1      37.929  19.998  24.951  1.00  0.00     0.021 C 
BRANCH  26  27
ATOM     27  C   UNL A   1      39.171  20.330  25.777  1.00  0.00     0.116 C 
BRANCH  27  28
ATOM     28  N   UNL A   1      40.114  19.225  25.837  1.00  0.00    -0.352 N 
ATOM     29  C   UNL A   1      41.464  19.239  26.090  1.00  0.00     0.251 C 
ATOM     30  H   UNL A   1      39.728  18.334  25.671  1.00  0.00     0.163 HD
ATOM     31  O   UNL A   1      42.137  18.226  25.931  1.00  0.00    -0.269 OA
BRANCH  29  32
ATOM     32  C   UNL A   1      42.117  20.492  26.526  1.00  0.00     0.039 A 
ATOM     33  C   UNL A   1      42.708  21.316  25.565  1.00  0.00     0.014 A 
ATOM     34  C   UNL A   1      42.135  20.857  27.876  1.00  0.00     0.014 A 
ATOM     35  C   UNL A   1      43.238  22.551  25.945  1.00  0.00     0.010 A 
ATOM     36  C   UNL A   1      42.613  22.112  28.244  1.00  0.00     0.010 A 
ATOM     37  C   UNL A   1      43.152  22.979  27.279  1.00  0.00    -0.014 A 
BRANCH  37  38
ATOM     38  C   UNL A   1      43.561  24.348  27.683  1.00  0.00     0.031 A 
ATOM     39  C   UNL A   1      42.528  25.376  28.044  1.00  0.00     0.074 A 
ATOM     40  C   UNL A   1      44.862  24.691  27.619  1.00  0.00     0.049 A 
ATOM     41  N   UNL A   1      42.684  26.652  28.287  1.00  0.00    -0.248 NA
ATOM     42  C   UNL A   1      41.133  24.914  28.119  1.00  0.00     0.031 C 
ATOM     43  C   UNL A   1      45.957  23.796  27.240  1.00  0.00     0.029 A 
ATOM     44  N   UNL A   1      45.483  25.896  27.844  1.00  0.00    -0.354 N 
ATOM     45  C   UNL A   1      41.410  27.151  28.523  1.00  0.00     0.074 A 
ATOM     46  C   UNL A   1      40.488  26.047  28.365  1.00  0.00     0.031 C 
ATOM     47  C   UNL A   1      47.111  24.481  27.253  1.00  0.00     0.029 A 
ATOM     48  C   UNL A   1      46.835  25.871  27.602  1.00  0.00     0.049 A 
ATOM     49  H   UNL A   1      45.004  26.699  28.150  1.00  0.00     0.167 HD
ATOM     50  C   UNL A   1      41.046  28.412  28.853  1.00  0.00     0.037 A 
ATOM     51  C   UNL A   1      47.748  26.861  27.630  1.00  0.00     0.037 A 
ATOM     52  C   UNL A   1      41.967  29.502  29.040  1.00  0.00     0.049 A 
ATOM     53  C   UNL A   1      47.313  28.254  27.988  1.00  0.00     0.074 A 
ATOM     54  C   UNL A   1      41.701  30.791  29.468  1.00  0.00     0.029 A 
ATOM     55  N   UNL A   1      43.331  29.433  28.805  1.00  0.00    -0.354 N 
ATOM     56  N   UNL A   1      46.115  28.694  28.285  1.00  0.00    -0.248 NA
ATOM     57  C   UNL A   1      48.357  29.290  28.011  1.00  0.00     0.031 C 
ATOM     58  C   UNL A   1      42.897  31.516  29.447  1.00  0.00     0.029 A 
ATOM     59  C   UNL A   1      43.914  30.666  29.045  1.00  0.00     0.049 A 
ATOM     60  H   UNL A   1      43.814  28.627  28.511  1.00  0.00     0.167 HD
ATOM     61  C   UNL A   1      46.262  30.051  28.544  1.00  0.00     0.074 A 
ATOM     62  C   UNL A   1      47.667  30.358  28.387  1.00  0.00     0.031 C 
ATOM     63  C   UNL A   1      45.315  30.960  28.879  1.00  0.00     0.037 A 
BRANCH  50  64
ATOM     64  C   UNL A   1      39.584  28.692  29.035  1.00  0.00     0.057 A 
ATOM     65  C   UNL A   1      38.948  28.524  30.271  1.00  0.00     0.134 A 
ATOM     66  C   UNL A   1      38.817  29.195  27.976  1.00  0.00     0.134 A 
ATOM     67  F   UNL A   1      39.625  28.038  31.323  1.00  0.00    -0.206 F 
ATOM     68  C   UNL A   1      37.598  28.832  30.445  1.00  0.00     0.040 A 
ATOM     69  C   UNL A   1      37.472  29.527  28.142  1.00  0.00     0.040 A 
ATOM     70  F   UNL A   1      39.367  29.385  26.767  1.00  0.00    -0.206 F 
ATOM     71  C   UNL A   1      36.858  29.342  29.380  1.00  0.00     0.006 A 
ENDBRANCH  50  64
BRANCH  51  72
ATOM     72  C   UNL A   1      49.164  26.575  27.294  1.00  0.00     0.057 A 
ATOM     73  C   UNL A   1      50.070  26.157  28.277  1.00  0.00     0.134 A 
ATOM     74  C   UNL A   1      49.650  26.724  25.989  1.00  0.00     0.134 A 
ATOM     75  F   UNL A   1      49.668  26.017  29.547  1.00  0.00    -0.206 F 
ATOM     76  C   UNL A   1      51.411  25.916  27.977  1.00  0.00     0.040 A 
ATOM     77  C   UNL A   1      50.983  26.463  25.672  1.00  0.00     0.040 A 
ATOM     78  F   UNL A   1      48.830  27.114  25.002  1.00  0.00    -0.206 F 
ATOM     79  C   UNL A   1      51.870  26.065  26.670  1.00  0.00     0.006 A 
ENDBRANCH  51  72
BRANCH  63  80
ATOM     80  C   UNL A   1      45.768  32.370  29.108  1.00  0.00     0.057 A 
ATOM     81  C   UNL A   1      45.757  33.319  28.079  1.00  0.00     0.134 A 
ATOM     82  C   UNL A   1      46.178  32.794  30.378  1.00  0.00     0.134 A 
ATOM     83  F   UNL A   1      45.390  32.971  26.837  1.00  0.00    -0.206 F 
ATOM     84  C   UNL A   1      46.152  34.639  28.302  1.00  0.00     0.040 A 
ATOM     85  C   UNL A   1      46.553  34.116  30.618  1.00  0.00     0.040 A 
ATOM     86  F   UNL A   1      46.205  31.934  31.407  1.00  0.00    -0.206 F 
ATOM     87  C   UNL A   1      46.543  35.042  29.578  1.00  0.00     0.006 A 
ENDBRANCH  63  80
ENDBRANCH  37  38
ENDBRANCH  29  32
ENDBRANCH  27  28
ENDBRANCH  26  27
ENDBRANCH  25  26
ENDBRANCH   1  25
TORSDOF 17
ENDMDL
MODEL 3
REMARK VINA RESULT:     -11.1      2.217      3.268
REMARK SMILES Cc1n[nH]c(C)c1S(=O)(=O)N[C@H](C(=O)NCCCCCCNC(=O)c1ccc(-c2c3nc(c(-c4c(F)cccc4F)c4ccc([nH]4)c(-c4c(F)cccc4F)c4nc(c(-c5c(F)cccc5F)c5ccc2[nH]5)C=C4)C=C3)cc1)C(C)C
REMARK SMILES IDX 18 1 17 2 16 3 15 4 13 5 14 6 12 8 11 9 8 11 9 12 10 13 7 14
REMARK SMILES IDX 1 15 2 16 3 17 4 18 5 19 6 21 79 22 80 23 81 24 19 25 20 26
REMARK SMILES IDX 21 27 22 28 23 29 24 31 25 32 26 33 78 34 27 35 77 36 28 37
REMARK SMILES IDX 29 38 30 39 71 40 31 41 76 42 70 43 72 44 32 45 75 46 69 47
REMARK SMILES IDX 68 48 33 50 59 51 42 52 58 53 43 54 46 55 57 56 73 57 44 58
REMARK SMILES IDX 45 59 56 61 74 62 47 63 34 64 35 65 40 66 36 67 37 68 39 69
REMARK SMILES IDX 41 70 38 71 60 72 61 73 66 74 62 75 63 76 65 77 67 78 64 79
REMARK SMILES IDX 48 80 49 81 54 82 50 83 51 84 53 85 55 86 52 87
REMARK H PARENT 15 7 11 10 4 20 22 30 72 49 46 60
REMARK Flexibility Score: inf
ROOT
ATOM      1  C   UNL A   1      30.980  29.281  24.732  1.00  0.00     0.002 C 
ENDROOT
BRANCH   1   2
ATOM      2  C   UNL A   1      31.034  29.313  23.200  1.00  0.00     0.021 C 
BRANCH   2   3
ATOM      3  C   UNL A   1      30.659  27.991  22.520  1.00  0.00     0.116 C 
BRANCH   3   4
ATOM      4  N   UNL A   1      31.813  27.445  21.835  1.00  0.00    -0.355 N 
ATOM      5  C   UNL A   1      32.841  26.689  22.311  1.00  0.00     0.238 C 
ATOM      6  O   UNL A   1      33.857  26.616  21.606  1.00  0.00    -0.273 OA
ATOM      7  H   UNL A   1      31.862  27.653  20.874  1.00  0.00     0.163 HD
BRANCH   5   8
ATOM      8  C   UNL A   1      32.737  25.869  23.646  1.00  0.00     0.161 C 
BRANCH   8   9
ATOM      9  N   UNL A   1      32.563  24.517  23.044  1.00  0.00    -0.198 NA
ATOM     10  H   UNL A   1      32.471  24.687  22.043  1.00  0.00     0.142 HD
BRANCH   9  11
ATOM     11  S   UNL A   1      31.390  23.402  23.393  1.00  0.00     0.244 S 
ATOM     12  O   UNL A   1      31.757  22.143  22.802  1.00  0.00    -0.207 OA
ATOM     13  O   UNL A   1      30.121  24.028  23.076  1.00  0.00    -0.207 OA
BRANCH  11  14
ATOM     14  C   UNL A   1      31.305  23.132  25.084  1.00  0.00     0.125 A 
ATOM     15  C   UNL A   1      30.078  25.312  25.869  1.00  0.00     0.070 C 
ATOM     16  C   UNL A   1      30.733  23.992  26.051  1.00  0.00     0.079 A 
ATOM     17  N   UNL A   1      30.838  23.467  27.282  1.00  0.00    -0.179 NA
ATOM     18  N   UNL A   1      31.525  22.330  27.102  1.00  0.00    -0.281 N 
ATOM     19  C   UNL A   1      31.828  22.067  25.796  1.00  0.00     0.052 A 
ATOM     20  H   UNL A   1      31.788  21.738  27.844  1.00  0.00     0.190 HD
ATOM     21  C   UNL A   1      32.597  20.870  25.386  1.00  0.00     0.067 C 
ENDBRANCH  11  14
ENDBRANCH   9  11
ENDBRANCH   8   9
BRANCH   8  22
ATOM     22  C   UNL A   1      34.005  26.032  24.516  1.00  0.00     0.010 C 
ATOM     23  C   UNL A   1      33.695  26.711  25.857  1.00  0.00     0.009 C 
ATOM     24  C   UNL A   1      34.694  24.701  24.847  1.00  0.00     0.009 C 
ENDBRANCH   8  22
ENDBRANCH   5   8
ENDBRANCH   3   4
ENDBRANCH   2   3
ENDBRANCH   1   2
BRANCH   1  25
ATOM     25  C   UNL A   1      32.141  29.984  25.442  1.00  0.00     0.002 C 
BRANCH  25  26
ATOM     26  C   UNL A   1      31.743  30.992  26.525  1.00  0.00     0.021 C 
BRANCH  26  27
ATOM     27  C   UNL A   1      32.891  31.813  27.109  1.00  0.00     0.116 C 
BRANCH  27  28
ATOM     28  N   UNL A   1      32.503  33.182  27.407  1.00  0.00    -0.352 N 
ATOM     29  C   UNL A   1      33.076  34.087  28.269  1.00  0.00     0.251 C 
ATOM     30  H   UNL A   1      31.712  33.509  26.921  1.00  0.00     0.163 HD
ATOM     31  O   UNL A   1      32.511  35.145  28.524  1.00  0.00    -0.269 OA
BRANCH  29  32
ATOM     32  C   UNL A   1      34.366  33.768  28.917  1.00  0.00     0.039 A 
ATOM     33  C   UNL A   1      34.360  33.045  30.112  1.00  0.00     0.014 A 
ATOM     34  C   UNL A   1      35.574  34.173  28.342  1.00  0.00     0.014 A 
ATOM     35  C   UNL A   1      35.571  32.646  30.684  1.00  0.00     0.010 A 
ATOM     36  C   UNL A   1      36.778  33.728  28.883  1.00  0.00     0.010 A 
ATOM     37  C   UNL A   1      36.787  32.944  30.049  1.00  0.00    -0.014 A 
BRANCH  37  38
ATOM     38  C   UNL A   1      38.076  32.400  30.546  1.00  0.00     0.031 A 
ATOM     39  C   UNL A   1      38.643  31.137  29.967  1.00  0.00     0.074 A 
ATOM     40  C   UNL A   1      38.679  32.992  31.596  1.00  0.00     0.049 A 
ATOM     41  N   UNL A   1      39.678  30.440  30.362  1.00  0.00    -0.248 NA
ATOM     42  C   UNL A   1      37.942  30.569  28.805  1.00  0.00     0.031 C 
ATOM     43  C   UNL A   1      38.203  34.199  32.276  1.00  0.00     0.029 A 
ATOM     44  N   UNL A   1      39.807  32.642  32.295  1.00  0.00    -0.354 N 
ATOM     45  C   UNL A   1      39.742  29.343  29.513  1.00  0.00     0.074 A 
ATOM     46  C   UNL A   1      38.624  29.450  28.600  1.00  0.00     0.031 C 
ATOM     47  C   UNL A   1      39.029  34.485  33.294  1.00  0.00     0.029 A 
ATOM     48  C   UNL A   1      40.068  33.462  33.366  1.00  0.00     0.049 A 
ATOM     49  H   UNL A   1      40.375  31.876  32.052  1.00  0.00     0.167 HD
ATOM     50  C   UNL A   1      40.656  28.345  29.492  1.00  0.00     0.037 A 
ATOM     51  C   UNL A   1      41.019  33.386  34.317  1.00  0.00     0.037 A 
ATOM     52  C   UNL A   1      41.785  28.257  30.382  1.00  0.00     0.049 A 
ATOM     53  C   UNL A   1      42.014  32.261  34.276  1.00  0.00     0.074 A 
ATOM     54  C   UNL A   1      42.818  27.336  30.374  1.00  0.00     0.029 A 
ATOM     55  N   UNL A   1      42.025  29.119  31.440  1.00  0.00    -0.354 N 
ATOM     56  N   UNL A   1      42.107  31.274  33.419  1.00  0.00    -0.248 NA
ATOM     57  C   UNL A   1      43.034  32.237  35.335  1.00  0.00     0.031 C 
ATOM     58  C   UNL A   1      43.658  27.611  31.457  1.00  0.00     0.029 A 
ATOM     59  C   UNL A   1      43.171  28.728  32.115  1.00  0.00     0.049 A 
ATOM     60  H   UNL A   1      41.466  29.892  31.678  1.00  0.00     0.167 HD
ATOM     61  C   UNL A   1      43.201  30.520  33.826  1.00  0.00     0.074 A 
ATOM     62  C   UNL A   1      43.750  31.175  34.994  1.00  0.00     0.031 C 
ATOM     63  C   UNL A   1      43.703  29.386  33.280  1.00  0.00     0.037 A 
BRANCH  50  64
ATOM     64  C   UNL A   1      40.481  27.258  28.474  1.00  0.00     0.057 A 
ATOM     65  C   UNL A   1      39.646  26.158  28.706  1.00  0.00     0.134 A 
ATOM     66  C   UNL A   1      41.105  27.345  27.224  1.00  0.00     0.134 A 
ATOM     67  F   UNL A   1      39.025  26.012  29.887  1.00  0.00    -0.206 F 
ATOM     68  C   UNL A   1      39.449  25.174  27.735  1.00  0.00     0.040 A 
ATOM     69  C   UNL A   1      40.900  26.379  26.237  1.00  0.00     0.040 A 
ATOM     70  F   UNL A   1      41.913  28.377  26.937  1.00  0.00    -0.206 F 
ATOM     71  C   UNL A   1      40.073  25.288  26.493  1.00  0.00     0.006 A 
ENDBRANCH  50  64
BRANCH  51  72
ATOM     72  C   UNL A   1      41.068  34.398  35.400  1.00  0.00     0.057 A 
ATOM     73  C   UNL A   1      40.395  34.195  36.611  1.00  0.00     0.134 A 
ATOM     74  C   UNL A   1      41.775  35.598  35.248  1.00  0.00     0.134 A 
ATOM     75  F   UNL A   1      39.685  33.075  36.806  1.00  0.00    -0.206 F 
ATOM     76  C   UNL A   1      40.409  35.154  37.624  1.00  0.00     0.040 A 
ATOM     77  C   UNL A   1      41.816  36.555  36.262  1.00  0.00     0.040 A 
ATOM     78  F   UNL A   1      42.446  35.848  34.114  1.00  0.00    -0.206 F 
ATOM     79  C   UNL A   1      41.125  36.337  37.451  1.00  0.00     0.006 A 
ENDBRANCH  51  72
BRANCH  63  80
ATOM     80  C   UNL A   1      44.911  28.787  33.934  1.00  0.00     0.057 A 
ATOM     81  C   UNL A   1      46.203  29.239  33.640  1.00  0.00     0.134 A 
ATOM     82  C   UNL A   1      44.779  27.781  34.899  1.00  0.00     0.134 A 
ATOM     83  F   UNL A   1      46.396  30.189  32.713  1.00  0.00    -0.206 F 
ATOM     84  C   UNL A   1      47.325  28.700  34.272  1.00  0.00     0.040 A 
ATOM     85  C   UNL A   1      45.891  27.251  35.555  1.00  0.00     0.040 A 
ATOM     86  F   UNL A   1      43.568  27.310  35.231  1.00  0.00    -0.206 F 
ATOM     87  C   UNL A   1      47.168  27.708  35.239  1.00  0.00     0.006 A 
ENDBRANCH  63  80
ENDBRANCH  37  38
ENDBRANCH  29  32
ENDBRANCH  27  28
ENDBRANCH  26  27
ENDBRANCH  25  26
ENDBRANCH   1  25
TORSDOF 17
ENDMDL
