MODEL 1
REMARK VINA RESULT:     -13.2      0.000      0.000
REMARK SMILES O=C(NCCCCCCNC(=O)[C@H](c1c[nH]c2cc(F)ccc12)[NH+]1CC[NH+](CC(=O)N2CCOCC2)CC1)c1ccc(-c2c3nc(c(-c4c(F)cccc4F)c4ccc([nH]4)c(-c4c(F)cccc4F)c4nc(c(-c5c(F)cccc5F)c5ccc2[nH]5)C=C4)C=C3)cc1
REMARK SMILES IDX 7 1 6 2 5 3 4 4 3 5 1 6 2 7 39 9 40 10 92 11 41 12 91 13
REMARK SMILES IDX 42 14 43 15 44 16 85 17 45 18 90 19 84 20 86 21 46 22 89 23
REMARK SMILES IDX 83 24 82 25 47 27 73 28 56 29 72 30 57 31 60 32 71 33 87 34
REMARK SMILES IDX 58 35 59 36 70 38 88 39 61 40 48 41 49 42 54 43 50 44 51 45
REMARK SMILES IDX 53 46 55 47 52 48 74 49 75 50 80 51 76 52 77 53 79 54 81 55
REMARK SMILES IDX 78 56 62 57 63 58 68 59 64 60 65 61 67 62 69 63 66 64 8 65
REMARK SMILES IDX 9 66 10 67 11 68 12 70 13 71 24 72 25 73 38 74 26 76 37 77
REMARK SMILES IDX 27 78 28 80 29 81 30 82 31 83 32 84 36 85 33 86 35 87 34 88
REMARK SMILES IDX 14 89 15 90 23 91 16 92 17 93 22 94 18 96 21 97 19 98 20 99
REMARK H PARENT 3 8 86 26 60 37 10 69 24 75 27 79 16 95
REMARK Flexibility Score: inf
ROOT
ATOM      1  C   UNL A   1      32.219  29.581  27.156  1.00  0.00     0.002 C 
ENDROOT
BRANCH   1   2
ATOM      2  C   UNL A   1      31.653  30.524  26.093  1.00  0.00     0.002 C 
BRANCH   2   3
ATOM      3  C   UNL A   1      31.395  31.960  26.549  1.00  0.00     0.021 C 
BRANCH   3   4
ATOM      4  C   UNL A   1      32.568  32.653  27.234  1.00  0.00     0.116 C 
BRANCH   4   5
ATOM      5  N   UNL A   1      32.283  34.030  27.612  1.00  0.00    -0.352 N 
ATOM      6  O   UNL A   1      32.467  35.953  28.783  1.00  0.00    -0.269 OA
ATOM      7  C   UNL A   1      32.932  34.851  28.505  1.00  0.00     0.251 C 
ATOM      8  H   UNL A   1      31.508  34.436  27.160  1.00  0.00     0.163 HD
BRANCH   7   9
ATOM      9  C   UNL A   1      34.177  34.394  29.161  1.00  0.00     0.039 A 
ATOM     10  C   UNL A   1      35.415  34.567  28.541  1.00  0.00     0.014 A 
ATOM     11  C   UNL A   1      34.102  33.769  30.410  1.00  0.00     0.014 A 
ATOM     12  C   UNL A   1      36.544  33.958  29.077  1.00  0.00     0.010 A 
ATOM     13  C   UNL A   1      35.258  33.241  30.995  1.00  0.00     0.010 A 
ATOM     14  C   UNL A   1      36.481  33.286  30.308  1.00  0.00    -0.014 A 
BRANCH  14  15
ATOM     15  C   UNL A   1      37.713  32.656  30.854  1.00  0.00     0.031 A 
ATOM     16  C   UNL A   1      38.319  33.122  32.151  1.00  0.00     0.074 A 
ATOM     17  C   UNL A   1      38.258  31.615  30.195  1.00  0.00     0.049 A 
ATOM     18  N   UNL A   1      39.351  32.640  32.798  1.00  0.00    -0.248 NA
ATOM     19  C   UNL A   1      37.693  34.282  32.805  1.00  0.00     0.031 C 
ATOM     20  C   UNL A   1      37.773  31.078  28.921  1.00  0.00     0.029 A 
ATOM     21  N   UNL A   1      39.318  30.806  30.513  1.00  0.00    -0.354 N 
ATOM     22  C   UNL A   1      39.514  33.449  33.917  1.00  0.00     0.074 A 
ATOM     23  C   UNL A   1      38.489  34.469  33.848  1.00  0.00     0.031 C 
ATOM     24  C   UNL A   1      38.492  29.995  28.597  1.00  0.00     0.029 A 
ATOM     25  C   UNL A   1      39.527  29.795  29.606  1.00  0.00     0.049 A 
ATOM     26  H   UNL A   1      39.875  30.936  31.314  1.00  0.00     0.167 HD
ATOM     27  C   UNL A   1      40.427  33.345  34.914  1.00  0.00     0.037 A 
ATOM     28  C   UNL A   1      40.452  28.818  29.583  1.00  0.00     0.037 A 
ATOM     29  C   UNL A   1      41.431  32.315  34.992  1.00  0.00     0.049 A 
ATOM     30  C   UNL A   1      41.454  28.732  30.697  1.00  0.00     0.074 A 
ATOM     31  C   UNL A   1      42.373  32.103  35.985  1.00  0.00     0.029 A 
ATOM     32  N   UNL A   1      41.628  31.327  34.039  1.00  0.00    -0.354 N 
ATOM     33  N   UNL A   1      41.566  29.479  31.768  1.00  0.00    -0.248 NA
ATOM     34  C   UNL A   1      42.459  27.665  30.597  1.00  0.00     0.031 C 
ATOM     35  C   UNL A   1      43.169  31.014  35.610  1.00  0.00     0.029 A 
ATOM     36  C   UNL A   1      42.689  30.516  34.410  1.00  0.00     0.049 A 
ATOM     37  H   UNL A   1      41.094  31.219  33.220  1.00  0.00     0.167 HD
ATOM     38  C   UNL A   1      42.636  28.958  32.483  1.00  0.00     0.074 A 
ATOM     39  C   UNL A   1      43.127  27.821  31.730  1.00  0.00     0.031 C 
ATOM     40  C   UNL A   1      43.163  29.383  33.657  1.00  0.00     0.037 A 
BRANCH  27  41
ATOM     41  C   UNL A   1      40.397  34.388  35.997  1.00  0.00     0.057 A 
ATOM     42  C   UNL A   1      39.639  34.228  37.163  1.00  0.00     0.134 A 
ATOM     43  C   UNL A   1      41.176  35.547  35.889  1.00  0.00     0.134 A 
ATOM     44  F   UNL A   1      38.864  33.144  37.327  1.00  0.00    -0.206 F 
ATOM     45  C   UNL A   1      39.637  35.193  38.173  1.00  0.00     0.040 A 
ATOM     46  C   UNL A   1      41.202  36.508  36.902  1.00  0.00     0.040 A 
ATOM     47  F   UNL A   1      41.934  35.760  34.803  1.00  0.00    -0.206 F 
ATOM     48  C   UNL A   1      40.426  36.335  38.045  1.00  0.00     0.006 A 
ENDBRANCH  27  41
BRANCH  28  49
ATOM     49  C   UNL A   1      40.461  27.835  28.471  1.00  0.00     0.057 A 
ATOM     50  C   UNL A   1      39.747  26.635  28.561  1.00  0.00     0.134 A 
ATOM     51  C   UNL A   1      41.181  28.073  27.294  1.00  0.00     0.134 A 
ATOM     52  F   UNL A   1      39.051  26.343  29.670  1.00  0.00    -0.206 F 
ATOM     53  C   UNL A   1      39.761  25.699  27.525  1.00  0.00     0.040 A 
ATOM     54  C   UNL A   1      41.181  27.159  26.241  1.00  0.00     0.040 A 
ATOM     55  F   UNL A   1      41.879  29.209  27.145  1.00  0.00    -0.206 F 
ATOM     56  C   UNL A   1      40.476  25.963  26.359  1.00  0.00     0.006 A 
ENDBRANCH  28  49
BRANCH  40  57
ATOM     57  C   UNL A   1      44.305  28.587  34.218  1.00  0.00     0.057 A 
ATOM     58  C   UNL A   1      45.640  28.906  33.941  1.00  0.00     0.134 A 
ATOM     59  C   UNL A   1      44.062  27.492  35.057  1.00  0.00     0.134 A 
ATOM     60  F   UNL A   1      45.940  29.933  33.132  1.00  0.00    -0.206 F 
ATOM     61  C   UNL A   1      46.692  28.145  34.455  1.00  0.00     0.040 A 
ATOM     62  C   UNL A   1      45.106  26.742  35.599  1.00  0.00     0.040 A 
ATOM     63  F   UNL A   1      42.806  27.137  35.369  1.00  0.00    -0.206 F 
ATOM     64  C   UNL A   1      46.426  27.062  35.290  1.00  0.00     0.006 A 
ENDBRANCH  40  57
ENDBRANCH  14  15
ENDBRANCH   7   9
ENDBRANCH   4   5
ENDBRANCH   3   4
ENDBRANCH   2   3
ENDBRANCH   1   2
BRANCH   1  65
ATOM     65  C   UNL A   1      31.404  28.314  27.423  1.00  0.00     0.021 C 
BRANCH  65  66
ATOM     66  C   UNL A   1      31.931  27.030  26.782  1.00  0.00     0.116 C 
BRANCH  66  67
ATOM     67  N   UNL A   1      32.993  27.245  25.810  1.00  0.00    -0.351 N 
ATOM     68  C   UNL A   1      33.030  26.942  24.461  1.00  0.00     0.283 C 
ATOM     69  H   UNL A   1      33.807  27.671  26.166  1.00  0.00     0.163 HD
ATOM     70  O   UNL A   1      33.990  27.377  23.820  1.00  0.00    -0.268 OA
BRANCH  68  71
ATOM     71  C   UNL A   1      31.946  26.007  23.867  1.00  0.00     0.308 C 
BRANCH  71  72
ATOM     72  N   UNL A   1      32.062  24.648  24.412  1.00  0.00    -0.312 N 
ATOM     73  C   UNL A   1      31.280  23.547  23.851  1.00  0.00     0.325 C 
ATOM     74  C   UNL A   1      33.387  24.286  24.872  1.00  0.00     0.325 C 
ATOM     75  H   UNL A   1      31.490  24.797  25.244  1.00  0.00     0.349 HD
ATOM     76  C   UNL A   1      32.079  22.390  23.181  1.00  0.00     0.325 C 
ATOM     77  C   UNL A   1      34.157  23.290  24.001  1.00  0.00     0.325 C 
ATOM     78  N   UNL A   1      33.407  22.073  23.731  1.00  0.00    -0.318 N 
ATOM     79  H   UNL A   1      33.885  21.572  22.981  1.00  0.00     0.348 HD
BRANCH  78  80
ATOM     80  C   UNL A   1      33.487  21.038  24.772  1.00  0.00     0.364 C 
BRANCH  80  81
ATOM     81  C   UNL A   1      34.626  20.010  24.695  1.00  0.00     0.277 C 
ATOM     82  O   UNL A   1      35.787  20.353  24.948  1.00  0.00    -0.268 OA
ATOM     83  N   UNL A   1      34.304  18.664  24.488  1.00  0.00    -0.333 N 
ATOM     84  C   UNL A   1      33.274  18.188  23.559  1.00  0.00     0.148 C 
ATOM     85  C   UNL A   1      35.327  17.667  24.804  1.00  0.00     0.148 C 
ATOM     86  C   UNL A   1      32.774  16.773  23.845  1.00  0.00     0.181 C 
ATOM     87  C   UNL A   1      34.707  16.296  25.093  1.00  0.00     0.181 C 
ATOM     88  O   UNL A   1      33.874  15.868  24.006  1.00  0.00    -0.378 OA
ENDBRANCH  80  81
ENDBRANCH  78  80
ENDBRANCH  71  72
BRANCH  71  89
ATOM     89  C   UNL A   1      30.507  26.459  23.944  1.00  0.00     0.044 A 
ATOM     90  C   UNL A   1      29.405  25.745  24.383  1.00  0.00     0.094 A 
ATOM     91  C   UNL A   1      29.996  27.703  23.423  1.00  0.00     0.009 A 
ATOM     92  N   UNL A   1      28.274  26.446  24.066  1.00  0.00    -0.361 N 
ATOM     93  C   UNL A   1      28.604  27.616  23.425  1.00  0.00     0.049 A 
ATOM     94  C   UNL A   1      30.596  28.852  22.855  1.00  0.00     0.014 A 
ATOM     95  H   UNL A   1      27.356  26.154  24.269  1.00  0.00     0.166 HD
ATOM     96  C   UNL A   1      27.785  28.584  22.831  1.00  0.00     0.065 A 
ATOM     97  C   UNL A   1      29.794  29.827  22.254  1.00  0.00     0.040 A 
ATOM     98  C   UNL A   1      28.416  29.676  22.234  1.00  0.00     0.125 A 
ATOM     99  F   UNL A   1      27.668  30.603  21.619  1.00  0.00    -0.207 F 
ENDBRANCH  71  89
ENDBRANCH  68  71
ENDBRANCH  66  67
ENDBRANCH  65  66
ENDBRANCH   1  65
TORSDOF 17
ENDMDL
MODEL 2
REMARK VINA RESULT:     -13.1      2.520      5.834
REMARK SMILES O=C(NCCCCCCNC(=O)[C@H](c1c[nH]c2cc(F)ccc12)[NH+]1CC[NH+](CC(=O)N2CCOCC2)CC1)c1ccc(-c2c3nc(c(-c4c(F)cccc4F)c4ccc([nH]4)c(-c4c(F)cccc4F)c4nc(c(-c5c(F)cccc5F)c5ccc2[nH]5)C=C4)C=C3)cc1
REMARK SMILES IDX 7 1 6 2 5 3 4 4 3 5 1 6 2 7 39 9 40 10 92 11 41 12 91 13
REMARK SMILES IDX 42 14 43 15 44 16 85 17 45 18 90 19 84 20 86 21 46 22 89 23
REMARK SMILES IDX 83 24 82 25 47 27 73 28 56 29 72 30 57 31 60 32 71 33 87 34
REMARK SMILES IDX 58 35 59 36 70 38 88 39 61 40 48 41 49 42 54 43 50 44 51 45
REMARK SMILES IDX 53 46 55 47 52 48 74 49 75 50 80 51 76 52 77 53 79 54 81 55
REMARK SMILES IDX 78 56 62 57 63 58 68 59 64 60 65 61 67 62 69 63 66 64 8 65
REMARK SMILES IDX 9 66 10 67 11 68 12 70 13 71 24 72 25 73 38 74 26 76 37 77
REMARK SMILES IDX 27 78 28 80 29 81 30 82 31 83 32 84 36 85 33 86 35 87 34 88
REMARK SMILES IDX 14 89 15 90 23 91 16 92 17 93 22 94 18 96 21 97 19 98 20 99
REMARK H PARENT 3 8 86 26 60 37 10 69 24 75 27 79 16 95
REMARK Flexibility Score: inf
ROOT
ATOM      1  C   UNL A   1      33.268  27.860  26.222  1.00  0.00     0.002 C 
ENDROOT
BRANCH   1   2
ATOM      2  C   UNL A   1      33.393  29.154  25.414  1.00  0.00     0.002 C 
BRANCH   2   3
ATOM      3  C   UNL A   1      32.188  30.093  25.474  1.00  0.00     0.021 C 
BRANCH   3   4
ATOM      4  C   UNL A   1      31.840  30.627  26.860  1.00  0.00     0.116 C 
BRANCH   4   5
ATOM      5  N   UNL A   1      31.842  32.082  26.933  1.00  0.00    -0.352 N 
ATOM      6  O   UNL A   1      32.548  34.139  27.542  1.00  0.00    -0.269 OA
ATOM      7  C   UNL A   1      32.781  32.935  27.463  1.00  0.00     0.251 C 
ATOM      8  H   UNL A   1      31.051  32.521  26.545  1.00  0.00     0.163 HD
BRANCH   7   9
ATOM      9  C   UNL A   1      34.063  32.401  27.972  1.00  0.00     0.039 A 
ATOM     10  C   UNL A   1      34.170  31.071  28.379  1.00  0.00     0.014 A 
ATOM     11  C   UNL A   1      35.173  33.249  28.057  1.00  0.00     0.014 A 
ATOM     12  C   UNL A   1      35.318  30.642  29.036  1.00  0.00     0.010 A 
ATOM     13  C   UNL A   1      36.360  32.786  28.632  1.00  0.00     0.010 A 
ATOM     14  C   UNL A   1      36.427  31.493  29.173  1.00  0.00    -0.014 A 
BRANCH  14  15
ATOM     15  C   UNL A   1      37.641  30.994  29.874  1.00  0.00     0.031 A 
ATOM     16  C   UNL A   1      37.886  31.304  31.326  1.00  0.00     0.074 A 
ATOM     17  C   UNL A   1      38.502  30.206  29.201  1.00  0.00     0.049 A 
ATOM     18  N   UNL A   1      38.858  30.894  32.103  1.00  0.00    -0.248 NA
ATOM     19  C   UNL A   1      36.923  32.194  31.994  1.00  0.00     0.031 C 
ATOM     20  C   UNL A   1      38.382  29.843  27.786  1.00  0.00     0.029 A 
ATOM     21  N   UNL A   1      39.629  29.546  29.617  1.00  0.00    -0.354 N 
ATOM     22  C   UNL A   1      38.640  31.493  33.338  1.00  0.00     0.074 A 
ATOM     23  C   UNL A   1      37.456  32.315  33.202  1.00  0.00     0.031 C 
ATOM     24  C   UNL A   1      39.358  28.981  27.469  1.00  0.00     0.029 A 
ATOM     25  C   UNL A   1      40.207  28.776  28.637  1.00  0.00     0.049 A 
ATOM     26  H   UNL A   1      39.989  29.617  30.531  1.00  0.00     0.167 HD
ATOM     27  C   UNL A   1      39.354  31.362  34.483  1.00  0.00     0.037 A 
ATOM     28  C   UNL A   1      41.302  27.996  28.671  1.00  0.00     0.037 A 
ATOM     29  C   UNL A   1      40.519  30.525  34.623  1.00  0.00     0.049 A 
ATOM     30  C   UNL A   1      42.077  27.875  29.950  1.00  0.00     0.074 A 
ATOM     31  C   UNL A   1      41.284  30.294  35.754  1.00  0.00     0.029 A 
ATOM     32  N   UNL A   1      41.089  29.783  33.599  1.00  0.00    -0.354 N 
ATOM     33  N   UNL A   1      41.832  28.414  31.120  1.00  0.00    -0.248 NA
ATOM     34  C   UNL A   1      43.282  27.036  29.913  1.00  0.00     0.031 C 
ATOM     35  C   UNL A   1      42.344  29.450  35.403  1.00  0.00     0.029 A 
ATOM     36  C   UNL A   1      42.208  29.112  34.067  1.00  0.00     0.049 A 
ATOM     37  H   UNL A   1      40.749  29.741  32.677  1.00  0.00     0.167 HD
ATOM     38  C   UNL A   1      42.836  27.960  31.964  1.00  0.00     0.074 A 
ATOM     39  C   UNL A   1      43.683  27.088  31.175  1.00  0.00     0.031 C 
ATOM     40  C   UNL A   1      43.037  28.241  33.274  1.00  0.00     0.037 A 
BRANCH  27  41
ATOM     41  C   UNL A   1      38.910  32.160  35.677  1.00  0.00     0.057 A 
ATOM     42  C   UNL A   1      38.161  31.592  36.716  1.00  0.00     0.134 A 
ATOM     43  C   UNL A   1      39.276  33.506  35.809  1.00  0.00     0.134 A 
ATOM     44  F   UNL A   1      37.770  30.310  36.649  1.00  0.00    -0.206 F 
ATOM     45  C   UNL A   1      37.773  32.338  37.831  1.00  0.00     0.040 A 
ATOM     46  C   UNL A   1      38.915  34.256  36.930  1.00  0.00     0.040 A 
ATOM     47  F   UNL A   1      40.001  34.111  34.857  1.00  0.00    -0.206 F 
ATOM     48  C   UNL A   1      38.157  33.674  37.943  1.00  0.00     0.006 A 
ENDBRANCH  27  41
BRANCH  28  49
ATOM     49  C   UNL A   1      41.720  27.256  27.453  1.00  0.00     0.057 A 
ATOM     50  C   UNL A   1      42.494  27.872  26.464  1.00  0.00     0.134 A 
ATOM     51  C   UNL A   1      41.358  25.918  27.253  1.00  0.00     0.134 A 
ATOM     52  F   UNL A   1      42.859  29.156  26.591  1.00  0.00    -0.206 F 
ATOM     53  C   UNL A   1      42.881  27.188  25.309  1.00  0.00     0.040 A 
ATOM     54  C   UNL A   1      41.761  25.216  26.118  1.00  0.00     0.040 A 
ATOM     55  F   UNL A   1      40.624  25.271  28.170  1.00  0.00    -0.206 F 
ATOM     56  C   UNL A   1      42.518  25.854  25.137  1.00  0.00     0.006 A 
ENDBRANCH  28  49
BRANCH  40  57
ATOM     57  C   UNL A   1      44.196  27.562  33.945  1.00  0.00     0.057 A 
ATOM     58  C   UNL A   1      45.461  28.158  34.025  1.00  0.00     0.134 A 
ATOM     59  C   UNL A   1      44.037  26.299  34.529  1.00  0.00     0.134 A 
ATOM     60  F   UNL A   1      45.683  29.360  33.472  1.00  0.00    -0.206 F 
ATOM     61  C   UNL A   1      46.534  27.507  34.635  1.00  0.00     0.040 A 
ATOM     62  C   UNL A   1      45.095  25.651  35.167  1.00  0.00     0.040 A 
ATOM     63  F   UNL A   1      42.849  25.676  34.495  1.00  0.00    -0.206 F 
ATOM     64  C   UNL A   1      46.352  26.252  35.213  1.00  0.00     0.006 A 
ENDBRANCH  40  57
ENDBRANCH  14  15
ENDBRANCH   7   9
ENDBRANCH   4   5
ENDBRANCH   3   4
ENDBRANCH   2   3
ENDBRANCH   1   2
BRANCH   1  65
ATOM     65  C   UNL A   1      34.400  26.849  26.037  1.00  0.00     0.021 C 
BRANCH  65  66
ATOM     66  C   UNL A   1      33.973  25.410  25.744  1.00  0.00     0.116 C 
BRANCH  66  67
ATOM     67  N   UNL A   1      34.716  24.780  24.661  1.00  0.00    -0.351 N 
ATOM     68  C   UNL A   1      34.263  23.974  23.632  1.00  0.00     0.283 C 
ATOM     69  H   UNL A   1      35.685  24.955  24.661  1.00  0.00     0.163 HD
ATOM     70  O   UNL A   1      35.074  23.699  22.745  1.00  0.00    -0.268 OA
BRANCH  68  71
ATOM     71  C   UNL A   1      32.829  23.389  23.706  1.00  0.00     0.308 C 
BRANCH  71  72
ATOM     72  N   UNL A   1      31.845  24.331  23.155  1.00  0.00    -0.312 N 
ATOM     73  C   UNL A   1      30.710  24.782  23.960  1.00  0.00     0.325 C 
ATOM     74  C   UNL A   1      32.388  25.324  22.251  1.00  0.00     0.325 C 
ATOM     75  H   UNL A   1      31.333  23.658  22.584  1.00  0.00     0.349 HD
ATOM     76  C   UNL A   1      30.653  26.302  24.300  1.00  0.00     0.325 C 
ATOM     77  C   UNL A   1      32.473  26.754  22.789  1.00  0.00     0.325 C 
ATOM     78  N   UNL A   1      31.205  27.241  23.312  1.00  0.00    -0.318 N 
ATOM     79  H   UNL A   1      31.392  28.094  23.840  1.00  0.00     0.348 HD
BRANCH  78  80
ATOM     80  C   UNL A   1      30.285  27.802  22.311  1.00  0.00     0.364 C 
BRANCH  80  81
ATOM     81  C   UNL A   1      28.904  28.286  22.778  1.00  0.00     0.277 C 
ATOM     82  O   UNL A   1      28.149  27.515  23.381  1.00  0.00    -0.268 OA
ATOM     83  N   UNL A   1      28.587  29.642  22.643  1.00  0.00    -0.333 N 
ATOM     84  C   UNL A   1      28.926  30.466  21.478  1.00  0.00     0.148 C 
ATOM     85  C   UNL A   1      27.463  30.156  23.428  1.00  0.00     0.148 C 
ATOM     86  C   UNL A   1      28.919  31.969  21.745  1.00  0.00     0.181 C 
ATOM     87  C   UNL A   1      27.576  31.668  23.650  1.00  0.00     0.181 C 
ATOM     88  O   UNL A   1      27.708  32.363  22.402  1.00  0.00    -0.378 OA
ENDBRANCH  80  81
ENDBRANCH  78  80
ENDBRANCH  71  72
BRANCH  71  89
ATOM     89  C   UNL A   1      32.597  22.018  23.118  1.00  0.00     0.044 A 
ATOM     90  C   UNL A   1      32.025  21.691  21.900  1.00  0.00     0.094 A 
ATOM     91  C   UNL A   1      32.811  20.769  23.808  1.00  0.00     0.009 A 
ATOM     92  N   UNL A   1      31.798  20.342  21.871  1.00  0.00    -0.361 N 
ATOM     93  C   UNL A   1      32.213  19.764  23.047  1.00  0.00     0.049 A 
ATOM     94  C   UNL A   1      33.367  20.420  25.061  1.00  0.00     0.014 A 
ATOM     95  H   UNL A   1      31.396  19.855  21.115  1.00  0.00     0.166 HD
ATOM     96  C   UNL A   1      32.085  18.446  23.502  1.00  0.00     0.065 A 
ATOM     97  C   UNL A   1      33.246  19.110  25.533  1.00  0.00     0.040 A 
ATOM     98  C   UNL A   1      32.599  18.154  24.765  1.00  0.00     0.125 A 
ATOM     99  F   UNL A   1      32.459  16.913  25.253  1.00  0.00    -0.207 F 
ENDBRANCH  71  89
ENDBRANCH  68  71
ENDBRANCH  66  67
ENDBRANCH  65  66
ENDBRANCH   1  65
TORSDOF 17
ENDMDL
MODEL 3
REMARK VINA RESULT:     -12.9      3.700      8.257
REMARK SMILES O=C(NCCCCCCNC(=O)[C@H](c1c[nH]c2cc(F)ccc12)[NH+]1CC[NH+](CC(=O)N2CCOCC2)CC1)c1ccc(-c2c3nc(c(-c4c(F)cccc4F)c4ccc([nH]4)c(-c4c(F)cccc4F)c4nc(c(-c5c(F)cccc5F)c5ccc2[nH]5)C=C4)C=C3)cc1
REMARK SMILES IDX 7 1 6 2 5 3 4 4 3 5 1 6 2 7 39 9 40 10 92 11 41 12 91 13
REMARK SMILES IDX 42 14 43 15 44 16 85 17 45 18 90 19 84 20 86 21 46 22 89 23
REMARK SMILES IDX 83 24 82 25 47 27 73 28 56 29 72 30 57 31 60 32 71 33 87 34
REMARK SMILES IDX 58 35 59 36 70 38 88 39 61 40 48 41 49 42 54 43 50 44 51 45
REMARK SMILES IDX 53 46 55 47 52 48 74 49 75 50 80 51 76 52 77 53 79 54 81 55
REMARK SMILES IDX 78 56 62 57 63 58 68 59 64 60 65 61 67 62 69 63 66 64 8 65
REMARK SMILES IDX 9 66 10 67 11 68 12 70 13 71 24 72 25 73 38 74 26 76 37 77
REMARK SMILES IDX 27 78 28 80 29 81 30 82 31 83 32 84 36 85 33 86 35 87 34 88
REMARK SMILES IDX 14 89 15 90 23 91 16 92 17 93 22 94 18 96 21 97 19 98 20 99
REMARK H PARENT 3 8 86 26 60 37 10 69 24 75 27 79 16 95
REMARK Flexibility Score: inf
ROOT
ATOM      1  C   UNL A   1      36.394  23.272  24.445  1.00  0.00     0.002 C 
ENDROOT
BRANCH   1   2
ATOM      2  C   UNL A   1      36.279  21.765  24.686  1.00  0.00     0.002 C 
BRANCH   2   3
ATOM      3  C   UNL A   1      37.572  20.966  24.528  1.00  0.00     0.021 C 
BRANCH   3   4
ATOM      4  C   UNL A   1      38.387  20.775  25.803  1.00  0.00     0.116 C 
BRANCH   4   5
ATOM      5  N   UNL A   1      39.435  19.773  25.672  1.00  0.00    -0.352 N 
ATOM      6  O   UNL A   1      41.535  18.941  25.653  1.00  0.00    -0.269 OA
ATOM      7  C   UNL A   1      40.780  19.865  25.944  1.00  0.00     0.251 C 
ATOM      8  H   UNL A   1      39.136  18.896  25.339  1.00  0.00     0.163 HD
BRANCH   7   9
ATOM      9  C   UNL A   1      41.330  21.095  26.555  1.00  0.00     0.039 A 
ATOM     10  C   UNL A   1      41.312  21.272  27.939  1.00  0.00     0.014 A 
ATOM     11  C   UNL A   1      41.859  22.093  25.730  1.00  0.00     0.014 A 
ATOM     12  C   UNL A   1      41.648  22.508  28.480  1.00  0.00     0.010 A 
ATOM     13  C   UNL A   1      42.287  23.302  26.287  1.00  0.00     0.010 A 
ATOM     14  C   UNL A   1      42.137  23.540  27.662  1.00  0.00    -0.014 A 
BRANCH  14  15
ATOM     15  C   UNL A   1      42.495  24.845  28.279  1.00  0.00     0.031 A 
ATOM     16  C   UNL A   1      43.922  25.178  28.627  1.00  0.00     0.074 A 
ATOM     17  C   UNL A   1      41.526  25.759  28.477  1.00  0.00     0.049 A 
ATOM     18  N   UNL A   1      44.414  26.293  29.109  1.00  0.00    -0.248 NA
ATOM     19  C   UNL A   1      44.928  24.126  28.414  1.00  0.00     0.031 C 
ATOM     20  C   UNL A   1      40.103  25.552  28.194  1.00  0.00     0.029 A 
ATOM     21  N   UNL A   1      41.588  27.051  28.933  1.00  0.00    -0.354 N 
ATOM     22  C   UNL A   1      45.775  26.069  29.280  1.00  0.00     0.074 A 
ATOM     23  C   UNL A   1      46.028  24.703  28.873  1.00  0.00     0.031 C 
ATOM     24  C   UNL A   1      39.438  26.692  28.425  1.00  0.00     0.029 A 
ATOM     25  C   UNL A   1      40.373  27.692  28.929  1.00  0.00     0.049 A 
ATOM     26  H   UNL A   1      42.423  27.477  29.235  1.00  0.00     0.167 HD
ATOM     27  C   UNL A   1      46.726  26.925  29.726  1.00  0.00     0.037 A 
ATOM     28  C   UNL A   1      40.044  28.944  29.295  1.00  0.00     0.037 A 
ATOM     29  C   UNL A   1      46.475  28.292  30.108  1.00  0.00     0.049 A 
ATOM     30  C   UNL A   1      41.118  29.868  29.791  1.00  0.00     0.074 A 
ATOM     31  C   UNL A   1      47.382  29.250  30.531  1.00  0.00     0.029 A 
ATOM     32  N   UNL A   1      45.227  28.895  30.116  1.00  0.00    -0.354 N 
ATOM     33  N   UNL A   1      42.406  29.654  29.906  1.00  0.00    -0.248 NA
ATOM     34  C   UNL A   1      40.690  31.210  30.209  1.00  0.00     0.031 C 
ATOM     35  C   UNL A   1      46.675  30.418  30.840  1.00  0.00     0.029 A 
ATOM     36  C   UNL A   1      45.336  30.205  30.558  1.00  0.00     0.049 A 
ATOM     37  H   UNL A   1      44.387  28.458  29.849  1.00  0.00     0.167 HD
ATOM     38  C   UNL A   1      42.946  30.839  30.384  1.00  0.00     0.074 A 
ATOM     39  C   UNL A   1      41.847  31.774  30.521  1.00  0.00     0.031 C 
ATOM     40  C   UNL A   1      44.237  31.127  30.682  1.00  0.00     0.037 A 
BRANCH  27  41
ATOM     41  C   UNL A   1      48.131  26.405  29.846  1.00  0.00     0.057 A 
ATOM     42  C   UNL A   1      49.070  26.551  28.817  1.00  0.00     0.134 A 
ATOM     43  C   UNL A   1      48.562  25.788  31.028  1.00  0.00     0.134 A 
ATOM     44  F   UNL A   1      48.721  27.124  27.655  1.00  0.00    -0.206 F 
ATOM     45  C   UNL A   1      50.380  26.082  28.949  1.00  0.00     0.040 A 
ATOM     46  C   UNL A   1      49.875  25.338  31.182  1.00  0.00     0.040 A 
ATOM     47  F   UNL A   1      47.719  25.624  32.057  1.00  0.00    -0.206 F 
ATOM     48  C   UNL A   1      50.786  25.479  30.138  1.00  0.00     0.006 A 
ENDBRANCH  27  41
BRANCH  28  49
ATOM     49  C   UNL A   1      38.635  29.399  29.192  1.00  0.00     0.057 A 
ATOM     50  C   UNL A   1      37.803  29.437  30.316  1.00  0.00     0.134 A 
ATOM     51  C   UNL A   1      38.090  29.808  27.968  1.00  0.00     0.134 A 
ATOM     52  F   UNL A   1      38.263  29.042  31.512  1.00  0.00    -0.206 F 
ATOM     53  C   UNL A   1      36.472  29.849  30.225  1.00  0.00     0.040 A 
ATOM     54  C   UNL A   1      36.770  30.249  27.869  1.00  0.00     0.040 A 
ATOM     55  F   UNL A   1      38.839  29.802  26.857  1.00  0.00    -0.206 F 
ATOM     56  C   UNL A   1      35.955  30.263  28.999  1.00  0.00     0.006 A 
ENDBRANCH  28  49
BRANCH  40  57
ATOM     57  C   UNL A   1      44.533  32.524  31.144  1.00  0.00     0.057 A 
ATOM     58  C   UNL A   1      44.535  32.873  32.501  1.00  0.00     0.134 A 
ATOM     59  C   UNL A   1      44.832  33.531  30.217  1.00  0.00     0.134 A 
ATOM     60  F   UNL A   1      44.241  31.959  33.438  1.00  0.00    -0.206 F 
ATOM     61  C   UNL A   1      44.793  34.180  32.916  1.00  0.00     0.040 A 
ATOM     62  C   UNL A   1      45.120  34.834  30.621  1.00  0.00     0.040 A 
ATOM     63  F   UNL A   1      44.854  33.261  28.902  1.00  0.00    -0.206 F 
ATOM     64  C   UNL A   1      45.092  35.164  31.975  1.00  0.00     0.006 A 
ENDBRANCH  40  57
ENDBRANCH  14  15
ENDBRANCH   7   9
ENDBRANCH   4   5
ENDBRANCH   3   4
ENDBRANCH   2   3
ENDBRANCH   1   2
BRANCH   1  65
ATOM     65  C   UNL A   1      35.632  24.163  25.428  1.00  0.00     0.021 C 
BRANCH  65  66
ATOM     66  C   UNL A   1      34.645  25.153  24.809  1.00  0.00     0.116 C 
BRANCH  66  67
ATOM     67  N   UNL A   1      33.757  25.785  25.774  1.00  0.00    -0.351 N 
ATOM     68  C   UNL A   1      32.379  25.913  25.754  1.00  0.00     0.283 C 
ATOM     69  H   UNL A   1      34.202  26.179  26.559  1.00  0.00     0.163 HD
ATOM     70  O   UNL A   1      31.848  26.350  26.777  1.00  0.00    -0.268 OA
BRANCH  68  71
ATOM     71  C   UNL A   1      31.611  25.608  24.443  1.00  0.00     0.308 C 
BRANCH  71  72
ATOM     72  N   UNL A   1      31.356  24.168  24.302  1.00  0.00    -0.312 N 
ATOM     73  C   UNL A   1      31.910  23.416  23.176  1.00  0.00     0.325 C 
ATOM     74  C   UNL A   1      31.282  23.435  25.550  1.00  0.00     0.325 C 
ATOM     75  H   UNL A   1      30.403  24.243  23.945  1.00  0.00     0.349 HD
ATOM     76  C   UNL A   1      32.939  22.297  23.519  1.00  0.00     0.325 C 
ATOM     77  C   UNL A   1      32.467  22.523  25.870  1.00  0.00     0.325 C 
ATOM     78  N   UNL A   1      32.772  21.588  24.797  1.00  0.00    -0.318 N 
ATOM     79  H   UNL A   1      33.687  21.180  24.989  1.00  0.00     0.348 HD
BRANCH  78  80
ATOM     80  C   UNL A   1      31.977  20.351  24.794  1.00  0.00     0.364 C 
BRANCH  80  81
ATOM     81  C   UNL A   1      32.250  19.308  23.700  1.00  0.00     0.277 C 
ATOM     82  O   UNL A   1      32.104  19.608  22.509  1.00  0.00    -0.268 OA
ATOM     83  N   UNL A   1      32.807  18.079  24.067  1.00  0.00    -0.333 N 
ATOM     84  C   UNL A   1      32.427  17.315  25.260  1.00  0.00     0.148 C 
ATOM     85  C   UNL A   1      33.417  17.268  23.011  1.00  0.00     0.148 C 
ATOM     86  C   UNL A   1      33.466  16.289  25.708  1.00  0.00     0.181 C 
ATOM     87  C   UNL A   1      34.455  16.295  23.577  1.00  0.00     0.181 C 
ATOM     88  O   UNL A   1      33.885  15.474  24.607  1.00  0.00    -0.378 OA
ENDBRANCH  80  81
ENDBRANCH  78  80
ENDBRANCH  71  72
BRANCH  71  89
ATOM     89  C   UNL A   1      30.336  26.373  24.179  1.00  0.00     0.044 A 
ATOM     90  C   UNL A   1      29.030  25.950  24.352  1.00  0.00     0.094 A 
ATOM     91  C   UNL A   1      30.258  27.667  23.547  1.00  0.00     0.009 A 
ATOM     92  N   UNL A   1      28.192  26.866  23.776  1.00  0.00    -0.361 N 
ATOM     93  C   UNL A   1      28.919  27.892  23.224  1.00  0.00     0.049 A 
ATOM     94  C   UNL A   1      31.219  28.617  23.129  1.00  0.00     0.014 A 
ATOM     95  H   UNL A   1      27.210  26.798  23.760  1.00  0.00     0.166 HD
ATOM     96  C   UNL A   1      28.503  28.982  22.449  1.00  0.00     0.065 A 
ATOM     97  C   UNL A   1      30.821  29.709  22.352  1.00  0.00     0.040 A 
ATOM     98  C   UNL A   1      29.486  29.869  22.011  1.00  0.00     0.125 A 
ATOM     99  F   UNL A   1      29.132  30.901  21.233  1.00  0.00    -0.207 F 
ENDBRANCH  71  89
ENDBRANCH  68  71
ENDBRANCH  66  67
ENDBRANCH  65  66
ENDBRANCH   1  65
TORSDOF 17
ENDMDL
