MODEL 1
REMARK VINA RESULT:     -12.9      0.000      0.000
REMARK SMILES C[NH+]1CCC(C(=O)N2C[C@@H](C(=O)NCCCCCCNC(=O)c3ccc(-c4c5nc(c(-c6c(F)cccc6F)c6ccc([nH]6)c(-c6c(F)cccc6F)c6nc(c(-c7c(F)cccc7F)c7ccc4[nH]7)C=C6)C=C5)cc3)[C@H](c3ccc4c(c3)OCO4)C2)CC1
REMARK SMILES IDX 16 1 15 2 14 3 13 4 11 5 12 6 10 8 8 9 9 10 87 11 77 12 6 13
REMARK SMILES IDX 7 14 5 15 1 16 2 17 3 18 89 19 4 21 88 22 78 23 79 24 83 25
REMARK SMILES IDX 80 26 82 27 81 28 84 29 86 30 85 31 17 32 18 33 19 34 20 35
REMARK SMILES IDX 21 36 22 38 23 39 24 40 76 41 25 42 75 43 26 44 27 45 28 46
REMARK SMILES IDX 69 47 29 48 74 49 68 50 70 51 30 52 73 53 67 54 66 55 31 57
REMARK SMILES IDX 57 58 40 59 56 60 41 61 44 62 55 63 71 64 42 65 43 66 54 68
REMARK SMILES IDX 72 69 45 70 32 71 33 72 38 73 34 74 35 75 37 76 39 77 36 78
REMARK SMILES IDX 58 79 59 80 64 81 60 82 61 83 63 84 65 85 62 86 46 87 47 88
REMARK SMILES IDX 52 89 48 90 49 91 51 92 53 93 50 94
REMARK H PARENT 13 7 2 20 20 37 70 56 44 67
REMARK Flexibility Score: inf
ROOT
ATOM      1  C   UNL A   1      32.210  29.954  26.042  1.00  0.00     0.002 C 
ENDROOT
BRANCH   1   2
ATOM      2  C   UNL A   1      31.993  29.074  27.280  1.00  0.00     0.021 C 
BRANCH   2   3
ATOM      3  C   UNL A   1      32.258  27.584  27.076  1.00  0.00     0.116 C 
BRANCH   3   4
ATOM      4  N   UNL A   1      31.046  26.782  27.110  1.00  0.00    -0.356 N 
ATOM      5  C   UNL A   1      30.601  25.829  26.241  1.00  0.00     0.225 C 
ATOM      6  O   UNL A   1      29.595  25.187  26.547  1.00  0.00    -0.275 OA
ATOM      7  H   UNL A   1      30.456  26.954  27.878  1.00  0.00     0.163 HD
BRANCH   5   8
ATOM      8  C   UNL A   1      31.338  25.583  24.945  1.00  0.00     0.107 C 
ATOM      9  N   UNL A   1      33.349  25.072  23.937  1.00  0.00    -0.341 N 
ATOM     10  C   UNL A   1      32.671  24.910  25.205  1.00  0.00     0.133 C 
ATOM     11  C   UNL A   1      33.015  26.382  23.383  1.00  0.00     0.128 C 
ATOM     12  C   UNL A   1      31.797  26.867  24.211  1.00  0.00     0.053 C 
BRANCH   9  13
ATOM     13  C   UNL A   1      34.193  24.230  23.261  1.00  0.00     0.226 C 
ATOM     14  O   UNL A   1      33.955  23.941  22.082  1.00  0.00    -0.275 OA
BRANCH  13  15
ATOM     15  C   UNL A   1      35.231  23.389  24.015  1.00  0.00     0.090 C 
ATOM     16  C   UNL A   1      38.826  22.195  26.049  1.00  0.00     0.332 C 
ATOM     17  N   UNL A   1      37.842  22.852  25.192  1.00  0.00    -0.337 N 
ATOM     18  C   UNL A   1      36.802  23.500  26.000  1.00  0.00     0.262 C 
ATOM     19  C   UNL A   1      37.247  21.896  24.245  1.00  0.00     0.262 C 
ATOM     20  H   UNL A   1      38.321  23.573  24.652  1.00  0.00     0.347 HD
ATOM     21  C   UNL A   1      35.840  24.280  25.109  1.00  0.00     0.075 C 
ATOM     22  C   UNL A   1      36.336  22.647  23.269  1.00  0.00     0.075 C 
ENDBRANCH  13  15
ENDBRANCH   9  13
BRANCH  12  23
ATOM     23  C   UNL A   1      30.637  27.515  23.484  1.00  0.00    -0.038 A 
ATOM     24  C   UNL A   1      29.288  27.167  23.728  1.00  0.00     0.008 A 
ATOM     25  C   UNL A   1      30.918  28.622  22.660  1.00  0.00     0.054 A 
ATOM     26  C   UNL A   1      28.237  27.930  23.200  1.00  0.00     0.051 A 
ATOM     27  C   UNL A   1      29.867  29.377  22.193  1.00  0.00     0.166 A 
ATOM     28  C   UNL A   1      28.561  29.048  22.465  1.00  0.00     0.165 A 
ATOM     29  O   UNL A   1      29.975  30.553  21.517  1.00  0.00    -0.454 OA
ATOM     30  O   UNL A   1      27.687  29.973  21.987  1.00  0.00    -0.454 OA
ATOM     31  C   UNL A   1      28.604  30.992  21.536  1.00  0.00     0.468 C 
ENDBRANCH  12  23
ENDBRANCH   5   8
ENDBRANCH   3   4
ENDBRANCH   2   3
ENDBRANCH   1   2
BRANCH   1  32
ATOM     32  C   UNL A   1      31.061  30.899  25.676  1.00  0.00     0.002 C 
BRANCH  32  33
ATOM     33  C   UNL A   1      31.058  32.249  26.395  1.00  0.00     0.021 C 
BRANCH  33  34
ATOM     34  C   UNL A   1      32.408  32.708  26.932  1.00  0.00     0.116 C 
BRANCH  34  35
ATOM     35  N   UNL A   1      32.359  34.053  27.483  1.00  0.00    -0.352 N 
ATOM     36  C   UNL A   1      33.099  34.624  28.488  1.00  0.00     0.251 C 
ATOM     37  H   UNL A   1      31.689  34.646  27.071  1.00  0.00     0.163 HD
ATOM     38  O   UNL A   1      32.774  35.729  28.928  1.00  0.00    -0.269 OA
BRANCH  36  39
ATOM     39  C   UNL A   1      34.268  33.925  29.071  1.00  0.00     0.039 A 
ATOM     40  C   UNL A   1      35.550  34.419  28.808  1.00  0.00     0.014 A 
ATOM     41  C   UNL A   1      34.120  32.770  29.845  1.00  0.00     0.014 A 
ATOM     42  C   UNL A   1      36.670  33.796  29.367  1.00  0.00     0.010 A 
ATOM     43  C   UNL A   1      35.227  32.202  30.471  1.00  0.00     0.010 A 
ATOM     44  C   UNL A   1      36.516  32.700  30.232  1.00  0.00    -0.014 A 
BRANCH  44  45
ATOM     45  C   UNL A   1      37.689  32.057  30.882  1.00  0.00     0.031 A 
ATOM     46  C   UNL A   1      38.442  30.961  30.172  1.00  0.00     0.074 A 
ATOM     47  C   UNL A   1      38.038  32.406  32.138  1.00  0.00     0.049 A 
ATOM     48  N   UNL A   1      39.431  30.220  30.607  1.00  0.00    -0.248 NA
ATOM     49  C   UNL A   1      38.006  30.632  28.804  1.00  0.00     0.031 C 
ATOM     50  C   UNL A   1      37.360  33.412  32.957  1.00  0.00     0.029 A 
ATOM     51  N   UNL A   1      39.040  31.939  32.952  1.00  0.00    -0.354 N 
ATOM     52  C   UNL A   1      39.715  29.327  29.581  1.00  0.00     0.074 A 
ATOM     53  C   UNL A   1      38.770  29.586  28.518  1.00  0.00     0.031 C 
ATOM     54  C   UNL A   1      37.971  33.494  34.150  1.00  0.00     0.029 A 
ATOM     55  C   UNL A   1      39.060  32.524  34.196  1.00  0.00     0.049 A 
ATOM     56  H   UNL A   1      39.685  31.249  32.671  1.00  0.00     0.167 HD
ATOM     57  C   UNL A   1      40.689  28.388  29.522  1.00  0.00     0.037 A 
ATOM     58  C   UNL A   1      39.855  32.295  35.259  1.00  0.00     0.037 A 
ATOM     59  C   UNL A   1      41.663  28.165  30.558  1.00  0.00     0.049 A 
ATOM     60  C   UNL A   1      40.944  31.261  35.154  1.00  0.00     0.074 A 
ATOM     61  C   UNL A   1      42.743  27.299  30.549  1.00  0.00     0.029 A 
ATOM     62  N   UNL A   1      41.674  28.808  31.784  1.00  0.00    -0.354 N 
ATOM     63  N   UNL A   1      41.252  30.485  34.144  1.00  0.00    -0.248 NA
ATOM     64  C   UNL A   1      41.801  31.077  36.334  1.00  0.00     0.031 C 
ATOM     65  C   UNL A   1      43.381  27.385  31.790  1.00  0.00     0.029 A 
ATOM     66  C   UNL A   1      42.729  28.341  32.551  1.00  0.00     0.049 A 
ATOM     67  H   UNL A   1      41.029  29.496  32.068  1.00  0.00     0.167 HD
ATOM     68  C   UNL A   1      42.355  29.746  34.556  1.00  0.00     0.074 A 
ATOM     69  C   UNL A   1      42.671  30.177  35.900  1.00  0.00     0.031 C 
ATOM     70  C   UNL A   1      43.041  28.792  33.881  1.00  0.00     0.037 A 
BRANCH  57  71
ATOM     71  C   UNL A   1      40.766  27.530  28.293  1.00  0.00     0.057 A 
ATOM     72  C   UNL A   1      40.048  26.334  28.178  1.00  0.00     0.134 A 
ATOM     73  C   UNL A   1      41.508  27.949  27.180  1.00  0.00     0.134 A 
ATOM     74  F   UNL A   1      39.326  25.872  29.209  1.00  0.00    -0.206 F 
ATOM     75  C   UNL A   1      40.074  25.578  27.004  1.00  0.00     0.040 A 
ATOM     76  C   UNL A   1      41.521  27.215  25.993  1.00  0.00     0.040 A 
ATOM     77  F   UNL A   1      42.213  29.089  27.221  1.00  0.00    -0.206 F 
ATOM     78  C   UNL A   1      40.803  26.024  25.903  1.00  0.00     0.006 A 
ENDBRANCH  57  71
BRANCH  58  79
ATOM     79  C   UNL A   1      39.659  33.054  36.522  1.00  0.00     0.057 A 
ATOM     80  C   UNL A   1      40.375  34.228  36.782  1.00  0.00     0.134 A 
ATOM     81  C   UNL A   1      38.782  32.601  37.515  1.00  0.00     0.134 A 
ATOM     82  F   UNL A   1      41.245  34.702  35.878  1.00  0.00    -0.206 F 
ATOM     83  C   UNL A   1      40.252  34.907  37.996  1.00  0.00     0.040 A 
ATOM     84  C   UNL A   1      38.628  33.286  38.721  1.00  0.00     0.040 A 
ATOM     85  F   UNL A   1      38.060  31.487  37.326  1.00  0.00    -0.206 F 
ATOM     86  C   UNL A   1      39.373  34.437  38.969  1.00  0.00     0.006 A 
ENDBRANCH  58  79
BRANCH  70  87
ATOM     87  C   UNL A   1      44.227  28.181  34.568  1.00  0.00     0.057 A 
ATOM     88  C   UNL A   1      44.119  27.014  35.333  1.00  0.00     0.134 A 
ATOM     89  C   UNL A   1      45.502  28.746  34.423  1.00  0.00     0.134 A 
ATOM     90  F   UNL A   1      42.926  26.430  35.520  1.00  0.00    -0.206 F 
ATOM     91  C   UNL A   1      45.233  26.443  35.952  1.00  0.00     0.040 A 
ATOM     92  C   UNL A   1      46.626  28.168  35.013  1.00  0.00     0.040 A 
ATOM     93  F   UNL A   1      45.675  29.858  33.694  1.00  0.00    -0.206 F 
ATOM     94  C   UNL A   1      46.492  27.017  35.785  1.00  0.00     0.006 A 
ENDBRANCH  70  87
ENDBRANCH  44  45
ENDBRANCH  36  39
ENDBRANCH  34  35
ENDBRANCH  33  34
ENDBRANCH  32  33
ENDBRANCH   1  32
TORSDOF 16
ENDMDL
MODEL 2
REMARK VINA RESULT:     -12.9      3.638      8.222
REMARK SMILES C[NH+]1CCC(C(=O)N2C[C@@H](C(=O)NCCCCCCNC(=O)c3ccc(-c4c5nc(c(-c6c(F)cccc6F)c6ccc([nH]6)c(-c6c(F)cccc6F)c6nc(c(-c7c(F)cccc7F)c7ccc4[nH]7)C=C6)C=C5)cc3)[C@H](c3ccc4c(c3)OCO4)C2)CC1
REMARK SMILES IDX 16 1 15 2 14 3 13 4 11 5 12 6 10 8 8 9 9 10 87 11 77 12 6 13
REMARK SMILES IDX 7 14 5 15 1 16 2 17 3 18 89 19 4 21 88 22 78 23 79 24 83 25
REMARK SMILES IDX 80 26 82 27 81 28 84 29 86 30 85 31 17 32 18 33 19 34 20 35
REMARK SMILES IDX 21 36 22 38 23 39 24 40 76 41 25 42 75 43 26 44 27 45 28 46
REMARK SMILES IDX 69 47 29 48 74 49 68 50 70 51 30 52 73 53 67 54 66 55 31 57
REMARK SMILES IDX 57 58 40 59 56 60 41 61 44 62 55 63 71 64 42 65 43 66 54 68
REMARK SMILES IDX 72 69 45 70 32 71 33 72 38 73 34 74 35 75 37 76 39 77 36 78
REMARK SMILES IDX 58 79 59 80 64 81 60 82 61 83 63 84 65 85 62 86 46 87 47 88
REMARK SMILES IDX 52 89 48 90 49 91 51 92 53 93 50 94
REMARK H PARENT 13 7 2 20 20 37 70 56 44 67
REMARK Flexibility Score: inf
ROOT
ATOM      1  C   UNL A   1      30.703  25.733  25.943  1.00  0.00     0.002 C 
ENDROOT
BRANCH   1   2
ATOM      2  C   UNL A   1      30.089  24.456  26.531  1.00  0.00     0.021 C 
BRANCH   2   3
ATOM      3  C   UNL A   1      31.091  23.433  27.060  1.00  0.00     0.116 C 
BRANCH   3   4
ATOM      4  N   UNL A   1      31.122  22.210  26.276  1.00  0.00    -0.356 N 
ATOM      5  C   UNL A   1      31.815  21.916  25.138  1.00  0.00     0.225 C 
ATOM      6  O   UNL A   1      31.779  20.758  24.718  1.00  0.00    -0.275 OA
ATOM      7  H   UNL A   1      30.555  21.482  26.618  1.00  0.00     0.163 HD
BRANCH   5   8
ATOM      8  C   UNL A   1      32.598  22.996  24.428  1.00  0.00     0.107 C 
ATOM      9  N   UNL A   1      32.715  24.419  22.616  1.00  0.00    -0.341 N 
ATOM     10  C   UNL A   1      31.735  23.696  23.397  1.00  0.00     0.133 C 
ATOM     11  C   UNL A   1      33.916  23.597  22.481  1.00  0.00     0.128 C 
ATOM     12  C   UNL A   1      33.752  22.475  23.538  1.00  0.00     0.053 C 
BRANCH   9  13
ATOM     13  C   UNL A   1      32.657  25.659  22.036  1.00  0.00     0.226 C 
ATOM     14  O   UNL A   1      33.280  25.876  20.989  1.00  0.00    -0.275 OA
BRANCH  13  15
ATOM     15  C   UNL A   1      32.110  26.863  22.814  1.00  0.00     0.090 C 
ATOM     16  C   UNL A   1      30.049  30.510  23.779  1.00  0.00     0.332 C 
ATOM     17  N   UNL A   1      30.751  29.424  23.100  1.00  0.00    -0.337 N 
ATOM     18  C   UNL A   1      29.976  28.180  23.175  1.00  0.00     0.262 C 
ATOM     19  C   UNL A   1      32.097  29.236  23.660  1.00  0.00     0.262 C 
ATOM     20  H   UNL A   1      30.851  29.677  22.116  1.00  0.00     0.347 HD
ATOM     21  C   UNL A   1      30.654  27.076  22.369  1.00  0.00     0.075 C 
ATOM     22  C   UNL A   1      32.853  28.195  22.828  1.00  0.00     0.075 C 
ENDBRANCH  13  15
ENDBRANCH   9  13
BRANCH  12  23
ATOM     23  C   UNL A   1      34.952  22.092  24.381  1.00  0.00    -0.038 A 
ATOM     24  C   UNL A   1      35.422  20.763  24.488  1.00  0.00     0.008 A 
ATOM     25  C   UNL A   1      35.717  23.135  24.939  1.00  0.00     0.054 A 
ATOM     26  C   UNL A   1      36.651  20.477  25.098  1.00  0.00     0.051 A 
ATOM     27  C   UNL A   1      36.940  22.828  25.492  1.00  0.00     0.166 A 
ATOM     28  C   UNL A   1      37.401  21.536  25.559  1.00  0.00     0.165 A 
ATOM     29  O   UNL A   1      37.859  23.730  25.932  1.00  0.00    -0.454 OA
ATOM     30  O   UNL A   1      38.664  21.465  26.058  1.00  0.00    -0.454 OA
ATOM     31  C   UNL A   1      38.994  22.868  26.134  1.00  0.00     0.468 C 
ENDBRANCH  12  23
ENDBRANCH   5   8
ENDBRANCH   3   4
ENDBRANCH   2   3
ENDBRANCH   1   2
BRANCH   1  32
ATOM     32  C   UNL A   1      32.043  26.175  26.542  1.00  0.00     0.002 C 
BRANCH  32  33
ATOM     33  C   UNL A   1      32.079  27.594  27.111  1.00  0.00     0.021 C 
BRANCH  33  34
ATOM     34  C   UNL A   1      33.464  28.217  27.229  1.00  0.00     0.116 C 
BRANCH  34  35
ATOM     35  N   UNL A   1      33.410  29.649  27.476  1.00  0.00    -0.352 N 
ATOM     36  C   UNL A   1      34.351  30.489  28.015  1.00  0.00     0.251 C 
ATOM     37  H   UNL A   1      32.565  30.083  27.215  1.00  0.00     0.163 HD
ATOM     38  O   UNL A   1      34.036  31.645  28.307  1.00  0.00    -0.269 OA
BRANCH  36  39
ATOM     39  C   UNL A   1      35.733  30.024  28.276  1.00  0.00     0.039 A 
ATOM     40  C   UNL A   1      36.680  30.109  27.250  1.00  0.00     0.014 A 
ATOM     41  C   UNL A   1      36.100  29.474  29.508  1.00  0.00     0.014 A 
ATOM     42  C   UNL A   1      37.999  29.703  27.477  1.00  0.00     0.010 A 
ATOM     43  C   UNL A   1      37.433  29.151  29.760  1.00  0.00     0.010 A 
ATOM     44  C   UNL A   1      38.396  29.252  28.746  1.00  0.00    -0.014 A 
BRANCH  44  45
ATOM     45  C   UNL A   1      39.805  28.867  29.025  1.00  0.00     0.031 A 
ATOM     46  C   UNL A   1      40.744  29.851  29.674  1.00  0.00     0.074 A 
ATOM     47  C   UNL A   1      40.263  27.660  28.633  1.00  0.00     0.049 A 
ATOM     48  N   UNL A   1      42.026  29.734  29.918  1.00  0.00    -0.248 NA
ATOM     49  C   UNL A   1      40.176  31.149  30.075  1.00  0.00     0.031 C 
ATOM     50  C   UNL A   1      39.474  26.636  27.945  1.00  0.00     0.029 A 
ATOM     51  N   UNL A   1      41.510  27.097  28.742  1.00  0.00    -0.354 N 
ATOM     52  C   UNL A   1      42.418  30.946  30.473  1.00  0.00     0.074 A 
ATOM     53  C   UNL A   1      41.252  31.801  30.493  1.00  0.00     0.031 C 
ATOM     54  C   UNL A   1      40.251  25.568  27.705  1.00  0.00     0.029 A 
ATOM     55  C   UNL A   1      41.601  25.842  28.185  1.00  0.00     0.049 A 
ATOM     56  H   UNL A   1      42.270  27.549  29.177  1.00  0.00     0.167 HD
ATOM     57  C   UNL A   1      43.636  31.308  30.942  1.00  0.00     0.037 A 
ATOM     58  C   UNL A   1      42.655  25.013  28.063  1.00  0.00     0.037 A 
ATOM     59  C   UNL A   1      44.783  30.440  30.971  1.00  0.00     0.049 A 
ATOM     60  C   UNL A   1      43.991  25.433  28.617  1.00  0.00     0.074 A 
ATOM     61  C   UNL A   1      46.034  30.686  31.510  1.00  0.00     0.029 A 
ATOM     62  N   UNL A   1      44.822  29.162  30.437  1.00  0.00    -0.354 N 
ATOM     63  N   UNL A   1      44.322  26.551  29.216  1.00  0.00    -0.248 NA
ATOM     64  C   UNL A   1      45.097  24.474  28.483  1.00  0.00     0.031 C 
ATOM     65  C   UNL A   1      46.844  29.574  31.261  1.00  0.00     0.029 A 
ATOM     66  C   UNL A   1      46.083  28.616  30.612  1.00  0.00     0.049 A 
ATOM     67  H   UNL A   1      44.065  28.709  29.999  1.00  0.00     0.167 HD
ATOM     68  C   UNL A   1      45.662  26.415  29.557  1.00  0.00     0.074 A 
ATOM     69  C   UNL A   1      46.078  25.103  29.113  1.00  0.00     0.031 C 
ATOM     70  C   UNL A   1      46.477  27.301  30.180  1.00  0.00     0.037 A 
BRANCH  57  71
ATOM     71  C   UNL A   1      43.799  32.700  31.478  1.00  0.00     0.057 A 
ATOM     72  C   UNL A   1      43.606  33.000  32.832  1.00  0.00     0.134 A 
ATOM     73  C   UNL A   1      44.234  33.737  30.641  1.00  0.00     0.134 A 
ATOM     74  F   UNL A   1      43.182  32.055  33.684  1.00  0.00    -0.206 F 
ATOM     75  C   UNL A   1      43.826  34.284  33.333  1.00  0.00     0.040 A 
ATOM     76  C   UNL A   1      44.481  35.019  31.135  1.00  0.00     0.040 A 
ATOM     77  F   UNL A   1      44.445  33.515  29.336  1.00  0.00    -0.206 F 
ATOM     78  C   UNL A   1      44.276  35.296  32.486  1.00  0.00     0.006 A 
ENDBRANCH  57  71
BRANCH  58  79
ATOM     79  C   UNL A   1      42.502  23.697  27.390  1.00  0.00     0.057 A 
ATOM     80  C   UNL A   1      42.215  22.537  28.119  1.00  0.00     0.134 A 
ATOM     81  C   UNL A   1      42.680  23.561  26.008  1.00  0.00     0.134 A 
ATOM     82  F   UNL A   1      42.053  22.598  29.449  1.00  0.00    -0.206 F 
ATOM     83  C   UNL A   1      42.142  21.285  27.504  1.00  0.00     0.040 A 
ATOM     84  C   UNL A   1      42.581  22.320  25.376  1.00  0.00     0.040 A 
ATOM     85  F   UNL A   1      42.950  24.634  25.250  1.00  0.00    -0.206 F 
ATOM     86  C   UNL A   1      42.323  21.175  26.128  1.00  0.00     0.006 A 
ENDBRANCH  58  79
BRANCH  70  87
ATOM     87  C   UNL A   1      47.886  26.866  30.457  1.00  0.00     0.057 A 
ATOM     88  C   UNL A   1      48.217  26.103  31.583  1.00  0.00     0.134 A 
ATOM     89  C   UNL A   1      48.916  27.179  29.560  1.00  0.00     0.134 A 
ATOM     90  F   UNL A   1      47.280  25.780  32.486  1.00  0.00    -0.206 F 
ATOM     91  C   UNL A   1      49.528  25.688  31.820  1.00  0.00     0.040 A 
ATOM     92  C   UNL A   1      50.225  26.745  29.772  1.00  0.00     0.040 A 
ATOM     93  F   UNL A   1      48.663  27.898  28.456  1.00  0.00    -0.206 F 
ATOM     94  C   UNL A   1      50.535  26.003  30.908  1.00  0.00     0.006 A 
ENDBRANCH  70  87
ENDBRANCH  44  45
ENDBRANCH  36  39
ENDBRANCH  34  35
ENDBRANCH  33  34
ENDBRANCH  32  33
ENDBRANCH   1  32
TORSDOF 16
ENDMDL
MODEL 3
REMARK VINA RESULT:     -12.7      2.692      8.054
REMARK SMILES C[NH+]1CCC(C(=O)N2C[C@@H](C(=O)NCCCCCCNC(=O)c3ccc(-c4c5nc(c(-c6c(F)cccc6F)c6ccc([nH]6)c(-c6c(F)cccc6F)c6nc(c(-c7c(F)cccc7F)c7ccc4[nH]7)C=C6)C=C5)cc3)[C@H](c3ccc4c(c3)OCO4)C2)CC1
REMARK SMILES IDX 16 1 15 2 14 3 13 4 11 5 12 6 10 8 8 9 9 10 87 11 77 12 6 13
REMARK SMILES IDX 7 14 5 15 1 16 2 17 3 18 89 19 4 21 88 22 78 23 79 24 83 25
REMARK SMILES IDX 80 26 82 27 81 28 84 29 86 30 85 31 17 32 18 33 19 34 20 35
REMARK SMILES IDX 21 36 22 38 23 39 24 40 76 41 25 42 75 43 26 44 27 45 28 46
REMARK SMILES IDX 69 47 29 48 74 49 68 50 70 51 30 52 73 53 67 54 66 55 31 57
REMARK SMILES IDX 57 58 40 59 56 60 41 61 44 62 55 63 71 64 42 65 43 66 54 68
REMARK SMILES IDX 72 69 45 70 32 71 33 72 38 73 34 74 35 75 37 76 39 77 36 78
REMARK SMILES IDX 58 79 59 80 64 81 60 82 61 83 63 84 65 85 62 86 46 87 47 88
REMARK SMILES IDX 52 89 48 90 49 91 51 92 53 93 50 94
REMARK H PARENT 13 7 2 20 20 37 70 56 44 67
REMARK Flexibility Score: inf
ROOT
ATOM      1  C   UNL A   1      30.484  25.899  26.119  1.00  0.00     0.002 C 
ENDROOT
BRANCH   1   2
ATOM      2  C   UNL A   1      30.016  24.476  26.452  1.00  0.00     0.021 C 
BRANCH   2   3
ATOM      3  C   UNL A   1      31.092  23.548  27.012  1.00  0.00     0.116 C 
BRANCH   3   4
ATOM      4  N   UNL A   1      31.249  22.328  26.237  1.00  0.00    -0.356 N 
ATOM      5  C   UNL A   1      32.039  22.073  25.155  1.00  0.00     0.225 C 
ATOM      6  O   UNL A   1      32.100  20.915  24.740  1.00  0.00    -0.275 OA
ATOM      7  H   UNL A   1      30.700  21.570  26.540  1.00  0.00     0.163 HD
BRANCH   5   8
ATOM      8  C   UNL A   1      32.812  23.195  24.500  1.00  0.00     0.107 C 
ATOM      9  N   UNL A   1      32.941  24.672  22.733  1.00  0.00    -0.341 N 
ATOM     10  C   UNL A   1      31.960  23.900  23.463  1.00  0.00     0.133 C 
ATOM     11  C   UNL A   1      34.169  23.889  22.612  1.00  0.00     0.128 C 
ATOM     12  C   UNL A   1      34.007  22.733  23.631  1.00  0.00     0.053 C 
BRANCH   9  13
ATOM     13  C   UNL A   1      32.864  25.927  22.187  1.00  0.00     0.226 C 
ATOM     14  O   UNL A   1      33.653  26.255  21.291  1.00  0.00    -0.275 OA
BRANCH  13  15
ATOM     15  C   UNL A   1      32.049  27.031  22.872  1.00  0.00     0.090 C 
ATOM     16  C   UNL A   1      29.526  30.455  23.502  1.00  0.00     0.332 C 
ATOM     17  N   UNL A   1      30.457  29.470  22.957  1.00  0.00    -0.337 N 
ATOM     18  C   UNL A   1      29.791  28.176  22.768  1.00  0.00     0.262 C 
ATOM     19  C   UNL A   1      31.639  29.329  23.821  1.00  0.00     0.262 C 
ATOM     20  H   UNL A   1      30.773  29.802  22.044  1.00  0.00     0.347 HD
ATOM     21  C   UNL A   1      30.732  27.182  22.094  1.00  0.00     0.075 C 
ATOM     22  C   UNL A   1      32.656  28.404  23.144  1.00  0.00     0.075 C 
ENDBRANCH  13  15
ENDBRANCH   9  13
BRANCH  12  23
ATOM     23  C   UNL A   1      35.191  22.360  24.500  1.00  0.00    -0.038 A 
ATOM     24  C   UNL A   1      35.736  21.055  24.536  1.00  0.00     0.008 A 
ATOM     25  C   UNL A   1      35.869  23.401  25.163  1.00  0.00     0.054 A 
ATOM     26  C   UNL A   1      36.954  20.797  25.179  1.00  0.00     0.051 A 
ATOM     27  C   UNL A   1      37.084  23.127  25.748  1.00  0.00     0.166 A 
ATOM     28  C   UNL A   1      37.618  21.862  25.747  1.00  0.00     0.165 A 
ATOM     29  O   UNL A   1      37.927  24.046  26.291  1.00  0.00    -0.454 OA
ATOM     30  O   UNL A   1      38.862  21.827  26.296  1.00  0.00    -0.454 OA
ATOM     31  C   UNL A   1      39.103  23.238  26.484  1.00  0.00     0.468 C 
ENDBRANCH  12  23
ENDBRANCH   5   8
ENDBRANCH   3   4
ENDBRANCH   2   3
ENDBRANCH   1   2
BRANCH   1  32
ATOM     32  C   UNL A   1      31.935  26.233  26.483  1.00  0.00     0.002 C 
BRANCH  32  33
ATOM     33  C   UNL A   1      32.155  27.591  27.151  1.00  0.00     0.021 C 
BRANCH  33  34
ATOM     34  C   UNL A   1      33.523  28.221  26.920  1.00  0.00     0.116 C 
BRANCH  34  35
ATOM     35  N   UNL A   1      33.476  29.674  26.938  1.00  0.00    -0.352 N 
ATOM     36  C   UNL A   1      34.334  30.579  27.509  1.00  0.00     0.251 C 
ATOM     37  H   UNL A   1      32.707  30.070  26.467  1.00  0.00     0.163 HD
ATOM     38  O   UNL A   1      34.013  31.769  27.564  1.00  0.00    -0.269 OA
BRANCH  36  39
ATOM     39  C   UNL A   1      35.630  30.149  28.083  1.00  0.00     0.039 A 
ATOM     40  C   UNL A   1      35.668  29.703  29.408  1.00  0.00     0.014 A 
ATOM     41  C   UNL A   1      36.815  30.211  27.343  1.00  0.00     0.014 A 
ATOM     42  C   UNL A   1      36.872  29.266  29.967  1.00  0.00     0.010 A 
ATOM     43  C   UNL A   1      37.997  29.695  27.872  1.00  0.00     0.010 A 
ATOM     44  C   UNL A   1      38.043  29.226  29.193  1.00  0.00    -0.014 A 
BRANCH  44  45
ATOM     45  C   UNL A   1      39.323  28.713  29.750  1.00  0.00     0.031 A 
ATOM     46  C   UNL A   1      39.929  29.354  30.972  1.00  0.00     0.074 A 
ATOM     47  C   UNL A   1      39.980  27.717  29.120  1.00  0.00     0.049 A 
ATOM     48  N   UNL A   1      41.076  29.108  31.554  1.00  0.00    -0.248 NA
ATOM     49  C   UNL A   1      39.157  30.436  31.608  1.00  0.00     0.031 C 
ATOM     50  C   UNL A   1      39.532  27.047  27.898  1.00  0.00     0.029 A 
ATOM     51  N   UNL A   1      41.174  27.106  29.411  1.00  0.00    -0.354 N 
ATOM     52  C   UNL A   1      41.174  30.017  32.600  1.00  0.00     0.074 A 
ATOM     53  C   UNL A   1      39.992  30.848  32.552  1.00  0.00     0.031 C 
ATOM     54  C   UNL A   1      40.432  26.113  27.552  1.00  0.00     0.029 A 
ATOM     55  C   UNL A   1      41.538  26.140  28.503  1.00  0.00     0.049 A 
ATOM     56  H   UNL A   1      41.720  27.339  30.198  1.00  0.00     0.167 HD
ATOM     57  C   UNL A   1      42.151  30.135  33.530  1.00  0.00     0.037 A 
ATOM     58  C   UNL A   1      42.643  25.374  28.435  1.00  0.00     0.037 A 
ATOM     59  C   UNL A   1      43.302  29.274  33.610  1.00  0.00     0.049 A 
ATOM     60  C   UNL A   1      43.701  25.512  29.497  1.00  0.00     0.074 A 
ATOM     61  C   UNL A   1      44.298  29.258  34.571  1.00  0.00     0.029 A 
ATOM     62  N   UNL A   1      43.610  28.280  32.696  1.00  0.00    -0.354 N 
ATOM     63  N   UNL A   1      43.735  26.319  30.530  1.00  0.00    -0.248 NA
ATOM     64  C   UNL A   1      44.870  24.627  29.389  1.00  0.00     0.031 C 
ATOM     65  C   UNL A   1      45.235  28.285  34.213  1.00  0.00     0.029 A 
ATOM     66  C   UNL A   1      44.796  27.661  33.057  1.00  0.00     0.049 A 
ATOM     67  H   UNL A   1      43.068  28.048  31.908  1.00  0.00     0.167 HD
ATOM     68  C   UNL A   1      44.910  26.017  31.208  1.00  0.00     0.074 A 
ATOM     69  C   UNL A   1      45.551  24.944  30.481  1.00  0.00     0.031 C 
ATOM     70  C   UNL A   1      45.413  26.582  32.332  1.00  0.00     0.037 A 
BRANCH  57  71
ATOM     71  C   UNL A   1      42.023  31.227  34.551  1.00  0.00     0.057 A 
ATOM     72  C   UNL A   1      41.337  31.037  35.757  1.00  0.00     0.134 A 
ATOM     73  C   UNL A   1      42.663  32.459  34.359  1.00  0.00     0.134 A 
ATOM     74  F   UNL A   1      40.696  29.885  36.001  1.00  0.00    -0.206 F 
ATOM     75  C   UNL A   1      41.281  32.037  36.730  1.00  0.00     0.040 A 
ATOM     76  C   UNL A   1      42.635  33.457  35.335  1.00  0.00     0.040 A 
ATOM     77  F   UNL A   1      43.343  32.704  33.229  1.00  0.00    -0.206 F 
ATOM     78  C   UNL A   1      41.941  33.247  36.525  1.00  0.00     0.006 A 
ENDBRANCH  57  71
BRANCH  58  79
ATOM     79  C   UNL A   1      42.818  24.403  27.323  1.00  0.00     0.057 A 
ATOM     80  C   UNL A   1      43.305  24.808  26.075  1.00  0.00     0.134 A 
ATOM     81  C   UNL A   1      42.465  23.056  27.470  1.00  0.00     0.134 A 
ATOM     82  F   UNL A   1      43.642  26.089  25.865  1.00  0.00    -0.206 F 
ATOM     83  C   UNL A   1      43.404  23.918  25.003  1.00  0.00     0.040 A 
ATOM     84  C   UNL A   1      42.585  22.149  26.416  1.00  0.00     0.040 A 
ATOM     85  F   UNL A   1      41.999  22.601  28.642  1.00  0.00    -0.206 F 
ATOM     86  C   UNL A   1      43.045  22.583  25.174  1.00  0.00     0.006 A 
ENDBRANCH  58  79
BRANCH  70  87
ATOM     87  C   UNL A   1      46.698  26.023  32.869  1.00  0.00     0.057 A 
ATOM     88  C   UNL A   1      47.944  26.551  32.507  1.00  0.00     0.134 A 
ATOM     89  C   UNL A   1      46.684  24.970  33.793  1.00  0.00     0.134 A 
ATOM     90  F   UNL A   1      48.027  27.551  31.617  1.00  0.00    -0.206 F 
ATOM     91  C   UNL A   1      49.131  26.035  33.027  1.00  0.00     0.040 A 
ATOM     92  C   UNL A   1      47.864  24.465  34.342  1.00  0.00     0.040 A 
ATOM     93  F   UNL A   1      45.523  24.427  34.190  1.00  0.00    -0.206 F 
ATOM     94  C   UNL A   1      49.092  24.994  33.954  1.00  0.00     0.006 A 
ENDBRANCH  70  87
ENDBRANCH  44  45
ENDBRANCH  36  39
ENDBRANCH  34  35
ENDBRANCH  33  34
ENDBRANCH  32  33
ENDBRANCH   1  32
TORSDOF 16
ENDMDL
