MODEL 1
REMARK VINA RESULT:     -11.5      0.000      0.000
REMARK SMILES O=C(NCCCCCCNC(=O)[C@H]1CC[C@H](CNC(=O)c2ccccc2O)O1)c1ccc(-c2c3nc(c(-c4c(F)cccc4F)c4ccc([nH]4)c(-c4c(F)cccc4F)c4nc(c(-c5c(F)cccc5F)c5ccc2[nH]5)C=C4)C=C3)cc1
REMARK SMILES IDX 7 1 6 2 5 3 4 4 3 5 1 6 2 7 29 9 30 10 82 11 31 12 81 13
REMARK SMILES IDX 32 14 33 15 34 16 75 17 35 18 80 19 74 20 76 21 36 22 79 23
REMARK SMILES IDX 73 24 72 25 37 27 63 28 46 29 62 30 47 31 50 32 61 33 77 34
REMARK SMILES IDX 48 35 49 36 60 38 78 39 51 40 38 41 39 42 44 43 40 44 41 45
REMARK SMILES IDX 43 46 45 47 42 48 64 49 65 50 70 51 66 52 67 53 69 54 71 55
REMARK SMILES IDX 68 56 52 57 53 58 58 59 54 60 55 61 57 62 59 63 56 64 8 65
REMARK SMILES IDX 9 66 10 67 11 68 12 70 13 71 14 72 28 73 15 74 16 75 17 76
REMARK SMILES IDX 18 77 19 78 20 80 21 81 22 82 26 83 23 84 25 85 24 86 27 87
REMARK H PARENT 3 8 76 26 50 37 10 69 18 79 27 88
REMARK Flexibility Score: inf
ROOT
ATOM      1  C   UNL A   1      36.973  21.800  24.539  1.00  0.00     0.002 C 
ENDROOT
BRANCH   1   2
ATOM      2  C   UNL A   1      36.667  20.366  24.994  1.00  0.00     0.002 C 
BRANCH   2   3
ATOM      3  C   UNL A   1      37.871  19.422  25.004  1.00  0.00     0.021 C 
BRANCH   3   4
ATOM      4  C   UNL A   1      39.116  20.007  25.654  1.00  0.00     0.116 C 
BRANCH   4   5
ATOM      5  N   UNL A   1      40.162  19.009  25.810  1.00  0.00    -0.352 N 
ATOM      6  O   UNL A   1      42.283  18.250  25.895  1.00  0.00    -0.269 OA
ATOM      7  C   UNL A   1      41.506  19.187  26.012  1.00  0.00     0.251 C 
ATOM      8  H   UNL A   1      39.861  18.073  25.765  1.00  0.00     0.163 HD
BRANCH   7   9
ATOM      9  C   UNL A   1      42.008  20.529  26.372  1.00  0.00     0.039 A 
ATOM     10  C   UNL A   1      42.300  21.462  25.373  1.00  0.00     0.014 A 
ATOM     11  C   UNL A   1      42.160  20.860  27.719  1.00  0.00     0.014 A 
ATOM     12  C   UNL A   1      42.850  22.690  25.717  1.00  0.00     0.010 A 
ATOM     13  C   UNL A   1      42.629  22.128  28.067  1.00  0.00     0.010 A 
ATOM     14  C   UNL A   1      42.987  23.046  27.068  1.00  0.00    -0.014 A 
BRANCH  14  15
ATOM     15  C   UNL A   1      43.403  24.427  27.412  1.00  0.00     0.031 A 
ATOM     16  C   UNL A   1      42.405  25.454  27.855  1.00  0.00     0.074 A 
ATOM     17  C   UNL A   1      44.710  24.740  27.309  1.00  0.00     0.049 A 
ATOM     18  N   UNL A   1      42.602  26.712  28.160  1.00  0.00    -0.248 NA
ATOM     19  C   UNL A   1      41.003  25.021  27.963  1.00  0.00     0.031 C 
ATOM     20  C   UNL A   1      45.764  23.819  26.873  1.00  0.00     0.029 A 
ATOM     21  N   UNL A   1      45.376  25.909  27.563  1.00  0.00    -0.354 N 
ATOM     22  C   UNL A   1      41.353  27.226  28.479  1.00  0.00     0.074 A 
ATOM     23  C   UNL A   1      40.399  26.150  28.308  1.00  0.00     0.031 C 
ATOM     24  C   UNL A   1      46.947  24.448  26.920  1.00  0.00     0.029 A 
ATOM     25  C   UNL A   1      46.726  25.833  27.317  1.00  0.00     0.049 A 
ATOM     26  H   UNL A   1      44.931  26.725  27.889  1.00  0.00     0.167 HD
ATOM     27  C   UNL A   1      41.038  28.481  28.880  1.00  0.00     0.037 A 
ATOM     28  C   UNL A   1      47.678  26.781  27.374  1.00  0.00     0.037 A 
ATOM     29  C   UNL A   1      42.002  29.539  29.052  1.00  0.00     0.049 A 
ATOM     30  C   UNL A   1      47.291  28.172  27.778  1.00  0.00     0.074 A 
ATOM     31  C   UNL A   1      41.790  30.830  29.504  1.00  0.00     0.029 A 
ATOM     32  N   UNL A   1      43.356  29.431  28.772  1.00  0.00    -0.354 N 
ATOM     33  N   UNL A   1      46.114  28.633  28.127  1.00  0.00    -0.248 NA
ATOM     34  C   UNL A   1      48.360  29.178  27.793  1.00  0.00     0.031 C 
ATOM     35  C   UNL A   1      43.005  31.521  29.437  1.00  0.00     0.029 A 
ATOM     36  C   UNL A   1      43.985  30.644  29.003  1.00  0.00     0.049 A 
ATOM     37  H   UNL A   1      43.803  28.614  28.453  1.00  0.00     0.167 HD
ATOM     38  C   UNL A   1      46.303  29.975  28.419  1.00  0.00     0.074 A 
ATOM     39  C   UNL A   1      47.713  30.250  28.228  1.00  0.00     0.031 C 
ATOM     40  C   UNL A   1      45.391  30.898  28.808  1.00  0.00     0.037 A 
BRANCH  27  41
ATOM     41  C   UNL A   1      39.592  28.793  29.137  1.00  0.00     0.057 A 
ATOM     42  C   UNL A   1      39.014  28.652  30.405  1.00  0.00     0.134 A 
ATOM     43  C   UNL A   1      38.780  29.298  28.112  1.00  0.00     0.134 A 
ATOM     44  F   UNL A   1      39.732  28.165  31.428  1.00  0.00    -0.206 F 
ATOM     45  C   UNL A   1      37.677  28.983  30.640  1.00  0.00     0.040 A 
ATOM     46  C   UNL A   1      37.451  29.657  28.341  1.00  0.00     0.040 A 
ATOM     47  F   UNL A   1      39.271  29.466  26.875  1.00  0.00    -0.206 F 
ATOM     48  C   UNL A   1      36.894  29.496  29.608  1.00  0.00     0.006 A 
ENDBRANCH  27  41
BRANCH  28  49
ATOM     49  C   UNL A   1      49.077  26.446  27.011  1.00  0.00     0.057 A 
ATOM     50  C   UNL A   1      49.556  26.642  25.711  1.00  0.00     0.134 A 
ATOM     51  C   UNL A   1      49.971  25.926  27.957  1.00  0.00     0.134 A 
ATOM     52  F   UNL A   1      48.745  27.122  24.758  1.00  0.00    -0.206 F 
ATOM     53  C   UNL A   1      50.867  26.314  25.360  1.00  0.00     0.040 A 
ATOM     54  C   UNL A   1      51.292  25.625  27.627  1.00  0.00     0.040 A 
ATOM     55  F   UNL A   1      49.577  25.726  29.223  1.00  0.00    -0.206 F 
ATOM     56  C   UNL A   1      51.741  25.811  26.322  1.00  0.00     0.006 A 
ENDBRANCH  28  49
BRANCH  40  57
ATOM     57  C   UNL A   1      45.898  32.284  29.080  1.00  0.00     0.057 A 
ATOM     58  C   UNL A   1      45.899  33.278  28.092  1.00  0.00     0.134 A 
ATOM     59  C   UNL A   1      46.355  32.639  30.355  1.00  0.00     0.134 A 
ATOM     60  F   UNL A   1      45.490  32.998  26.845  1.00  0.00    -0.206 F 
ATOM     61  C   UNL A   1      46.359  34.569  28.358  1.00  0.00     0.040 A 
ATOM     62  C   UNL A   1      46.789  33.933  30.641  1.00  0.00     0.040 A 
ATOM     63  F   UNL A   1      46.373  31.736  31.347  1.00  0.00    -0.206 F 
ATOM     64  C   UNL A   1      46.796  34.900  29.639  1.00  0.00     0.006 A 
ENDBRANCH  40  57
ENDBRANCH  14  15
ENDBRANCH   7   9
ENDBRANCH   4   5
ENDBRANCH   3   4
ENDBRANCH   2   3
ENDBRANCH   1   2
BRANCH   1  65
ATOM     65  C   UNL A   1      37.413  22.747  25.659  1.00  0.00     0.021 C 
BRANCH  65  66
ATOM     66  C   UNL A   1      36.313  23.706  26.107  1.00  0.00     0.116 C 
BRANCH  66  67
ATOM     67  N   UNL A   1      35.228  22.998  26.737  1.00  0.00    -0.354 N 
ATOM     68  C   UNL A   1      33.939  22.821  26.339  1.00  0.00     0.249 C 
ATOM     69  H   UNL A   1      35.456  22.574  27.596  1.00  0.00     0.163 HD
ATOM     70  O   UNL A   1      33.206  22.186  27.106  1.00  0.00    -0.272 OA
BRANCH  68  71
ATOM     71  C   UNL A   1      33.397  23.327  24.981  1.00  0.00     0.207 C 
ATOM     72  C   UNL A   1      33.407  22.372  23.799  1.00  0.00     0.045 C 
ATOM     73  O   UNL A   1      32.078  23.862  25.112  1.00  0.00    -0.363 OA
ATOM     74  C   UNL A   1      31.961  22.222  23.378  1.00  0.00     0.037 C 
ATOM     75  C   UNL A   1      31.222  23.341  24.093  1.00  0.00     0.138 C 
BRANCH  75  76
ATOM     76  C   UNL A   1      30.796  24.450  23.127  1.00  0.00     0.148 C 
BRANCH  76  77
ATOM     77  N   UNL A   1      31.787  24.638  22.074  1.00  0.00    -0.349 N 
ATOM     78  C   UNL A   1      32.601  25.718  21.852  1.00  0.00     0.255 C 
ATOM     79  H   UNL A   1      31.884  23.892  21.439  1.00  0.00     0.163 HD
ATOM     80  O   UNL A   1      33.277  25.774  20.828  1.00  0.00    -0.269 OA
BRANCH  78  81
ATOM     81  C   UNL A   1      32.603  26.847  22.802  1.00  0.00     0.081 A 
ATOM     82  C   UNL A   1      33.601  26.856  23.785  1.00  0.00     0.018 A 
ATOM     83  C   UNL A   1      31.660  27.880  22.751  1.00  0.00     0.128 A 
ATOM     84  C   UNL A   1      33.682  27.921  24.680  1.00  0.00     0.001 A 
ATOM     85  C   UNL A   1      31.746  28.945  23.646  1.00  0.00     0.047 A 
ATOM     86  C   UNL A   1      32.763  28.967  24.604  1.00  0.00     0.004 A 
BRANCH  83  87
ATOM     87  O   UNL A   1      30.652  27.856  21.827  1.00  0.00    -0.507 OA
ATOM     88  H   UNL A   1      30.213  27.051  21.635  1.00  0.00     0.293 HD
ENDBRANCH  83  87
ENDBRANCH  78  81
ENDBRANCH  76  77
ENDBRANCH  75  76
ENDBRANCH  68  71
ENDBRANCH  66  67
ENDBRANCH  65  66
ENDBRANCH   1  65
TORSDOF 17
ENDMDL
MODEL 2
REMARK VINA RESULT:     -11.4      1.666      2.439
REMARK SMILES O=C(NCCCCCCNC(=O)[C@H]1CC[C@H](CNC(=O)c2ccccc2O)O1)c1ccc(-c2c3nc(c(-c4c(F)cccc4F)c4ccc([nH]4)c(-c4c(F)cccc4F)c4nc(c(-c5c(F)cccc5F)c5ccc2[nH]5)C=C4)C=C3)cc1
REMARK SMILES IDX 7 1 6 2 5 3 4 4 3 5 1 6 2 7 29 9 30 10 82 11 31 12 81 13
REMARK SMILES IDX 32 14 33 15 34 16 75 17 35 18 80 19 74 20 76 21 36 22 79 23
REMARK SMILES IDX 73 24 72 25 37 27 63 28 46 29 62 30 47 31 50 32 61 33 77 34
REMARK SMILES IDX 48 35 49 36 60 38 78 39 51 40 38 41 39 42 44 43 40 44 41 45
REMARK SMILES IDX 43 46 45 47 42 48 64 49 65 50 70 51 66 52 67 53 69 54 71 55
REMARK SMILES IDX 68 56 52 57 53 58 58 59 54 60 55 61 57 62 59 63 56 64 8 65
REMARK SMILES IDX 9 66 10 67 11 68 12 70 13 71 14 72 28 73 15 74 16 75 17 76
REMARK SMILES IDX 18 77 19 78 20 80 21 81 22 82 26 83 23 84 25 85 24 86 27 87
REMARK H PARENT 3 8 76 26 50 37 10 69 18 79 27 88
REMARK Flexibility Score: inf
ROOT
ATOM      1  C   UNL A   1      35.916  21.467  25.556  1.00  0.00     0.002 C 
ENDROOT
BRANCH   1   2
ATOM      2  C   UNL A   1      36.313  20.103  24.978  1.00  0.00     0.002 C 
BRANCH   2   3
ATOM      3  C   UNL A   1      37.788  19.970  24.594  1.00  0.00     0.021 C 
BRANCH   3   4
ATOM      4  C   UNL A   1      38.757  20.314  25.716  1.00  0.00     0.116 C 
BRANCH   4   5
ATOM      5  N   UNL A   1      39.849  19.359  25.796  1.00  0.00    -0.352 N 
ATOM      6  O   UNL A   1      42.005  18.701  25.876  1.00  0.00    -0.269 OA
ATOM      7  C   UNL A   1      41.175  19.578  26.071  1.00  0.00     0.251 C 
ATOM      8  H   UNL A   1      39.602  18.420  25.630  1.00  0.00     0.163 HD
BRANCH   7   9
ATOM      9  C   UNL A   1      41.590  20.891  26.605  1.00  0.00     0.039 A 
ATOM     10  C   UNL A   1      42.015  21.901  25.737  1.00  0.00     0.014 A 
ATOM     11  C   UNL A   1      41.527  21.117  27.981  1.00  0.00     0.014 A 
ATOM     12  C   UNL A   1      42.483  23.101  26.254  1.00  0.00     0.010 A 
ATOM     13  C   UNL A   1      41.914  22.357  28.492  1.00  0.00     0.010 A 
ATOM     14  C   UNL A   1      42.404  23.353  27.633  1.00  0.00    -0.014 A 
BRANCH  14  15
ATOM     15  C   UNL A   1      42.737  24.705  28.141  1.00  0.00     0.031 A 
ATOM     16  C   UNL A   1      41.674  25.740  28.357  1.00  0.00     0.074 A 
ATOM     17  C   UNL A   1      44.029  24.986  28.399  1.00  0.00     0.049 A 
ATOM     18  N   UNL A   1      41.804  26.977  28.764  1.00  0.00    -0.248 NA
ATOM     19  C   UNL A   1      40.286  25.342  28.073  1.00  0.00     0.031 C 
ATOM     20  C   UNL A   1      45.147  24.055  28.210  1.00  0.00     0.029 A 
ATOM     21  N   UNL A   1      44.624  26.124  28.875  1.00  0.00    -0.354 N 
ATOM     22  C   UNL A   1      40.523  27.512  28.770  1.00  0.00     0.074 A 
ATOM     23  C   UNL A   1      39.630  26.472  28.302  1.00  0.00     0.031 C 
ATOM     24  C   UNL A   1      46.285  24.648  28.595  1.00  0.00     0.029 A 
ATOM     25  C   UNL A   1      45.990  26.021  28.988  1.00  0.00     0.049 A 
ATOM     26  H   UNL A   1      44.122  26.937  29.113  1.00  0.00     0.167 HD
ATOM     27  C   UNL A   1      40.133  28.757  29.135  1.00  0.00     0.037 A 
ATOM     28  C   UNL A   1      46.908  26.938  29.338  1.00  0.00     0.037 A 
ATOM     29  C   UNL A   1      41.034  29.779  29.605  1.00  0.00     0.049 A 
ATOM     30  C   UNL A   1      46.450  28.321  29.694  1.00  0.00     0.074 A 
ATOM     31  C   UNL A   1      40.732  31.055  30.048  1.00  0.00     0.029 A 
ATOM     32  N   UNL A   1      42.413  29.646  29.684  1.00  0.00    -0.354 N 
ATOM     33  N   UNL A   1      45.230  28.799  29.745  1.00  0.00    -0.248 NA
ATOM     34  C   UNL A   1      47.494  29.295  30.037  1.00  0.00     0.031 C 
ATOM     35  C   UNL A   1      41.932  31.714  30.336  1.00  0.00     0.029 A 
ATOM     36  C   UNL A   1      42.978  30.830  30.131  1.00  0.00     0.049 A 
ATOM     37  H   UNL A   1      42.915  28.831  29.454  1.00  0.00     0.167 HD
ATOM     38  C   UNL A   1      45.357  30.121  30.142  1.00  0.00     0.074 A 
ATOM     39  C   UNL A   1      46.772  30.365  30.340  1.00  0.00     0.031 C 
ATOM     40  C   UNL A   1      44.389  31.052  30.323  1.00  0.00     0.037 A 
BRANCH  27  41
ATOM     41  C   UNL A   1      38.675  29.098  29.020  1.00  0.00     0.057 A 
ATOM     42  C   UNL A   1      37.800  29.006  30.110  1.00  0.00     0.134 A 
ATOM     43  C   UNL A   1      38.151  29.582  27.814  1.00  0.00     0.134 A 
ATOM     44  F   UNL A   1      38.234  28.541  31.291  1.00  0.00    -0.206 F 
ATOM     45  C   UNL A   1      36.455  29.363  30.000  1.00  0.00     0.040 A 
ATOM     46  C   UNL A   1      36.815  29.968  27.698  1.00  0.00     0.040 A 
ATOM     47  F   UNL A   1      38.934  29.704  26.731  1.00  0.00    -0.206 F 
ATOM     48  C   UNL A   1      35.961  29.854  28.793  1.00  0.00     0.006 A 
ENDBRANCH  27  41
BRANCH  28  49
ATOM     49  C   UNL A   1      48.348  26.580  29.338  1.00  0.00     0.057 A 
ATOM     50  C   UNL A   1      48.973  26.088  30.488  1.00  0.00     0.134 A 
ATOM     51  C   UNL A   1      49.132  26.715  28.184  1.00  0.00     0.134 A 
ATOM     52  F   UNL A   1      48.280  25.948  31.626  1.00  0.00    -0.206 F 
ATOM     53  C   UNL A   1      50.331  25.762  30.498  1.00  0.00     0.040 A 
ATOM     54  C   UNL A   1      50.482  26.364  28.171  1.00  0.00     0.040 A 
ATOM     55  F   UNL A   1      48.590  27.171  27.046  1.00  0.00    -0.206 F 
ATOM     56  C   UNL A   1      51.088  25.894  29.334  1.00  0.00     0.006 A 
ENDBRANCH  28  49
BRANCH  40  57
ATOM     57  C   UNL A   1      44.829  32.411  30.785  1.00  0.00     0.057 A 
ATOM     58  C   UNL A   1      44.986  32.714  32.144  1.00  0.00     0.134 A 
ATOM     59  C   UNL A   1      45.135  33.415  29.858  1.00  0.00     0.134 A 
ATOM     60  F   UNL A   1      44.693  31.801  33.083  1.00  0.00    -0.206 F 
ATOM     61  C   UNL A   1      45.410  33.975  32.565  1.00  0.00     0.040 A 
ATOM     62  C   UNL A   1      45.587  34.670  30.265  1.00  0.00     0.040 A 
ATOM     63  F   UNL A   1      45.012  33.187  28.542  1.00  0.00    -0.206 F 
ATOM     64  C   UNL A   1      45.721  34.954  31.622  1.00  0.00     0.006 A 
ENDBRANCH  40  57
ENDBRANCH  14  15
ENDBRANCH   7   9
ENDBRANCH   4   5
ENDBRANCH   3   4
ENDBRANCH   2   3
ENDBRANCH   1   2
BRANCH   1  65
ATOM     65  C   UNL A   1      34.674  21.446  26.453  1.00  0.00     0.021 C 
BRANCH  65  66
ATOM     66  C   UNL A   1      33.363  21.470  25.670  1.00  0.00     0.116 C 
BRANCH  66  67
ATOM     67  N   UNL A   1      32.256  21.832  26.517  1.00  0.00    -0.354 N 
ATOM     68  C   UNL A   1      31.695  23.047  26.767  1.00  0.00     0.249 C 
ATOM     69  H   UNL A   1      31.836  21.079  26.992  1.00  0.00     0.163 HD
ATOM     70  O   UNL A   1      30.760  23.068  27.575  1.00  0.00    -0.272 OA
BRANCH  68  71
ATOM     71  C   UNL A   1      32.144  24.347  26.058  1.00  0.00     0.207 C 
ATOM     72  C   UNL A   1      33.593  24.782  26.198  1.00  0.00     0.045 C 
ATOM     73  O   UNL A   1      31.817  24.322  24.667  1.00  0.00    -0.363 OA
ATOM     74  C   UNL A   1      34.154  24.806  24.792  1.00  0.00     0.037 C 
ATOM     75  C   UNL A   1      32.941  24.724  23.881  1.00  0.00     0.138 C 
BRANCH  75  76
ATOM     76  C   UNL A   1      32.662  26.058  23.182  1.00  0.00     0.148 C 
BRANCH  76  77
ATOM     77  N   UNL A   1      31.229  26.317  23.100  1.00  0.00    -0.349 N 
ATOM     78  C   UNL A   1      30.464  27.139  23.886  1.00  0.00     0.255 C 
ATOM     79  H   UNL A   1      30.748  25.839  22.386  1.00  0.00     0.163 HD
ATOM     80  O   UNL A   1      29.241  27.128  23.775  1.00  0.00    -0.269 OA
BRANCH  78  81
ATOM     81  C   UNL A   1      31.104  27.974  24.921  1.00  0.00     0.081 A 
ATOM     82  C   UNL A   1      31.077  27.497  26.237  1.00  0.00     0.018 A 
ATOM     83  C   UNL A   1      31.719  29.197  24.631  1.00  0.00     0.128 A 
ATOM     84  C   UNL A   1      31.706  28.219  27.249  1.00  0.00     0.001 A 
ATOM     85  C   UNL A   1      32.351  29.916  25.645  1.00  0.00     0.047 A 
ATOM     86  C   UNL A   1      32.350  29.420  26.952  1.00  0.00     0.004 A 
BRANCH  83  87
ATOM     87  O   UNL A   1      31.708  29.697  23.358  1.00  0.00    -0.507 OA
ATOM     88  H   UNL A   1      30.898  29.946  22.960  1.00  0.00     0.293 HD
ENDBRANCH  83  87
ENDBRANCH  78  81
ENDBRANCH  76  77
ENDBRANCH  75  76
ENDBRANCH  68  71
ENDBRANCH  66  67
ENDBRANCH  65  66
ENDBRANCH   1  65
TORSDOF 17
ENDMDL
MODEL 3
REMARK VINA RESULT:     -11.3      1.628      6.439
REMARK SMILES O=C(NCCCCCCNC(=O)[C@H]1CC[C@H](CNC(=O)c2ccccc2O)O1)c1ccc(-c2c3nc(c(-c4c(F)cccc4F)c4ccc([nH]4)c(-c4c(F)cccc4F)c4nc(c(-c5c(F)cccc5F)c5ccc2[nH]5)C=C4)C=C3)cc1
REMARK SMILES IDX 7 1 6 2 5 3 4 4 3 5 1 6 2 7 29 9 30 10 82 11 31 12 81 13
REMARK SMILES IDX 32 14 33 15 34 16 75 17 35 18 80 19 74 20 76 21 36 22 79 23
REMARK SMILES IDX 73 24 72 25 37 27 63 28 46 29 62 30 47 31 50 32 61 33 77 34
REMARK SMILES IDX 48 35 49 36 60 38 78 39 51 40 38 41 39 42 44 43 40 44 41 45
REMARK SMILES IDX 43 46 45 47 42 48 64 49 65 50 70 51 66 52 67 53 69 54 71 55
REMARK SMILES IDX 68 56 52 57 53 58 58 59 54 60 55 61 57 62 59 63 56 64 8 65
REMARK SMILES IDX 9 66 10 67 11 68 12 70 13 71 14 72 28 73 15 74 16 75 17 76
REMARK SMILES IDX 18 77 19 78 20 80 21 81 22 82 26 83 23 84 25 85 24 86 27 87
REMARK H PARENT 3 8 76 26 50 37 10 69 18 79 27 88
REMARK Flexibility Score: inf
ROOT
ATOM      1  C   UNL A   1      38.862  22.318  26.157  1.00  0.00     0.002 C 
ENDROOT
BRANCH   1   2
ATOM      2  C   UNL A   1      38.246  21.404  25.090  1.00  0.00     0.002 C 
BRANCH   2   3
ATOM      3  C   UNL A   1      38.641  19.930  25.197  1.00  0.00     0.021 C 
BRANCH   3   4
ATOM      4  C   UNL A   1      39.578  19.619  26.356  1.00  0.00     0.116 C 
BRANCH   4   5
ATOM      5  N   UNL A   1      40.836  19.057  25.895  1.00  0.00    -0.352 N 
ATOM      6  O   UNL A   1      42.956  19.115  25.129  1.00  0.00    -0.269 OA
ATOM      7  C   UNL A   1      42.054  19.668  25.741  1.00  0.00     0.251 C 
ATOM      8  H   UNL A   1      40.811  18.101  25.661  1.00  0.00     0.163 HD
BRANCH   7   9
ATOM      9  C   UNL A   1      42.264  21.009  26.325  1.00  0.00     0.039 A 
ATOM     10  C   UNL A   1      42.202  21.191  27.710  1.00  0.00     0.014 A 
ATOM     11  C   UNL A   1      42.552  22.082  25.481  1.00  0.00     0.014 A 
ATOM     12  C   UNL A   1      42.317  22.467  28.243  1.00  0.00     0.010 A 
ATOM     13  C   UNL A   1      42.756  23.351  26.026  1.00  0.00     0.010 A 
ATOM     14  C   UNL A   1      42.629  23.553  27.409  1.00  0.00    -0.014 A 
BRANCH  14  15
ATOM     15  C   UNL A   1      42.928  24.870  28.020  1.00  0.00     0.031 A 
ATOM     16  C   UNL A   1      44.314  25.227  28.465  1.00  0.00     0.074 A 
ATOM     17  C   UNL A   1      41.913  25.743  28.173  1.00  0.00     0.049 A 
ATOM     18  N   UNL A   1      44.734  26.323  29.045  1.00  0.00    -0.248 NA
ATOM     19  C   UNL A   1      45.367  24.224  28.238  1.00  0.00     0.031 C 
ATOM     20  C   UNL A   1      40.521  25.491  27.788  1.00  0.00     0.029 A 
ATOM     21  N   UNL A   1      41.889  27.012  28.688  1.00  0.00    -0.354 N 
ATOM     22  C   UNL A   1      46.091  26.138  29.270  1.00  0.00     0.074 A 
ATOM     23  C   UNL A   1      46.422  24.815  28.784  1.00  0.00     0.031 C 
ATOM     24  C   UNL A   1      39.786  26.582  28.050  1.00  0.00     0.029 A 
ATOM     25  C   UNL A   1      40.637  27.579  28.687  1.00  0.00     0.049 A 
ATOM     26  H   UNL A   1      42.691  27.474  29.026  1.00  0.00     0.167 HD
ATOM     27  C   UNL A   1      46.975  27.000  29.828  1.00  0.00     0.037 A 
ATOM     28  C   UNL A   1      40.213  28.758  29.175  1.00  0.00     0.037 A 
ATOM     29  C   UNL A   1      46.630  28.317  30.300  1.00  0.00     0.049 A 
ATOM     30  C   UNL A   1      41.207  29.671  29.827  1.00  0.00     0.074 A 
ATOM     31  C   UNL A   1      47.463  29.286  30.834  1.00  0.00     0.029 A 
ATOM     32  N   UNL A   1      45.348  28.847  30.304  1.00  0.00    -0.354 N 
ATOM     33  N   UNL A   1      42.498  29.506  29.987  1.00  0.00    -0.248 NA
ATOM     34  C   UNL A   1      40.688  30.931  30.372  1.00  0.00     0.031 C 
ATOM     35  C   UNL A   1      46.676  30.376  31.218  1.00  0.00     0.029 A 
ATOM     36  C   UNL A   1      45.362  30.114  30.868  1.00  0.00     0.049 A 
ATOM     37  H   UNL A   1      44.547  28.390  29.960  1.00  0.00     0.167 HD
ATOM     38  C   UNL A   1      42.949  30.647  30.633  1.00  0.00     0.074 A 
ATOM     39  C   UNL A   1      41.797  31.507  30.817  1.00  0.00     0.031 C 
ATOM     40  C   UNL A   1      44.204  30.955  31.042  1.00  0.00     0.037 A 
BRANCH  27  41
ATOM     41  C   UNL A   1      48.397  26.543  29.984  1.00  0.00     0.057 A 
ATOM     42  C   UNL A   1      49.380  26.825  29.027  1.00  0.00     0.134 A 
ATOM     43  C   UNL A   1      48.801  25.859  31.139  1.00  0.00     0.134 A 
ATOM     44  F   UNL A   1      49.060  27.467  27.894  1.00  0.00    -0.206 F 
ATOM     45  C   UNL A   1      50.708  26.427  29.203  1.00  0.00     0.040 A 
ATOM     46  C   UNL A   1      50.129  25.480  31.339  1.00  0.00     0.040 A 
ATOM     47  F   UNL A   1      47.913  25.562  32.101  1.00  0.00    -0.206 F 
ATOM     48  C   UNL A   1      51.087  25.761  30.366  1.00  0.00     0.006 A 
ENDBRANCH  27  41
BRANCH  28  49
ATOM     49  C   UNL A   1      38.776  29.120  29.086  1.00  0.00     0.057 A 
ATOM     50  C   UNL A   1      37.937  29.035  30.202  1.00  0.00     0.134 A 
ATOM     51  C   UNL A   1      38.210  29.566  27.885  1.00  0.00     0.134 A 
ATOM     52  F   UNL A   1      38.417  28.602  31.376  1.00  0.00    -0.206 F 
ATOM     53  C   UNL A   1      36.582  29.360  30.122  1.00  0.00     0.040 A 
ATOM     54  C   UNL A   1      36.865  29.924  27.798  1.00  0.00     0.040 A 
ATOM     55  F   UNL A   1      38.964  29.681  26.782  1.00  0.00    -0.206 F 
ATOM     56  C   UNL A   1      36.044  29.813  28.918  1.00  0.00     0.006 A 
ENDBRANCH  28  49
BRANCH  40  57
ATOM     57  C   UNL A   1      44.398  32.289  31.701  1.00  0.00     0.057 A 
ATOM     58  C   UNL A   1      44.322  32.444  33.091  1.00  0.00     0.134 A 
ATOM     59  C   UNL A   1      44.702  33.423  30.938  1.00  0.00     0.134 A 
ATOM     60  F   UNL A   1      44.018  31.400  33.877  1.00  0.00    -0.206 F 
ATOM     61  C   UNL A   1      44.519  33.686  33.697  1.00  0.00     0.040 A 
ATOM     62  C   UNL A   1      44.929  34.664  31.534  1.00  0.00     0.040 A 
ATOM     63  F   UNL A   1      44.795  33.341  29.602  1.00  0.00    -0.206 F 
ATOM     64  C   UNL A   1      44.833  34.798  32.917  1.00  0.00     0.006 A 
ENDBRANCH  40  57
ENDBRANCH  14  15
ENDBRANCH   7   9
ENDBRANCH   4   5
ENDBRANCH   3   4
ENDBRANCH   2   3
ENDBRANCH   1   2
BRANCH   1  65
ATOM     65  C   UNL A   1      38.078  23.605  26.428  1.00  0.00     0.021 C 
BRANCH  65  66
ATOM     66  C   UNL A   1      36.732  23.655  25.710  1.00  0.00     0.116 C 
BRANCH  66  67
ATOM     67  N   UNL A   1      35.667  23.195  26.563  1.00  0.00    -0.354 N 
ATOM     68  C   UNL A   1      34.323  23.143  26.351  1.00  0.00     0.249 C 
ATOM     69  H   UNL A   1      35.958  22.864  27.444  1.00  0.00     0.163 HD
ATOM     70  O   UNL A   1      33.632  22.724  27.286  1.00  0.00    -0.272 OA
BRANCH  68  71
ATOM     71  C   UNL A   1      33.666  23.530  25.005  1.00  0.00     0.207 C 
ATOM     72  C   UNL A   1      33.640  22.496  23.891  1.00  0.00     0.045 C 
ATOM     73  O   UNL A   1      32.336  24.016  25.195  1.00  0.00    -0.363 OA
ATOM     74  C   UNL A   1      32.176  22.256  23.586  1.00  0.00     0.037 C 
ATOM     75  C   UNL A   1      31.437  23.389  24.277  1.00  0.00     0.138 C 
BRANCH  75  76
ATOM     76  C   UNL A   1      30.893  24.410  23.272  1.00  0.00     0.148 C 
BRANCH  76  77
ATOM     77  N   UNL A   1      31.781  24.537  22.122  1.00  0.00    -0.349 N 
ATOM     78  C   UNL A   1      32.553  25.607  21.755  1.00  0.00     0.255 C 
ATOM     79  H   UNL A   1      31.830  23.751  21.530  1.00  0.00     0.163 HD
ATOM     80  O   UNL A   1      33.131  25.602  20.671  1.00  0.00    -0.269 OA
BRANCH  78  81
ATOM     81  C   UNL A   1      32.625  26.797  22.625  1.00  0.00     0.081 A 
ATOM     82  C   UNL A   1      33.690  26.865  23.531  1.00  0.00     0.018 A 
ATOM     83  C   UNL A   1      31.682  27.830  22.572  1.00  0.00     0.128 A 
ATOM     84  C   UNL A   1      33.837  27.986  24.346  1.00  0.00     0.001 A 
ATOM     85  C   UNL A   1      31.833  28.952  23.385  1.00  0.00     0.047 A 
ATOM     86  C   UNL A   1      32.916  29.031  24.265  1.00  0.00     0.004 A 
BRANCH  83  87
ATOM     87  O   UNL A   1      30.611  27.752  21.726  1.00  0.00    -0.507 OA
ATOM     88  H   UNL A   1      30.657  27.212  20.962  1.00  0.00     0.293 HD
ENDBRANCH  83  87
ENDBRANCH  78  81
ENDBRANCH  76  77
ENDBRANCH  75  76
ENDBRANCH  68  71
ENDBRANCH  66  67
ENDBRANCH  65  66
ENDBRANCH   1  65
TORSDOF 17
ENDMDL
