MODEL 1
REMARK VINA RESULT:     -11.5      0.000      0.000
REMARK SMILES O=C(NCCCCCCNC(=O)[C@]1(CCc2cccnc2)CCC[NH2+]C1)c1ccc(-c2c3nc(c(-c4c(F)cccc4F)c4ccc([nH]4)c(-c4c(F)cccc4F)c4nc(c(-c5c(F)cccc5F)c5ccc2[nH]5)C=C4)C=C3)cc1
REMARK SMILES IDX 7 1 6 2 5 3 4 4 3 5 1 6 2 7 27 9 28 10 80 11 29 12 79 13
REMARK SMILES IDX 30 14 31 15 32 16 73 17 33 18 78 19 72 20 74 21 34 22 77 23
REMARK SMILES IDX 71 24 70 25 35 27 61 28 44 29 60 30 45 31 48 32 59 33 75 34
REMARK SMILES IDX 46 35 47 36 58 38 76 39 49 40 36 41 37 42 42 43 38 44 39 45
REMARK SMILES IDX 41 46 43 47 40 48 62 49 63 50 68 51 64 52 65 53 67 54 69 55
REMARK SMILES IDX 66 56 50 57 51 58 56 59 52 60 53 61 55 62 57 63 54 64 8 65
REMARK SMILES IDX 9 66 10 67 11 68 12 70 13 71 22 72 26 73 23 74 25 75 24 76
REMARK SMILES IDX 14 79 15 80 16 81 17 82 21 83 18 84 20 85 19 86
REMARK H PARENT 3 8 74 26 48 37 10 69 25 77 25 78
REMARK Flexibility Score: inf
ROOT
ATOM      1  C   UNL A   1      36.963  21.882  24.165  1.00  0.00     0.002 C 
ENDROOT
BRANCH   1   2
ATOM      2  C   UNL A   1      36.708  20.608  24.971  1.00  0.00     0.002 C 
BRANCH   2   3
ATOM      3  C   UNL A   1      37.892  19.642  25.000  1.00  0.00     0.021 C 
BRANCH   3   4
ATOM      4  C   UNL A   1      39.077  20.146  25.816  1.00  0.00     0.116 C 
BRANCH   4   5
ATOM      5  N   UNL A   1      40.134  19.150  25.875  1.00  0.00    -0.352 N 
ATOM      6  O   UNL A   1      42.305  18.506  25.751  1.00  0.00    -0.269 OA
ATOM      7  C   UNL A   1      41.484  19.375  25.993  1.00  0.00     0.251 C 
ATOM      8  H   UNL A   1      39.850  18.209  25.826  1.00  0.00     0.163 HD
BRANCH   7   9
ATOM      9  C   UNL A   1      41.917  20.719  26.418  1.00  0.00     0.039 A 
ATOM     10  C   UNL A   1      42.230  21.679  25.450  1.00  0.00     0.014 A 
ATOM     11  C   UNL A   1      42.059  20.997  27.778  1.00  0.00     0.014 A 
ATOM     12  C   UNL A   1      42.790  22.887  25.838  1.00  0.00     0.010 A 
ATOM     13  C   UNL A   1      42.545  22.244  28.167  1.00  0.00     0.010 A 
ATOM     14  C   UNL A   1      42.928  23.190  27.200  1.00  0.00    -0.014 A 
BRANCH  14  15
ATOM     15  C   UNL A   1      43.391  24.533  27.617  1.00  0.00     0.031 A 
ATOM     16  C   UNL A   1      42.415  25.585  28.051  1.00  0.00     0.074 A 
ATOM     17  C   UNL A   1      44.706  24.807  27.546  1.00  0.00     0.049 A 
ATOM     18  N   UNL A   1      42.629  26.846  28.319  1.00  0.00    -0.248 NA
ATOM     19  C   UNL A   1      41.012  25.166  28.188  1.00  0.00     0.031 C 
ATOM     20  C   UNL A   1      45.743  23.854  27.141  1.00  0.00     0.029 A 
ATOM     21  N   UNL A   1      45.395  25.966  27.790  1.00  0.00    -0.354 N 
ATOM     22  C   UNL A   1      41.386  27.384  28.628  1.00  0.00     0.074 A 
ATOM     23  C   UNL A   1      40.421  26.312  28.495  1.00  0.00     0.031 C 
ATOM     24  C   UNL A   1      46.935  24.466  27.163  1.00  0.00     0.029 A 
ATOM     25  C   UNL A   1      46.736  25.867  27.513  1.00  0.00     0.049 A 
ATOM     26  H   UNL A   1      44.970  26.786  28.130  1.00  0.00     0.167 HD
ATOM     27  C   UNL A   1      41.086  28.655  28.986  1.00  0.00     0.037 A 
ATOM     28  C   UNL A   1      47.694  26.811  27.491  1.00  0.00     0.037 A 
ATOM     29  C   UNL A   1      42.064  29.708  29.108  1.00  0.00     0.049 A 
ATOM     30  C   UNL A   1      47.333  28.222  27.842  1.00  0.00     0.074 A 
ATOM     31  C   UNL A   1      41.874  31.021  29.501  1.00  0.00     0.029 A 
ATOM     32  N   UNL A   1      43.416  29.568  28.822  1.00  0.00    -0.354 N 
ATOM     33  N   UNL A   1      46.162  28.715  28.164  1.00  0.00    -0.248 NA
ATOM     34  C   UNL A   1      48.420  29.208  27.827  1.00  0.00     0.031 C 
ATOM     35  C   UNL A   1      43.097  31.690  29.394  1.00  0.00     0.029 A 
ATOM     36  C   UNL A   1      44.065  30.779  29.000  1.00  0.00     0.049 A 
ATOM     37  H   UNL A   1      43.849  28.732  28.535  1.00  0.00     0.167 HD
ATOM     38  C   UNL A   1      46.372  30.062  28.420  1.00  0.00     0.074 A 
ATOM     39  C   UNL A   1      47.787  30.308  28.214  1.00  0.00     0.031 C 
ATOM     40  C   UNL A   1      45.476  31.005  28.799  1.00  0.00     0.037 A 
BRANCH  27  41
ATOM     41  C   UNL A   1      39.639  28.984  29.223  1.00  0.00     0.057 A 
ATOM     42  C   UNL A   1      39.059  28.931  30.498  1.00  0.00     0.134 A 
ATOM     43  C   UNL A   1      38.814  29.367  28.157  1.00  0.00     0.134 A 
ATOM     44  F   UNL A   1      39.788  28.566  31.563  1.00  0.00    -0.206 F 
ATOM     45  C   UNL A   1      37.703  29.207  30.696  1.00  0.00     0.040 A 
ATOM     46  C   UNL A   1      37.465  29.674  28.348  1.00  0.00     0.040 A 
ATOM     47  F   UNL A   1      39.303  29.450  26.912  1.00  0.00    -0.206 F 
ATOM     48  C   UNL A   1      36.903  29.582  29.620  1.00  0.00     0.006 A 
ENDBRANCH  27  41
BRANCH  28  49
ATOM     49  C   UNL A   1      49.073  26.428  27.104  1.00  0.00     0.057 A 
ATOM     50  C   UNL A   1      50.001  26.006  28.061  1.00  0.00     0.134 A 
ATOM     51  C   UNL A   1      49.471  26.405  25.760  1.00  0.00     0.134 A 
ATOM     52  F   UNL A   1      49.680  26.015  29.362  1.00  0.00    -0.206 F 
ATOM     53  C   UNL A   1      51.279  25.578  27.697  1.00  0.00     0.040 A 
ATOM     54  C   UNL A   1      50.735  25.955  25.381  1.00  0.00     0.040 A 
ATOM     55  F   UNL A   1      48.618  26.780  24.795  1.00  0.00    -0.206 F 
ATOM     56  C   UNL A   1      51.645  25.542  26.351  1.00  0.00     0.006 A 
ENDBRANCH  28  49
BRANCH  40  57
ATOM     57  C   UNL A   1      46.000  32.384  29.072  1.00  0.00     0.057 A 
ATOM     58  C   UNL A   1      46.499  32.757  30.325  1.00  0.00     0.134 A 
ATOM     59  C   UNL A   1      46.071  33.327  28.038  1.00  0.00     0.134 A 
ATOM     60  F   UNL A   1      46.446  31.905  31.360  1.00  0.00    -0.206 F 
ATOM     61  C   UNL A   1      47.047  34.022  30.541  1.00  0.00     0.040 A 
ATOM     62  C   UNL A   1      46.639  34.586  28.235  1.00  0.00     0.040 A 
ATOM     63  F   UNL A   1      45.612  33.030  26.812  1.00  0.00    -0.206 F 
ATOM     64  C   UNL A   1      47.129  34.936  29.492  1.00  0.00     0.006 A 
ENDBRANCH  40  57
ENDBRANCH  14  15
ENDBRANCH   7   9
ENDBRANCH   4   5
ENDBRANCH   3   4
ENDBRANCH   2   3
ENDBRANCH   1   2
BRANCH   1  65
ATOM     65  C   UNL A   1      36.711  23.173  24.956  1.00  0.00     0.021 C 
BRANCH  65  66
ATOM     66  C   UNL A   1      35.622  24.073  24.369  1.00  0.00     0.116 C 
BRANCH  66  67
ATOM     67  N   UNL A   1      34.586  24.434  25.328  1.00  0.00    -0.355 N 
ATOM     68  C   UNL A   1      33.298  24.059  25.559  1.00  0.00     0.231 C 
ATOM     69  H   UNL A   1      34.894  25.116  25.967  1.00  0.00     0.163 HD
ATOM     70  O   UNL A   1      32.744  24.630  26.504  1.00  0.00    -0.274 OA
BRANCH  68  71
ATOM     71  C   UNL A   1      32.544  23.023  24.698  1.00  0.00     0.098 C 
ATOM     72  C   UNL A   1      32.670  23.354  23.181  1.00  0.00     0.028 C 
ATOM     73  C   UNL A   1      31.027  23.079  25.038  1.00  0.00     0.277 C 
ATOM     74  C   UNL A   1      31.905  24.608  22.751  1.00  0.00     0.063 C 
ATOM     75  N   UNL A   1      30.400  24.359  24.690  1.00  0.00    -0.345 N 
ATOM     76  C   UNL A   1      30.469  24.614  23.256  1.00  0.00     0.260 C 
ATOM     77  H   UNL A   1      29.421  24.337  24.976  1.00  0.00     0.346 HD
ATOM     78  H   UNL A   1      30.902  25.104  25.173  1.00  0.00     0.346 HD
BRANCH  71  79
ATOM     79  C   UNL A   1      33.132  21.594  24.942  1.00  0.00     0.028 C 
BRANCH  79  80
ATOM     80  C   UNL A   1      32.247  20.363  24.589  1.00  0.00     0.038 C 
BRANCH  80  81
ATOM     81  C   UNL A   1      32.913  19.109  24.087  1.00  0.00    -0.030 A 
ATOM     82  C   UNL A   1      34.013  18.546  24.733  1.00  0.00     0.007 A 
ATOM     83  C   UNL A   1      32.512  18.478  22.919  1.00  0.00     0.114 A 
ATOM     84  C   UNL A   1      34.574  17.360  24.252  1.00  0.00     0.020 A 
ATOM     85  N   UNL A   1      33.021  17.328  22.421  1.00  0.00    -0.264 NA
ATOM     86  C   UNL A   1      34.027  16.777  23.123  1.00  0.00     0.111 A 
ENDBRANCH  80  81
ENDBRANCH  79  80
ENDBRANCH  71  79
ENDBRANCH  68  71
ENDBRANCH  66  67
ENDBRANCH  65  66
ENDBRANCH   1  65
TORSDOF 16
ENDMDL
MODEL 2
REMARK VINA RESULT:     -11.4      5.737     10.826
REMARK SMILES O=C(NCCCCCCNC(=O)[C@]1(CCc2cccnc2)CCC[NH2+]C1)c1ccc(-c2c3nc(c(-c4c(F)cccc4F)c4ccc([nH]4)c(-c4c(F)cccc4F)c4nc(c(-c5c(F)cccc5F)c5ccc2[nH]5)C=C4)C=C3)cc1
REMARK SMILES IDX 7 1 6 2 5 3 4 4 3 5 1 6 2 7 27 9 28 10 80 11 29 12 79 13
REMARK SMILES IDX 30 14 31 15 32 16 73 17 33 18 78 19 72 20 74 21 34 22 77 23
REMARK SMILES IDX 71 24 70 25 35 27 61 28 44 29 60 30 45 31 48 32 59 33 75 34
REMARK SMILES IDX 46 35 47 36 58 38 76 39 49 40 36 41 37 42 42 43 38 44 39 45
REMARK SMILES IDX 41 46 43 47 40 48 62 49 63 50 68 51 64 52 65 53 67 54 69 55
REMARK SMILES IDX 66 56 50 57 51 58 56 59 52 60 53 61 55 62 57 63 54 64 8 65
REMARK SMILES IDX 9 66 10 67 11 68 12 70 13 71 22 72 26 73 23 74 25 75 24 76
REMARK SMILES IDX 14 79 15 80 16 81 17 82 21 83 18 84 20 85 19 86
REMARK H PARENT 3 8 74 26 48 37 10 69 25 77 25 78
REMARK Flexibility Score: inf
ROOT
ATOM      1  C   UNL A   1      32.731  30.070  26.934  1.00  0.00     0.002 C 
ENDROOT
BRANCH   1   2
ATOM      2  C   UNL A   1      31.493  30.728  26.325  1.00  0.00     0.002 C 
BRANCH   2   3
ATOM      3  C   UNL A   1      31.424  32.241  26.533  1.00  0.00     0.021 C 
BRANCH   3   4
ATOM      4  C   UNL A   1      32.642  32.818  27.246  1.00  0.00     0.116 C 
BRANCH   4   5
ATOM      5  N   UNL A   1      32.418  34.203  27.626  1.00  0.00    -0.352 N 
ATOM      6  O   UNL A   1      32.536  35.937  29.084  1.00  0.00    -0.269 OA
ATOM      7  C   UNL A   1      32.990  34.882  28.674  1.00  0.00     0.251 C 
ATOM      8  H   UNL A   1      31.784  34.711  27.070  1.00  0.00     0.163 HD
BRANCH   7   9
ATOM      9  C   UNL A   1      34.183  34.284  29.303  1.00  0.00     0.039 A 
ATOM     10  C   UNL A   1      35.449  34.552  28.770  1.00  0.00     0.014 A 
ATOM     11  C   UNL A   1      34.028  33.420  30.387  1.00  0.00     0.014 A 
ATOM     12  C   UNL A   1      36.554  33.869  29.253  1.00  0.00     0.010 A 
ATOM     13  C   UNL A   1      35.154  32.798  30.924  1.00  0.00     0.010 A 
ATOM     14  C   UNL A   1      36.420  33.006  30.352  1.00  0.00    -0.014 A 
BRANCH  14  15
ATOM     15  C   UNL A   1      37.621  32.388  30.958  1.00  0.00     0.031 A 
ATOM     16  C   UNL A   1      38.351  31.279  30.262  1.00  0.00     0.074 A 
ATOM     17  C   UNL A   1      38.010  32.806  32.176  1.00  0.00     0.049 A 
ATOM     18  N   UNL A   1      39.333  30.536  30.703  1.00  0.00    -0.248 NA
ATOM     19  C   UNL A   1      37.912  30.955  28.897  1.00  0.00     0.031 C 
ATOM     20  C   UNL A   1      37.372  33.880  32.941  1.00  0.00     0.029 A 
ATOM     21  N   UNL A   1      39.018  32.367  32.994  1.00  0.00    -0.354 N 
ATOM     22  C   UNL A   1      39.611  29.635  29.683  1.00  0.00     0.074 A 
ATOM     23  C   UNL A   1      38.681  29.914  28.609  1.00  0.00     0.031 C 
ATOM     24  C   UNL A   1      38.002  34.018  34.115  1.00  0.00     0.029 A 
ATOM     25  C   UNL A   1      39.037  32.996  34.214  1.00  0.00     0.049 A 
ATOM     26  H   UNL A   1      39.663  31.671  32.733  1.00  0.00     0.167 HD
ATOM     27  C   UNL A   1      40.557  28.665  29.655  1.00  0.00     0.037 A 
ATOM     28  C   UNL A   1      39.771  32.747  35.313  1.00  0.00     0.037 A 
ATOM     29  C   UNL A   1      41.471  28.402  30.738  1.00  0.00     0.049 A 
ATOM     30  C   UNL A   1      40.777  31.637  35.279  1.00  0.00     0.074 A 
ATOM     31  C   UNL A   1      42.492  27.469  30.798  1.00  0.00     0.029 A 
ATOM     32  N   UNL A   1      41.463  29.064  31.958  1.00  0.00    -0.354 N 
ATOM     33  N   UNL A   1      41.057  30.811  34.300  1.00  0.00    -0.248 NA
ATOM     34  C   UNL A   1      41.569  31.422  36.496  1.00  0.00     0.031 C 
ATOM     35  C   UNL A   1      43.059  27.525  32.075  1.00  0.00     0.029 A 
ATOM     36  C   UNL A   1      42.439  28.539  32.789  1.00  0.00     0.049 A 
ATOM     37  H   UNL A   1      40.851  29.798  32.198  1.00  0.00     0.167 HD
ATOM     38  C   UNL A   1      42.077  29.996  34.769  1.00  0.00     0.074 A 
ATOM     39  C   UNL A   1      42.366  30.429  36.123  1.00  0.00     0.031 C 
ATOM     40  C   UNL A   1      42.720  28.988  34.131  1.00  0.00     0.037 A 
BRANCH  27  41
ATOM     41  C   UNL A   1      40.615  27.791  28.433  1.00  0.00     0.057 A 
ATOM     42  C   UNL A   1      39.932  26.569  28.354  1.00  0.00     0.134 A 
ATOM     43  C   UNL A   1      41.361  28.182  27.314  1.00  0.00     0.134 A 
ATOM     44  F   UNL A   1      39.204  26.128  29.391  1.00  0.00    -0.206 F 
ATOM     45  C   UNL A   1      40.024  25.751  27.225  1.00  0.00     0.040 A 
ATOM     46  C   UNL A   1      41.436  27.388  26.168  1.00  0.00     0.040 A 
ATOM     47  F   UNL A   1      42.031  29.344  27.314  1.00  0.00    -0.206 F 
ATOM     48  C   UNL A   1      40.775  26.162  26.127  1.00  0.00     0.006 A 
ENDBRANCH  27  41
BRANCH  28  49
ATOM     49  C   UNL A   1      39.549  33.567  36.529  1.00  0.00     0.057 A 
ATOM     50  C   UNL A   1      38.692  33.136  37.544  1.00  0.00     0.134 A 
ATOM     51  C   UNL A   1      40.247  34.765  36.733  1.00  0.00     0.134 A 
ATOM     52  F   UNL A   1      37.991  32.002  37.401  1.00  0.00    -0.206 F 
ATOM     53  C   UNL A   1      38.531  33.869  38.722  1.00  0.00     0.040 A 
ATOM     54  C   UNL A   1      40.116  35.494  37.915  1.00  0.00     0.040 A 
ATOM     55  F   UNL A   1      41.099  35.220  35.802  1.00  0.00    -0.206 F 
ATOM     56  C   UNL A   1      39.253  35.047  38.913  1.00  0.00     0.006 A 
ENDBRANCH  28  49
BRANCH  40  57
ATOM     57  C   UNL A   1      43.840  28.311  34.865  1.00  0.00     0.057 A 
ATOM     58  C   UNL A   1      45.151  28.801  34.838  1.00  0.00     0.134 A 
ATOM     59  C   UNL A   1      43.582  27.194  35.670  1.00  0.00     0.134 A 
ATOM     60  F   UNL A   1      45.467  29.859  34.075  1.00  0.00    -0.206 F 
ATOM     61  C   UNL A   1      46.167  28.200  35.583  1.00  0.00     0.040 A 
ATOM     62  C   UNL A   1      44.582  26.600  36.438  1.00  0.00     0.040 A 
ATOM     63  F   UNL A   1      42.345  26.677  35.742  1.00  0.00    -0.206 F 
ATOM     64  C   UNL A   1      45.881  27.103  36.394  1.00  0.00     0.006 A 
ENDBRANCH  40  57
ENDBRANCH  14  15
ENDBRANCH   7   9
ENDBRANCH   4   5
ENDBRANCH   3   4
ENDBRANCH   2   3
ENDBRANCH   1   2
BRANCH   1  65
ATOM     65  C   UNL A   1      32.599  28.551  27.111  1.00  0.00     0.021 C 
BRANCH  65  66
ATOM     66  C   UNL A   1      33.480  27.725  26.171  1.00  0.00     0.116 C 
BRANCH  66  67
ATOM     67  N   UNL A   1      33.641  28.320  24.851  1.00  0.00    -0.355 N 
ATOM     68  C   UNL A   1      32.977  28.253  23.665  1.00  0.00     0.231 C 
ATOM     69  H   UNL A   1      34.422  28.917  24.807  1.00  0.00     0.163 HD
ATOM     70  O   UNL A   1      33.459  28.933  22.752  1.00  0.00    -0.274 OA
BRANCH  68  71
ATOM     71  C   UNL A   1      31.729  27.375  23.434  1.00  0.00     0.098 C 
ATOM     72  C   UNL A   1      31.885  25.986  24.123  1.00  0.00     0.028 C 
ATOM     73  C   UNL A   1      31.572  27.096  21.911  1.00  0.00     0.277 C 
ATOM     74  C   UNL A   1      32.927  25.077  23.468  1.00  0.00     0.063 C 
ATOM     75  N   UNL A   1      32.674  26.310  21.346  1.00  0.00    -0.345 N 
ATOM     76  C   UNL A   1      32.755  24.989  21.959  1.00  0.00     0.260 C 
ATOM     77  H   UNL A   1      32.523  26.203  20.343  1.00  0.00     0.346 HD
ATOM     78  H   UNL A   1      33.547  26.804  21.530  1.00  0.00     0.346 HD
BRANCH  71  79
ATOM     79  C   UNL A   1      30.462  28.079  24.021  1.00  0.00     0.028 C 
BRANCH  79  80
ATOM     80  C   UNL A   1      29.255  28.334  23.072  1.00  0.00     0.038 C 
BRANCH  80  81
ATOM     81  C   UNL A   1      28.904  29.752  22.706  1.00  0.00    -0.030 A 
ATOM     82  C   UNL A   1      29.082  30.811  23.596  1.00  0.00     0.007 A 
ATOM     83  C   UNL A   1      28.324  30.078  21.490  1.00  0.00     0.114 A 
ATOM     84  C   UNL A   1      28.777  32.115  23.200  1.00  0.00     0.020 A 
ATOM     85  N   UNL A   1      28.019  31.324  21.063  1.00  0.00    -0.264 NA
ATOM     86  C   UNL A   1      28.284  32.323  21.923  1.00  0.00     0.111 A 
ENDBRANCH  80  81
ENDBRANCH  79  80
ENDBRANCH  71  79
ENDBRANCH  68  71
ENDBRANCH  66  67
ENDBRANCH  65  66
ENDBRANCH   1  65
TORSDOF 16
ENDMDL
MODEL 3
REMARK VINA RESULT:     -11.2      5.041      9.911
REMARK SMILES O=C(NCCCCCCNC(=O)[C@]1(CCc2cccnc2)CCC[NH2+]C1)c1ccc(-c2c3nc(c(-c4c(F)cccc4F)c4ccc([nH]4)c(-c4c(F)cccc4F)c4nc(c(-c5c(F)cccc5F)c5ccc2[nH]5)C=C4)C=C3)cc1
REMARK SMILES IDX 7 1 6 2 5 3 4 4 3 5 1 6 2 7 27 9 28 10 80 11 29 12 79 13
REMARK SMILES IDX 30 14 31 15 32 16 73 17 33 18 78 19 72 20 74 21 34 22 77 23
REMARK SMILES IDX 71 24 70 25 35 27 61 28 44 29 60 30 45 31 48 32 59 33 75 34
REMARK SMILES IDX 46 35 47 36 58 38 76 39 49 40 36 41 37 42 42 43 38 44 39 45
REMARK SMILES IDX 41 46 43 47 40 48 62 49 63 50 68 51 64 52 65 53 67 54 69 55
REMARK SMILES IDX 66 56 50 57 51 58 56 59 52 60 53 61 55 62 57 63 54 64 8 65
REMARK SMILES IDX 9 66 10 67 11 68 12 70 13 71 22 72 26 73 23 74 25 75 24 76
REMARK SMILES IDX 14 79 15 80 16 81 17 82 21 83 18 84 20 85 19 86
REMARK H PARENT 3 8 74 26 48 37 10 69 25 77 25 78
REMARK Flexibility Score: inf
ROOT
ATOM      1  C   UNL A   1      32.321  29.574  26.974  1.00  0.00     0.002 C 
ENDROOT
BRANCH   1   2
ATOM      2  C   UNL A   1      31.601  30.492  25.987  1.00  0.00     0.002 C 
BRANCH   2   3
ATOM      3  C   UNL A   1      31.350  31.904  26.516  1.00  0.00     0.021 C 
BRANCH   3   4
ATOM      4  C   UNL A   1      32.553  32.517  27.224  1.00  0.00     0.116 C 
BRANCH   4   5
ATOM      5  N   UNL A   1      32.335  33.927  27.501  1.00  0.00    -0.352 N 
ATOM      6  O   UNL A   1      32.531  35.780  28.794  1.00  0.00    -0.269 OA
ATOM      7  C   UNL A   1      32.971  34.699  28.443  1.00  0.00     0.251 C 
ATOM      8  H   UNL A   1      31.654  34.379  26.953  1.00  0.00     0.163 HD
BRANCH   7   9
ATOM      9  C   UNL A   1      34.216  34.168  29.031  1.00  0.00     0.039 A 
ATOM     10  C   UNL A   1      35.447  34.514  28.461  1.00  0.00     0.014 A 
ATOM     11  C   UNL A   1      34.146  33.290  30.111  1.00  0.00     0.014 A 
ATOM     12  C   UNL A   1      36.605  33.895  28.905  1.00  0.00     0.010 A 
ATOM     13  C   UNL A   1      35.322  32.732  30.609  1.00  0.00     0.010 A 
ATOM     14  C   UNL A   1      36.556  33.019  30.000  1.00  0.00    -0.014 A 
BRANCH  14  15
ATOM     15  C   UNL A   1      37.810  32.469  30.565  1.00  0.00     0.031 A 
ATOM     16  C   UNL A   1      38.463  31.263  29.959  1.00  0.00     0.074 A 
ATOM     17  C   UNL A   1      38.320  33.043  31.669  1.00  0.00     0.049 A 
ATOM     18  N   UNL A   1      39.481  30.570  30.399  1.00  0.00    -0.248 NA
ATOM     19  C   UNL A   1      37.887  30.763  28.702  1.00  0.00     0.031 C 
ATOM     20  C   UNL A   1      37.766  34.223  32.337  1.00  0.00     0.029 A 
ATOM     21  N   UNL A   1      39.404  32.703  32.436  1.00  0.00    -0.354 N 
ATOM     22  C   UNL A   1      39.653  29.533  29.491  1.00  0.00     0.074 A 
ATOM     23  C   UNL A   1      38.621  29.679  28.486  1.00  0.00     0.031 C 
ATOM     24  C   UNL A   1      38.511  34.509  33.413  1.00  0.00     0.029 A 
ATOM     25  C   UNL A   1      39.547  33.493  33.549  1.00  0.00     0.049 A 
ATOM     26  H   UNL A   1      40.017  31.967  32.210  1.00  0.00     0.167 HD
ATOM     27  C   UNL A   1      40.587  28.553  29.504  1.00  0.00     0.037 A 
ATOM     28  C   UNL A   1      40.386  33.384  34.595  1.00  0.00     0.037 A 
ATOM     29  C   UNL A   1      41.605  28.425  30.517  1.00  0.00     0.049 A 
ATOM     30  C   UNL A   1      41.380  32.263  34.614  1.00  0.00     0.074 A 
ATOM     31  C   UNL A   1      42.623  27.492  30.604  1.00  0.00     0.029 A 
ATOM     32  N   UNL A   1      41.721  29.248  31.629  1.00  0.00    -0.354 N 
ATOM     33  N   UNL A   1      41.558  31.306  33.736  1.00  0.00    -0.248 NA
ATOM     34  C   UNL A   1      42.290  32.203  35.765  1.00  0.00     0.031 C 
ATOM     35  C   UNL A   1      43.316  27.712  31.799  1.00  0.00     0.029 A 
ATOM     36  C   UNL A   1      42.774  28.825  32.424  1.00  0.00     0.049 A 
ATOM     37  H   UNL A   1      41.139  30.018  31.825  1.00  0.00     0.167 HD
ATOM     38  C   UNL A   1      42.617  30.545  34.210  1.00  0.00     0.074 A 
ATOM     39  C   UNL A   1      43.041  31.154  35.456  1.00  0.00     0.031 C 
ATOM     40  C   UNL A   1      43.189  29.449  33.657  1.00  0.00     0.037 A 
BRANCH  27  41
ATOM     41  C   UNL A   1      40.520  27.518  28.415  1.00  0.00     0.057 A 
ATOM     42  C   UNL A   1      41.238  27.644  27.218  1.00  0.00     0.134 A 
ATOM     43  C   UNL A   1      39.727  26.374  28.571  1.00  0.00     0.134 A 
ATOM     44  F   UNL A   1      42.012  28.717  26.998  1.00  0.00    -0.206 F 
ATOM     45  C   UNL A   1      41.138  26.690  26.201  1.00  0.00     0.040 A 
ATOM     46  C   UNL A   1      39.642  25.399  27.575  1.00  0.00     0.040 A 
ATOM     47  F   UNL A   1      39.020  26.182  29.694  1.00  0.00    -0.206 F 
ATOM     48  C   UNL A   1      40.340  25.563  26.380  1.00  0.00     0.006 A 
ENDBRANCH  27  41
BRANCH  28  49
ATOM     49  C   UNL A   1      40.290  34.366  35.701  1.00  0.00     0.057 A 
ATOM     50  C   UNL A   1      39.529  34.098  36.842  1.00  0.00     0.134 A 
ATOM     51  C   UNL A   1      41.017  35.565  35.672  1.00  0.00     0.134 A 
ATOM     52  F   UNL A   1      38.807  32.971  36.922  1.00  0.00    -0.206 F 
ATOM     53  C   UNL A   1      39.490  34.987  37.917  1.00  0.00     0.040 A 
ATOM     54  C   UNL A   1      41.007  36.450  36.750  1.00  0.00     0.040 A 
ATOM     55  F   UNL A   1      41.780  35.870  34.613  1.00  0.00    -0.206 F 
ATOM     56  C   UNL A   1      40.239  36.163  37.876  1.00  0.00     0.006 A 
ENDBRANCH  28  49
BRANCH  40  57
ATOM     57  C   UNL A   1      44.375  28.860  34.363  1.00  0.00     0.057 A 
ATOM     58  C   UNL A   1      45.677  29.328  34.150  1.00  0.00     0.134 A 
ATOM     59  C   UNL A   1      44.196  27.858  35.326  1.00  0.00     0.134 A 
ATOM     60  F   UNL A   1      45.917  30.275  33.230  1.00  0.00    -0.206 F 
ATOM     61  C   UNL A   1      46.760  28.816  34.866  1.00  0.00     0.040 A 
ATOM     62  C   UNL A   1      45.266  27.357  36.066  1.00  0.00     0.040 A 
ATOM     63  F   UNL A   1      42.972  27.368  35.580  1.00  0.00    -0.206 F 
ATOM     64  C   UNL A   1      46.554  27.836  35.836  1.00  0.00     0.006 A 
ENDBRANCH  40  57
ENDBRANCH  14  15
ENDBRANCH   7   9
ENDBRANCH   4   5
ENDBRANCH   3   4
ENDBRANCH   2   3
ENDBRANCH   1   2
BRANCH   1  65
ATOM     65  C   UNL A   1      31.424  28.479  27.566  1.00  0.00     0.021 C 
BRANCH  65  66
ATOM     66  C   UNL A   1      31.539  27.122  26.869  1.00  0.00     0.116 C 
BRANCH  66  67
ATOM     67  N   UNL A   1      30.976  27.107  25.526  1.00  0.00    -0.355 N 
ATOM     68  C   UNL A   1      31.421  26.765  24.285  1.00  0.00     0.231 C 
ATOM     69  H   UNL A   1      30.044  27.422  25.512  1.00  0.00     0.163 HD
ATOM     70  O   UNL A   1      30.601  26.910  23.372  1.00  0.00    -0.274 OA
BRANCH  68  71
ATOM     71  C   UNL A   1      32.852  26.261  24.002  1.00  0.00     0.098 C 
ATOM     72  C   UNL A   1      33.913  27.330  24.400  1.00  0.00     0.028 C 
ATOM     73  C   UNL A   1      33.019  26.020  22.474  1.00  0.00     0.277 C 
ATOM     74  C   UNL A   1      33.924  28.564  23.496  1.00  0.00     0.063 C 
ATOM     75  N   UNL A   1      32.905  27.246  21.676  1.00  0.00    -0.345 N 
ATOM     76  C   UNL A   1      33.952  28.203  22.018  1.00  0.00     0.260 C 
ATOM     77  H   UNL A   1      32.985  27.006  20.688  1.00  0.00     0.346 HD
ATOM     78  H   UNL A   1      32.001  27.674  21.874  1.00  0.00     0.346 HD
BRANCH  71  79
ATOM     79  C   UNL A   1      33.133  24.957  24.821  1.00  0.00     0.028 C 
BRANCH  79  80
ATOM     80  C   UNL A   1      34.522  24.802  25.505  1.00  0.00     0.038 C 
BRANCH  80  81
ATOM     81  C   UNL A   1      35.393  23.633  25.126  1.00  0.00    -0.030 A 
ATOM     82  C   UNL A   1      36.007  23.542  23.877  1.00  0.00     0.007 A 
ATOM     83  C   UNL A   1      35.582  22.550  25.970  1.00  0.00     0.114 A 
ATOM     84  C   UNL A   1      36.837  22.457  23.584  1.00  0.00     0.020 A 
ATOM     85  N   UNL A   1      36.379  21.485  25.731  1.00  0.00    -0.264 NA
ATOM     86  C   UNL A   1      37.016  21.479  24.547  1.00  0.00     0.111 A 
ENDBRANCH  80  81
ENDBRANCH  79  80
ENDBRANCH  71  79
ENDBRANCH  68  71
ENDBRANCH  66  67
ENDBRANCH  65  66
ENDBRANCH   1  65
TORSDOF 16
ENDMDL
