MODEL 1
REMARK VINA RESULT:     -11.4      0.000      0.000
REMARK SMILES CC(C)c1nc(N2C[C@H](C)OC(C)(C)C2)sc1C(=O)NCCCCCCNC(=O)c1ccc(-c2c3nc(c(-c4c(F)cccc4F)c4ccc([nH]4)c(-c4c(F)cccc4F)c4nc(c(-c5c(F)cccc5F)c5ccc2[nH]5)C=C4)C=C3)cc1
REMARK SMILES IDX 24 1 23 2 22 3 21 4 20 5 18 6 19 7 17 9 4 10 5 11 6 12 16 13
REMARK SMILES IDX 2 14 1 15 3 16 7 17 8 18 15 19 9 20 12 21 11 22 10 23 13 24
REMARK SMILES IDX 14 25 25 26 26 27 27 28 28 29 29 31 30 32 31 33 83 34 32 35
REMARK SMILES IDX 82 36 33 37 34 38 35 39 76 40 36 41 81 42 75 43 77 44 37 45
REMARK SMILES IDX 80 46 74 47 73 48 38 50 64 51 47 52 63 53 48 54 51 55 62 56
REMARK SMILES IDX 78 57 49 58 50 59 61 61 79 62 52 63 39 64 40 65 45 66 41 67
REMARK SMILES IDX 42 68 44 69 46 70 43 71 65 72 66 73 71 74 67 75 68 76 70 77
REMARK SMILES IDX 72 78 69 79 53 80 54 81 59 82 55 83 56 84 58 85 60 86 57 87
REMARK H PARENT 20 8 27 30 77 49 51 60
REMARK Flexibility Score: inf
ROOT
ATOM      1  C   UNL A   1      36.157  20.183  24.665  1.00  0.00     0.002 C 
ENDROOT
BRANCH   1   2
ATOM      2  C   UNL A   1      34.842  19.824  25.370  1.00  0.00     0.002 C 
BRANCH   2   3
ATOM      3  C   UNL A   1      33.566  19.879  24.527  1.00  0.00     0.021 C 
BRANCH   3   4
ATOM      4  C   UNL A   1      32.660  21.076  24.778  1.00  0.00     0.116 C 
BRANCH   4   5
ATOM      5  N   UNL A   1      32.480  21.461  26.144  1.00  0.00    -0.351 N 
ATOM      6  C   UNL A   1      32.720  22.658  26.782  1.00  0.00     0.263 C 
ATOM      7  O   UNL A   1      32.373  22.632  27.971  1.00  0.00    -0.268 OA
ATOM      8  H   UNL A   1      32.125  20.751  26.725  1.00  0.00     0.163 HD
BRANCH   6   9
ATOM      9  C   UNL A   1      33.350  23.845  26.185  1.00  0.00     0.117 A 
ATOM     10  C   UNL A   1      34.507  24.212  25.487  1.00  0.00     0.069 A 
ATOM     11  N   UNL A   1      34.515  25.533  25.033  1.00  0.00    -0.224 NA
ATOM     12  C   UNL A   1      33.462  26.209  25.399  1.00  0.00     0.186 A 
ATOM     13  S   UNL A   1      32.362  25.288  26.328  1.00  0.00    -0.091 S 
BRANCH  10  14
ATOM     14  C   UNL A   1      35.772  23.505  25.068  1.00  0.00     0.034 C 
ATOM     15  C   UNL A   1      35.921  23.442  23.538  1.00  0.00     0.014 C 
ATOM     16  C   UNL A   1      37.017  23.872  25.868  1.00  0.00     0.014 C 
ENDBRANCH  10  14
BRANCH  12  17
ATOM     17  N   UNL A   1      33.253  27.500  25.042  1.00  0.00    -0.343 N 
ATOM     18  C   UNL A   1      32.362  27.877  23.951  1.00  0.00     0.150 C 
ATOM     19  C   UNL A   1      33.595  28.587  25.964  1.00  0.00     0.153 C 
ATOM     20  C   UNL A   1      31.100  28.534  24.545  1.00  0.00     0.135 C 
ATOM     21  C   UNL A   1      32.338  29.368  26.443  1.00  0.00     0.081 C 
ATOM     22  O   UNL A   1      31.446  29.680  25.345  1.00  0.00    -0.369 OA
ATOM     23  C   UNL A   1      30.165  29.009  23.443  1.00  0.00     0.040 C 
ATOM     24  C   UNL A   1      31.581  28.622  27.550  1.00  0.00     0.044 C 
ATOM     25  C   UNL A   1      32.785  30.729  27.002  1.00  0.00     0.044 C 
ENDBRANCH  12  17
ENDBRANCH   6   9
ENDBRANCH   4   5
ENDBRANCH   3   4
ENDBRANCH   2   3
ENDBRANCH   1   2
BRANCH   1  26
ATOM     26  C   UNL A   1      37.380  19.323  24.997  1.00  0.00     0.021 C 
BRANCH  26  27
ATOM     27  C   UNL A   1      38.610  20.074  25.494  1.00  0.00     0.116 C 
BRANCH  27  28
ATOM     28  N   UNL A   1      39.771  19.216  25.652  1.00  0.00    -0.352 N 
ATOM     29  C   UNL A   1      41.045  19.517  26.061  1.00  0.00     0.251 C 
ATOM     30  H   UNL A   1      39.620  18.269  25.428  1.00  0.00     0.163 HD
ATOM     31  O   UNL A   1      41.926  18.667  25.988  1.00  0.00    -0.269 OA
BRANCH  29  32
ATOM     32  C   UNL A   1      41.371  20.867  26.571  1.00  0.00     0.039 A 
ATOM     33  C   UNL A   1      41.219  21.119  27.937  1.00  0.00     0.014 A 
ATOM     34  C   UNL A   1      41.794  21.887  25.714  1.00  0.00     0.014 A 
ATOM     35  C   UNL A   1      41.548  22.375  28.452  1.00  0.00     0.010 A 
ATOM     36  C   UNL A   1      42.194  23.113  26.239  1.00  0.00     0.010 A 
ATOM     37  C   UNL A   1      42.071  23.372  27.613  1.00  0.00    -0.014 A 
BRANCH  37  38
ATOM     38  C   UNL A   1      42.494  24.688  28.156  1.00  0.00     0.031 A 
ATOM     39  C   UNL A   1      41.486  25.783  28.365  1.00  0.00     0.074 A 
ATOM     40  C   UNL A   1      43.799  24.914  28.406  1.00  0.00     0.049 A 
ATOM     41  N   UNL A   1      41.673  27.014  28.768  1.00  0.00    -0.248 NA
ATOM     42  C   UNL A   1      40.083  25.461  28.057  1.00  0.00     0.031 C 
ATOM     43  C   UNL A   1      44.879  23.945  28.206  1.00  0.00     0.029 A 
ATOM     44  N   UNL A   1      44.441  26.033  28.876  1.00  0.00    -0.354 N 
ATOM     45  C   UNL A   1      40.420  27.614  28.751  1.00  0.00     0.074 A 
ATOM     46  C   UNL A   1      39.489  26.631  28.244  1.00  0.00     0.031 C 
ATOM     47  C   UNL A   1      46.044  24.504  28.571  1.00  0.00     0.029 A 
ATOM     48  C   UNL A   1      45.801  25.881  28.990  1.00  0.00     0.049 A 
ATOM     49  H   UNL A   1      43.970  26.866  29.109  1.00  0.00     0.167 HD
ATOM     50  C   UNL A   1      40.074  28.863  29.144  1.00  0.00     0.037 A 
ATOM     51  C   UNL A   1      46.750  26.756  29.378  1.00  0.00     0.037 A 
ATOM     52  C   UNL A   1      41.003  29.833  29.663  1.00  0.00     0.049 A 
ATOM     53  C   UNL A   1      46.340  28.144  29.788  1.00  0.00     0.074 A 
ATOM     54  C   UNL A   1      40.743  31.107  30.137  1.00  0.00     0.029 A 
ATOM     55  N   UNL A   1      42.371  29.637  29.773  1.00  0.00    -0.354 N 
ATOM     56  N   UNL A   1      45.142  28.675  29.830  1.00  0.00    -0.248 NA
ATOM     57  C   UNL A   1      47.414  29.053  30.213  1.00  0.00     0.031 C 
ATOM     58  C   UNL A   1      41.959  31.703  30.482  1.00  0.00     0.029 A 
ATOM     59  C   UNL A   1      42.972  30.778  30.282  1.00  0.00     0.049 A 
ATOM     60  H   UNL A   1      42.846  28.811  29.525  1.00  0.00     0.167 HD
ATOM     61  C   UNL A   1      45.314  29.965  30.316  1.00  0.00     0.074 A 
ATOM     62  C   UNL A   1      46.731  30.130  30.567  1.00  0.00     0.031 C 
ATOM     63  C   UNL A   1      44.383  30.925  30.536  1.00  0.00     0.037 A 
BRANCH  50  64
ATOM     64  C   UNL A   1      38.628  29.254  29.026  1.00  0.00     0.057 A 
ATOM     65  C   UNL A   1      38.064  29.649  27.805  1.00  0.00     0.134 A 
ATOM     66  C   UNL A   1      37.778  29.195  30.138  1.00  0.00     0.134 A 
ATOM     67  F   UNL A   1      38.824  29.738  26.703  1.00  0.00    -0.206 F 
ATOM     68  C   UNL A   1      36.716  29.997  27.701  1.00  0.00     0.040 A 
ATOM     69  C   UNL A   1      36.421  29.510  30.039  1.00  0.00     0.040 A 
ATOM     70  F   UNL A   1      38.247  28.818  31.336  1.00  0.00    -0.206 F 
ATOM     71  C   UNL A   1      35.888  29.919  28.819  1.00  0.00     0.006 A 
ENDBRANCH  50  64
BRANCH  51  72
ATOM     72  C   UNL A   1      48.176  26.344  29.413  1.00  0.00     0.057 A 
ATOM     73  C   UNL A   1      48.733  25.759  30.556  1.00  0.00     0.134 A 
ATOM     74  C   UNL A   1      49.021  26.540  28.313  1.00  0.00     0.134 A 
ATOM     75  F   UNL A   1      47.980  25.561  31.648  1.00  0.00    -0.206 F 
ATOM     76  C   UNL A   1      50.083  25.409  30.616  1.00  0.00     0.040 A 
ATOM     77  C   UNL A   1      50.367  26.167  28.348  1.00  0.00     0.040 A 
ATOM     78  F   UNL A   1      48.548  27.086  27.183  1.00  0.00    -0.206 F 
ATOM     79  C   UNL A   1      50.902  25.608  29.507  1.00  0.00     0.006 A 
ENDBRANCH  51  72
BRANCH  63  80
ATOM     80  C   UNL A   1      44.857  32.225  31.119  1.00  0.00     0.057 A 
ATOM     81  C   UNL A   1      44.952  32.429  32.502  1.00  0.00     0.134 A 
ATOM     82  C   UNL A   1      45.260  33.274  30.282  1.00  0.00     0.134 A 
ATOM     83  F   UNL A   1      44.569  31.471  33.359  1.00  0.00    -0.206 F 
ATOM     84  C   UNL A   1      45.409  33.638  33.031  1.00  0.00     0.040 A 
ATOM     85  C   UNL A   1      45.748  34.474  30.798  1.00  0.00     0.040 A 
ATOM     86  F   UNL A   1      45.205  33.140  28.948  1.00  0.00    -0.206 F 
ATOM     87  C   UNL A   1      45.817  34.662  32.176  1.00  0.00     0.006 A 
ENDBRANCH  63  80
ENDBRANCH  37  38
ENDBRANCH  29  32
ENDBRANCH  27  28
ENDBRANCH  26  27
ENDBRANCH   1  26
TORSDOF 15
ENDMDL
MODEL 2
REMARK VINA RESULT:     -11.3      3.895      8.923
REMARK SMILES CC(C)c1nc(N2C[C@H](C)OC(C)(C)C2)sc1C(=O)NCCCCCCNC(=O)c1ccc(-c2c3nc(c(-c4c(F)cccc4F)c4ccc([nH]4)c(-c4c(F)cccc4F)c4nc(c(-c5c(F)cccc5F)c5ccc2[nH]5)C=C4)C=C3)cc1
REMARK SMILES IDX 24 1 23 2 22 3 21 4 20 5 18 6 19 7 17 9 4 10 5 11 6 12 16 13
REMARK SMILES IDX 2 14 1 15 3 16 7 17 8 18 15 19 9 20 12 21 11 22 10 23 13 24
REMARK SMILES IDX 14 25 25 26 26 27 27 28 28 29 29 31 30 32 31 33 83 34 32 35
REMARK SMILES IDX 82 36 33 37 34 38 35 39 76 40 36 41 81 42 75 43 77 44 37 45
REMARK SMILES IDX 80 46 74 47 73 48 38 50 64 51 47 52 63 53 48 54 51 55 62 56
REMARK SMILES IDX 78 57 49 58 50 59 61 61 79 62 52 63 39 64 40 65 45 66 41 67
REMARK SMILES IDX 42 68 44 69 46 70 43 71 65 72 66 73 71 74 67 75 68 76 70 77
REMARK SMILES IDX 72 78 69 79 53 80 54 81 59 82 55 83 56 84 58 85 60 86 57 87
REMARK H PARENT 20 8 27 30 77 49 51 60
REMARK Flexibility Score: inf
ROOT
ATOM      1  C   UNL A   1      31.268  30.661  25.574  1.00  0.00     0.002 C 
ENDROOT
BRANCH   1   2
ATOM      2  C   UNL A   1      30.464  30.466  24.282  1.00  0.00     0.002 C 
BRANCH   2   3
ATOM      3  C   UNL A   1      30.182  29.023  23.853  1.00  0.00     0.021 C 
BRANCH   3   4
ATOM      4  C   UNL A   1      30.920  28.547  22.611  1.00  0.00     0.116 C 
BRANCH   4   5
ATOM      5  N   UNL A   1      32.281  28.967  22.481  1.00  0.00    -0.351 N 
ATOM      6  C   UNL A   1      33.426  28.517  23.099  1.00  0.00     0.263 C 
ATOM      7  O   UNL A   1      34.442  29.086  22.674  1.00  0.00    -0.268 OA
ATOM      8  H   UNL A   1      32.422  29.702  21.842  1.00  0.00     0.163 HD
BRANCH   6   9
ATOM      9  C   UNL A   1      33.493  27.513  24.171  1.00  0.00     0.117 A 
ATOM     10  C   UNL A   1      33.362  27.415  25.562  1.00  0.00     0.069 A 
ATOM     11  N   UNL A   1      33.404  26.108  26.056  1.00  0.00    -0.224 NA
ATOM     12  C   UNL A   1      33.622  25.216  25.133  1.00  0.00     0.186 A 
ATOM     13  S   UNL A   1      33.790  25.891  23.572  1.00  0.00    -0.091 S 
BRANCH  10  14
ATOM     14  C   UNL A   1      33.155  28.396  26.688  1.00  0.00     0.034 C 
ATOM     15  C   UNL A   1      32.040  27.948  27.649  1.00  0.00     0.014 C 
ATOM     16  C   UNL A   1      34.431  28.943  27.318  1.00  0.00     0.014 C 
ENDBRANCH  10  14
BRANCH  12  17
ATOM     17  N   UNL A   1      33.670  23.885  25.389  1.00  0.00    -0.343 N 
ATOM     18  C   UNL A   1      32.662  22.955  24.895  1.00  0.00     0.150 C 
ATOM     19  C   UNL A   1      34.920  23.263  25.835  1.00  0.00     0.153 C 
ATOM     20  C   UNL A   1      33.290  22.087  23.785  1.00  0.00     0.135 C 
ATOM     21  C   UNL A   1      35.479  22.255  24.790  1.00  0.00     0.081 C 
ATOM     22  O   UNL A   1      34.445  21.381  24.277  1.00  0.00    -0.369 OA
ATOM     23  C   UNL A   1      32.299  21.049  23.280  1.00  0.00     0.040 C 
ATOM     24  C   UNL A   1      36.203  22.961  23.636  1.00  0.00     0.044 C 
ATOM     25  C   UNL A   1      36.485  21.326  25.490  1.00  0.00     0.044 C 
ENDBRANCH  12  17
ENDBRANCH   6   9
ENDBRANCH   4   5
ENDBRANCH   3   4
ENDBRANCH   2   3
ENDBRANCH   1   2
BRANCH   1  26
ATOM     26  C   UNL A   1      31.169  32.031  26.252  1.00  0.00     0.021 C 
BRANCH  26  27
ATOM     27  C   UNL A   1      32.394  32.475  27.043  1.00  0.00     0.116 C 
BRANCH  27  28
ATOM     28  N   UNL A   1      32.327  33.866  27.456  1.00  0.00    -0.352 N 
ATOM     29  C   UNL A   1      33.072  34.552  28.382  1.00  0.00     0.251 C 
ATOM     30  H   UNL A   1      31.637  34.401  27.001  1.00  0.00     0.163 HD
ATOM     31  O   UNL A   1      32.758  35.697  28.689  1.00  0.00    -0.269 OA
BRANCH  29  32
ATOM     32  C   UNL A   1      34.238  33.912  29.030  1.00  0.00     0.039 A 
ATOM     33  C   UNL A   1      34.009  32.977  30.043  1.00  0.00     0.014 A 
ATOM     34  C   UNL A   1      35.546  34.245  28.668  1.00  0.00     0.014 A 
ATOM     35  C   UNL A   1      35.089  32.335  30.652  1.00  0.00     0.010 A 
ATOM     36  C   UNL A   1      36.618  33.549  29.221  1.00  0.00     0.010 A 
ATOM     37  C   UNL A   1      36.402  32.589  30.222  1.00  0.00    -0.014 A 
BRANCH  37  38
ATOM     38  C   UNL A   1      37.557  31.862  30.807  1.00  0.00     0.031 A 
ATOM     39  C   UNL A   1      38.056  32.209  32.182  1.00  0.00     0.074 A 
ATOM     40  C   UNL A   1      38.191  30.925  30.075  1.00  0.00     0.049 A 
ATOM     41  N   UNL A   1      39.085  31.731  32.834  1.00  0.00    -0.248 NA
ATOM     42  C   UNL A   1      37.316  33.252  32.913  1.00  0.00     0.031 C 
ATOM     43  C   UNL A   1      37.828  30.527  28.713  1.00  0.00     0.029 A 
ATOM     44  N   UNL A   1      39.280  30.144  30.369  1.00  0.00    -0.354 N 
ATOM     45  C   UNL A   1      39.123  32.418  34.040  1.00  0.00     0.074 A 
ATOM     46  C   UNL A   1      38.048  33.386  34.009  1.00  0.00     0.031 C 
ATOM     47  C   UNL A   1      38.664  29.561  28.300  1.00  0.00     0.029 A 
ATOM     48  C   UNL A   1      39.647  29.303  29.346  1.00  0.00     0.049 A 
ATOM     49  H   UNL A   1      39.755  30.183  31.231  1.00  0.00     0.167 HD
ATOM     50  C   UNL A   1      39.961  32.243  35.089  1.00  0.00     0.037 A 
ATOM     51  C   UNL A   1      40.668  28.428  29.257  1.00  0.00     0.037 A 
ATOM     52  C   UNL A   1      41.019  31.266  35.122  1.00  0.00     0.049 A 
ATOM     53  C   UNL A   1      41.599  28.268  30.429  1.00  0.00     0.074 A 
ATOM     54  C   UNL A   1      41.890  30.974  36.158  1.00  0.00     0.029 A 
ATOM     55  N   UNL A   1      41.352  30.425  34.071  1.00  0.00    -0.354 N 
ATOM     56  N   UNL A   1      41.580  28.878  31.589  1.00  0.00    -0.248 NA
ATOM     57  C   UNL A   1      42.688  27.292  30.281  1.00  0.00     0.031 C 
ATOM     58  C   UNL A   1      42.785  29.996  35.715  1.00  0.00     0.029 A 
ATOM     59  C   UNL A   1      42.434  29.633  34.425  1.00  0.00     0.049 A 
ATOM     60  H   UNL A   1      40.890  30.396  33.203  1.00  0.00     0.167 HD
ATOM     61  C   UNL A   1      42.631  28.337  32.320  1.00  0.00     0.074 A 
ATOM     62  C   UNL A   1      43.256  27.341  31.476  1.00  0.00     0.031 C 
ATOM     63  C   UNL A   1      43.039  28.637  33.577  1.00  0.00     0.037 A 
BRANCH  50  64
ATOM     64  C   UNL A   1      39.771  33.127  36.289  1.00  0.00     0.057 A 
ATOM     65  C   UNL A   1      40.450  34.345  36.427  1.00  0.00     0.134 A 
ATOM     66  C   UNL A   1      38.865  32.777  37.299  1.00  0.00     0.134 A 
ATOM     67  F   UNL A   1      41.340  34.735  35.502  1.00  0.00    -0.206 F 
ATOM     68  C   UNL A   1      40.257  35.168  37.538  1.00  0.00     0.040 A 
ATOM     69  C   UNL A   1      38.640  33.607  38.399  1.00  0.00     0.040 A 
ATOM     70  F   UNL A   1      38.175  31.629  37.229  1.00  0.00    -0.206 F 
ATOM     71  C   UNL A   1      39.343  34.803  38.524  1.00  0.00     0.006 A 
ENDBRANCH  50  64
BRANCH  51  72
ATOM     72  C   UNL A   1      40.858  27.624  28.023  1.00  0.00     0.057 A 
ATOM     73  C   UNL A   1      41.614  28.113  26.951  1.00  0.00     0.134 A 
ATOM     74  C   UNL A   1      40.277  26.359  27.877  1.00  0.00     0.134 A 
ATOM     75  F   UNL A   1      42.182  29.325  27.022  1.00  0.00    -0.206 F 
ATOM     76  C   UNL A   1      41.763  27.385  25.768  1.00  0.00     0.040 A 
ATOM     77  C   UNL A   1      40.442  25.607  26.711  1.00  0.00     0.040 A 
ATOM     78  F   UNL A   1      39.548  25.828  28.870  1.00  0.00    -0.206 F 
ATOM     79  C   UNL A   1      41.180  26.126  25.649  1.00  0.00     0.006 A 
ENDBRANCH  51  72
BRANCH  63  80
ATOM     80  C   UNL A   1      44.188  27.849  34.136  1.00  0.00     0.057 A 
ATOM     81  C   UNL A   1      45.510  28.308  34.066  1.00  0.00     0.134 A 
ATOM     82  C   UNL A   1      43.962  26.629  34.789  1.00  0.00     0.134 A 
ATOM     83  F   UNL A   1      45.797  29.461  33.444  1.00  0.00    -0.206 F 
ATOM     84  C   UNL A   1      46.567  27.572  34.604  1.00  0.00     0.040 A 
ATOM     85  C   UNL A   1      45.006  25.900  35.358  1.00  0.00     0.040 A 
ATOM     86  F   UNL A   1      42.719  26.137  34.900  1.00  0.00    -0.206 F 
ATOM     87  C   UNL A   1      46.314  26.368  35.260  1.00  0.00     0.006 A 
ENDBRANCH  63  80
ENDBRANCH  37  38
ENDBRANCH  29  32
ENDBRANCH  27  28
ENDBRANCH  26  27
ENDBRANCH   1  26
TORSDOF 15
ENDMDL
MODEL 3
REMARK VINA RESULT:     -11.2      0.961      6.158
REMARK SMILES CC(C)c1nc(N2C[C@H](C)OC(C)(C)C2)sc1C(=O)NCCCCCCNC(=O)c1ccc(-c2c3nc(c(-c4c(F)cccc4F)c4ccc([nH]4)c(-c4c(F)cccc4F)c4nc(c(-c5c(F)cccc5F)c5ccc2[nH]5)C=C4)C=C3)cc1
REMARK SMILES IDX 24 1 23 2 22 3 21 4 20 5 18 6 19 7 17 9 4 10 5 11 6 12 16 13
REMARK SMILES IDX 2 14 1 15 3 16 7 17 8 18 15 19 9 20 12 21 11 22 10 23 13 24
REMARK SMILES IDX 14 25 25 26 26 27 27 28 28 29 29 31 30 32 31 33 83 34 32 35
REMARK SMILES IDX 82 36 33 37 34 38 35 39 76 40 36 41 81 42 75 43 77 44 37 45
REMARK SMILES IDX 80 46 74 47 73 48 38 50 64 51 47 52 63 53 48 54 51 55 62 56
REMARK SMILES IDX 78 57 49 58 50 59 61 61 79 62 52 63 39 64 40 65 45 66 41 67
REMARK SMILES IDX 42 68 44 69 46 70 43 71 65 72 66 73 71 74 67 75 68 76 70 77
REMARK SMILES IDX 72 78 69 79 53 80 54 81 59 82 55 83 56 84 58 85 60 86 57 87
REMARK H PARENT 20 8 27 30 77 49 51 60
REMARK Flexibility Score: inf
ROOT
ATOM      1  C   UNL A   1      36.578  20.226  24.647  1.00  0.00     0.002 C 
ENDROOT
BRANCH   1   2
ATOM      2  C   UNL A   1      35.263  20.085  25.425  1.00  0.00     0.002 C 
BRANCH   2   3
ATOM      3  C   UNL A   1      33.985  19.907  24.600  1.00  0.00     0.021 C 
BRANCH   3   4
ATOM      4  C   UNL A   1      32.918  20.974  24.797  1.00  0.00     0.116 C 
BRANCH   4   5
ATOM      5  N   UNL A   1      32.651  21.365  26.147  1.00  0.00    -0.351 N 
ATOM      6  C   UNL A   1      32.806  22.577  26.781  1.00  0.00     0.263 C 
ATOM      7  O   UNL A   1      32.399  22.548  27.952  1.00  0.00    -0.268 OA
ATOM      8  H   UNL A   1      32.297  20.646  26.718  1.00  0.00     0.163 HD
BRANCH   6   9
ATOM      9  C   UNL A   1      33.415  23.785  26.203  1.00  0.00     0.117 A 
ATOM     10  C   UNL A   1      34.583  24.190  25.546  1.00  0.00     0.069 A 
ATOM     11  N   UNL A   1      34.560  25.511  25.088  1.00  0.00    -0.224 NA
ATOM     12  C   UNL A   1      33.473  26.149  25.415  1.00  0.00     0.186 A 
ATOM     13  S   UNL A   1      32.373  25.193  26.307  1.00  0.00    -0.091 S 
BRANCH  10  14
ATOM     14  C   UNL A   1      35.886  23.528  25.174  1.00  0.00     0.034 C 
ATOM     15  C   UNL A   1      36.086  23.458  23.650  1.00  0.00     0.014 C 
ATOM     16  C   UNL A   1      37.090  23.947  26.010  1.00  0.00     0.014 C 
ENDBRANCH  10  14
BRANCH  12  17
ATOM     17  N   UNL A   1      33.231  27.432  25.046  1.00  0.00    -0.343 N 
ATOM     18  C   UNL A   1      32.339  27.776  23.946  1.00  0.00     0.150 C 
ATOM     19  C   UNL A   1      33.537  28.535  25.962  1.00  0.00     0.153 C 
ATOM     20  C   UNL A   1      31.055  28.404  24.526  1.00  0.00     0.135 C 
ATOM     21  C   UNL A   1      32.256  29.285  26.427  1.00  0.00     0.081 C 
ATOM     22  O   UNL A   1      31.364  29.564  25.320  1.00  0.00    -0.369 OA
ATOM     23  C   UNL A   1      30.115  28.845  23.415  1.00  0.00     0.040 C 
ATOM     24  C   UNL A   1      31.511  28.526  27.534  1.00  0.00     0.044 C 
ATOM     25  C   UNL A   1      32.662  30.661  26.978  1.00  0.00     0.044 C 
ENDBRANCH  12  17
ENDBRANCH   6   9
ENDBRANCH   4   5
ENDBRANCH   3   4
ENDBRANCH   2   3
ENDBRANCH   1   2
BRANCH   1  26
ATOM     26  C   UNL A   1      37.714  19.272  25.028  1.00  0.00     0.021 C 
BRANCH  26  27
ATOM     27  C   UNL A   1      38.978  19.925  25.576  1.00  0.00     0.116 C 
BRANCH  27  28
ATOM     28  N   UNL A   1      40.066  18.981  25.762  1.00  0.00    -0.352 N 
ATOM     29  C   UNL A   1      41.378  19.198  26.101  1.00  0.00     0.251 C 
ATOM     30  H   UNL A   1      39.825  18.037  25.621  1.00  0.00     0.163 HD
ATOM     31  O   UNL A   1      42.178  18.269  26.066  1.00  0.00    -0.269 OA
BRANCH  29  32
ATOM     32  C   UNL A   1      41.840  20.549  26.489  1.00  0.00     0.039 A 
ATOM     33  C   UNL A   1      42.317  21.402  25.491  1.00  0.00     0.014 A 
ATOM     34  C   UNL A   1      41.831  20.967  27.822  1.00  0.00     0.014 A 
ATOM     35  C   UNL A   1      42.731  22.694  25.822  1.00  0.00     0.010 A 
ATOM     36  C   UNL A   1      42.172  22.279  28.140  1.00  0.00     0.010 A 
ATOM     37  C   UNL A   1      42.630  23.156  27.144  1.00  0.00    -0.014 A 
BRANCH  37  38
ATOM     38  C   UNL A   1      42.996  24.550  27.501  1.00  0.00     0.031 A 
ATOM     39  C   UNL A   1      44.439  24.972  27.533  1.00  0.00     0.074 A 
ATOM     40  C   UNL A   1      42.030  25.422  27.852  1.00  0.00     0.049 A 
ATOM     41  N   UNL A   1      44.957  26.123  27.880  1.00  0.00    -0.248 NA
ATOM     42  C   UNL A   1      45.435  23.959  27.147  1.00  0.00     0.031 C 
ATOM     43  C   UNL A   1      40.597  25.121  27.900  1.00  0.00     0.029 A 
ATOM     44  N   UNL A   1      42.106  26.735  28.244  1.00  0.00    -0.354 N 
ATOM     45  C   UNL A   1      46.333  25.969  27.766  1.00  0.00     0.074 A 
ATOM     46  C   UNL A   1      46.574  24.598  27.372  1.00  0.00     0.031 C 
ATOM     47  C   UNL A   1      39.930  26.224  28.276  1.00  0.00     0.029 A 
ATOM     48  C   UNL A   1      40.887  27.294  28.538  1.00  0.00     0.049 A 
ATOM     49  H   UNL A   1      42.956  27.229  28.309  1.00  0.00     0.167 HD
ATOM     50  C   UNL A   1      47.307  26.892  27.950  1.00  0.00     0.037 A 
ATOM     51  C   UNL A   1      40.574  28.528  28.978  1.00  0.00     0.037 A 
ATOM     52  C   UNL A   1      47.061  28.260  28.325  1.00  0.00     0.049 A 
ATOM     53  C   UNL A   1      41.677  29.528  29.195  1.00  0.00     0.074 A 
ATOM     54  C   UNL A   1      47.975  29.287  28.486  1.00  0.00     0.029 A 
ATOM     55  N   UNL A   1      45.810  28.792  28.604  1.00  0.00    -0.354 N 
ATOM     56  N   UNL A   1      42.968  29.388  29.019  1.00  0.00    -0.248 NA
ATOM     57  C   UNL A   1      41.277  30.862  29.666  1.00  0.00     0.031 C 
ATOM     58  C   UNL A   1      47.285  30.425  28.914  1.00  0.00     0.029 A 
ATOM     59  C   UNL A   1      45.933  30.126  28.961  1.00  0.00     0.049 A 
ATOM     60  H   UNL A   1      44.962  28.295  28.555  1.00  0.00     0.167 HD
ATOM     61  C   UNL A   1      43.530  30.621  29.324  1.00  0.00     0.074 A 
ATOM     62  C   UNL A   1      42.438  31.500  29.683  1.00  0.00     0.031 C 
ATOM     63  C   UNL A   1      44.834  30.992  29.306  1.00  0.00     0.037 A 
BRANCH  50  64
ATOM     64  C   UNL A   1      48.730  26.454  27.749  1.00  0.00     0.057 A 
ATOM     65  C   UNL A   1      49.510  25.963  28.804  1.00  0.00     0.134 A 
ATOM     66  C   UNL A   1      49.314  26.483  26.476  1.00  0.00     0.134 A 
ATOM     67  F   UNL A   1      49.016  25.918  30.051  1.00  0.00    -0.206 F 
ATOM     68  C   UNL A   1      50.827  25.544  28.606  1.00  0.00     0.040 A 
ATOM     69  C   UNL A   1      50.619  26.037  26.260  1.00  0.00     0.040 A 
ATOM     70  F   UNL A   1      48.623  26.933  25.418  1.00  0.00    -0.206 F 
ATOM     71  C   UNL A   1      51.382  25.572  27.329  1.00  0.00     0.006 A 
ENDBRANCH  50  64
BRANCH  51  72
ATOM     72  C   UNL A   1      39.157  28.895  29.229  1.00  0.00     0.057 A 
ATOM     73  C   UNL A   1      38.568  28.690  30.483  1.00  0.00     0.134 A 
ATOM     74  C   UNL A   1      38.353  29.443  28.223  1.00  0.00     0.134 A 
ATOM     75  F   UNL A   1      39.280  28.153  31.484  1.00  0.00    -0.206 F 
ATOM     76  C   UNL A   1      37.225  28.990  30.719  1.00  0.00     0.040 A 
ATOM     77  C   UNL A   1      37.016  29.776  28.453  1.00  0.00     0.040 A 
ATOM     78  F   UNL A   1      38.859  29.675  27.002  1.00  0.00    -0.206 F 
ATOM     79  C   UNL A   1      36.447  29.540  29.702  1.00  0.00     0.006 A 
ENDBRANCH  51  72
BRANCH  63  80
ATOM     80  C   UNL A   1      45.150  32.421  29.640  1.00  0.00     0.057 A 
ATOM     81  C   UNL A   1      45.487  32.825  30.938  1.00  0.00     0.134 A 
ATOM     82  C   UNL A   1      45.153  33.401  28.637  1.00  0.00     0.134 A 
ATOM     83  F   UNL A   1      45.489  31.941  31.947  1.00  0.00    -0.206 F 
ATOM     84  C   UNL A   1      45.793  34.156  31.232  1.00  0.00     0.040 A 
ATOM     85  C   UNL A   1      45.489  34.727  28.913  1.00  0.00     0.040 A 
ATOM     86  F   UNL A   1      44.850  33.080  27.371  1.00  0.00    -0.206 F 
ATOM     87  C   UNL A   1      45.803  35.109  30.214  1.00  0.00     0.006 A 
ENDBRANCH  63  80
ENDBRANCH  37  38
ENDBRANCH  29  32
ENDBRANCH  27  28
ENDBRANCH  26  27
ENDBRANCH   1  26
TORSDOF 15
ENDMDL
