MODEL 1
REMARK VINA RESULT:     -10.8      0.000      0.000
REMARK SMILES CC[C@H]1CC[C@](O)([C@H](F)C(=O)NCCCCCCNC(=O)c2ccc(-c3c4nc(c(-c5c(F)cccc5F)c5ccc([nH]5)c(-c5c(F)cccc5F)c5nc(c(-c6c(F)cccc6F)c6ccc3[nH]6)C=C5)C=C4)cc2)CC1
REMARK SMILES IDX 15 1 14 2 13 3 12 4 10 5 11 6 8 8 9 9 6 10 3 11 4 12 77 13
REMARK SMILES IDX 5 14 76 15 2 16 1 17 7 18 16 20 17 21 18 22 19 23 20 24
REMARK SMILES IDX 21 26 22 27 23 28 75 29 24 30 74 31 25 32 26 33 27 34 68 35
REMARK SMILES IDX 28 36 73 37 67 38 69 39 29 40 72 41 66 42 65 43 30 45 56 46
REMARK SMILES IDX 39 47 55 48 40 49 43 50 54 51 70 52 41 53 42 54 53 56 71 57
REMARK SMILES IDX 44 58 31 59 32 60 37 61 33 62 34 63 36 64 38 65 35 66 57 67
REMARK SMILES IDX 58 68 63 69 59 70 60 71 62 72 64 73 61 74 45 75 46 76 51 77
REMARK SMILES IDX 47 78 48 79 50 80 52 81 49 82
REMARK H PARENT 12 7 7 19 19 25 69 44 43 55
REMARK Flexibility Score: inf
ROOT
ATOM      1  C   UNL A   1      35.333  20.844  25.056  1.00  0.00     0.002 C 
ENDROOT
BRANCH   1   2
ATOM      2  C   UNL A   1      34.278  21.874  24.625  1.00  0.00     0.021 C 
BRANCH   2   3
ATOM      3  C   UNL A   1      34.245  23.132  25.480  1.00  0.00     0.116 C 
BRANCH   3   4
ATOM      4  N   UNL A   1      33.272  23.008  26.546  1.00  0.00    -0.353 N 
ATOM      5  C   UNL A   1      32.003  23.496  26.586  1.00  0.00     0.257 C 
ATOM      6  O   UNL A   1      31.348  23.313  27.615  1.00  0.00    -0.272 OA
ATOM      7  H   UNL A   1      33.565  22.509  27.342  1.00  0.00     0.163 HD
BRANCH   5   8
ATOM      8  C   UNL A   1      31.398  24.194  25.378  1.00  0.00     0.286 C 
ATOM      9  F   UNL A   1      30.666  23.331  24.602  1.00  0.00    -0.234 F 
BRANCH   8  10
ATOM     10  C   UNL A   1      30.566  25.485  25.676  1.00  0.00     0.105 C 
ATOM     11  C   UNL A   1      31.827  27.880  24.295  1.00  0.00    -0.011 C 
ATOM     12  C   UNL A   1      31.103  26.762  23.526  1.00  0.00     0.006 C 
ATOM     13  C   UNL A   1      32.369  27.336  25.624  1.00  0.00     0.006 C 
ATOM     14  C   UNL A   1      30.020  26.054  24.347  1.00  0.00     0.039 C 
ATOM     15  C   UNL A   1      31.287  26.623  26.429  1.00  0.00     0.039 C 
BRANCH  11  16
ATOM     16  C   UNL A   1      31.020  29.174  24.553  1.00  0.00    -0.000 C 
ATOM     17  C   UNL A   1      30.005  29.553  23.492  1.00  0.00     0.004 C 
ENDBRANCH  11  16
BRANCH  10  18
ATOM     18  O   UNL A   1      29.431  25.128  26.496  1.00  0.00    -0.386 OA
ATOM     19  H   UNL A   1      29.584  24.261  26.901  1.00  0.00     0.211 HD
ENDBRANCH  10  18
ENDBRANCH   8  10
ENDBRANCH   5   8
ENDBRANCH   3   4
ENDBRANCH   2   3
ENDBRANCH   1   2
BRANCH   1  20
ATOM     20  C   UNL A   1      36.765  21.144  24.602  1.00  0.00     0.002 C 
BRANCH  20  21
ATOM     21  C   UNL A   1      37.756  19.994  24.788  1.00  0.00     0.021 C 
BRANCH  21  22
ATOM     22  C   UNL A   1      38.882  20.282  25.771  1.00  0.00     0.116 C 
BRANCH  22  23
ATOM     23  N   UNL A   1      39.853  19.202  25.835  1.00  0.00    -0.352 N 
ATOM     24  C   UNL A   1      41.206  19.273  26.041  1.00  0.00     0.251 C 
ATOM     25  H   UNL A   1      39.488  18.295  25.714  1.00  0.00     0.163 HD
ATOM     26  O   UNL A   1      41.910  18.275  25.905  1.00  0.00    -0.269 OA
BRANCH  24  27
ATOM     27  C   UNL A   1      41.819  20.567  26.400  1.00  0.00     0.039 A 
ATOM     28  C   UNL A   1      42.157  21.458  25.379  1.00  0.00     0.014 A 
ATOM     29  C   UNL A   1      42.042  20.907  27.737  1.00  0.00     0.014 A 
ATOM     30  C   UNL A   1      42.672  22.712  25.703  1.00  0.00     0.010 A 
ATOM     31  C   UNL A   1      42.476  22.187  28.061  1.00  0.00     0.010 A 
ATOM     32  C   UNL A   1      42.804  23.099  27.047  1.00  0.00    -0.014 A 
BRANCH  32  33
ATOM     33  C   UNL A   1      43.291  24.454  27.410  1.00  0.00     0.031 A 
ATOM     34  C   UNL A   1      42.320  25.514  27.847  1.00  0.00     0.074 A 
ATOM     35  C   UNL A   1      44.601  24.743  27.293  1.00  0.00     0.049 A 
ATOM     36  N   UNL A   1      42.544  26.765  28.158  1.00  0.00    -0.248 NA
ATOM     37  C   UNL A   1      40.901  25.124  27.917  1.00  0.00     0.031 C 
ATOM     38  C   UNL A   1      45.635  23.814  26.835  1.00  0.00     0.029 A 
ATOM     39  N   UNL A   1      45.285  25.906  27.543  1.00  0.00    -0.354 N 
ATOM     40  C   UNL A   1      41.300  27.312  28.447  1.00  0.00     0.074 A 
ATOM     41  C   UNL A   1      40.319  26.275  28.215  1.00  0.00     0.031 C 
ATOM     42  C   UNL A   1      46.825  24.434  26.862  1.00  0.00     0.029 A 
ATOM     43  C   UNL A   1      46.633  25.814  27.298  1.00  0.00     0.049 A 
ATOM     44  H   UNL A   1      44.851  26.728  27.866  1.00  0.00     0.167 HD
ATOM     45  C   UNL A   1      41.005  28.557  28.890  1.00  0.00     0.037 A 
ATOM     46  C   UNL A   1      47.605  26.740  27.405  1.00  0.00     0.037 A 
ATOM     47  C   UNL A   1      41.988  29.582  29.131  1.00  0.00     0.049 A 
ATOM     48  C   UNL A   1      47.251  28.122  27.880  1.00  0.00     0.074 A 
ATOM     49  C   UNL A   1      41.799  30.857  29.633  1.00  0.00     0.029 A 
ATOM     50  N   UNL A   1      43.346  29.448  28.877  1.00  0.00    -0.354 N 
ATOM     51  N   UNL A   1      46.081  28.605  28.221  1.00  0.00    -0.248 NA
ATOM     52  C   UNL A   1      48.354  29.086  27.993  1.00  0.00     0.031 C 
ATOM     53  C   UNL A   1      43.034  31.514  29.629  1.00  0.00     0.029 A 
ATOM     54  C   UNL A   1      44.002  30.629  29.185  1.00  0.00     0.049 A 
ATOM     55  H   UNL A   1      43.779  28.635  28.530  1.00  0.00     0.167 HD
ATOM     56  C   UNL A   1      46.309  29.916  28.618  1.00  0.00     0.074 A 
ATOM     57  C   UNL A   1      47.733  30.148  28.487  1.00  0.00     0.031 C 
ATOM     58  C   UNL A   1      45.422  30.844  29.052  1.00  0.00     0.037 A 
BRANCH  45  59
ATOM     59  C   UNL A   1      39.557  28.879  29.133  1.00  0.00     0.057 A 
ATOM     60  C   UNL A   1      38.973  28.755  30.400  1.00  0.00     0.134 A 
ATOM     61  C   UNL A   1      38.741  29.336  28.090  1.00  0.00     0.134 A 
ATOM     62  F   UNL A   1      39.694  28.312  31.442  1.00  0.00    -0.206 F 
ATOM     63  C   UNL A   1      37.623  29.040  30.614  1.00  0.00     0.040 A 
ATOM     64  C   UNL A   1      37.398  29.654  28.298  1.00  0.00     0.040 A 
ATOM     65  F   UNL A   1      39.237  29.485  26.852  1.00  0.00    -0.206 F 
ATOM     66  C   UNL A   1      36.833  29.497  29.562  1.00  0.00     0.006 A 
ENDBRANCH  45  59
BRANCH  46  67
ATOM     67  C   UNL A   1      49.008  26.383  27.076  1.00  0.00     0.057 A 
ATOM     68  C   UNL A   1      49.883  25.907  28.060  1.00  0.00     0.134 A 
ATOM     69  C   UNL A   1      49.509  26.506  25.775  1.00  0.00     0.134 A 
ATOM     70  F   UNL A   1      49.467  25.783  29.329  1.00  0.00    -0.206 F 
ATOM     71  C   UNL A   1      51.209  25.584  27.767  1.00  0.00     0.040 A 
ATOM     72  C   UNL A   1      50.825  26.162  25.461  1.00  0.00     0.040 A 
ATOM     73  F   UNL A   1      48.721  26.948  24.784  1.00  0.00    -0.206 F 
ATOM     74  C   UNL A   1      51.681  25.706  26.462  1.00  0.00     0.006 A 
ENDBRANCH  46  67
BRANCH  58  75
ATOM     75  C   UNL A   1      45.968  32.185  29.455  1.00  0.00     0.057 A 
ATOM     76  C   UNL A   1      46.419  32.443  30.756  1.00  0.00     0.134 A 
ATOM     77  C   UNL A   1      46.077  33.218  28.516  1.00  0.00     0.134 A 
ATOM     78  F   UNL A   1      46.331  31.501  31.707  1.00  0.00    -0.206 F 
ATOM     79  C   UNL A   1      46.936  33.690  31.114  1.00  0.00     0.040 A 
ATOM     80  C   UNL A   1      46.620  34.458  28.854  1.00  0.00     0.040 A 
ATOM     81  F   UNL A   1      45.673  33.036  27.250  1.00  0.00    -0.206 F 
ATOM     82  C   UNL A   1      47.045  34.699  30.159  1.00  0.00     0.006 A 
ENDBRANCH  58  75
ENDBRANCH  32  33
ENDBRANCH  24  27
ENDBRANCH  22  23
ENDBRANCH  21  22
ENDBRANCH  20  21
ENDBRANCH   1  20
TORSDOF 16
ENDMDL
MODEL 2
REMARK VINA RESULT:     -10.7      2.620      7.495
REMARK SMILES CC[C@H]1CC[C@](O)([C@H](F)C(=O)NCCCCCCNC(=O)c2ccc(-c3c4nc(c(-c5c(F)cccc5F)c5ccc([nH]5)c(-c5c(F)cccc5F)c5nc(c(-c6c(F)cccc6F)c6ccc3[nH]6)C=C5)C=C4)cc2)CC1
REMARK SMILES IDX 15 1 14 2 13 3 12 4 10 5 11 6 8 8 9 9 6 10 3 11 4 12 77 13
REMARK SMILES IDX 5 14 76 15 2 16 1 17 7 18 16 20 17 21 18 22 19 23 20 24
REMARK SMILES IDX 21 26 22 27 23 28 75 29 24 30 74 31 25 32 26 33 27 34 68 35
REMARK SMILES IDX 28 36 73 37 67 38 69 39 29 40 72 41 66 42 65 43 30 45 56 46
REMARK SMILES IDX 39 47 55 48 40 49 43 50 54 51 70 52 41 53 42 54 53 56 71 57
REMARK SMILES IDX 44 58 31 59 32 60 37 61 33 62 34 63 36 64 38 65 35 66 57 67
REMARK SMILES IDX 58 68 63 69 59 70 60 71 62 72 64 73 61 74 45 75 46 76 51 77
REMARK SMILES IDX 47 78 48 79 50 80 52 81 49 82
REMARK H PARENT 12 7 7 19 19 25 69 44 43 55
REMARK Flexibility Score: inf
ROOT
ATOM      1  C   UNL A   1      31.643  27.949  24.145  1.00  0.00     0.002 C 
ENDROOT
BRANCH   1   2
ATOM      2  C   UNL A   1      30.273  27.268  24.266  1.00  0.00     0.021 C 
BRANCH   2   3
ATOM      3  C   UNL A   1      30.308  25.756  24.095  1.00  0.00     0.116 C 
BRANCH   3   4
ATOM      4  N   UNL A   1      29.891  25.087  25.310  1.00  0.00    -0.353 N 
ATOM      5  C   UNL A   1      30.661  24.407  26.201  1.00  0.00     0.257 C 
ATOM      6  O   UNL A   1      30.097  23.871  27.158  1.00  0.00    -0.272 OA
ATOM      7  H   UNL A   1      28.930  25.130  25.517  1.00  0.00     0.163 HD
BRANCH   5   8
ATOM      8  C   UNL A   1      32.173  24.360  26.048  1.00  0.00     0.286 C 
ATOM      9  F   UNL A   1      32.777  25.470  26.585  1.00  0.00    -0.234 F 
BRANCH   8  10
ATOM     10  C   UNL A   1      32.876  23.063  26.568  1.00  0.00     0.105 C 
ATOM     11  C   UNL A   1      34.703  21.933  24.417  1.00  0.00    -0.011 C 
ATOM     12  C   UNL A   1      35.017  23.233  25.178  1.00  0.00     0.006 C 
ATOM     13  C   UNL A   1      33.187  21.689  24.401  1.00  0.00     0.006 C 
ATOM     14  C   UNL A   1      34.405  23.287  26.581  1.00  0.00     0.039 C 
ATOM     15  C   UNL A   1      32.586  21.755  25.801  1.00  0.00     0.039 C 
BRANCH  11  16
ATOM     16  C   UNL A   1      35.429  20.657  24.903  1.00  0.00    -0.000 C 
ATOM     17  C   UNL A   1      36.936  20.760  25.052  1.00  0.00     0.004 C 
ENDBRANCH  11  16
BRANCH  10  18
ATOM     18  O   UNL A   1      32.459  22.822  27.930  1.00  0.00    -0.386 OA
ATOM     19  H   UNL A   1      31.606  22.361  27.931  1.00  0.00     0.211 HD
ENDBRANCH  10  18
ENDBRANCH   8  10
ENDBRANCH   5   8
ENDBRANCH   3   4
ENDBRANCH   2   3
ENDBRANCH   1   2
BRANCH   1  20
ATOM     20  C   UNL A   1      32.106  28.718  25.386  1.00  0.00     0.002 C 
BRANCH  20  21
ATOM     21  C   UNL A   1      33.590  28.567  25.724  1.00  0.00     0.021 C 
BRANCH  21  22
ATOM     22  C   UNL A   1      33.911  28.638  27.211  1.00  0.00     0.116 C 
BRANCH  22  23
ATOM     23  N   UNL A   1      33.828  29.992  27.733  1.00  0.00    -0.352 N 
ATOM     24  C   UNL A   1      34.768  30.704  28.431  1.00  0.00     0.251 C 
ATOM     25  H   UNL A   1      32.980  30.463  27.560  1.00  0.00     0.163 HD
ATOM     26  O   UNL A   1      34.479  31.783  28.942  1.00  0.00    -0.269 OA
BRANCH  24  27
ATOM     27  C   UNL A   1      36.127  30.149  28.592  1.00  0.00     0.039 A 
ATOM     28  C   UNL A   1      37.017  30.227  27.519  1.00  0.00     0.014 A 
ATOM     29  C   UNL A   1      36.526  29.572  29.801  1.00  0.00     0.014 A 
ATOM     30  C   UNL A   1      38.325  29.772  27.676  1.00  0.00     0.010 A 
ATOM     31  C   UNL A   1      37.852  29.197  29.982  1.00  0.00     0.010 A 
ATOM     32  C   UNL A   1      38.762  29.284  28.919  1.00  0.00    -0.014 A 
BRANCH  32  33
ATOM     33  C   UNL A   1      40.168  28.854  29.122  1.00  0.00     0.031 A 
ATOM     34  C   UNL A   1      41.164  29.794  29.741  1.00  0.00     0.074 A 
ATOM     35  C   UNL A   1      40.560  27.637  28.698  1.00  0.00     0.049 A 
ATOM     36  N   UNL A   1      42.443  29.621  29.957  1.00  0.00    -0.248 NA
ATOM     37  C   UNL A   1      40.661  31.117  30.148  1.00  0.00     0.031 C 
ATOM     38  C   UNL A   1      39.699  26.653  28.040  1.00  0.00     0.029 A 
ATOM     39  N   UNL A   1      41.786  27.024  28.750  1.00  0.00    -0.354 N 
ATOM     40  C   UNL A   1      42.898  30.812  30.510  1.00  0.00     0.074 A 
ATOM     41  C   UNL A   1      41.773  31.720  30.539  1.00  0.00     0.031 C 
ATOM     42  C   UNL A   1      40.416  25.551  27.774  1.00  0.00     0.029 A 
ATOM     43  C   UNL A   1      41.795  25.765  28.204  1.00  0.00     0.049 A 
ATOM     44  H   UNL A   1      42.584  27.448  29.143  1.00  0.00     0.167 HD
ATOM     45  C   UNL A   1      44.134  31.112  30.974  1.00  0.00     0.037 A 
ATOM     46  C   UNL A   1      42.803  24.883  28.058  1.00  0.00     0.037 A 
ATOM     47  C   UNL A   1      45.247  30.198  30.953  1.00  0.00     0.049 A 
ATOM     48  C   UNL A   1      44.172  25.246  28.564  1.00  0.00     0.074 A 
ATOM     49  C   UNL A   1      46.525  30.385  31.449  1.00  0.00     0.029 A 
ATOM     50  N   UNL A   1      45.215  28.927  30.396  1.00  0.00    -0.354 N 
ATOM     51  N   UNL A   1      44.571  26.347  29.152  1.00  0.00    -0.248 NA
ATOM     52  C   UNL A   1      45.229  24.240  28.392  1.00  0.00     0.031 C 
ATOM     53  C   UNL A   1      47.282  29.249  31.143  1.00  0.00     0.029 A 
ATOM     54  C   UNL A   1      46.460  28.330  30.512  1.00  0.00     0.049 A 
ATOM     55  H   UNL A   1      44.425  28.512  29.982  1.00  0.00     0.167 HD
ATOM     56  C   UNL A   1      45.915  26.156  29.448  1.00  0.00     0.074 A 
ATOM     57  C   UNL A   1      46.258  24.827  28.986  1.00  0.00     0.031 C 
ATOM     58  C   UNL A   1      46.786  27.003  30.049  1.00  0.00     0.037 A 
BRANCH  45  59
ATOM     59  C   UNL A   1      44.345  32.490  31.535  1.00  0.00     0.057 A 
ATOM     60  C   UNL A   1      44.779  33.557  30.738  1.00  0.00     0.134 A 
ATOM     61  C   UNL A   1      44.094  32.757  32.887  1.00  0.00     0.134 A 
ATOM     62  F   UNL A   1      45.050  33.370  29.437  1.00  0.00    -0.206 F 
ATOM     63  C   UNL A   1      44.989  34.831  31.272  1.00  0.00     0.040 A 
ATOM     64  C   UNL A   1      44.269  34.034  33.425  1.00  0.00     0.040 A 
ATOM     65  F   UNL A   1      43.669  31.784  33.707  1.00  0.00    -0.206 F 
ATOM     66  C   UNL A   1      44.727  35.072  32.618  1.00  0.00     0.006 A 
ENDBRANCH  45  59
BRANCH  46  67
ATOM     67  C   UNL A   1      42.548  23.565  27.425  1.00  0.00     0.057 A 
ATOM     68  C   UNL A   1      42.651  23.396  26.039  1.00  0.00     0.134 A 
ATOM     69  C   UNL A   1      42.197  22.443  28.186  1.00  0.00     0.134 A 
ATOM     70  F   UNL A   1      42.967  24.437  25.255  1.00  0.00    -0.206 F 
ATOM     71  C   UNL A   1      42.397  22.166  25.430  1.00  0.00     0.040 A 
ATOM     72  C   UNL A   1      41.966  21.200  27.594  1.00  0.00     0.040 A 
ATOM     73  F   UNL A   1      42.091  22.536  29.519  1.00  0.00    -0.206 F 
ATOM     74  C   UNL A   1      42.059  21.062  26.210  1.00  0.00     0.006 A 
ENDBRANCH  46  67
BRANCH  58  75
ATOM     75  C   UNL A   1      48.185  26.506  30.278  1.00  0.00     0.057 A 
ATOM     76  C   UNL A   1      49.211  26.718  29.348  1.00  0.00     0.134 A 
ATOM     77  C   UNL A   1      48.516  25.839  31.464  1.00  0.00     0.134 A 
ATOM     78  F   UNL A   1      48.959  27.338  28.186  1.00  0.00    -0.206 F 
ATOM     79  C   UNL A   1      50.510  26.262  29.579  1.00  0.00     0.040 A 
ATOM     80  C   UNL A   1      49.817  25.405  31.720  1.00  0.00     0.040 A 
ATOM     81  F   UNL A   1      47.584  25.611  32.402  1.00  0.00    -0.206 F 
ATOM     82  C   UNL A   1      50.817  25.610  30.772  1.00  0.00     0.006 A 
ENDBRANCH  58  75
ENDBRANCH  32  33
ENDBRANCH  24  27
ENDBRANCH  22  23
ENDBRANCH  21  22
ENDBRANCH  20  21
ENDBRANCH   1  20
TORSDOF 16
ENDMDL
MODEL 3
REMARK VINA RESULT:     -10.7      1.370      2.061
REMARK SMILES CC[C@H]1CC[C@](O)([C@H](F)C(=O)NCCCCCCNC(=O)c2ccc(-c3c4nc(c(-c5c(F)cccc5F)c5ccc([nH]5)c(-c5c(F)cccc5F)c5nc(c(-c6c(F)cccc6F)c6ccc3[nH]6)C=C5)C=C4)cc2)CC1
REMARK SMILES IDX 15 1 14 2 13 3 12 4 10 5 11 6 8 8 9 9 6 10 3 11 4 12 77 13
REMARK SMILES IDX 5 14 76 15 2 16 1 17 7 18 16 20 17 21 18 22 19 23 20 24
REMARK SMILES IDX 21 26 22 27 23 28 75 29 24 30 74 31 25 32 26 33 27 34 68 35
REMARK SMILES IDX 28 36 73 37 67 38 69 39 29 40 72 41 66 42 65 43 30 45 56 46
REMARK SMILES IDX 39 47 55 48 40 49 43 50 54 51 70 52 41 53 42 54 53 56 71 57
REMARK SMILES IDX 44 58 31 59 32 60 37 61 33 62 34 63 36 64 38 65 35 66 57 67
REMARK SMILES IDX 58 68 63 69 59 70 60 71 62 72 64 73 61 74 45 75 46 76 51 77
REMARK SMILES IDX 47 78 48 79 50 80 52 81 49 82
REMARK H PARENT 12 7 7 19 19 25 69 44 43 55
REMARK Flexibility Score: inf
ROOT
ATOM      1  C   UNL A   1      36.552  22.597  24.788  1.00  0.00     0.002 C 
ENDROOT
BRANCH   1   2
ATOM      2  C   UNL A   1      35.910  23.588  25.769  1.00  0.00     0.021 C 
BRANCH   2   3
ATOM      3  C   UNL A   1      34.466  23.941  25.447  1.00  0.00     0.116 C 
BRANCH   3   4
ATOM      4  N   UNL A   1      33.579  23.517  26.511  1.00  0.00    -0.353 N 
ATOM      5  C   UNL A   1      32.224  23.609  26.562  1.00  0.00     0.257 C 
ATOM      6  O   UNL A   1      31.658  23.222  27.588  1.00  0.00    -0.272 OA
ATOM      7  H   UNL A   1      34.012  23.111  27.296  1.00  0.00     0.163 HD
BRANCH   5   8
ATOM      8  C   UNL A   1      31.431  24.120  25.369  1.00  0.00     0.286 C 
ATOM      9  F   UNL A   1      30.673  23.130  24.796  1.00  0.00    -0.234 F 
BRANCH   8  10
ATOM     10  C   UNL A   1      30.554  25.390  25.620  1.00  0.00     0.105 C 
ATOM     11  C   UNL A   1      31.689  27.761  24.094  1.00  0.00    -0.011 C 
ATOM     12  C   UNL A   1      30.995  26.577  23.398  1.00  0.00     0.006 C 
ATOM     13  C   UNL A   1      32.278  27.307  25.438  1.00  0.00     0.006 C 
ATOM     14  C   UNL A   1      29.959  25.869  24.276  1.00  0.00     0.039 C 
ATOM     15  C   UNL A   1      31.242  26.593  26.300  1.00  0.00     0.039 C 
BRANCH  11  16
ATOM     16  C   UNL A   1      30.835  29.033  24.305  1.00  0.00    -0.000 C 
ATOM     17  C   UNL A   1      29.727  29.271  23.296  1.00  0.00     0.004 C 
ENDBRANCH  11  16
BRANCH  10  18
ATOM     18  O   UNL A   1      29.450  25.030  26.481  1.00  0.00    -0.386 OA
ATOM     19  H   UNL A   1      28.909  25.814  26.660  1.00  0.00     0.211 HD
ENDBRANCH  10  18
ENDBRANCH   8  10
ENDBRANCH   5   8
ENDBRANCH   3   4
ENDBRANCH   2   3
ENDBRANCH   1   2
BRANCH   1  20
ATOM     20  C   UNL A   1      36.204  21.124  25.023  1.00  0.00     0.002 C 
BRANCH  20  21
ATOM     21  C   UNL A   1      37.380  20.154  24.899  1.00  0.00     0.021 C 
BRANCH  21  22
ATOM     22  C   UNL A   1      38.650  20.604  25.608  1.00  0.00     0.116 C 
BRANCH  22  23
ATOM     23  N   UNL A   1      39.653  19.554  25.672  1.00  0.00    -0.352 N 
ATOM     24  C   UNL A   1      40.969  19.643  26.043  1.00  0.00     0.251 C 
ATOM     25  H   UNL A   1      39.343  18.655  25.416  1.00  0.00     0.163 HD
ATOM     26  O   UNL A   1      41.726  18.688  25.887  1.00  0.00    -0.269 OA
BRANCH  24  27
ATOM     27  C   UNL A   1      41.481  20.908  26.604  1.00  0.00     0.039 A 
ATOM     28  C   UNL A   1      42.000  21.870  25.734  1.00  0.00     0.014 A 
ATOM     29  C   UNL A   1      41.434  21.152  27.980  1.00  0.00     0.014 A 
ATOM     30  C   UNL A   1      42.424  23.098  26.240  1.00  0.00     0.010 A 
ATOM     31  C   UNL A   1      41.777  22.406  28.471  1.00  0.00     0.010 A 
ATOM     32  C   UNL A   1      42.284  23.388  27.608  1.00  0.00    -0.014 A 
BRANCH  32  33
ATOM     33  C   UNL A   1      42.672  24.713  28.153  1.00  0.00     0.031 A 
ATOM     34  C   UNL A   1      41.632  25.778  28.361  1.00  0.00     0.074 A 
ATOM     35  C   UNL A   1      43.968  24.974  28.409  1.00  0.00     0.049 A 
ATOM     36  N   UNL A   1      41.779  27.009  28.780  1.00  0.00    -0.248 NA
ATOM     37  C   UNL A   1      40.243  25.421  28.026  1.00  0.00     0.031 C 
ATOM     38  C   UNL A   1      45.076  24.041  28.204  1.00  0.00     0.029 A 
ATOM     39  N   UNL A   1      44.573  26.108  28.890  1.00  0.00    -0.354 N 
ATOM     40  C   UNL A   1      40.511  27.574  28.747  1.00  0.00     0.074 A 
ATOM     41  C   UNL A   1      39.616  26.573  28.209  1.00  0.00     0.031 C 
ATOM     42  C   UNL A   1      46.222  24.628  28.582  1.00  0.00     0.029 A 
ATOM     43  C   UNL A   1      45.936  25.993  29.015  1.00  0.00     0.049 A 
ATOM     44  H   UNL A   1      44.078  26.926  29.123  1.00  0.00     0.167 HD
ATOM     45  C   UNL A   1      40.122  28.807  29.153  1.00  0.00     0.037 A 
ATOM     46  C   UNL A   1      46.854  26.889  29.425  1.00  0.00     0.037 A 
ATOM     47  C   UNL A   1      41.016  29.795  29.699  1.00  0.00     0.049 A 
ATOM     48  C   UNL A   1      46.401  28.258  29.852  1.00  0.00     0.074 A 
ATOM     49  C   UNL A   1      40.713  31.052  30.192  1.00  0.00     0.029 A 
ATOM     50  N   UNL A   1      42.390  29.638  29.816  1.00  0.00    -0.354 N 
ATOM     51  N   UNL A   1      45.189  28.755  29.886  1.00  0.00    -0.248 NA
ATOM     52  C   UNL A   1      47.444  29.188  30.305  1.00  0.00     0.031 C 
ATOM     53  C   UNL A   1      41.911  31.678  30.554  1.00  0.00     0.029 A 
ATOM     54  C   UNL A   1      42.952  30.788  30.347  1.00  0.00     0.049 A 
ATOM     55  H   UNL A   1      42.890  28.830  29.561  1.00  0.00     0.167 HD
ATOM     56  C   UNL A   1      45.318  30.042  30.392  1.00  0.00     0.074 A 
ATOM     57  C   UNL A   1      46.726  30.244  30.662  1.00  0.00     0.031 C 
ATOM     58  C   UNL A   1      44.358  30.973  30.613  1.00  0.00     0.037 A 
BRANCH  45  59
ATOM     59  C   UNL A   1      38.667  29.153  29.010  1.00  0.00     0.057 A 
ATOM     60  C   UNL A   1      37.771  29.053  30.083  1.00  0.00     0.134 A 
ATOM     61  C   UNL A   1      38.157  29.611  27.788  1.00  0.00     0.134 A 
ATOM     62  F   UNL A   1      38.189  28.611  31.279  1.00  0.00    -0.206 F 
ATOM     63  C   UNL A   1      36.417  29.361  29.938  1.00  0.00     0.040 A 
ATOM     64  C   UNL A   1      36.812  29.953  27.639  1.00  0.00     0.040 A 
ATOM     65  F   UNL A   1      38.959  29.739  26.720  1.00  0.00    -0.206 F 
ATOM     66  C   UNL A   1      35.936  29.819  28.714  1.00  0.00     0.006 A 
ENDBRANCH  45  59
BRANCH  46  67
ATOM     67  C   UNL A   1      48.289  26.511  29.472  1.00  0.00     0.057 A 
ATOM     68  C   UNL A   1      49.147  26.797  28.404  1.00  0.00     0.134 A 
ATOM     69  C   UNL A   1      48.837  25.858  30.582  1.00  0.00     0.134 A 
ATOM     70  F   UNL A   1      48.678  27.406  27.305  1.00  0.00    -0.206 F 
ATOM     71  C   UNL A   1      50.494  26.430  28.428  1.00  0.00     0.040 A 
ATOM     72  C   UNL A   1      50.188  25.509  30.632  1.00  0.00     0.040 A 
ATOM     73  F   UNL A   1      48.071  25.563  31.642  1.00  0.00    -0.206 F 
ATOM     74  C   UNL A   1      51.019  25.790  29.549  1.00  0.00     0.006 A 
ENDBRANCH  46  67
BRANCH  58  75
ATOM     75  C   UNL A   1      44.790  32.281  31.213  1.00  0.00     0.057 A 
ATOM     76  C   UNL A   1      45.137  33.384  30.421  1.00  0.00     0.134 A 
ATOM     77  C   UNL A   1      44.823  32.449  32.603  1.00  0.00     0.134 A 
ATOM     78  F   UNL A   1      45.138  33.287  29.082  1.00  0.00    -0.206 F 
ATOM     79  C   UNL A   1      45.524  34.597  30.990  1.00  0.00     0.040 A 
ATOM     80  C   UNL A   1      45.180  33.666  33.184  1.00  0.00     0.040 A 
ATOM     81  F   UNL A   1      44.494  31.437  33.420  1.00  0.00    -0.206 F 
ATOM     82  C   UNL A   1      45.539  34.743  32.377  1.00  0.00     0.006 A 
ENDBRANCH  58  75
ENDBRANCH  32  33
ENDBRANCH  24  27
ENDBRANCH  22  23
ENDBRANCH  21  22
ENDBRANCH  20  21
ENDBRANCH   1  20
TORSDOF 16
ENDMDL
