MODEL 1
REMARK VINA RESULT:     -12.3      0.000      0.000
REMARK SMILES O=C(NCCCCCCNC(=O)C1(c2ccccc2)CCN(S(=O)(=O)c2cccs2)CC1)c1ccc(-c2c3nc(c(-c4c(F)cccc4F)c4ccc([nH]4)c(-c4c(F)cccc4F)c4nc(c(-c5c(F)cccc5F)c5ccc2[nH]5)C=C4)C=C3)cc1
REMARK SMILES IDX 6 1 5 2 4 3 3 4 1 5 2 6 33 8 34 9 86 10 35 11 85 12 36 13
REMARK SMILES IDX 37 14 38 15 79 16 39 17 84 18 78 19 80 20 40 21 83 22 77 23
REMARK SMILES IDX 76 24 41 26 67 27 50 28 66 29 51 30 54 31 65 32 81 33 52 34
REMARK SMILES IDX 53 35 64 37 82 38 55 39 42 40 43 41 48 42 44 43 45 44 47 45
REMARK SMILES IDX 49 46 46 47 68 48 69 49 74 50 70 51 71 52 73 53 75 54 72 55
REMARK SMILES IDX 56 56 57 57 62 58 58 59 59 60 61 61 63 62 60 63 7 64 8 65
REMARK SMILES IDX 9 66 10 67 11 68 12 70 13 71 20 72 32 73 21 74 31 75 22 76
REMARK SMILES IDX 14 77 15 78 19 79 16 80 18 81 17 82 23 83 24 84 25 85 26 86
REMARK SMILES IDX 27 87 30 88 28 89 29 90
REMARK H PARENT 3 7 80 25 54 36 10 69
REMARK Flexibility Score: inf
ROOT
ATOM      1  C   UNL A   1      31.394  30.891  26.431  1.00  0.00     0.002 C 
ENDROOT
BRANCH   1   2
ATOM      2  C   UNL A   1      31.396  32.414  26.555  1.00  0.00     0.021 C 
BRANCH   2   3
ATOM      3  C   UNL A   1      32.615  32.957  27.282  1.00  0.00     0.116 C 
BRANCH   3   4
ATOM      4  N   UNL A   1      32.411  34.327  27.730  1.00  0.00    -0.352 N 
ATOM      5  O   UNL A   1      32.603  36.070  29.159  1.00  0.00    -0.269 OA
ATOM      6  C   UNL A   1      33.040  35.003  28.746  1.00  0.00     0.251 C 
ATOM      7  H   UNL A   1      31.730  34.839  27.237  1.00  0.00     0.163 HD
BRANCH   6   8
ATOM      8  C   UNL A   1      34.254  34.410  29.344  1.00  0.00     0.039 A 
ATOM      9  C   UNL A   1      35.489  34.619  28.730  1.00  0.00     0.014 A 
ATOM     10  C   UNL A   1      34.159  33.626  30.494  1.00  0.00     0.014 A 
ATOM     11  C   UNL A   1      36.593  33.902  29.157  1.00  0.00     0.010 A 
ATOM     12  C   UNL A   1      35.305  33.009  31.005  1.00  0.00     0.010 A 
ATOM     13  C   UNL A   1      36.527  33.123  30.325  1.00  0.00    -0.014 A 
BRANCH  13  14
ATOM     14  C   UNL A   1      37.791  32.541  30.842  1.00  0.00     0.031 A 
ATOM     15  C   UNL A   1      38.465  33.070  32.073  1.00  0.00     0.074 A 
ATOM     16  C   UNL A   1      38.286  31.462  30.203  1.00  0.00     0.049 A 
ATOM     17  N   UNL A   1      39.532  32.614  32.682  1.00  0.00    -0.248 NA
ATOM     18  C   UNL A   1      37.883  34.264  32.704  1.00  0.00     0.031 C 
ATOM     19  C   UNL A   1      37.723  30.879  28.980  1.00  0.00     0.029 A 
ATOM     20  N   UNL A   1      39.339  30.640  30.504  1.00  0.00    -0.354 N 
ATOM     21  C   UNL A   1      39.750  33.461  33.760  1.00  0.00     0.074 A 
ATOM     22  C   UNL A   1      38.729  34.485  33.702  1.00  0.00     0.031 C 
ATOM     23  C   UNL A   1      38.390  29.758  28.677  1.00  0.00     0.029 A 
ATOM     24  C   UNL A   1      39.479  29.591  29.628  1.00  0.00     0.049 A 
ATOM     25  H   UNL A   1      39.936  30.785  31.273  1.00  0.00     0.167 HD
ATOM     26  C   UNL A   1      40.710  33.380  34.714  1.00  0.00     0.037 A 
ATOM     27  C   UNL A   1      40.400  28.612  29.574  1.00  0.00     0.037 A 
ATOM     28  C   UNL A   1      41.727  32.359  34.757  1.00  0.00     0.049 A 
ATOM     29  C   UNL A   1      41.467  28.573  30.626  1.00  0.00     0.074 A 
ATOM     30  C   UNL A   1      42.741  32.188  35.685  1.00  0.00     0.029 A 
ATOM     31  N   UNL A   1      41.864  31.336  33.828  1.00  0.00    -0.354 N 
ATOM     32  N   UNL A   1      41.641  29.366  31.656  1.00  0.00    -0.248 NA
ATOM     33  C   UNL A   1      42.465  27.504  30.510  1.00  0.00     0.031 C 
ATOM     34  C   UNL A   1      43.519  31.094  35.291  1.00  0.00     0.029 A 
ATOM     35  C   UNL A   1      42.956  30.543  34.152  1.00  0.00     0.049 A 
ATOM     36  H   UNL A   1      41.273  31.193  33.055  1.00  0.00     0.167 HD
ATOM     37  C   UNL A   1      42.761  28.886  32.317  1.00  0.00     0.074 A 
ATOM     38  C   UNL A   1      43.198  27.709  31.592  1.00  0.00     0.031 C 
ATOM     39  C   UNL A   1      43.381  29.379  33.417  1.00  0.00     0.037 A 
BRANCH  26  40
ATOM     40  C   UNL A   1      40.714  34.429  35.792  1.00  0.00     0.057 A 
ATOM     41  C   UNL A   1      41.412  35.634  35.648  1.00  0.00     0.134 A 
ATOM     42  C   UNL A   1      39.959  34.259  36.961  1.00  0.00     0.134 A 
ATOM     43  F   UNL A   1      42.163  35.859  34.559  1.00  0.00    -0.206 F 
ATOM     44  C   UNL A   1      41.372  36.626  36.631  1.00  0.00     0.040 A 
ATOM     45  C   UNL A   1      39.889  35.254  37.939  1.00  0.00     0.040 A 
ATOM     46  F   UNL A   1      39.260  33.132  37.163  1.00  0.00    -0.206 F 
ATOM     47  C   UNL A   1      40.600  36.440  37.776  1.00  0.00     0.006 A 
ENDBRANCH  26  40
BRANCH  27  48
ATOM     48  C   UNL A   1      40.369  27.623  28.468  1.00  0.00     0.057 A 
ATOM     49  C   UNL A   1      39.669  26.417  28.581  1.00  0.00     0.134 A 
ATOM     50  C   UNL A   1      41.055  27.859  27.269  1.00  0.00     0.134 A 
ATOM     51  F   UNL A   1      39.001  26.127  29.708  1.00  0.00    -0.206 F 
ATOM     52  C   UNL A   1      39.676  25.470  27.557  1.00  0.00     0.040 A 
ATOM     53  C   UNL A   1      41.040  26.938  26.222  1.00  0.00     0.040 A 
ATOM     54  F   UNL A   1      41.735  29.001  27.089  1.00  0.00    -0.206 F 
ATOM     55  C   UNL A   1      40.359  25.733  26.370  1.00  0.00     0.006 A 
ENDBRANCH  27  48
BRANCH  39  56
ATOM     56  C   UNL A   1      44.579  28.620  33.911  1.00  0.00     0.057 A 
ATOM     57  C   UNL A   1      45.879  28.931  33.488  1.00  0.00     0.134 A 
ATOM     58  C   UNL A   1      44.429  27.558  34.811  1.00  0.00     0.134 A 
ATOM     59  F   UNL A   1      46.091  29.926  32.614  1.00  0.00    -0.206 F 
ATOM     60  C   UNL A   1      46.981  28.185  33.910  1.00  0.00     0.040 A 
ATOM     61  C   UNL A   1      45.527  26.828  35.267  1.00  0.00     0.040 A 
ATOM     62  F   UNL A   1      43.214  27.213  35.263  1.00  0.00    -0.206 F 
ATOM     63  C   UNL A   1      46.806  27.132  34.805  1.00  0.00     0.006 A 
ENDBRANCH  39  56
ENDBRANCH  13  14
ENDBRANCH   6   8
ENDBRANCH   3   4
ENDBRANCH   2   3
ENDBRANCH   1   2
BRANCH   1  64
ATOM     64  C   UNL A   1      32.567  30.200  27.135  1.00  0.00     0.002 C 
BRANCH  64  65
ATOM     65  C   UNL A   1      33.652  29.671  26.190  1.00  0.00     0.021 C 
BRANCH  65  66
ATOM     66  C   UNL A   1      33.093  28.836  25.034  1.00  0.00     0.116 C 
BRANCH  66  67
ATOM     67  N   UNL A   1      32.377  27.691  25.551  1.00  0.00    -0.355 N 
ATOM     68  C   UNL A   1      31.173  27.167  25.201  1.00  0.00     0.230 C 
ATOM     69  H   UNL A   1      32.838  27.212  26.276  1.00  0.00     0.163 HD
ATOM     70  O   UNL A   1      30.599  26.585  26.130  1.00  0.00    -0.274 OA
BRANCH  68  71
ATOM     71  C   UNL A   1      30.614  27.105  23.740  1.00  0.00     0.077 C 
ATOM     72  C   UNL A   1      29.886  25.741  23.534  1.00  0.00     0.038 C 
ATOM     73  C   UNL A   1      31.837  27.120  22.791  1.00  0.00     0.038 C 
ATOM     74  C   UNL A   1      30.791  24.504  23.546  1.00  0.00     0.104 C 
ATOM     75  C   UNL A   1      32.724  25.888  22.923  1.00  0.00     0.104 C 
ATOM     76  N   UNL A   1      31.944  24.665  22.617  1.00  0.00    -0.197 NA
BRANCH  71  77
ATOM     77  C   UNL A   1      29.620  28.251  23.420  1.00  0.00    -0.032 A 
ATOM     78  C   UNL A   1      29.997  29.612  23.454  1.00  0.00     0.005 A 
ATOM     79  C   UNL A   1      28.262  27.967  23.182  1.00  0.00     0.005 A 
ATOM     80  C   UNL A   1      29.048  30.635  23.361  1.00  0.00     0.000 A 
ATOM     81  C   UNL A   1      27.315  28.993  23.081  1.00  0.00     0.000 A 
ATOM     82  C   UNL A   1      27.704  30.325  23.195  1.00  0.00     0.000 A 
ENDBRANCH  71  77
BRANCH  76  83
ATOM     83  S   UNL A   1      32.913  23.233  22.565  1.00  0.00     0.252 S 
ATOM     84  O   UNL A   1      32.083  22.126  22.989  1.00  0.00    -0.206 OA
ATOM     85  O   UNL A   1      33.611  23.208  21.295  1.00  0.00    -0.206 OA
BRANCH  83  86
ATOM     86  C   UNL A   1      34.147  23.374  23.848  1.00  0.00     0.135 A 
ATOM     87  C   UNL A   1      35.510  23.612  23.779  1.00  0.00     0.033 A 
ATOM     88  S   UNL A   1      33.631  23.198  25.469  1.00  0.00    -0.131 S 
ATOM     89  C   UNL A   1      36.132  23.612  25.059  1.00  0.00     0.013 A 
ATOM     90  C   UNL A   1      35.217  23.423  26.070  1.00  0.00     0.066 A 
ENDBRANCH  83  86
ENDBRANCH  76  83
ENDBRANCH  68  71
ENDBRANCH  66  67
ENDBRANCH  65  66
ENDBRANCH  64  65
ENDBRANCH   1  64
TORSDOF 16
ENDMDL
MODEL 2
REMARK VINA RESULT:     -12.0      0.866      6.034
REMARK SMILES O=C(NCCCCCCNC(=O)C1(c2ccccc2)CCN(S(=O)(=O)c2cccs2)CC1)c1ccc(-c2c3nc(c(-c4c(F)cccc4F)c4ccc([nH]4)c(-c4c(F)cccc4F)c4nc(c(-c5c(F)cccc5F)c5ccc2[nH]5)C=C4)C=C3)cc1
REMARK SMILES IDX 6 1 5 2 4 3 3 4 1 5 2 6 33 8 34 9 86 10 35 11 85 12 36 13
REMARK SMILES IDX 37 14 38 15 79 16 39 17 84 18 78 19 80 20 40 21 83 22 77 23
REMARK SMILES IDX 76 24 41 26 67 27 50 28 66 29 51 30 54 31 65 32 81 33 52 34
REMARK SMILES IDX 53 35 64 37 82 38 55 39 42 40 43 41 48 42 44 43 45 44 47 45
REMARK SMILES IDX 49 46 46 47 68 48 69 49 74 50 70 51 71 52 73 53 75 54 72 55
REMARK SMILES IDX 56 56 57 57 62 58 58 59 59 60 61 61 63 62 60 63 7 64 8 65
REMARK SMILES IDX 9 66 10 67 11 68 12 70 13 71 20 72 32 73 21 74 31 75 22 76
REMARK SMILES IDX 14 77 15 78 19 79 16 80 18 81 17 82 23 83 24 84 25 85 26 86
REMARK SMILES IDX 27 87 30 88 28 89 29 90
REMARK H PARENT 3 7 80 25 54 36 10 69
REMARK Flexibility Score: inf
ROOT
ATOM      1  C   UNL A   1      31.787  30.872  26.856  1.00  0.00     0.002 C 
ENDROOT
BRANCH   1   2
ATOM      2  C   UNL A   1      31.502  32.373  26.886  1.00  0.00     0.021 C 
BRANCH   2   3
ATOM      3  C   UNL A   1      32.760  33.222  26.964  1.00  0.00     0.116 C 
BRANCH   3   4
ATOM      4  N   UNL A   1      32.537  34.449  27.715  1.00  0.00    -0.352 N 
ATOM      5  O   UNL A   1      32.643  35.792  29.532  1.00  0.00    -0.269 OA
ATOM      6  C   UNL A   1      33.099  34.844  28.904  1.00  0.00     0.251 C 
ATOM      7  H   UNL A   1      31.896  35.082  27.317  1.00  0.00     0.163 HD
BRANCH   6   8
ATOM      8  C   UNL A   1      34.263  34.096  29.419  1.00  0.00     0.039 A 
ATOM      9  C   UNL A   1      34.059  33.040  30.306  1.00  0.00     0.014 A 
ATOM     10  C   UNL A   1      35.557  34.463  29.042  1.00  0.00     0.014 A 
ATOM     11  C   UNL A   1      35.142  32.472  30.954  1.00  0.00     0.010 A 
ATOM     12  C   UNL A   1      36.652  33.795  29.596  1.00  0.00     0.010 A 
ATOM     13  C   UNL A   1      36.453  32.809  30.576  1.00  0.00    -0.014 A 
BRANCH  13  14
ATOM     14  C   UNL A   1      37.567  32.024  31.163  1.00  0.00     0.031 A 
ATOM     15  C   UNL A   1      38.292  30.966  30.384  1.00  0.00     0.074 A 
ATOM     16  C   UNL A   1      37.962  32.342  32.412  1.00  0.00     0.049 A 
ATOM     17  N   UNL A   1      39.331  30.253  30.742  1.00  0.00    -0.248 NA
ATOM     18  C   UNL A   1      37.791  30.655  29.036  1.00  0.00     0.031 C 
ATOM     19  C   UNL A   1      37.311  33.338  33.270  1.00  0.00     0.029 A 
ATOM     20  N   UNL A   1      39.017  31.900  33.165  1.00  0.00    -0.354 N 
ATOM     21  C   UNL A   1      39.607  29.412  29.673  1.00  0.00     0.074 A 
ATOM     22  C   UNL A   1      38.601  29.673  28.665  1.00  0.00     0.031 C 
ATOM     23  C   UNL A   1      38.020  33.483  34.397  1.00  0.00     0.029 A 
ATOM     24  C   UNL A   1      39.120  32.529  34.382  1.00  0.00     0.049 A 
ATOM     25  H   UNL A   1      39.641  31.200  32.863  1.00  0.00     0.167 HD
ATOM     26  C   UNL A   1      40.614  28.514  29.545  1.00  0.00     0.037 A 
ATOM     27  C   UNL A   1      39.987  32.344  35.393  1.00  0.00     0.037 A 
ATOM     28  C   UNL A   1      41.606  28.258  30.561  1.00  0.00     0.049 A 
ATOM     29  C   UNL A   1      41.069  31.319  35.230  1.00  0.00     0.074 A 
ATOM     30  C   UNL A   1      42.669  27.372  30.525  1.00  0.00     0.029 A 
ATOM     31  N   UNL A   1      41.654  28.885  31.798  1.00  0.00    -0.354 N 
ATOM     32  N   UNL A   1      41.332  30.552  34.200  1.00  0.00    -0.248 NA
ATOM     33  C   UNL A   1      41.974  31.133  36.370  1.00  0.00     0.031 C 
ATOM     34  C   UNL A   1      43.330  27.426  31.757  1.00  0.00     0.029 A 
ATOM     35  C   UNL A   1      42.718  28.391  32.540  1.00  0.00     0.049 A 
ATOM     36  H   UNL A   1      41.027  29.578  32.105  1.00  0.00     0.167 HD
ATOM     37  C   UNL A   1      42.440  29.800  34.562  1.00  0.00     0.074 A 
ATOM     38  C   UNL A   1      42.820  30.235  35.892  1.00  0.00     0.031 C 
ATOM     39  C   UNL A   1      43.079  28.830  33.864  1.00  0.00     0.037 A 
BRANCH  26  40
ATOM     40  C   UNL A   1      40.697  27.733  28.263  1.00  0.00     0.057 A 
ATOM     41  C   UNL A   1      41.421  28.199  27.159  1.00  0.00     0.134 A 
ATOM     42  C   UNL A   1      40.099  26.470  28.153  1.00  0.00     0.134 A 
ATOM     43  F   UNL A   1      42.011  29.403  27.191  1.00  0.00    -0.206 F 
ATOM     44  C   UNL A   1      41.536  27.446  25.988  1.00  0.00     0.040 A 
ATOM     45  C   UNL A   1      40.229  25.696  26.998  1.00  0.00     0.040 A 
ATOM     46  F   UNL A   1      39.395  25.957  29.174  1.00  0.00    -0.206 F 
ATOM     47  C   UNL A   1      40.947  26.185  25.909  1.00  0.00     0.006 A 
ENDBRANCH  26  40
BRANCH  27  48
ATOM     48  C   UNL A   1      39.839  33.118  36.650  1.00  0.00     0.057 A 
ATOM     49  C   UNL A   1      38.958  32.716  37.660  1.00  0.00     0.134 A 
ATOM     50  C   UNL A   1      40.572  34.292  36.866  1.00  0.00     0.134 A 
ATOM     51  F   UNL A   1      38.219  31.607  37.509  1.00  0.00    -0.206 F 
ATOM     52  C   UNL A   1      38.788  33.468  38.823  1.00  0.00     0.040 A 
ATOM     53  C   UNL A   1      40.442  35.033  38.040  1.00  0.00     0.040 A 
ATOM     54  F   UNL A   1      41.445  34.727  35.944  1.00  0.00    -0.206 F 
ATOM     55  C   UNL A   1      39.537  34.628  39.018  1.00  0.00     0.006 A 
ENDBRANCH  27  48
BRANCH  39  56
ATOM     56  C   UNL A   1      44.272  28.201  34.526  1.00  0.00     0.057 A 
ATOM     57  C   UNL A   1      44.161  27.041  35.305  1.00  0.00     0.134 A 
ATOM     58  C   UNL A   1      45.544  28.769  34.390  1.00  0.00     0.134 A 
ATOM     59  F   UNL A   1      42.968  26.456  35.490  1.00  0.00    -0.206 F 
ATOM     60  C   UNL A   1      45.266  26.495  35.960  1.00  0.00     0.040 A 
ATOM     61  C   UNL A   1      46.663  28.212  35.011  1.00  0.00     0.040 A 
ATOM     62  F   UNL A   1      45.723  29.874  33.650  1.00  0.00    -0.206 F 
ATOM     63  C   UNL A   1      46.522  27.079  35.811  1.00  0.00     0.006 A 
ENDBRANCH  39  56
ENDBRANCH  13  14
ENDBRANCH   6   8
ENDBRANCH   3   4
ENDBRANCH   2   3
ENDBRANCH   1   2
BRANCH   1  64
ATOM     64  C   UNL A   1      33.212  30.492  27.273  1.00  0.00     0.002 C 
BRANCH  64  65
ATOM     65  C   UNL A   1      33.802  29.302  26.508  1.00  0.00     0.021 C 
BRANCH  65  66
ATOM     66  C   UNL A   1      32.892  28.794  25.385  1.00  0.00     0.116 C 
BRANCH  66  67
ATOM     67  N   UNL A   1      32.188  27.607  25.818  1.00  0.00    -0.355 N 
ATOM     68  C   UNL A   1      31.031  27.052  25.372  1.00  0.00     0.230 C 
ATOM     69  H   UNL A   1      32.619  27.121  26.557  1.00  0.00     0.163 HD
ATOM     70  O   UNL A   1      30.419  26.418  26.241  1.00  0.00    -0.274 OA
BRANCH  68  71
ATOM     71  C   UNL A   1      30.571  27.018  23.875  1.00  0.00     0.077 C 
ATOM     72  C   UNL A   1      29.853  25.662  23.596  1.00  0.00     0.038 C 
ATOM     73  C   UNL A   1      31.857  27.043  23.012  1.00  0.00     0.038 C 
ATOM     74  C   UNL A   1      30.751  24.420  23.647  1.00  0.00     0.104 C 
ATOM     75  C   UNL A   1      32.727  25.804  23.181  1.00  0.00     0.104 C 
ATOM     76  N   UNL A   1      31.964  24.591  22.801  1.00  0.00    -0.197 NA
BRANCH  71  77
ATOM     77  C   UNL A   1      29.607  28.175  23.510  1.00  0.00    -0.032 A 
ATOM     78  C   UNL A   1      30.012  29.529  23.514  1.00  0.00     0.005 A 
ATOM     79  C   UNL A   1      28.248  27.912  23.257  1.00  0.00     0.005 A 
ATOM     80  C   UNL A   1      29.085  30.568  23.379  1.00  0.00     0.000 A 
ATOM     81  C   UNL A   1      27.323  28.955  23.113  1.00  0.00     0.000 A 
ATOM     82  C   UNL A   1      27.738  30.281  23.199  1.00  0.00     0.000 A 
ENDBRANCH  71  77
BRANCH  76  83
ATOM     83  S   UNL A   1      32.928  23.155  22.790  1.00  0.00     0.252 S 
ATOM     84  O   UNL A   1      32.035  22.025  22.923  1.00  0.00    -0.206 OA
ATOM     85  O   UNL A   1      33.863  23.250  21.687  1.00  0.00    -0.206 OA
BRANCH  83  86
ATOM     86  C   UNL A   1      33.885  23.139  24.299  1.00  0.00     0.135 A 
ATOM     87  C   UNL A   1      33.492  23.130  25.627  1.00  0.00     0.033 A 
ATOM     88  S   UNL A   1      35.589  23.131  24.157  1.00  0.00    -0.131 S 
ATOM     89  C   UNL A   1      34.596  23.154  26.525  1.00  0.00     0.013 A 
ATOM     90  C   UNL A   1      35.798  23.131  25.854  1.00  0.00     0.066 A 
ENDBRANCH  83  86
ENDBRANCH  76  83
ENDBRANCH  68  71
ENDBRANCH  66  67
ENDBRANCH  65  66
ENDBRANCH  64  65
ENDBRANCH   1  64
TORSDOF 16
ENDMDL
MODEL 3
REMARK VINA RESULT:     -11.9      1.266      2.023
REMARK SMILES O=C(NCCCCCCNC(=O)C1(c2ccccc2)CCN(S(=O)(=O)c2cccs2)CC1)c1ccc(-c2c3nc(c(-c4c(F)cccc4F)c4ccc([nH]4)c(-c4c(F)cccc4F)c4nc(c(-c5c(F)cccc5F)c5ccc2[nH]5)C=C4)C=C3)cc1
REMARK SMILES IDX 6 1 5 2 4 3 3 4 1 5 2 6 33 8 34 9 86 10 35 11 85 12 36 13
REMARK SMILES IDX 37 14 38 15 79 16 39 17 84 18 78 19 80 20 40 21 83 22 77 23
REMARK SMILES IDX 76 24 41 26 67 27 50 28 66 29 51 30 54 31 65 32 81 33 52 34
REMARK SMILES IDX 53 35 64 37 82 38 55 39 42 40 43 41 48 42 44 43 45 44 47 45
REMARK SMILES IDX 49 46 46 47 68 48 69 49 74 50 70 51 71 52 73 53 75 54 72 55
REMARK SMILES IDX 56 56 57 57 62 58 58 59 59 60 61 61 63 62 60 63 7 64 8 65
REMARK SMILES IDX 9 66 10 67 11 68 12 70 13 71 20 72 32 73 21 74 31 75 22 76
REMARK SMILES IDX 14 77 15 78 19 79 16 80 18 81 17 82 23 83 24 84 25 85 26 86
REMARK SMILES IDX 27 87 30 88 28 89 29 90
REMARK H PARENT 3 7 80 25 54 36 10 69
REMARK Flexibility Score: inf
ROOT
ATOM      1  C   UNL A   1      33.785  30.702  27.577  1.00  0.00     0.002 C 
ENDROOT
BRANCH   1   2
ATOM      2  C   UNL A   1      32.603  31.670  27.549  1.00  0.00     0.021 C 
BRANCH   2   3
ATOM      3  C   UNL A   1      32.970  33.052  27.034  1.00  0.00     0.116 C 
BRANCH   3   4
ATOM      4  N   UNL A   1      32.600  34.096  27.981  1.00  0.00    -0.352 N 
ATOM      5  O   UNL A   1      32.646  35.174  29.969  1.00  0.00    -0.269 OA
ATOM      6  C   UNL A   1      33.203  34.433  29.168  1.00  0.00     0.251 C 
ATOM      7  H   UNL A   1      31.812  34.632  27.737  1.00  0.00     0.163 HD
BRANCH   6   8
ATOM      8  C   UNL A   1      34.537  33.874  29.467  1.00  0.00     0.039 A 
ATOM      9  C   UNL A   1      34.670  32.933  30.487  1.00  0.00     0.014 A 
ATOM     10  C   UNL A   1      35.656  34.308  28.754  1.00  0.00     0.014 A 
ATOM     11  C   UNL A   1      35.933  32.563  30.915  1.00  0.00     0.010 A 
ATOM     12  C   UNL A   1      36.922  33.828  29.100  1.00  0.00     0.010 A 
ATOM     13  C   UNL A   1      37.073  32.969  30.199  1.00  0.00    -0.014 A 
BRANCH  13  14
ATOM     14  C   UNL A   1      38.379  32.379  30.585  1.00  0.00     0.031 A 
ATOM     15  C   UNL A   1      39.240  32.982  31.656  1.00  0.00     0.074 A 
ATOM     16  C   UNL A   1      38.743  31.228  29.985  1.00  0.00     0.049 A 
ATOM     17  N   UNL A   1      40.368  32.534  32.148  1.00  0.00    -0.248 NA
ATOM     18  C   UNL A   1      38.792  34.251  32.250  1.00  0.00     0.031 C 
ATOM     19  C   UNL A   1      37.993  30.566  28.912  1.00  0.00     0.029 A 
ATOM     20  N   UNL A   1      39.802  30.389  30.209  1.00  0.00    -0.354 N 
ATOM     21  C   UNL A   1      40.766  33.461  33.102  1.00  0.00     0.074 A 
ATOM     22  C   UNL A   1      39.779  34.520  33.094  1.00  0.00     0.031 C 
ATOM     23  C   UNL A   1      38.573  29.395  28.622  1.00  0.00     0.029 A 
ATOM     24  C   UNL A   1      39.783  29.263  29.422  1.00  0.00     0.049 A 
ATOM     25  H   UNL A   1      40.509  30.574  30.870  1.00  0.00     0.167 HD
ATOM     26  C   UNL A   1      41.850  33.421  33.915  1.00  0.00     0.037 A 
ATOM     27  C   UNL A   1      40.655  28.244  29.329  1.00  0.00     0.037 A 
ATOM     28  C   UNL A   1      42.831  32.364  33.908  1.00  0.00     0.049 A 
ATOM     29  C   UNL A   1      41.860  28.250  30.220  1.00  0.00     0.074 A 
ATOM     30  C   UNL A   1      43.961  32.229  34.695  1.00  0.00     0.029 A 
ATOM     31  N   UNL A   1      42.800  31.259  33.067  1.00  0.00    -0.354 N 
ATOM     32  N   UNL A   1      42.206  29.120  31.138  1.00  0.00    -0.248 NA
ATOM     33  C   UNL A   1      42.798  27.132  30.064  1.00  0.00     0.031 C 
ATOM     34  C   UNL A   1      44.641  31.072  34.299  1.00  0.00     0.029 A 
ATOM     35  C   UNL A   1      43.902  30.450  33.306  1.00  0.00     0.049 A 
ATOM     36  H   UNL A   1      42.100  31.076  32.400  1.00  0.00     0.167 HD
ATOM     37  C   UNL A   1      43.394  28.650  31.676  1.00  0.00     0.074 A 
ATOM     38  C   UNL A   1      43.685  27.397  31.009  1.00  0.00     0.031 C 
ATOM     39  C   UNL A   1      44.181  29.209  32.628  1.00  0.00     0.037 A 
BRANCH  26  40
ATOM     40  C   UNL A   1      42.042  34.557  34.880  1.00  0.00     0.057 A 
ATOM     41  C   UNL A   1      41.507  34.526  36.174  1.00  0.00     0.134 A 
ATOM     42  C   UNL A   1      42.826  35.667  34.535  1.00  0.00     0.134 A 
ATOM     43  F   UNL A   1      40.739  33.499  36.568  1.00  0.00    -0.206 F 
ATOM     44  C   UNL A   1      41.731  35.562  37.084  1.00  0.00     0.040 A 
ATOM     45  C   UNL A   1      43.080  36.696  35.445  1.00  0.00     0.040 A 
ATOM     46  F   UNL A   1      43.376  35.760  33.315  1.00  0.00    -0.206 F 
ATOM     47  C   UNL A   1      42.528  36.647  36.723  1.00  0.00     0.006 A 
ENDBRANCH  26  40
BRANCH  27  48
ATOM     48  C   UNL A   1      40.434  27.165  28.334  1.00  0.00     0.057 A 
ATOM     49  C   UNL A   1      41.027  27.204  27.067  1.00  0.00     0.134 A 
ATOM     50  C   UNL A   1      39.611  26.070  28.627  1.00  0.00     0.134 A 
ATOM     51  F   UNL A   1      41.817  28.231  26.722  1.00  0.00    -0.206 F 
ATOM     52  C   UNL A   1      40.785  26.210  26.118  1.00  0.00     0.040 A 
ATOM     53  C   UNL A   1      39.391  25.051  27.702  1.00  0.00     0.040 A 
ATOM     54  F   UNL A   1      39.023  25.965  29.828  1.00  0.00    -0.206 F 
ATOM     55  C   UNL A   1      39.968  25.126  26.437  1.00  0.00     0.006 A 
ENDBRANCH  27  48
BRANCH  39  56
ATOM     56  C   UNL A   1      45.413  28.444  33.016  1.00  0.00     0.057 A 
ATOM     57  C   UNL A   1      46.638  28.629  32.360  1.00  0.00     0.134 A 
ATOM     58  C   UNL A   1      45.371  27.501  34.051  1.00  0.00     0.134 A 
ATOM     59  F   UNL A   1      46.743  29.505  31.348  1.00  0.00    -0.206 F 
ATOM     60  C   UNL A   1      47.764  27.874  32.691  1.00  0.00     0.040 A 
ATOM     61  C   UNL A   1      46.500  26.766  34.415  1.00  0.00     0.040 A 
ATOM     62  F   UNL A   1      44.234  27.280  34.727  1.00  0.00    -0.206 F 
ATOM     63  C   UNL A   1      47.697  26.942  33.724  1.00  0.00     0.006 A 
ENDBRANCH  39  56
ENDBRANCH  13  14
ENDBRANCH   6   8
ENDBRANCH   3   4
ENDBRANCH   2   3
ENDBRANCH   1   2
BRANCH   1  64
ATOM     64  C   UNL A   1      33.710  29.584  26.532  1.00  0.00     0.002 C 
BRANCH  64  65
ATOM     65  C   UNL A   1      33.022  28.305  27.020  1.00  0.00     0.021 C 
BRANCH  65  66
ATOM     66  C   UNL A   1      31.520  28.272  26.718  1.00  0.00     0.116 C 
BRANCH  66  67
ATOM     67  N   UNL A   1      31.021  26.920  26.831  1.00  0.00    -0.355 N 
ATOM     68  C   UNL A   1      30.441  26.109  25.907  1.00  0.00     0.230 C 
ATOM     69  H   UNL A   1      31.119  26.519  27.725  1.00  0.00     0.163 HD
ATOM     70  O   UNL A   1      29.654  25.289  26.395  1.00  0.00    -0.274 OA
BRANCH  68  71
ATOM     71  C   UNL A   1      30.840  26.046  24.395  1.00  0.00     0.077 C 
ATOM     72  C   UNL A   1      30.272  24.732  23.775  1.00  0.00     0.038 C 
ATOM     73  C   UNL A   1      32.385  25.947  24.343  1.00  0.00     0.038 C 
ATOM     74  C   UNL A   1      30.904  23.435  24.292  1.00  0.00     0.104 C 
ATOM     75  C   UNL A   1      32.932  24.659  24.945  1.00  0.00     0.104 C 
ATOM     76  N   UNL A   1      32.390  23.487  24.217  1.00  0.00    -0.197 NA
BRANCH  71  77
ATOM     77  C   UNL A   1      30.311  27.250  23.576  1.00  0.00    -0.032 A 
ATOM     78  C   UNL A   1      31.172  28.195  22.973  1.00  0.00     0.005 A 
ATOM     79  C   UNL A   1      28.928  27.499  23.493  1.00  0.00     0.005 A 
ATOM     80  C   UNL A   1      30.681  29.378  22.412  1.00  0.00     0.000 A 
ATOM     81  C   UNL A   1      28.437  28.681  22.923  1.00  0.00     0.000 A 
ATOM     82  C   UNL A   1      29.315  29.630  22.406  1.00  0.00     0.000 A 
ENDBRANCH  71  77
BRANCH  76  83
ATOM     83  S   UNL A   1      33.096  21.988  24.716  1.00  0.00     0.252 S 
ATOM     84  O   UNL A   1      33.007  21.919  26.158  1.00  0.00    -0.206 OA
ATOM     85  O   UNL A   1      32.557  20.936  23.876  1.00  0.00    -0.206 OA
BRANCH  83  86
ATOM     86  C   UNL A   1      34.849  22.085  24.387  1.00  0.00     0.135 A 
ATOM     87  C   UNL A   1      35.564  22.841  23.472  1.00  0.00     0.033 A 
ATOM     88  S   UNL A   1      35.888  21.104  25.326  1.00  0.00    -0.131 S 
ATOM     89  C   UNL A   1      36.963  22.583  23.523  1.00  0.00     0.013 A 
ATOM     90  C   UNL A   1      37.277  21.674  24.507  1.00  0.00     0.066 A 
ENDBRANCH  83  86
ENDBRANCH  76  83
ENDBRANCH  68  71
ENDBRANCH  66  67
ENDBRANCH  65  66
ENDBRANCH  64  65
ENDBRANCH   1  64
TORSDOF 16
ENDMDL
