MODEL 1
REMARK VINA RESULT:     -11.2      0.000      0.000
REMARK SMILES C[C@H](CCc1ccco1)NC(=O)c1cccn1CC(=O)NCCCCCCNC(=O)c1ccc(-c2c3nc(c(-c4c(F)cccc4F)c4ccc([nH]4)c(-c4c(F)cccc4F)c4nc(c(-c5c(F)cccc5F)c5ccc2[nH]5)C=C4)C=C3)cc1
REMARK SMILES IDX 22 1 21 2 19 3 20 4 18 6 17 7 13 8 14 9 15 10 16 11 11 12
REMARK SMILES IDX 10 13 12 15 2 16 1 17 3 18 4 19 5 20 6 21 9 22 7 23 8 24
REMARK SMILES IDX 23 25 24 26 25 27 26 28 27 29 28 30 29 31 30 33 31 34 32 35
REMARK SMILES IDX 84 36 33 37 83 38 34 39 35 40 36 41 77 42 37 43 82 44 76 45
REMARK SMILES IDX 78 46 38 47 81 48 75 49 74 50 39 52 65 53 48 54 64 55 49 56
REMARK SMILES IDX 52 57 63 58 79 59 50 60 51 61 62 63 80 64 53 65 40 66 41 67
REMARK SMILES IDX 46 68 42 69 43 70 45 71 47 72 44 73 66 74 67 75 72 76 68 77
REMARK SMILES IDX 69 78 71 79 73 80 70 81 54 82 55 83 60 84 56 85 57 86 59 87
REMARK SMILES IDX 61 88 58 89
REMARK H PARENT 21 5 10 14 28 32 78 51 52 62
REMARK Flexibility Score: inf
ROOT
ATOM      1  C   UNL A   1      33.696  27.856  23.822  1.00  0.00     0.116 C 
ENDROOT
BRANCH   1   2
ATOM      2  N   UNL A   1      33.663  26.824  22.808  1.00  0.00    -0.355 N 
ATOM      3  C   UNL A   1      33.414  25.486  22.952  1.00  0.00     0.239 C 
ATOM      4  O   UNL A   1      33.552  24.762  21.964  1.00  0.00    -0.273 OA
ATOM      5  H   UNL A   1      33.843  27.125  21.888  1.00  0.00     0.163 HD
BRANCH   3   6
ATOM      6  C   UNL A   1      32.907  24.935  24.270  1.00  0.00     0.222 C 
BRANCH   6   7
ATOM      7  N   UNL A   1      33.904  24.186  25.026  1.00  0.00    -0.334 N 
ATOM      8  C   UNL A   1      33.674  23.025  25.751  1.00  0.00     0.107 A 
ATOM      9  C   UNL A   1      34.910  22.634  26.249  1.00  0.00     0.033 A 
ATOM     10  C   UNL A   1      35.876  23.595  25.874  1.00  0.00     0.020 A 
ATOM     11  C   UNL A   1      35.230  24.534  25.108  1.00  0.00     0.087 A 
BRANCH   8  12
ATOM     12  C   UNL A   1      32.365  22.400  25.877  1.00  0.00     0.268 C 
ATOM     13  N   UNL A   1      31.994  21.432  24.969  1.00  0.00    -0.348 N 
ATOM     14  H   UNL A   1      31.191  20.914  25.205  1.00  0.00     0.164 HD
ATOM     15  O   UNL A   1      31.610  22.616  26.810  1.00  0.00    -0.268 OA
BRANCH  13  16
ATOM     16  C   UNL A   1      32.628  21.070  23.707  1.00  0.00     0.079 C 
ATOM     17  C   UNL A   1      31.904  21.855  22.620  1.00  0.00     0.031 C 
BRANCH  16  18
ATOM     18  C   UNL A   1      32.756  19.528  23.575  1.00  0.00     0.032 C 
BRANCH  18  19
ATOM     19  C   UNL A   1      32.341  18.611  24.732  1.00  0.00     0.077 C 
BRANCH  19  20
ATOM     20  C   UNL A   1      33.143  17.367  24.722  1.00  0.00     0.103 A 
ATOM     21  C   UNL A   1      34.374  17.067  24.182  1.00  0.00     0.045 A 
ATOM     22  O   UNL A   1      32.731  16.366  25.553  1.00  0.00    -0.469 OA
ATOM     23  C   UNL A   1      34.835  15.951  24.919  1.00  0.00     0.042 A 
ATOM     24  C   UNL A   1      33.774  15.506  25.666  1.00  0.00     0.195 A 
ENDBRANCH  19  20
ENDBRANCH  18  19
ENDBRANCH  16  18
ENDBRANCH  13  16
ENDBRANCH   8  12
ENDBRANCH   6   7
ENDBRANCH   3   6
ENDBRANCH   1   2
BRANCH   1  25
ATOM     25  C   UNL A   1      32.393  28.654  23.832  1.00  0.00     0.021 C 
BRANCH  25  26
ATOM     26  C   UNL A   1      31.578  28.515  25.122  1.00  0.00     0.002 C 
BRANCH  26  27
ATOM     27  C   UNL A   1      32.350  27.988  26.340  1.00  0.00     0.002 C 
BRANCH  27  28
ATOM     28  C   UNL A   1      33.042  29.054  27.202  1.00  0.00     0.021 C 
BRANCH  28  29
ATOM     29  C   UNL A   1      34.572  29.003  27.151  1.00  0.00     0.116 C 
BRANCH  29  30
ATOM     30  N   UNL A   1      35.120  30.343  27.266  1.00  0.00    -0.352 N 
ATOM     31  C   UNL A   1      36.221  30.807  27.932  1.00  0.00     0.251 C 
ATOM     32  H   UNL A   1      34.614  31.036  26.781  1.00  0.00     0.163 HD
ATOM     33  O   UNL A   1      36.274  32.004  28.205  1.00  0.00    -0.269 OA
BRANCH  31  34
ATOM     34  C   UNL A   1      37.343  29.928  28.331  1.00  0.00     0.039 A 
ATOM     35  C   UNL A   1      38.445  29.860  27.465  1.00  0.00     0.014 A 
ATOM     36  C   UNL A   1      37.284  29.086  29.447  1.00  0.00     0.014 A 
ATOM     37  C   UNL A   1      39.499  28.992  27.735  1.00  0.00     0.010 A 
ATOM     38  C   UNL A   1      38.348  28.227  29.732  1.00  0.00     0.010 A 
ATOM     39  C   UNL A   1      39.465  28.194  28.885  1.00  0.00    -0.014 A 
BRANCH  39  40
ATOM     40  C   UNL A   1      40.707  27.489  29.295  1.00  0.00     0.031 A 
ATOM     41  C   UNL A   1      40.970  26.236  28.415  1.00  0.00     0.074 A 
ATOM     42  C   UNL A   1      41.403  28.015  30.352  1.00  0.00     0.049 A 
ATOM     43  N   UNL A   1      41.802  25.252  28.576  1.00  0.00    -0.248 NA
ATOM     44  C   UNL A   1      40.170  26.037  27.174  1.00  0.00     0.031 C 
ATOM     45  C   UNL A   1      41.027  29.249  31.078  1.00  0.00     0.029 A 
ATOM     46  N   UNL A   1      42.543  27.638  31.041  1.00  0.00    -0.354 N 
ATOM     47  C   UNL A   1      41.782  24.452  27.399  1.00  0.00     0.074 A 
ATOM     48  C   UNL A   1      40.688  24.937  26.620  1.00  0.00     0.031 C 
ATOM     49  C   UNL A   1      41.846  29.463  32.132  1.00  0.00     0.029 A 
ATOM     50  C   UNL A   1      42.854  28.421  32.192  1.00  0.00     0.049 A 
ATOM     51  H   UNL A   1      43.102  26.880  30.755  1.00  0.00     0.167 HD
ATOM     52  C   UNL A   1      42.753  23.524  27.116  1.00  0.00     0.037 A 
ATOM     53  C   UNL A   1      43.832  28.231  33.136  1.00  0.00     0.037 A 
ATOM     54  C   UNL A   1      43.623  23.417  28.230  1.00  0.00     0.049 A 
ATOM     55  C   UNL A   1      44.698  27.190  32.577  1.00  0.00     0.074 A 
ATOM     56  C   UNL A   1      43.448  22.827  29.449  1.00  0.00     0.029 A 
ATOM     57  N   UNL A   1      44.706  24.258  28.264  1.00  0.00    -0.354 N 
ATOM     58  N   UNL A   1      45.547  27.390  31.615  1.00  0.00    -0.248 NA
ATOM     59  C   UNL A   1      44.586  25.818  33.084  1.00  0.00     0.031 C 
ATOM     60  C   UNL A   1      44.140  23.688  30.314  1.00  0.00     0.029 A 
ATOM     61  C   UNL A   1      44.903  24.602  29.575  1.00  0.00     0.049 A 
ATOM     62  H   UNL A   1      45.241  24.556  27.493  1.00  0.00     0.167 HD
ATOM     63  C   UNL A   1      45.782  26.111  31.181  1.00  0.00     0.074 A 
ATOM     64  C   UNL A   1      45.484  25.236  32.294  1.00  0.00     0.031 C 
ATOM     65  C   UNL A   1      45.609  25.825  29.864  1.00  0.00     0.037 A 
BRANCH  52  66
ATOM     66  C   UNL A   1      43.200  22.793  25.870  1.00  0.00     0.057 A 
ATOM     67  C   UNL A   1      43.331  21.384  25.895  1.00  0.00     0.134 A 
ATOM     68  C   UNL A   1      43.853  23.413  24.816  1.00  0.00     0.134 A 
ATOM     69  F   UNL A   1      42.643  20.640  26.777  1.00  0.00    -0.206 F 
ATOM     70  C   UNL A   1      44.221  20.690  25.070  1.00  0.00     0.040 A 
ATOM     71  C   UNL A   1      44.750  22.740  23.973  1.00  0.00     0.040 A 
ATOM     72  F   UNL A   1      43.655  24.705  24.588  1.00  0.00    -0.206 F 
ATOM     73  C   UNL A   1      44.977  21.380  24.134  1.00  0.00     0.006 A 
ENDBRANCH  52  66
BRANCH  53  74
ATOM     74  C   UNL A   1      44.247  28.736  34.506  1.00  0.00     0.057 A 
ATOM     75  C   UNL A   1      43.626  28.444  35.721  1.00  0.00     0.134 A 
ATOM     76  C   UNL A   1      45.430  29.523  34.653  1.00  0.00     0.134 A 
ATOM     77  F   UNL A   1      42.444  27.820  35.766  1.00  0.00    -0.206 F 
ATOM     78  C   UNL A   1      44.193  28.798  36.967  1.00  0.00     0.040 A 
ATOM     79  C   UNL A   1      46.028  29.836  35.876  1.00  0.00     0.040 A 
ATOM     80  F   UNL A   1      46.084  30.035  33.603  1.00  0.00    -0.206 F 
ATOM     81  C   UNL A   1      45.417  29.455  37.050  1.00  0.00     0.006 A 
ENDBRANCH  53  74
BRANCH  65  82
ATOM     82  C   UNL A   1      45.810  27.016  28.941  1.00  0.00     0.057 A 
ATOM     83  C   UNL A   1      47.068  27.633  28.872  1.00  0.00     0.134 A 
ATOM     84  C   UNL A   1      44.786  27.660  28.229  1.00  0.00     0.134 A 
ATOM     85  F   UNL A   1      48.122  27.083  29.496  1.00  0.00    -0.206 F 
ATOM     86  C   UNL A   1      47.282  28.832  28.179  1.00  0.00     0.040 A 
ATOM     87  C   UNL A   1      44.984  28.857  27.525  1.00  0.00     0.040 A 
ATOM     88  F   UNL A   1      43.552  27.159  28.193  1.00  0.00    -0.206 F 
ATOM     89  C   UNL A   1      46.236  29.455  27.508  1.00  0.00     0.006 A 
ENDBRANCH  65  82
ENDBRANCH  39  40
ENDBRANCH  31  34
ENDBRANCH  29  30
ENDBRANCH  28  29
ENDBRANCH  27  28
ENDBRANCH  26  27
ENDBRANCH  25  26
ENDBRANCH   1  25
TORSDOF 19
ENDMDL
MODEL 2
REMARK VINA RESULT:     -11.0      1.729      2.276
REMARK SMILES C[C@H](CCc1ccco1)NC(=O)c1cccn1CC(=O)NCCCCCCNC(=O)c1ccc(-c2c3nc(c(-c4c(F)cccc4F)c4ccc([nH]4)c(-c4c(F)cccc4F)c4nc(c(-c5c(F)cccc5F)c5ccc2[nH]5)C=C4)C=C3)cc1
REMARK SMILES IDX 22 1 21 2 19 3 20 4 18 6 17 7 13 8 14 9 15 10 16 11 11 12
REMARK SMILES IDX 10 13 12 15 2 16 1 17 3 18 4 19 5 20 6 21 9 22 7 23 8 24
REMARK SMILES IDX 23 25 24 26 25 27 26 28 27 29 28 30 29 31 30 33 31 34 32 35
REMARK SMILES IDX 84 36 33 37 83 38 34 39 35 40 36 41 77 42 37 43 82 44 76 45
REMARK SMILES IDX 78 46 38 47 81 48 75 49 74 50 39 52 65 53 48 54 64 55 49 56
REMARK SMILES IDX 52 57 63 58 79 59 50 60 51 61 62 63 80 64 53 65 40 66 41 67
REMARK SMILES IDX 46 68 42 69 43 70 45 71 47 72 44 73 66 74 67 75 72 76 68 77
REMARK SMILES IDX 69 78 71 79 73 80 70 81 54 82 55 83 60 84 56 85 57 86 59 87
REMARK SMILES IDX 61 88 58 89
REMARK H PARENT 21 5 10 14 28 32 78 51 52 62
REMARK Flexibility Score: inf
ROOT
ATOM      1  C   UNL A   1      33.613  28.183  22.703  1.00  0.00     0.116 C 
ENDROOT
BRANCH   1   2
ATOM      2  N   UNL A   1      33.330  27.316  21.580  1.00  0.00    -0.355 N 
ATOM      3  C   UNL A   1      33.180  25.956  21.561  1.00  0.00     0.239 C 
ATOM      4  O   UNL A   1      33.057  25.402  20.466  1.00  0.00    -0.273 OA
ATOM      5  H   UNL A   1      33.231  27.765  20.708  1.00  0.00     0.163 HD
BRANCH   3   6
ATOM      6  C   UNL A   1      33.087  25.173  22.855  1.00  0.00     0.222 C 
BRANCH   6   7
ATOM      7  N   UNL A   1      31.842  25.378  23.587  1.00  0.00    -0.334 N 
ATOM      8  C   UNL A   1      31.628  25.086  24.927  1.00  0.00     0.107 A 
ATOM      9  C   UNL A   1      30.331  25.497  25.205  1.00  0.00     0.033 A 
ATOM     10  C   UNL A   1      29.742  25.981  24.015  1.00  0.00     0.020 A 
ATOM     11  C   UNL A   1      30.702  25.908  23.035  1.00  0.00     0.087 A 
BRANCH   8  12
ATOM     12  C   UNL A   1      32.638  24.497  25.795  1.00  0.00     0.268 C 
ATOM     13  N   UNL A   1      32.781  23.126  25.821  1.00  0.00    -0.348 N 
ATOM     14  H   UNL A   1      33.590  22.793  26.273  1.00  0.00     0.164 HD
ATOM     15  O   UNL A   1      33.438  25.160  26.433  1.00  0.00    -0.268 OA
BRANCH  13  16
ATOM     16  C   UNL A   1      31.901  22.103  25.271  1.00  0.00     0.079 C 
ATOM     17  C   UNL A   1      30.620  22.148  26.095  1.00  0.00     0.031 C 
BRANCH  16  18
ATOM     18  C   UNL A   1      32.654  20.755  25.108  1.00  0.00     0.032 C 
BRANCH  18  19
ATOM     19  C   UNL A   1      32.336  19.824  23.931  1.00  0.00     0.077 C 
BRANCH  19  20
ATOM     20  C   UNL A   1      32.778  18.443  24.227  1.00  0.00     0.103 A 
ATOM     21  C   UNL A   1      33.977  17.795  24.028  1.00  0.00     0.045 A 
ATOM     22  O   UNL A   1      31.959  17.694  25.020  1.00  0.00    -0.469 OA
ATOM     23  C   UNL A   1      33.972  16.725  24.952  1.00  0.00     0.042 A 
ATOM     24  C   UNL A   1      32.700  16.646  25.458  1.00  0.00     0.195 A 
ENDBRANCH  19  20
ENDBRANCH  18  19
ENDBRANCH  16  18
ENDBRANCH  13  16
ENDBRANCH   8  12
ENDBRANCH   6   7
ENDBRANCH   3   6
ENDBRANCH   1   2
BRANCH   1  25
ATOM     25  C   UNL A   1      32.386  29.016  23.073  1.00  0.00     0.021 C 
BRANCH  25  26
ATOM     26  C   UNL A   1      32.054  29.020  24.568  1.00  0.00     0.002 C 
BRANCH  26  27
ATOM     27  C   UNL A   1      33.070  28.309  25.474  1.00  0.00     0.002 C 
BRANCH  27  28
ATOM     28  C   UNL A   1      33.375  29.004  26.808  1.00  0.00     0.021 C 
BRANCH  28  29
ATOM     29  C   UNL A   1      34.850  28.959  27.214  1.00  0.00     0.116 C 
BRANCH  29  30
ATOM     30  N   UNL A   1      35.361  30.308  27.390  1.00  0.00    -0.352 N 
ATOM     31  C   UNL A   1      36.477  30.766  28.034  1.00  0.00     0.251 C 
ATOM     32  H   UNL A   1      34.811  31.011  26.973  1.00  0.00     0.163 HD
ATOM     33  O   UNL A   1      36.505  31.946  28.381  1.00  0.00    -0.269 OA
BRANCH  31  34
ATOM     34  C   UNL A   1      37.643  29.903  28.327  1.00  0.00     0.039 A 
ATOM     35  C   UNL A   1      38.609  29.767  27.320  1.00  0.00     0.014 A 
ATOM     36  C   UNL A   1      37.742  29.136  29.493  1.00  0.00     0.014 A 
ATOM     37  C   UNL A   1      39.690  28.908  27.494  1.00  0.00     0.010 A 
ATOM     38  C   UNL A   1      38.835  28.286  29.680  1.00  0.00     0.010 A 
ATOM     39  C   UNL A   1      39.820  28.186  28.687  1.00  0.00    -0.014 A 
BRANCH  39  40
ATOM     40  C   UNL A   1      41.106  27.496  28.962  1.00  0.00     0.031 A 
ATOM     41  C   UNL A   1      41.054  26.001  28.543  1.00  0.00     0.074 A 
ATOM     42  C   UNL A   1      42.105  28.242  29.532  1.00  0.00     0.049 A 
ATOM     43  N   UNL A   1      41.866  25.023  28.806  1.00  0.00    -0.248 NA
ATOM     44  C   UNL A   1      39.909  25.514  27.722  1.00  0.00     0.031 C 
ATOM     45  C   UNL A   1      42.003  29.684  29.850  1.00  0.00     0.029 A 
ATOM     46  N   UNL A   1      43.389  27.964  29.968  1.00  0.00    -0.354 N 
ATOM     47  C   UNL A   1      41.467  23.892  28.040  1.00  0.00     0.074 A 
ATOM     48  C   UNL A   1      40.203  24.236  27.471  1.00  0.00     0.031 C 
ATOM     49  C   UNL A   1      43.108  30.120  30.494  1.00  0.00     0.029 A 
ATOM     50  C   UNL A   1      44.056  29.031  30.637  1.00  0.00     0.049 A 
ATOM     51  H   UNL A   1      43.813  27.086  29.827  1.00  0.00     0.167 HD
ATOM     52  C   UNL A   1      42.280  22.802  27.847  1.00  0.00     0.037 A 
ATOM     53  C   UNL A   1      45.269  29.032  31.281  1.00  0.00     0.037 A 
ATOM     54  C   UNL A   1      43.443  22.950  28.643  1.00  0.00     0.049 A 
ATOM     55  C   UNL A   1      45.894  27.761  30.910  1.00  0.00     0.074 A 
ATOM     56  C   UNL A   1      43.628  22.821  29.990  1.00  0.00     0.029 A 
ATOM     57  N   UNL A   1      44.509  23.605  28.081  1.00  0.00    -0.354 N 
ATOM     58  N   UNL A   1      46.417  27.520  29.746  1.00  0.00    -0.248 NA
ATOM     59  C   UNL A   1      45.901  26.658  31.878  1.00  0.00     0.031 C 
ATOM     60  C   UNL A   1      44.574  23.818  30.271  1.00  0.00     0.029 A 
ATOM     61  C   UNL A   1      45.104  24.330  29.079  1.00  0.00     0.049 A 
ATOM     62  H   UNL A   1      44.793  23.560  27.139  1.00  0.00     0.167 HD
ATOM     63  C   UNL A   1      46.472  26.150  29.744  1.00  0.00     0.074 A 
ATOM     64  C   UNL A   1      46.501  25.736  31.130  1.00  0.00     0.031 C 
ATOM     65  C   UNL A   1      45.900  25.475  28.714  1.00  0.00     0.037 A 
BRANCH  52  66
ATOM     66  C   UNL A   1      42.306  21.651  26.867  1.00  0.00     0.057 A 
ATOM     67  C   UNL A   1      41.777  20.395  27.248  1.00  0.00     0.134 A 
ATOM     68  C   UNL A   1      43.141  21.611  25.761  1.00  0.00     0.134 A 
ATOM     69  F   UNL A   1      40.850  20.299  28.215  1.00  0.00    -0.206 F 
ATOM     70  C   UNL A   1      42.227  19.186  26.708  1.00  0.00     0.040 A 
ATOM     71  C   UNL A   1      43.606  20.413  25.198  1.00  0.00     0.040 A 
ATOM     72  F   UNL A   1      43.550  22.744  25.205  1.00  0.00    -0.206 F 
ATOM     73  C   UNL A   1      43.188  19.191  25.709  1.00  0.00     0.006 A 
ENDBRANCH  52  66
BRANCH  53  74
ATOM     74  C   UNL A   1      46.094  29.898  32.216  1.00  0.00     0.057 A 
ATOM     75  C   UNL A   1      45.697  30.385  33.462  1.00  0.00     0.134 A 
ATOM     76  C   UNL A   1      47.449  30.215  31.893  1.00  0.00     0.134 A 
ATOM     77  F   UNL A   1      44.430  30.287  33.877  1.00  0.00    -0.206 F 
ATOM     78  C   UNL A   1      46.597  31.020  34.350  1.00  0.00     0.040 A 
ATOM     79  C   UNL A   1      48.362  30.794  32.778  1.00  0.00     0.040 A 
ATOM     80  F   UNL A   1      47.972  29.971  30.685  1.00  0.00    -0.206 F 
ATOM     81  C   UNL A   1      47.941  31.186  34.029  1.00  0.00     0.006 A 
ENDBRANCH  53  74
BRANCH  65  82
ATOM     82  C   UNL A   1      45.846  26.260  27.413  1.00  0.00     0.057 A 
ATOM     83  C   UNL A   1      47.041  26.653  26.792  1.00  0.00     0.134 A 
ATOM     84  C   UNL A   1      44.673  26.761  26.827  1.00  0.00     0.134 A 
ATOM     85  F   UNL A   1      48.219  26.207  27.258  1.00  0.00    -0.206 F 
ATOM     86  C   UNL A   1      47.069  27.519  25.691  1.00  0.00     0.040 A 
ATOM     87  C   UNL A   1      44.682  27.624  25.721  1.00  0.00     0.040 A 
ATOM     88  F   UNL A   1      43.472  26.439  27.306  1.00  0.00    -0.206 F 
ATOM     89  C   UNL A   1      45.886  28.017  25.155  1.00  0.00     0.006 A 
ENDBRANCH  65  82
ENDBRANCH  39  40
ENDBRANCH  31  34
ENDBRANCH  29  30
ENDBRANCH  28  29
ENDBRANCH  27  28
ENDBRANCH  26  27
ENDBRANCH  25  26
ENDBRANCH   1  25
TORSDOF 19
ENDMDL
MODEL 3
REMARK VINA RESULT:     -10.8      3.848      5.841
REMARK SMILES C[C@H](CCc1ccco1)NC(=O)c1cccn1CC(=O)NCCCCCCNC(=O)c1ccc(-c2c3nc(c(-c4c(F)cccc4F)c4ccc([nH]4)c(-c4c(F)cccc4F)c4nc(c(-c5c(F)cccc5F)c5ccc2[nH]5)C=C4)C=C3)cc1
REMARK SMILES IDX 22 1 21 2 19 3 20 4 18 6 17 7 13 8 14 9 15 10 16 11 11 12
REMARK SMILES IDX 10 13 12 15 2 16 1 17 3 18 4 19 5 20 6 21 9 22 7 23 8 24
REMARK SMILES IDX 23 25 24 26 25 27 26 28 27 29 28 30 29 31 30 33 31 34 32 35
REMARK SMILES IDX 84 36 33 37 83 38 34 39 35 40 36 41 77 42 37 43 82 44 76 45
REMARK SMILES IDX 78 46 38 47 81 48 75 49 74 50 39 52 65 53 48 54 64 55 49 56
REMARK SMILES IDX 52 57 63 58 79 59 50 60 51 61 62 63 80 64 53 65 40 66 41 67
REMARK SMILES IDX 46 68 42 69 43 70 45 71 47 72 44 73 66 74 67 75 72 76 68 77
REMARK SMILES IDX 69 78 71 79 73 80 70 81 54 82 55 83 60 84 56 85 57 86 59 87
REMARK SMILES IDX 61 88 58 89
REMARK H PARENT 21 5 10 14 28 32 78 51 52 62
REMARK Flexibility Score: inf
ROOT
ATOM      1  C   UNL A   1      32.807  28.308  22.770  1.00  0.00     0.116 C 
ENDROOT
BRANCH   1   2
ATOM      2  N   UNL A   1      32.818  27.430  21.620  1.00  0.00    -0.355 N 
ATOM      3  C   UNL A   1      33.150  26.104  21.555  1.00  0.00     0.239 C 
ATOM      4  O   UNL A   1      33.203  25.575  20.442  1.00  0.00    -0.273 OA
ATOM      5  H   UNL A   1      32.550  27.842  20.767  1.00  0.00     0.163 HD
BRANCH   3   6
ATOM      6  C   UNL A   1      33.364  25.300  22.822  1.00  0.00     0.222 C 
BRANCH   6   7
ATOM      7  N   UNL A   1      32.215  25.286  23.720  1.00  0.00    -0.334 N 
ATOM      8  C   UNL A   1      32.253  25.474  25.094  1.00  0.00     0.107 A 
ATOM      9  C   UNL A   1      30.932  25.439  25.521  1.00  0.00     0.033 A 
ATOM     10  C   UNL A   1      30.102  25.169  24.410  1.00  0.00     0.020 A 
ATOM     11  C   UNL A   1      30.919  25.092  23.309  1.00  0.00     0.087 A 
BRANCH   8  12
ATOM     12  C   UNL A   1      33.482  25.690  25.844  1.00  0.00     0.268 C 
ATOM     13  N   UNL A   1      34.264  24.605  26.175  1.00  0.00    -0.348 N 
ATOM     14  H   UNL A   1      35.165  24.818  26.512  1.00  0.00     0.164 HD
ATOM     15  O   UNL A   1      33.913  26.799  26.114  1.00  0.00    -0.268 OA
BRANCH  13  16
ATOM     16  C   UNL A   1      33.942  23.185  26.095  1.00  0.00     0.079 C 
ATOM     17  C   UNL A   1      34.000  22.649  27.520  1.00  0.00     0.031 C 
BRANCH  16  18
ATOM     18  C   UNL A   1      34.777  22.490  24.986  1.00  0.00     0.032 C 
BRANCH  18  19
ATOM     19  C   UNL A   1      35.880  23.259  24.246  1.00  0.00     0.077 C 
BRANCH  19  20
ATOM     20  C   UNL A   1      37.181  23.087  24.932  1.00  0.00     0.103 A 
ATOM     21  C   UNL A   1      37.863  23.878  25.828  1.00  0.00     0.045 A 
ATOM     22  O   UNL A   1      37.755  21.852  24.854  1.00  0.00    -0.469 OA
ATOM     23  C   UNL A   1      38.734  22.996  26.507  1.00  0.00     0.042 A 
ATOM     24  C   UNL A   1      38.704  21.808  25.823  1.00  0.00     0.195 A 
ENDBRANCH  19  20
ENDBRANCH  18  19
ENDBRANCH  16  18
ENDBRANCH  13  16
ENDBRANCH   8  12
ENDBRANCH   6   7
ENDBRANCH   3   6
ENDBRANCH   1   2
BRANCH   1  25
ATOM     25  C   UNL A   1      31.412  28.887  23.001  1.00  0.00     0.021 C 
BRANCH  25  26
ATOM     26  C   UNL A   1      31.020  29.019  24.476  1.00  0.00     0.002 C 
BRANCH  26  27
ATOM     27  C   UNL A   1      32.083  29.644  25.391  1.00  0.00     0.002 C 
BRANCH  27  28
ATOM     28  C   UNL A   1      31.617  30.837  26.237  1.00  0.00     0.021 C 
BRANCH  28  29
ATOM     29  C   UNL A   1      32.678  31.371  27.204  1.00  0.00     0.116 C 
BRANCH  29  30
ATOM     30  N   UNL A   1      32.521  32.805  27.375  1.00  0.00    -0.352 N 
ATOM     31  C   UNL A   1      33.158  33.682  28.209  1.00  0.00     0.251 C 
ATOM     32  H   UNL A   1      31.843  33.215  26.790  1.00  0.00     0.163 HD
ATOM     33  O   UNL A   1      32.608  34.755  28.454  1.00  0.00    -0.269 OA
BRANCH  31  34
ATOM     34  C   UNL A   1      34.473  33.392  28.823  1.00  0.00     0.039 A 
ATOM     35  C   UNL A   1      34.477  32.630  30.001  1.00  0.00     0.014 A 
ATOM     36  C   UNL A   1      35.667  33.949  28.351  1.00  0.00     0.014 A 
ATOM     37  C   UNL A   1      35.669  32.388  30.677  1.00  0.00     0.010 A 
ATOM     38  C   UNL A   1      36.868  33.693  29.017  1.00  0.00     0.010 A 
ATOM     39  C   UNL A   1      36.872  32.896  30.170  1.00  0.00    -0.014 A 
BRANCH  39  40
ATOM     40  C   UNL A   1      38.148  32.401  30.746  1.00  0.00     0.031 A 
ATOM     41  C   UNL A   1      38.648  31.123  30.016  1.00  0.00     0.074 A 
ATOM     42  C   UNL A   1      38.670  33.103  31.801  1.00  0.00     0.049 A 
ATOM     43  N   UNL A   1      39.577  30.276  30.338  1.00  0.00    -0.248 NA
ATOM     44  C   UNL A   1      37.998  30.714  28.738  1.00  0.00     0.031 C 
ATOM     45  C   UNL A   1      38.077  34.332  32.371  1.00  0.00     0.029 A 
ATOM     46  N   UNL A   1      39.780  32.942  32.613  1.00  0.00    -0.354 N 
ATOM     47  C   UNL A   1      39.768  29.384  29.247  1.00  0.00     0.074 A 
ATOM     48  C   UNL A   1      38.700  29.651  28.337  1.00  0.00     0.031 C 
ATOM     49  C   UNL A   1      38.760  34.743  33.463  1.00  0.00     0.029 A 
ATOM     50  C   UNL A   1      39.881  33.854  33.705  1.00  0.00     0.049 A 
ATOM     51  H   UNL A   1      40.454  32.243  32.449  1.00  0.00     0.167 HD
ATOM     52  C   UNL A   1      40.871  28.573  29.134  1.00  0.00     0.037 A 
ATOM     53  C   UNL A   1      40.783  33.877  34.739  1.00  0.00     0.037 A 
ATOM     54  C   UNL A   1      41.640  28.678  30.320  1.00  0.00     0.049 A 
ATOM     55  C   UNL A   1      41.821  32.918  34.356  1.00  0.00     0.074 A 
ATOM     56  C   UNL A   1      41.427  28.176  31.573  1.00  0.00     0.029 A 
ATOM     57  N   UNL A   1      42.600  29.656  30.362  1.00  0.00    -0.354 N 
ATOM     58  N   UNL A   1      42.725  33.146  33.452  1.00  0.00    -0.248 NA
ATOM     59  C   UNL A   1      41.835  31.591  34.982  1.00  0.00     0.031 C 
ATOM     60  C   UNL A   1      41.921  29.192  32.404  1.00  0.00     0.029 A 
ATOM     61  C   UNL A   1      42.629  30.134  31.645  1.00  0.00     0.049 A 
ATOM     62  H   UNL A   1      43.163  29.956  29.611  1.00  0.00     0.167 HD
ATOM     63  C   UNL A   1      43.158  31.878  33.164  1.00  0.00     0.074 A 
ATOM     64  C   UNL A   1      42.870  31.069  34.329  1.00  0.00     0.031 C 
ATOM     65  C   UNL A   1      43.146  31.461  31.871  1.00  0.00     0.037 A 
BRANCH  52  66
ATOM     66  C   UNL A   1      41.520  27.805  28.005  1.00  0.00     0.057 A 
ATOM     67  C   UNL A   1      42.066  28.507  26.905  1.00  0.00     0.134 A 
ATOM     68  C   UNL A   1      41.294  26.457  27.773  1.00  0.00     0.134 A 
ATOM     69  F   UNL A   1      42.462  29.785  27.026  1.00  0.00    -0.206 F 
ATOM     70  C   UNL A   1      42.162  27.954  25.624  1.00  0.00     0.040 A 
ATOM     71  C   UNL A   1      41.385  25.877  26.499  1.00  0.00     0.040 A 
ATOM     72  F   UNL A   1      40.955  25.664  28.781  1.00  0.00    -0.206 F 
ATOM     73  C   UNL A   1      41.770  26.642  25.407  1.00  0.00     0.006 A 
ENDBRANCH  52  66
BRANCH  53  74
ATOM     74  C   UNL A   1      41.001  34.548  36.084  1.00  0.00     0.057 A 
ATOM     75  C   UNL A   1      42.119  35.287  36.471  1.00  0.00     0.134 A 
ATOM     76  C   UNL A   1      39.965  34.535  37.068  1.00  0.00     0.134 A 
ATOM     77  F   UNL A   1      43.230  35.311  35.727  1.00  0.00    -0.206 F 
ATOM     78  C   UNL A   1      42.153  36.039  37.668  1.00  0.00     0.040 A 
ATOM     79  C   UNL A   1      39.964  35.312  38.230  1.00  0.00     0.040 A 
ATOM     80  F   UNL A   1      38.879  33.761  36.954  1.00  0.00    -0.206 F 
ATOM     81  C   UNL A   1      41.060  36.090  38.528  1.00  0.00     0.006 A 
ENDBRANCH  53  74
BRANCH  65  82
ATOM     82  C   UNL A   1      43.281  32.584  30.857  1.00  0.00     0.057 A 
ATOM     83  C   UNL A   1      44.462  33.341  30.816  1.00  0.00     0.134 A 
ATOM     84  C   UNL A   1      42.249  33.038  30.020  1.00  0.00     0.134 A 
ATOM     85  F   UNL A   1      45.519  32.977  31.559  1.00  0.00    -0.206 F 
ATOM     86  C   UNL A   1      44.591  34.494  30.031  1.00  0.00     0.040 A 
ATOM     87  C   UNL A   1      42.363  34.186  29.222  1.00  0.00     0.040 A 
ATOM     88  F   UNL A   1      41.087  32.390  29.947  1.00  0.00    -0.206 F 
ATOM     89  C   UNL A   1      43.536  34.927  29.235  1.00  0.00     0.006 A 
ENDBRANCH  65  82
ENDBRANCH  39  40
ENDBRANCH  31  34
ENDBRANCH  29  30
ENDBRANCH  28  29
ENDBRANCH  27  28
ENDBRANCH  26  27
ENDBRANCH  25  26
ENDBRANCH   1  25
TORSDOF 19
ENDMDL
