MODEL 1
REMARK VINA RESULT:     -10.9      0.000      0.000
REMARK SMILES O=C(C[C@H]1CCCCO1)N[C@@H](C(=O)NCCCCCCNC(=O)c1ccc(-c2c3nc(c(-c4c(F)cccc4F)c4ccc([nH]4)c(-c4c(F)cccc4F)c4nc(c(-c5c(F)cccc5F)c5ccc2[nH]5)C=C4)C=C3)cc1)C1CCCCC1
REMARK SMILES IDX 17 1 16 2 15 3 14 4 12 5 13 6 11 8 10 9 1 10 2 11 3 13 4 14
REMARK SMILES IDX 5 15 9 16 6 17 8 18 7 19 78 20 79 21 83 22 80 23 82 24 81 25
REMARK SMILES IDX 18 26 19 27 20 28 21 29 22 30 23 32 24 33 25 34 77 35 26 36
REMARK SMILES IDX 76 37 27 38 28 39 29 40 70 41 30 42 75 43 69 44 71 45 31 46
REMARK SMILES IDX 74 47 68 48 67 49 32 51 58 52 41 53 57 54 42 55 45 56 56 57
REMARK SMILES IDX 72 58 43 59 44 60 55 62 73 63 46 64 33 65 34 66 39 67 35 68
REMARK SMILES IDX 36 69 38 70 40 71 37 72 59 73 60 74 65 75 61 76 62 77 64 78
REMARK SMILES IDX 66 79 63 80 47 81 48 82 53 83 49 84 50 85 52 86 54 87 51 88
REMARK H PARENT 14 7 10 12 21 31 71 50 45 61
REMARK Flexibility Score: inf
ROOT
ATOM      1  C   UNL A   1      34.010  30.557  27.348  1.00  0.00     0.002 C 
ENDROOT
BRANCH   1   2
ATOM      2  C   UNL A   1      34.721  29.279  26.880  1.00  0.00     0.021 C 
BRANCH   2   3
ATOM      3  C   UNL A   1      33.871  28.429  25.928  1.00  0.00     0.116 C 
BRANCH   3   4
ATOM      4  N   UNL A   1      33.803  29.081  24.634  1.00  0.00    -0.354 N 
ATOM      5  C   UNL A   1      32.788  28.964  23.723  1.00  0.00     0.242 C 
ATOM      6  O   UNL A   1      33.088  28.946  22.529  1.00  0.00    -0.273 OA
ATOM      7  H   UNL A   1      34.558  29.661  24.386  1.00  0.00     0.163 HD
BRANCH   5   8
ATOM      8  C   UNL A   1      31.346  28.753  24.232  1.00  0.00     0.174 C 
BRANCH   8   9
ATOM      9  N   UNL A   1      31.035  27.333  24.029  1.00  0.00    -0.344 N 
ATOM     10  O   UNL A   1      30.883  26.801  26.252  1.00  0.00    -0.275 OA
ATOM     11  C   UNL A   1      30.795  26.469  25.073  1.00  0.00     0.223 C 
ATOM     12  H   UNL A   1      30.997  26.984  23.110  1.00  0.00     0.164 HD
BRANCH  11  13
ATOM     13  C   UNL A   1      30.472  25.050  24.662  1.00  0.00     0.132 C 
BRANCH  13  14
ATOM     14  C   UNL A   1      31.745  24.224  24.498  1.00  0.00     0.127 C 
ATOM     15  C   UNL A   1      31.539  23.098  23.480  1.00  0.00     0.033 C 
ATOM     16  O   UNL A   1      32.791  25.085  24.039  1.00  0.00    -0.378 OA
ATOM     17  C   UNL A   1      32.846  22.338  23.253  1.00  0.00     0.005 C 
ATOM     18  C   UNL A   1      34.049  24.421  23.966  1.00  0.00     0.160 C 
ATOM     19  C   UNL A   1      33.990  23.299  22.941  1.00  0.00     0.029 C 
ENDBRANCH  13  14
ENDBRANCH  11  13
ENDBRANCH   8   9
BRANCH   8  20
ATOM     20  C   UNL A   1      30.307  29.625  23.476  1.00  0.00     0.021 C 
ATOM     21  C   UNL A   1      29.066  28.783  23.105  1.00  0.00     0.006 C 
ATOM     22  C   UNL A   1      29.844  30.864  24.270  1.00  0.00     0.006 C 
ATOM     23  C   UNL A   1      28.024  29.595  22.337  1.00  0.00     0.000 C 
ATOM     24  C   UNL A   1      28.841  31.693  23.468  1.00  0.00     0.000 C 
ATOM     25  C   UNL A   1      27.624  30.865  23.079  1.00  0.00     0.000 C 
ENDBRANCH   8  20
ENDBRANCH   5   8
ENDBRANCH   3   4
ENDBRANCH   2   3
ENDBRANCH   1   2
BRANCH   1  26
ATOM     26  C   UNL A   1      32.480  30.490  27.294  1.00  0.00     0.002 C 
BRANCH  26  27
ATOM     27  C   UNL A   1      31.791  31.852  27.196  1.00  0.00     0.021 C 
BRANCH  27  28
ATOM     28  C   UNL A   1      32.729  32.996  26.829  1.00  0.00     0.116 C 
BRANCH  28  29
ATOM     29  N   UNL A   1      32.469  34.186  27.626  1.00  0.00    -0.352 N 
ATOM     30  C   UNL A   1      33.075  34.585  28.791  1.00  0.00     0.251 C 
ATOM     31  H   UNL A   1      31.767  34.785  27.283  1.00  0.00     0.163 HD
ATOM     32  O   UNL A   1      32.618  35.511  29.452  1.00  0.00    -0.269 OA
BRANCH  30  33
ATOM     33  C   UNL A   1      34.280  33.869  29.251  1.00  0.00     0.039 A 
ATOM     34  C   UNL A   1      35.539  34.320  28.848  1.00  0.00     0.014 A 
ATOM     35  C   UNL A   1      34.158  32.769  30.106  1.00  0.00     0.014 A 
ATOM     36  C   UNL A   1      36.684  33.707  29.357  1.00  0.00     0.010 A 
ATOM     37  C   UNL A   1      35.300  32.203  30.662  1.00  0.00     0.010 A 
ATOM     38  C   UNL A   1      36.572  32.666  30.293  1.00  0.00    -0.014 A 
BRANCH  38  39
ATOM     39  C   UNL A   1      37.769  32.040  30.906  1.00  0.00     0.031 A 
ATOM     40  C   UNL A   1      38.504  30.956  30.170  1.00  0.00     0.074 A 
ATOM     41  C   UNL A   1      38.139  32.383  32.155  1.00  0.00     0.049 A 
ATOM     42  N   UNL A   1      39.486  30.196  30.581  1.00  0.00    -0.248 NA
ATOM     43  C   UNL A   1      38.053  30.669  28.798  1.00  0.00     0.031 C 
ATOM     44  C   UNL A   1      37.484  33.395  32.986  1.00  0.00     0.029 A 
ATOM     45  N   UNL A   1      39.148  31.902  32.951  1.00  0.00    -0.354 N 
ATOM     46  C   UNL A   1      39.758  29.330  29.529  1.00  0.00     0.074 A 
ATOM     47  C   UNL A   1      38.807  29.628  28.480  1.00  0.00     0.031 C 
ATOM     48  C   UNL A   1      38.116  33.468  34.168  1.00  0.00     0.029 A 
ATOM     49  C   UNL A   1      39.191  32.481  34.196  1.00  0.00     0.049 A 
ATOM     50  H   UNL A   1      39.781  31.207  32.658  1.00  0.00     0.167 HD
ATOM     51  C   UNL A   1      40.725  28.388  29.439  1.00  0.00     0.037 A 
ATOM     52  C   UNL A   1      39.996  32.233  35.246  1.00  0.00     0.037 A 
ATOM     53  C   UNL A   1      41.687  28.116  30.473  1.00  0.00     0.049 A 
ATOM     54  C   UNL A   1      41.054  31.170  35.124  1.00  0.00     0.074 A 
ATOM     55  C   UNL A   1      42.741  27.219  30.456  1.00  0.00     0.029 A 
ATOM     56  N   UNL A   1      41.711  28.740  31.711  1.00  0.00    -0.354 N 
ATOM     57  N   UNL A   1      41.335  30.397  34.105  1.00  0.00    -0.248 NA
ATOM     58  C   UNL A   1      41.908  30.948  36.300  1.00  0.00     0.031 C 
ATOM     59  C   UNL A   1      43.381  27.274  31.698  1.00  0.00     0.029 A 
ATOM     60  C   UNL A   1      42.752  28.236  32.473  1.00  0.00     0.049 A 
ATOM     61  H   UNL A   1      41.083  29.439  32.005  1.00  0.00     0.167 HD
ATOM     62  C   UNL A   1      42.415  29.619  34.504  1.00  0.00     0.074 A 
ATOM     63  C   UNL A   1      42.743  30.020  35.856  1.00  0.00     0.031 C 
ATOM     64  C   UNL A   1      43.075  28.659  33.812  1.00  0.00     0.037 A 
BRANCH  51  65
ATOM     65  C   UNL A   1      40.792  27.586  28.173  1.00  0.00     0.057 A 
ATOM     66  C   UNL A   1      41.561  28.001  27.076  1.00  0.00     0.134 A 
ATOM     67  C   UNL A   1      40.107  26.370  28.058  1.00  0.00     0.134 A 
ATOM     68  F   UNL A   1      42.231  29.162  27.117  1.00  0.00    -0.206 F 
ATOM     69  C   UNL A   1      41.624  27.249  25.903  1.00  0.00     0.040 A 
ATOM     70  C   UNL A   1      40.185  25.596  26.899  1.00  0.00     0.040 A 
ATOM     71  F   UNL A   1      39.357  25.912  29.072  1.00  0.00    -0.206 F 
ATOM     72  C   UNL A   1      40.940  26.038  25.815  1.00  0.00     0.006 A 
ENDBRANCH  51  65
BRANCH  52  73
ATOM     73  C   UNL A   1      39.848  33.013  36.500  1.00  0.00     0.057 A 
ATOM     74  C   UNL A   1      38.918  32.635  37.475  1.00  0.00     0.134 A 
ATOM     75  C   UNL A   1      40.621  34.152  36.750  1.00  0.00     0.134 A 
ATOM     76  F   UNL A   1      38.136  31.563  37.283  1.00  0.00    -0.206 F 
ATOM     77  C   UNL A   1      38.746  33.376  38.647  1.00  0.00     0.040 A 
ATOM     78  C   UNL A   1      40.477  34.888  37.927  1.00  0.00     0.040 A 
ATOM     79  F   UNL A   1      41.534  34.561  35.858  1.00  0.00    -0.206 F 
ATOM     80  C   UNL A   1      39.531  34.504  38.877  1.00  0.00     0.006 A 
ENDBRANCH  52  73
BRANCH  64  81
ATOM     81  C   UNL A   1      44.245  28.007  34.484  1.00  0.00     0.057 A 
ATOM     82  C   UNL A   1      44.111  26.825  35.222  1.00  0.00     0.134 A 
ATOM     83  C   UNL A   1      45.533  28.542  34.344  1.00  0.00     0.134 A 
ATOM     84  F   UNL A   1      42.903  26.271  35.404  1.00  0.00    -0.206 F 
ATOM     85  C   UNL A   1      45.215  26.205  35.810  1.00  0.00     0.040 A 
ATOM     86  C   UNL A   1      46.647  27.918  34.907  1.00  0.00     0.040 A 
ATOM     87  F   UNL A   1      45.731  29.668  33.642  1.00  0.00    -0.206 F 
ATOM     88  C   UNL A   1      46.489  26.748  35.646  1.00  0.00     0.006 A 
ENDBRANCH  64  81
ENDBRANCH  38  39
ENDBRANCH  30  33
ENDBRANCH  28  29
ENDBRANCH  27  28
ENDBRANCH  26  27
ENDBRANCH   1  26
TORSDOF 17
ENDMDL
MODEL 2
REMARK VINA RESULT:     -10.8      1.175      2.214
REMARK SMILES O=C(C[C@H]1CCCCO1)N[C@@H](C(=O)NCCCCCCNC(=O)c1ccc(-c2c3nc(c(-c4c(F)cccc4F)c4ccc([nH]4)c(-c4c(F)cccc4F)c4nc(c(-c5c(F)cccc5F)c5ccc2[nH]5)C=C4)C=C3)cc1)C1CCCCC1
REMARK SMILES IDX 17 1 16 2 15 3 14 4 12 5 13 6 11 8 10 9 1 10 2 11 3 13 4 14
REMARK SMILES IDX 5 15 9 16 6 17 8 18 7 19 78 20 79 21 83 22 80 23 82 24 81 25
REMARK SMILES IDX 18 26 19 27 20 28 21 29 22 30 23 32 24 33 25 34 77 35 26 36
REMARK SMILES IDX 76 37 27 38 28 39 29 40 70 41 30 42 75 43 69 44 71 45 31 46
REMARK SMILES IDX 74 47 68 48 67 49 32 51 58 52 41 53 57 54 42 55 45 56 56 57
REMARK SMILES IDX 72 58 43 59 44 60 55 62 73 63 46 64 33 65 34 66 39 67 35 68
REMARK SMILES IDX 36 69 38 70 40 71 37 72 59 73 60 74 65 75 61 76 62 77 64 78
REMARK SMILES IDX 66 79 63 80 47 81 48 82 53 83 49 84 50 85 52 86 54 87 51 88
REMARK H PARENT 14 7 10 12 21 31 71 50 45 61
REMARK Flexibility Score: inf
ROOT
ATOM      1  C   UNL A   1      32.301  29.790  26.089  1.00  0.00     0.002 C 
ENDROOT
BRANCH   1   2
ATOM      2  C   UNL A   1      31.891  28.494  26.803  1.00  0.00     0.021 C 
BRANCH   2   3
ATOM      3  C   UNL A   1      32.422  27.231  26.113  1.00  0.00     0.116 C 
BRANCH   3   4
ATOM      4  N   UNL A   1      31.597  26.098  26.484  1.00  0.00    -0.354 N 
ATOM      5  C   UNL A   1      30.466  25.678  25.838  1.00  0.00     0.242 C 
ATOM      6  O   UNL A   1      29.542  25.240  26.525  1.00  0.00    -0.273 OA
ATOM      7  H   UNL A   1      31.875  25.583  27.275  1.00  0.00     0.163 HD
BRANCH   5   8
ATOM      8  C   UNL A   1      30.359  25.872  24.311  1.00  0.00     0.174 C 
BRANCH   8   9
ATOM      9  N   UNL A   1      31.654  25.474  23.747  1.00  0.00    -0.344 N 
ATOM     10  O   UNL A   1      31.054  23.316  23.268  1.00  0.00    -0.275 OA
ATOM     11  C   UNL A   1      31.887  24.218  23.236  1.00  0.00     0.223 C 
ATOM     12  H   UNL A   1      32.386  26.132  23.734  1.00  0.00     0.164 HD
BRANCH  11  13
ATOM     13  C   UNL A   1      33.278  24.005  22.682  1.00  0.00     0.132 C 
BRANCH  13  14
ATOM     14  C   UNL A   1      34.239  23.547  23.775  1.00  0.00     0.127 C 
ATOM     15  C   UNL A   1      35.561  23.060  23.174  1.00  0.00     0.033 C 
ATOM     16  O   UNL A   1      34.499  24.652  24.646  1.00  0.00    -0.378 OA
ATOM     17  C   UNL A   1      36.549  22.694  24.280  1.00  0.00     0.005 C 
ATOM     18  C   UNL A   1      35.300  24.285  25.765  1.00  0.00     0.160 C 
ATOM     19  C   UNL A   1      36.673  23.824  25.299  1.00  0.00     0.029 C 
ENDBRANCH  13  14
ENDBRANCH  11  13
ENDBRANCH   8   9
BRANCH   8  20
ATOM     20  C   UNL A   1      30.047  27.340  23.910  1.00  0.00     0.021 C 
ATOM     21  C   UNL A   1      30.967  27.788  22.754  1.00  0.00     0.006 C 
ATOM     22  C   UNL A   1      28.580  27.571  23.493  1.00  0.00     0.006 C 
ATOM     23  C   UNL A   1      30.713  29.238  22.341  1.00  0.00     0.000 C 
ATOM     24  C   UNL A   1      28.330  29.034  23.133  1.00  0.00     0.000 C 
ATOM     25  C   UNL A   1      29.247  29.492  22.008  1.00  0.00     0.000 C 
ENDBRANCH   8  20
ENDBRANCH   5   8
ENDBRANCH   3   4
ENDBRANCH   2   3
ENDBRANCH   1   2
BRANCH   1  26
ATOM     26  C   UNL A   1      31.128  30.633  25.576  1.00  0.00     0.002 C 
BRANCH  26  27
ATOM     27  C   UNL A   1      31.059  32.044  26.163  1.00  0.00     0.021 C 
BRANCH  27  28
ATOM     28  C   UNL A   1      32.291  32.440  26.968  1.00  0.00     0.116 C 
BRANCH  28  29
ATOM     29  N   UNL A   1      32.223  33.824  27.414  1.00  0.00    -0.352 N 
ATOM     30  C   UNL A   1      33.009  34.465  28.339  1.00  0.00     0.251 C 
ATOM     31  H   UNL A   1      31.522  34.375  26.996  1.00  0.00     0.163 HD
ATOM     32  O   UNL A   1      32.709  35.580  28.754  1.00  0.00    -0.269 OA
BRANCH  30  33
ATOM     33  C   UNL A   1      34.215  33.784  28.847  1.00  0.00     0.039 A 
ATOM     34  C   UNL A   1      35.472  34.328  28.574  1.00  0.00     0.014 A 
ATOM     35  C   UNL A   1      34.094  32.624  29.617  1.00  0.00     0.014 A 
ATOM     36  C   UNL A   1      36.610  33.743  29.131  1.00  0.00     0.010 A 
ATOM     37  C   UNL A   1      35.221  32.083  30.224  1.00  0.00     0.010 A 
ATOM     38  C   UNL A   1      36.489  32.636  29.987  1.00  0.00    -0.014 A 
BRANCH  38  39
ATOM     39  C   UNL A   1      37.670  32.034  30.651  1.00  0.00     0.031 A 
ATOM     40  C   UNL A   1      38.435  30.938  29.965  1.00  0.00     0.074 A 
ATOM     41  C   UNL A   1      38.001  32.411  31.902  1.00  0.00     0.049 A 
ATOM     42  N   UNL A   1      39.408  30.195  30.424  1.00  0.00    -0.248 NA
ATOM     43  C   UNL A   1      38.027  30.613  28.588  1.00  0.00     0.031 C 
ATOM     44  C   UNL A   1      37.314  33.438  32.687  1.00  0.00     0.029 A 
ATOM     45  N   UNL A   1      38.988  31.957  32.739  1.00  0.00    -0.354 N 
ATOM     46  C   UNL A   1      39.717  29.305  29.403  1.00  0.00     0.074 A 
ATOM     47  C   UNL A   1      38.796  29.570  28.318  1.00  0.00     0.031 C 
ATOM     48  C   UNL A   1      37.909  33.545  33.886  1.00  0.00     0.029 A 
ATOM     49  C   UNL A   1      38.989  32.567  33.970  1.00  0.00     0.049 A 
ATOM     50  H   UNL A   1      39.634  31.259  32.483  1.00  0.00     0.167 HD
ATOM     51  C   UNL A   1      40.693  28.368  29.365  1.00  0.00     0.037 A 
ATOM     52  C   UNL A   1      39.765  32.350  35.050  1.00  0.00     0.037 A 
ATOM     53  C   UNL A   1      41.624  28.128  30.435  1.00  0.00     0.049 A 
ATOM     54  C   UNL A   1      40.832  31.293  34.987  1.00  0.00     0.074 A 
ATOM     55  C   UNL A   1      42.684  27.239  30.471  1.00  0.00     0.029 A 
ATOM     56  N   UNL A   1      41.607  28.783  31.657  1.00  0.00    -0.354 N 
ATOM     57  N   UNL A   1      41.149  30.496  33.996  1.00  0.00    -0.248 NA
ATOM     58  C   UNL A   1      41.651  31.106  36.193  1.00  0.00     0.031 C 
ATOM     59  C   UNL A   1      43.286  27.329  31.731  1.00  0.00     0.029 A 
ATOM     60  C   UNL A   1      42.628  28.306  32.462  1.00  0.00     0.049 A 
ATOM     61  H   UNL A   1      40.966  29.484  31.914  1.00  0.00     0.167 HD
ATOM     62  C   UNL A   1      42.221  29.736  34.446  1.00  0.00     0.074 A 
ATOM     63  C   UNL A   1      42.505  30.173  35.797  1.00  0.00     0.031 C 
ATOM     64  C   UNL A   1      42.908  28.764  33.798  1.00  0.00     0.037 A 
BRANCH  51  65
ATOM     65  C   UNL A   1      40.803  27.535  28.122  1.00  0.00     0.057 A 
ATOM     66  C   UNL A   1      40.131  26.311  27.992  1.00  0.00     0.134 A 
ATOM     67  C   UNL A   1      41.564  27.974  27.031  1.00  0.00     0.134 A 
ATOM     68  F   UNL A   1      39.397  25.829  29.005  1.00  0.00    -0.206 F 
ATOM     69  C   UNL A   1      40.233  25.544  26.832  1.00  0.00     0.040 A 
ATOM     70  C   UNL A   1      41.651  27.227  25.855  1.00  0.00     0.040 A 
ATOM     71  F   UNL A   1      42.228  29.138  27.088  1.00  0.00    -0.206 F 
ATOM     72  C   UNL A   1      40.990  26.004  25.756  1.00  0.00     0.006 A 
ENDBRANCH  51  65
BRANCH  52  73
ATOM     73  C   UNL A   1      39.574  33.160  36.279  1.00  0.00     0.057 A 
ATOM     74  C   UNL A   1      38.682  32.751  37.278  1.00  0.00     0.134 A 
ATOM     75  C   UNL A   1      40.265  34.359  36.481  1.00  0.00     0.134 A 
ATOM     76  F   UNL A   1      37.978  31.620  37.131  1.00  0.00    -0.206 F 
ATOM     77  C   UNL A   1      38.470  33.517  38.426  1.00  0.00     0.040 A 
ATOM     78  C   UNL A   1      40.081  35.123  37.635  1.00  0.00     0.040 A 
ATOM     79  F   UNL A   1      41.138  34.802  35.565  1.00  0.00    -0.206 F 
ATOM     80  C   UNL A   1      39.175  34.705  38.608  1.00  0.00     0.006 A 
ENDBRANCH  52  73
BRANCH  64  81
ATOM     81  C   UNL A   1      44.062  28.138  34.521  1.00  0.00     0.057 A 
ATOM     82  C   UNL A   1      45.346  28.693  34.486  1.00  0.00     0.134 A 
ATOM     83  C   UNL A   1      43.871  26.993  35.307  1.00  0.00     0.134 A 
ATOM     84  F   UNL A   1      45.596  29.781  33.741  1.00  0.00    -0.206 F 
ATOM     85  C   UNL A   1      46.405  28.123  35.195  1.00  0.00     0.040 A 
ATOM     86  C   UNL A   1      44.916  26.429  36.039  1.00  0.00     0.040 A 
ATOM     87  F   UNL A   1      42.662  26.417  35.389  1.00  0.00    -0.206 F 
ATOM     88  C   UNL A   1      46.189  26.993  35.982  1.00  0.00     0.006 A 
ENDBRANCH  64  81
ENDBRANCH  38  39
ENDBRANCH  30  33
ENDBRANCH  28  29
ENDBRANCH  27  28
ENDBRANCH  26  27
ENDBRANCH   1  26
TORSDOF 17
ENDMDL
MODEL 3
REMARK VINA RESULT:     -10.7      4.822      9.779
REMARK SMILES O=C(C[C@H]1CCCCO1)N[C@@H](C(=O)NCCCCCCNC(=O)c1ccc(-c2c3nc(c(-c4c(F)cccc4F)c4ccc([nH]4)c(-c4c(F)cccc4F)c4nc(c(-c5c(F)cccc5F)c5ccc2[nH]5)C=C4)C=C3)cc1)C1CCCCC1
REMARK SMILES IDX 17 1 16 2 15 3 14 4 12 5 13 6 11 8 10 9 1 10 2 11 3 13 4 14
REMARK SMILES IDX 5 15 9 16 6 17 8 18 7 19 78 20 79 21 83 22 80 23 82 24 81 25
REMARK SMILES IDX 18 26 19 27 20 28 21 29 22 30 23 32 24 33 25 34 77 35 26 36
REMARK SMILES IDX 76 37 27 38 28 39 29 40 70 41 30 42 75 43 69 44 71 45 31 46
REMARK SMILES IDX 74 47 68 48 67 49 32 51 58 52 41 53 57 54 42 55 45 56 56 57
REMARK SMILES IDX 72 58 43 59 44 60 55 62 73 63 46 64 33 65 34 66 39 67 35 68
REMARK SMILES IDX 36 69 38 70 40 71 37 72 59 73 60 74 65 75 61 76 62 77 64 78
REMARK SMILES IDX 66 79 63 80 47 81 48 82 53 83 49 84 50 85 52 86 54 87 51 88
REMARK H PARENT 14 7 10 12 21 31 71 50 45 61
REMARK Flexibility Score: inf
ROOT
ATOM      1  C   UNL A   1      36.848  22.464  25.303  1.00  0.00     0.002 C 
ENDROOT
BRANCH   1   2
ATOM      2  C   UNL A   1      36.339  23.331  24.143  1.00  0.00     0.021 C 
BRANCH   2   3
ATOM      3  C   UNL A   1      35.086  24.141  24.498  1.00  0.00     0.116 C 
BRANCH   3   4
ATOM      4  N   UNL A   1      34.421  24.557  23.279  1.00  0.00    -0.354 N 
ATOM      5  C   UNL A   1      33.380  23.914  22.668  1.00  0.00     0.242 C 
ATOM      6  O   UNL A   1      33.356  23.903  21.436  1.00  0.00    -0.273 OA
ATOM      7  H   UNL A   1      34.750  25.379  22.850  1.00  0.00     0.163 HD
BRANCH   5   8
ATOM      8  C   UNL A   1      32.359  23.148  23.535  1.00  0.00     0.174 C 
BRANCH   8   9
ATOM      9  N   UNL A   1      31.972  24.054  24.624  1.00  0.00    -0.344 N 
ATOM     10  O   UNL A   1      30.273  25.086  23.484  1.00  0.00    -0.275 OA
ATOM     11  C   UNL A   1      30.924  24.939  24.516  1.00  0.00     0.223 C 
ATOM     12  H   UNL A   1      32.483  24.027  25.464  1.00  0.00     0.164 HD
BRANCH  11  13
ATOM     13  C   UNL A   1      30.668  25.774  25.750  1.00  0.00     0.132 C 
BRANCH  13  14
ATOM     14  C   UNL A   1      31.532  27.032  25.751  1.00  0.00     0.127 C 
ATOM     15  C   UNL A   1      31.699  27.581  27.171  1.00  0.00     0.033 C 
ATOM     16  O   UNL A   1      32.819  26.701  25.222  1.00  0.00    -0.378 OA
ATOM     17  C   UNL A   1      32.642  28.783  27.171  1.00  0.00     0.005 C 
ATOM     18  C   UNL A   1      33.658  27.843  25.078  1.00  0.00     0.160 C 
ATOM     19  C   UNL A   1      33.942  28.458  26.440  1.00  0.00     0.029 C 
ENDBRANCH  13  14
ENDBRANCH  11  13
ENDBRANCH   8   9
BRANCH   8  20
ATOM     20  C   UNL A   1      32.939  21.837  24.132  1.00  0.00     0.021 C 
ATOM     21  C   UNL A   1      32.591  21.730  25.633  1.00  0.00     0.006 C 
ATOM     22  C   UNL A   1      32.447  20.560  23.419  1.00  0.00     0.006 C 
ATOM     23  C   UNL A   1      33.163  20.464  26.271  1.00  0.00     0.000 C 
ATOM     24  C   UNL A   1      33.067  19.307  24.035  1.00  0.00     0.000 C 
ATOM     25  C   UNL A   1      32.749  19.204  25.520  1.00  0.00     0.000 C 
ENDBRANCH   8  20
ENDBRANCH   5   8
ENDBRANCH   3   4
ENDBRANCH   2   3
ENDBRANCH   1   2
BRANCH   1  26
ATOM     26  C   UNL A   1      36.565  20.966  25.151  1.00  0.00     0.002 C 
BRANCH  26  27
ATOM     27  C   UNL A   1      37.804  20.112  24.877  1.00  0.00     0.021 C 
BRANCH  27  28
ATOM     28  C   UNL A   1      39.009  20.476  25.736  1.00  0.00     0.116 C 
BRANCH  28  29
ATOM     29  N   UNL A   1      39.959  19.377  25.831  1.00  0.00    -0.352 N 
ATOM     30  C   UNL A   1      41.305  19.429  26.092  1.00  0.00     0.251 C 
ATOM     31  H   UNL A   1      39.586  18.477  25.689  1.00  0.00     0.163 HD
ATOM     32  O   UNL A   1      42.012  18.437  25.948  1.00  0.00    -0.269 OA
BRANCH  30  33
ATOM     33  C   UNL A   1      41.899  20.706  26.533  1.00  0.00     0.039 A 
ATOM     34  C   UNL A   1      42.359  21.611  25.575  1.00  0.00     0.014 A 
ATOM     35  C   UNL A   1      41.970  21.012  27.895  1.00  0.00     0.014 A 
ATOM     36  C   UNL A   1      42.833  22.860  25.981  1.00  0.00     0.010 A 
ATOM     37  C   UNL A   1      42.381  22.280  28.292  1.00  0.00     0.010 A 
ATOM     38  C   UNL A   1      42.815  23.214  27.340  1.00  0.00    -0.014 A 
BRANCH  38  39
ATOM     39  C   UNL A   1      43.247  24.558  27.798  1.00  0.00     0.031 A 
ATOM     40  C   UNL A   1      42.217  25.602  28.123  1.00  0.00     0.074 A 
ATOM     41  C   UNL A   1      44.559  24.863  27.838  1.00  0.00     0.049 A 
ATOM     42  N   UNL A   1      42.384  26.866  28.412  1.00  0.00    -0.248 NA
ATOM     43  C   UNL A   1      40.809  25.172  28.087  1.00  0.00     0.031 C 
ATOM     44  C   UNL A   1      45.653  23.946  27.512  1.00  0.00     0.029 A 
ATOM     45  N   UNL A   1      45.192  26.039  28.152  1.00  0.00    -0.354 N 
ATOM     46  C   UNL A   1      41.106  27.387  28.574  1.00  0.00     0.074 A 
ATOM     47  C   UNL A   1      40.174  26.314  28.304  1.00  0.00     0.031 C 
ATOM     48  C   UNL A   1      46.822  24.590  27.655  1.00  0.00     0.029 A 
ATOM     49  C   UNL A   1      46.560  25.973  28.041  1.00  0.00     0.049 A 
ATOM     50  H   UNL A   1      44.712  26.852  28.430  1.00  0.00     0.167 HD
ATOM     51  C   UNL A   1      40.744  28.641  28.934  1.00  0.00     0.037 A 
ATOM     52  C   UNL A   1      47.495  26.926  28.216  1.00  0.00     0.037 A 
ATOM     53  C   UNL A   1      41.675  29.697  29.229  1.00  0.00     0.049 A 
ATOM     54  C   UNL A   1      47.065  28.314  28.603  1.00  0.00     0.074 A 
ATOM     55  C   UNL A   1      41.408  30.987  29.657  1.00  0.00     0.029 A 
ATOM     56  N   UNL A   1      43.053  29.585  29.127  1.00  0.00    -0.354 N 
ATOM     57  N   UNL A   1      45.857  28.779  28.805  1.00  0.00    -0.248 NA
ATOM     58  C   UNL A   1      48.131  29.310  28.786  1.00  0.00     0.031 C 
ATOM     59  C   UNL A   1      42.625  31.666  29.778  1.00  0.00     0.029 A 
ATOM     60  C   UNL A   1      43.651  30.787  29.468  1.00  0.00     0.049 A 
ATOM     61  H   UNL A   1      43.536  28.772  28.855  1.00  0.00     0.167 HD
ATOM     62  C   UNL A   1      46.018  30.111  29.168  1.00  0.00     0.074 A 
ATOM     63  C   UNL A   1      47.441  30.376  29.167  1.00  0.00     0.031 C 
ATOM     64  C   UNL A   1      45.070  31.029  29.477  1.00  0.00     0.037 A 
BRANCH  51  65
ATOM     65  C   UNL A   1      39.276  28.935  29.034  1.00  0.00     0.057 A 
ATOM     66  C   UNL A   1      38.534  29.370  27.927  1.00  0.00     0.134 A 
ATOM     67  C   UNL A   1      38.589  28.751  30.240  1.00  0.00     0.134 A 
ATOM     68  F   UNL A   1      39.135  29.577  26.746  1.00  0.00    -0.206 F 
ATOM     69  C   UNL A   1      37.168  29.636  28.024  1.00  0.00     0.040 A 
ATOM     70  C   UNL A   1      37.217  28.989  30.342  1.00  0.00     0.040 A 
ATOM     71  F   UNL A   1      39.239  28.333  31.338  1.00  0.00    -0.206 F 
ATOM     72  C   UNL A   1      36.504  29.439  29.233  1.00  0.00     0.006 A 
ENDBRANCH  51  65
BRANCH  52  73
ATOM     73  C   UNL A   1      48.933  26.599  28.045  1.00  0.00     0.057 A 
ATOM     74  C   UNL A   1      49.692  26.114  29.116  1.00  0.00     0.134 A 
ATOM     75  C   UNL A   1      49.582  26.770  26.818  1.00  0.00     0.134 A 
ATOM     76  F   UNL A   1      49.129  25.947  30.321  1.00  0.00    -0.206 F 
ATOM     77  C   UNL A   1      51.052  25.830  28.978  1.00  0.00     0.040 A 
ATOM     78  C   UNL A   1      50.935  26.467  26.659  1.00  0.00     0.040 A 
ATOM     79  F   UNL A   1      48.908  27.225  25.751  1.00  0.00    -0.206 F 
ATOM     80  C   UNL A   1      51.676  26.003  27.744  1.00  0.00     0.006 A 
ENDBRANCH  52  73
BRANCH  64  81
ATOM     81  C   UNL A   1      45.541  32.394  29.882  1.00  0.00     0.057 A 
ATOM     82  C   UNL A   1      45.867  32.700  31.208  1.00  0.00     0.134 A 
ATOM     83  C   UNL A   1      45.721  33.397  28.921  1.00  0.00     0.134 A 
ATOM     84  F   UNL A   1      45.703  31.787  32.177  1.00  0.00    -0.206 F 
ATOM     85  C   UNL A   1      46.341  33.963  31.568  1.00  0.00     0.040 A 
ATOM     86  C   UNL A   1      46.217  34.655  29.264  1.00  0.00     0.040 A 
ATOM     87  F   UNL A   1      45.434  33.165  27.631  1.00  0.00    -0.206 F 
ATOM     88  C   UNL A   1      46.526  34.942  30.592  1.00  0.00     0.006 A 
ENDBRANCH  64  81
ENDBRANCH  38  39
ENDBRANCH  30  33
ENDBRANCH  28  29
ENDBRANCH  27  28
ENDBRANCH  26  27
ENDBRANCH   1  26
TORSDOF 17
ENDMDL
