MODEL 1
REMARK VINA RESULT:     -10.3      0.000      0.000
REMARK SMILES C[C@H](NC(=O)c1cc(S(=O)(=O)N(C)C)cs1)C(=O)NCCCCCCNC(=O)c1ccc(-c2c3nc(c(-c4c(F)cccc4F)c4ccc([nH]4)c(-c4c(F)cccc4F)c4nc(c(-c5c(F)cccc5F)c5ccc2[nH]5)C=C4)C=C3)cc1
REMARK SMILES IDX 21 1 20 2 19 3 17 4 18 5 2 7 1 8 3 9 4 10 5 12 6 13 7 14
REMARK SMILES IDX 16 15 8 16 15 17 9 18 10 19 11 20 12 21 13 22 14 23 22 24
REMARK SMILES IDX 23 25 24 26 25 27 26 28 27 29 28 31 29 32 30 33 82 34 31 35
REMARK SMILES IDX 81 36 32 37 33 38 34 39 75 40 35 41 80 42 74 43 76 44 36 45
REMARK SMILES IDX 79 46 73 47 72 48 37 50 63 51 46 52 62 53 47 54 50 55 61 56
REMARK SMILES IDX 77 57 48 58 49 59 60 61 78 62 51 63 38 64 39 65 44 66 40 67
REMARK SMILES IDX 41 68 43 69 45 70 42 71 64 72 65 73 70 74 66 75 67 76 69 77
REMARK SMILES IDX 71 78 68 79 52 80 53 81 58 82 54 83 55 84 57 85 59 86 56 87
REMARK H PARENT 19 6 3 11 26 30 76 49 50 60
REMARK Flexibility Score: inf
ROOT
ATOM      1  C   UNL A   1      40.503  22.315  26.664  1.00  0.00     0.021 C 
ENDROOT
BRANCH   1   2
ATOM      2  C   UNL A   1      39.195  21.752  26.112  1.00  0.00     0.116 C 
BRANCH   2   3
ATOM      3  N   UNL A   1      38.093  22.646  26.382  1.00  0.00    -0.354 N 
ATOM      4  C   UNL A   1      36.950  22.857  25.677  1.00  0.00     0.242 C 
ATOM      5  O   UNL A   1      36.164  23.706  26.110  1.00  0.00    -0.273 OA
ATOM      6  H   UNL A   1      38.183  23.184  27.202  1.00  0.00     0.163 HD
BRANCH   4   7
ATOM      7  C   UNL A   1      36.567  21.999  24.448  1.00  0.00     0.168 C 
ATOM      8  C   UNL A   1      36.583  22.864  23.200  1.00  0.00     0.041 C 
BRANCH   7   9
ATOM      9  N   UNL A   1      35.462  21.049  24.686  1.00  0.00    -0.340 N 
ATOM     10  C   UNL A   1      34.106  21.063  24.887  1.00  0.00     0.262 C 
ATOM     11  H   UNL A   1      35.803  20.125  24.709  1.00  0.00     0.164 HD
ATOM     12  O   UNL A   1      33.631  20.024  25.350  1.00  0.00    -0.268 OA
BRANCH  10  13
ATOM     13  C   UNL A   1      33.291  22.223  24.588  1.00  0.00     0.093 A 
ATOM     14  C   UNL A   1      32.895  23.274  25.388  1.00  0.00     0.047 A 
ATOM     15  S   UNL A   1      32.763  22.465  22.966  1.00  0.00    -0.137 S 
ATOM     16  C   UNL A   1      31.943  24.115  24.740  1.00  0.00     0.094 A 
ATOM     17  C   UNL A   1      31.786  23.796  23.410  1.00  0.00     0.087 A 
BRANCH  16  18
ATOM     18  S   UNL A   1      31.009  25.338  25.535  1.00  0.00     0.243 S 
ATOM     19  O   UNL A   1      29.869  25.544  24.671  1.00  0.00    -0.207 OA
ATOM     20  O   UNL A   1      30.877  24.806  26.874  1.00  0.00    -0.207 OA
BRANCH  18  21
ATOM     21  N   UNL A   1      31.912  26.786  25.615  1.00  0.00    -0.204 NA
ATOM     22  C   UNL A   1      31.889  27.601  24.378  1.00  0.00     0.124 C 
ATOM     23  C   UNL A   1      31.587  27.607  26.805  1.00  0.00     0.124 C 
ENDBRANCH  18  21
ENDBRANCH  16  18
ENDBRANCH  10  13
ENDBRANCH   7   9
ENDBRANCH   4   7
ENDBRANCH   2   3
ENDBRANCH   1   2
BRANCH   1  24
ATOM     24  C   UNL A   1      41.742  21.557  26.173  1.00  0.00     0.002 C 
BRANCH  24  25
ATOM     25  C   UNL A   1      42.034  20.248  26.918  1.00  0.00     0.002 C 
BRANCH  25  26
ATOM     26  C   UNL A   1      42.373  19.046  26.029  1.00  0.00     0.021 C 
BRANCH  26  27
ATOM     27  C   UNL A   1      43.844  18.632  26.037  1.00  0.00     0.116 C 
BRANCH  27  28
ATOM     28  N   UNL A   1      44.406  18.594  24.697  1.00  0.00    -0.352 N 
ATOM     29  C   UNL A   1      44.826  19.615  23.885  1.00  0.00     0.251 C 
ATOM     30  H   UNL A   1      44.501  17.693  24.312  1.00  0.00     0.163 HD
ATOM     31  O   UNL A   1      45.089  19.387  22.707  1.00  0.00    -0.269 OA
BRANCH  29  32
ATOM     32  C   UNL A   1      44.955  20.993  24.408  1.00  0.00     0.039 A 
ATOM     33  C   UNL A   1      45.510  21.174  25.678  1.00  0.00     0.014 A 
ATOM     34  C   UNL A   1      44.485  22.094  23.686  1.00  0.00     0.014 A 
ATOM     35  C   UNL A   1      45.633  22.460  26.206  1.00  0.00     0.010 A 
ATOM     36  C   UNL A   1      44.660  23.382  24.189  1.00  0.00     0.010 A 
ATOM     37  C   UNL A   1      45.229  23.577  25.456  1.00  0.00    -0.014 A 
BRANCH  37  38
ATOM     38  C   UNL A   1      45.403  24.949  25.993  1.00  0.00     0.031 A 
ATOM     39  C   UNL A   1      46.750  25.616  25.966  1.00  0.00     0.074 A 
ATOM     40  C   UNL A   1      44.350  25.581  26.543  1.00  0.00     0.049 A 
ATOM     41  N   UNL A   1      47.088  26.810  26.382  1.00  0.00    -0.248 NA
ATOM     42  C   UNL A   1      47.868  24.829  25.423  1.00  0.00     0.031 C 
ATOM     43  C   UNL A   1      43.003  25.021  26.677  1.00  0.00     0.029 A 
ATOM     44  N   UNL A   1      44.246  26.834  27.090  1.00  0.00    -0.354 N 
ATOM     45  C   UNL A   1      48.456  26.913  26.165  1.00  0.00     0.074 A 
ATOM     46  C   UNL A   1      48.893  25.645  25.620  1.00  0.00     0.031 C 
ATOM     47  C   UNL A   1      42.201  25.940  27.237  1.00  0.00     0.029 A 
ATOM     48  C   UNL A   1      42.980  27.141  27.522  1.00  0.00     0.049 A 
ATOM     49  H   UNL A   1      45.007  27.454  27.167  1.00  0.00     0.167 HD
ATOM     50  C   UNL A   1      49.270  27.973  26.385  1.00  0.00     0.037 A 
ATOM     51  C   UNL A   1      42.498  28.269  28.076  1.00  0.00     0.037 A 
ATOM     52  C   UNL A   1      48.830  29.245  26.896  1.00  0.00     0.049 A 
ATOM     53  C   UNL A   1      43.417  29.437  28.289  1.00  0.00     0.074 A 
ATOM     54  C   UNL A   1      49.562  30.406  27.071  1.00  0.00     0.029 A 
ATOM     55  N   UNL A   1      47.538  29.518  27.319  1.00  0.00    -0.354 N 
ATOM     56  N   UNL A   1      44.691  29.549  28.004  1.00  0.00    -0.248 NA
ATOM     57  C   UNL A   1      42.826  30.638  28.895  1.00  0.00     0.031 C 
ATOM     58  C   UNL A   1      48.721  31.374  27.633  1.00  0.00     0.029 A 
ATOM     59  C   UNL A   1      47.457  30.825  27.776  1.00  0.00     0.049 A 
ATOM     60  H   UNL A   1      46.789  28.880  27.297  1.00  0.00     0.167 HD
ATOM     61  C   UNL A   1      45.051  30.838  28.375  1.00  0.00     0.074 A 
ATOM     62  C   UNL A   1      43.855  31.473  28.892  1.00  0.00     0.031 C 
ATOM     63  C   UNL A   1      46.262  31.441  28.293  1.00  0.00     0.037 A 
BRANCH  50  64
ATOM     64  C   UNL A   1      50.726  27.797  26.070  1.00  0.00     0.057 A 
ATOM     65  C   UNL A   1      51.224  27.950  24.769  1.00  0.00     0.134 A 
ATOM     66  C   UNL A   1      51.644  27.491  27.082  1.00  0.00     0.134 A 
ATOM     67  F   UNL A   1      50.395  28.233  23.753  1.00  0.00    -0.206 F 
ATOM     68  C   UNL A   1      52.579  27.778  24.481  1.00  0.00     0.040 A 
ATOM     69  C   UNL A   1      53.005  27.338  26.810  1.00  0.00     0.040 A 
ATOM     70  F   UNL A   1      51.234  27.335  28.349  1.00  0.00    -0.206 F 
ATOM     71  C   UNL A   1      53.475  27.475  25.505  1.00  0.00     0.006 A 
ENDBRANCH  50  64
BRANCH  51  72
ATOM     72  C   UNL A   1      41.060  28.365  28.424  1.00  0.00     0.057 A 
ATOM     73  C   UNL A   1      40.127  28.817  27.484  1.00  0.00     0.134 A 
ATOM     74  C   UNL A   1      40.584  28.003  29.688  1.00  0.00     0.134 A 
ATOM     75  F   UNL A   1      40.530  29.195  26.262  1.00  0.00    -0.206 F 
ATOM     76  C   UNL A   1      38.770  28.919  27.793  1.00  0.00     0.040 A 
ATOM     77  C   UNL A   1      39.227  28.081  30.005  1.00  0.00     0.040 A 
ATOM     78  F   UNL A   1      41.429  27.556  30.628  1.00  0.00    -0.206 F 
ATOM     79  C   UNL A   1      38.316  28.546  29.057  1.00  0.00     0.006 A 
ENDBRANCH  51  72
BRANCH  63  80
ATOM     80  C   UNL A   1      46.343  32.864  28.758  1.00  0.00     0.057 A 
ATOM     81  C   UNL A   1      46.670  33.187  30.081  1.00  0.00     0.134 A 
ATOM     82  C   UNL A   1      46.101  33.920  27.872  1.00  0.00     0.134 A 
ATOM     83  F   UNL A   1      46.896  32.219  30.981  1.00  0.00    -0.206 F 
ATOM     84  C   UNL A   1      46.729  34.513  30.512  1.00  0.00     0.040 A 
ATOM     85  C   UNL A   1      46.179  35.250  28.286  1.00  0.00     0.040 A 
ATOM     86  F   UNL A   1      45.788  33.677  26.590  1.00  0.00    -0.206 F 
ATOM     87  C   UNL A   1      46.488  35.549  29.611  1.00  0.00     0.006 A 
ENDBRANCH  63  80
ENDBRANCH  37  38
ENDBRANCH  29  32
ENDBRANCH  27  28
ENDBRANCH  26  27
ENDBRANCH  25  26
ENDBRANCH  24  25
ENDBRANCH   1  24
TORSDOF 17
ENDMDL
MODEL 2
REMARK VINA RESULT:     -10.2      1.634      2.968
REMARK SMILES C[C@H](NC(=O)c1cc(S(=O)(=O)N(C)C)cs1)C(=O)NCCCCCCNC(=O)c1ccc(-c2c3nc(c(-c4c(F)cccc4F)c4ccc([nH]4)c(-c4c(F)cccc4F)c4nc(c(-c5c(F)cccc5F)c5ccc2[nH]5)C=C4)C=C3)cc1
REMARK SMILES IDX 21 1 20 2 19 3 17 4 18 5 2 7 1 8 3 9 4 10 5 12 6 13 7 14
REMARK SMILES IDX 16 15 8 16 15 17 9 18 10 19 11 20 12 21 13 22 14 23 22 24
REMARK SMILES IDX 23 25 24 26 25 27 26 28 27 29 28 31 29 32 30 33 82 34 31 35
REMARK SMILES IDX 81 36 32 37 33 38 34 39 75 40 35 41 80 42 74 43 76 44 36 45
REMARK SMILES IDX 79 46 73 47 72 48 37 50 63 51 46 52 62 53 47 54 50 55 61 56
REMARK SMILES IDX 77 57 48 58 49 59 60 61 78 62 51 63 38 64 39 65 44 66 40 67
REMARK SMILES IDX 41 68 43 69 45 70 42 71 64 72 65 73 70 74 66 75 67 76 69 77
REMARK SMILES IDX 71 78 68 79 52 80 53 81 58 82 54 83 55 84 57 85 59 86 56 87
REMARK H PARENT 19 6 3 11 26 30 76 49 50 60
REMARK Flexibility Score: inf
ROOT
ATOM      1  C   UNL A   1      40.862  22.021  27.472  1.00  0.00     0.021 C 
ENDROOT
BRANCH   1   2
ATOM      2  C   UNL A   1      39.796  21.673  26.434  1.00  0.00     0.116 C 
BRANCH   2   3
ATOM      3  N   UNL A   1      39.088  22.856  26.003  1.00  0.00    -0.354 N 
ATOM      4  C   UNL A   1      37.771  23.026  25.713  1.00  0.00     0.242 C 
ATOM      5  O   UNL A   1      37.411  24.145  25.336  1.00  0.00    -0.273 OA
ATOM      6  H   UNL A   1      39.644  23.663  25.905  1.00  0.00     0.163 HD
BRANCH   4   7
ATOM      7  C   UNL A   1      36.722  21.913  25.953  1.00  0.00     0.168 C 
ATOM      8  C   UNL A   1      36.551  21.096  24.683  1.00  0.00     0.041 C 
BRANCH   7   9
ATOM      9  N   UNL A   1      35.545  22.340  26.733  1.00  0.00    -0.340 N 
ATOM     10  C   UNL A   1      34.177  22.318  26.643  1.00  0.00     0.262 C 
ATOM     11  H   UNL A   1      35.827  22.774  27.571  1.00  0.00     0.164 HD
ATOM     12  O   UNL A   1      33.586  23.076  27.415  1.00  0.00    -0.268 OA
BRANCH  10  13
ATOM     13  C   UNL A   1      33.476  21.470  25.700  1.00  0.00     0.093 A 
ATOM     14  C   UNL A   1      33.258  20.109  25.706  1.00  0.00     0.047 A 
ATOM     15  S   UNL A   1      32.669  22.207  24.368  1.00  0.00    -0.137 S 
ATOM     16  C   UNL A   1      32.673  19.652  24.487  1.00  0.00     0.094 A 
ATOM     17  C   UNL A   1      32.290  20.692  23.672  1.00  0.00     0.087 A 
BRANCH  16  18
ATOM     18  S   UNL A   1      32.538  17.989  24.024  1.00  0.00     0.243 S 
ATOM     19  O   UNL A   1      31.691  17.398  25.033  1.00  0.00    -0.207 OA
ATOM     20  O   UNL A   1      32.136  18.085  22.637  1.00  0.00    -0.207 OA
BRANCH  18  21
ATOM     21  N   UNL A   1      34.077  17.250  24.089  1.00  0.00    -0.204 NA
ATOM     22  C   UNL A   1      34.287  16.357  25.252  1.00  0.00     0.124 C 
ATOM     23  C   UNL A   1      34.454  16.580  22.823  1.00  0.00     0.124 C 
ENDBRANCH  18  21
ENDBRANCH  16  18
ENDBRANCH  10  13
ENDBRANCH   7   9
ENDBRANCH   4   7
ENDBRANCH   2   3
ENDBRANCH   1   2
BRANCH   1  24
ATOM     24  C   UNL A   1      42.168  21.243  27.281  1.00  0.00     0.002 C 
BRANCH  24  25
ATOM     25  C   UNL A   1      42.031  19.718  27.389  1.00  0.00     0.002 C 
BRANCH  25  26
ATOM     26  C   UNL A   1      42.429  18.931  26.135  1.00  0.00     0.021 C 
BRANCH  26  27
ATOM     27  C   UNL A   1      43.914  18.583  26.036  1.00  0.00     0.116 C 
BRANCH  27  28
ATOM     28  N   UNL A   1      44.381  18.576  24.660  1.00  0.00    -0.352 N 
ATOM     29  C   UNL A   1      44.724  19.617  23.838  1.00  0.00     0.251 C 
ATOM     30  H   UNL A   1      44.464  17.683  24.254  1.00  0.00     0.163 HD
ATOM     31  O   UNL A   1      44.908  19.412  22.641  1.00  0.00    -0.269 OA
BRANCH  29  32
ATOM     32  C   UNL A   1      44.866  20.988  24.374  1.00  0.00     0.039 A 
ATOM     33  C   UNL A   1      45.485  21.158  25.616  1.00  0.00     0.014 A 
ATOM     34  C   UNL A   1      44.348  22.095  23.693  1.00  0.00     0.014 A 
ATOM     35  C   UNL A   1      45.622  22.438  26.155  1.00  0.00     0.010 A 
ATOM     36  C   UNL A   1      44.536  23.377  24.205  1.00  0.00     0.010 A 
ATOM     37  C   UNL A   1      45.168  23.561  25.444  1.00  0.00    -0.014 A 
BRANCH  37  38
ATOM     38  C   UNL A   1      45.355  24.927  25.991  1.00  0.00     0.031 A 
ATOM     39  C   UNL A   1      46.707  25.582  25.963  1.00  0.00     0.074 A 
ATOM     40  C   UNL A   1      44.310  25.562  26.551  1.00  0.00     0.049 A 
ATOM     41  N   UNL A   1      47.057  26.771  26.387  1.00  0.00    -0.248 NA
ATOM     42  C   UNL A   1      47.816  24.792  25.408  1.00  0.00     0.031 C 
ATOM     43  C   UNL A   1      42.959  25.012  26.687  1.00  0.00     0.029 A 
ATOM     44  N   UNL A   1      44.219  26.812  27.109  1.00  0.00    -0.354 N 
ATOM     45  C   UNL A   1      48.425  26.864  26.165  1.00  0.00     0.074 A 
ATOM     46  C   UNL A   1      48.849  25.598  25.607  1.00  0.00     0.031 C 
ATOM     47  C   UNL A   1      42.167  25.932  27.258  1.00  0.00     0.029 A 
ATOM     48  C   UNL A   1      42.957  27.125  27.550  1.00  0.00     0.049 A 
ATOM     49  H   UNL A   1      44.985  27.425  27.187  1.00  0.00     0.167 HD
ATOM     50  C   UNL A   1      49.248  27.917  26.389  1.00  0.00     0.037 A 
ATOM     51  C   UNL A   1      42.487  28.252  28.115  1.00  0.00     0.037 A 
ATOM     52  C   UNL A   1      48.821  29.187  26.912  1.00  0.00     0.049 A 
ATOM     53  C   UNL A   1      43.416  29.411  28.333  1.00  0.00     0.074 A 
ATOM     54  C   UNL A   1      49.563  30.341  27.094  1.00  0.00     0.029 A 
ATOM     55  N   UNL A   1      47.533  29.468  27.343  1.00  0.00    -0.354 N 
ATOM     56  N   UNL A   1      44.690  29.515  28.043  1.00  0.00    -0.248 NA
ATOM     57  C   UNL A   1      42.838  30.612  28.951  1.00  0.00     0.031 C 
ATOM     58  C   UNL A   1      48.732  31.311  27.668  1.00  0.00     0.029 A 
ATOM     59  C   UNL A   1      47.465  30.771  27.811  1.00  0.00     0.049 A 
ATOM     60  H   UNL A   1      46.779  28.836  27.321  1.00  0.00     0.167 HD
ATOM     61  C   UNL A   1      45.061  30.798  28.422  1.00  0.00     0.074 A 
ATOM     62  C   UNL A   1      43.874  31.439  28.950  1.00  0.00     0.031 C 
ATOM     63  C   UNL A   1      46.277  31.392  28.339  1.00  0.00     0.037 A 
BRANCH  50  64
ATOM     64  C   UNL A   1      50.701  27.732  26.065  1.00  0.00     0.057 A 
ATOM     65  C   UNL A   1      51.201  27.927  24.771  1.00  0.00     0.134 A 
ATOM     66  C   UNL A   1      51.616  27.373  27.064  1.00  0.00     0.134 A 
ATOM     67  F   UNL A   1      50.375  28.260  23.767  1.00  0.00    -0.206 F 
ATOM     68  C   UNL A   1      52.553  27.746  24.475  1.00  0.00     0.040 A 
ATOM     69  C   UNL A   1      52.974  27.211  26.784  1.00  0.00     0.040 A 
ATOM     70  F   UNL A   1      51.205  27.175  28.325  1.00  0.00    -0.206 F 
ATOM     71  C   UNL A   1      53.445  27.391  25.485  1.00  0.00     0.006 A 
ENDBRANCH  50  64
BRANCH  51  72
ATOM     72  C   UNL A   1      41.051  28.357  28.470  1.00  0.00     0.057 A 
ATOM     73  C   UNL A   1      40.124  28.863  27.553  1.00  0.00     0.134 A 
ATOM     74  C   UNL A   1      40.573  27.950  29.720  1.00  0.00     0.134 A 
ATOM     75  F   UNL A   1      40.530  29.285  26.346  1.00  0.00    -0.206 F 
ATOM     76  C   UNL A   1      38.770  28.974  27.870  1.00  0.00     0.040 A 
ATOM     77  C   UNL A   1      39.217  28.037  30.044  1.00  0.00     0.040 A 
ATOM     78  F   UNL A   1      41.412  27.450  30.638  1.00  0.00    -0.206 F 
ATOM     79  C   UNL A   1      38.313  28.556  29.118  1.00  0.00     0.006 A 
ENDBRANCH  51  72
BRANCH  63  80
ATOM     80  C   UNL A   1      46.371  32.810  28.816  1.00  0.00     0.057 A 
ATOM     81  C   UNL A   1      46.136  33.891  27.956  1.00  0.00     0.134 A 
ATOM     82  C   UNL A   1      46.690  33.097  30.148  1.00  0.00     0.134 A 
ATOM     83  F   UNL A   1      45.842  33.681  26.665  1.00  0.00    -0.206 F 
ATOM     84  C   UNL A   1      46.240  35.210  28.402  1.00  0.00     0.040 A 
ATOM     85  C   UNL A   1      46.775  34.412  30.610  1.00  0.00     0.040 A 
ATOM     86  F   UNL A   1      46.922  32.106  31.022  1.00  0.00    -0.206 F 
ATOM     87  C   UNL A   1      46.556  35.472  29.733  1.00  0.00     0.006 A 
ENDBRANCH  63  80
ENDBRANCH  37  38
ENDBRANCH  29  32
ENDBRANCH  27  28
ENDBRANCH  26  27
ENDBRANCH  25  26
ENDBRANCH  24  25
ENDBRANCH   1  24
TORSDOF 17
ENDMDL
MODEL 3
REMARK VINA RESULT:     -10.1      6.445     12.058
REMARK SMILES C[C@H](NC(=O)c1cc(S(=O)(=O)N(C)C)cs1)C(=O)NCCCCCCNC(=O)c1ccc(-c2c3nc(c(-c4c(F)cccc4F)c4ccc([nH]4)c(-c4c(F)cccc4F)c4nc(c(-c5c(F)cccc5F)c5ccc2[nH]5)C=C4)C=C3)cc1
REMARK SMILES IDX 21 1 20 2 19 3 17 4 18 5 2 7 1 8 3 9 4 10 5 12 6 13 7 14
REMARK SMILES IDX 16 15 8 16 15 17 9 18 10 19 11 20 12 21 13 22 14 23 22 24
REMARK SMILES IDX 23 25 24 26 25 27 26 28 27 29 28 31 29 32 30 33 82 34 31 35
REMARK SMILES IDX 81 36 32 37 33 38 34 39 75 40 35 41 80 42 74 43 76 44 36 45
REMARK SMILES IDX 79 46 73 47 72 48 37 50 63 51 46 52 62 53 47 54 50 55 61 56
REMARK SMILES IDX 77 57 48 58 49 59 60 61 78 62 51 63 38 64 39 65 44 66 40 67
REMARK SMILES IDX 41 68 43 69 45 70 42 71 64 72 65 73 70 74 66 75 67 76 69 77
REMARK SMILES IDX 71 78 68 79 52 80 53 81 58 82 54 83 55 84 57 85 59 86 56 87
REMARK H PARENT 19 6 3 11 26 30 76 49 50 60
REMARK Flexibility Score: inf
ROOT
ATOM      1  C   UNL A   1      35.358  31.564  27.977  1.00  0.00     0.021 C 
ENDROOT
BRANCH   1   2
ATOM      2  C   UNL A   1      34.635  30.283  27.563  1.00  0.00     0.116 C 
BRANCH   2   3
ATOM      3  N   UNL A   1      33.410  30.586  26.858  1.00  0.00    -0.354 N 
ATOM      4  C   UNL A   1      32.661  29.803  26.038  1.00  0.00     0.242 C 
ATOM      5  O   UNL A   1      31.657  30.310  25.529  1.00  0.00    -0.273 OA
ATOM      6  H   UNL A   1      33.066  31.499  26.993  1.00  0.00     0.163 HD
BRANCH   4   7
ATOM      7  C   UNL A   1      32.963  28.300  25.828  1.00  0.00     0.168 C 
ATOM      8  C   UNL A   1      33.600  28.097  24.464  1.00  0.00     0.041 C 
BRANCH   7   9
ATOM      9  N   UNL A   1      31.902  27.391  26.302  1.00  0.00    -0.340 N 
ATOM     10  C   UNL A   1      31.423  26.132  26.046  1.00  0.00     0.262 C 
ATOM     11  H   UNL A   1      31.378  27.819  27.018  1.00  0.00     0.164 HD
ATOM     12  O   UNL A   1      30.300  25.894  26.497  1.00  0.00    -0.268 OA
BRANCH  10  13
ATOM     13  C   UNL A   1      32.179  25.155  25.289  1.00  0.00     0.093 A 
ATOM     14  C   UNL A   1      33.425  24.609  25.518  1.00  0.00     0.047 A 
ATOM     15  S   UNL A   1      31.443  24.427  23.912  1.00  0.00    -0.137 S 
ATOM     16  C   UNL A   1      33.873  23.813  24.422  1.00  0.00     0.094 A 
ATOM     17  C   UNL A   1      32.887  23.619  23.481  1.00  0.00     0.087 A 
BRANCH  16  18
ATOM     18  S   UNL A   1      35.492  23.228  24.229  1.00  0.00     0.243 S 
ATOM     19  O   UNL A   1      35.742  23.312  22.809  1.00  0.00    -0.207 OA
ATOM     20  O   UNL A   1      36.225  24.022  25.191  1.00  0.00    -0.207 OA
BRANCH  18  21
ATOM     21  N   UNL A   1      35.570  21.591  24.710  1.00  0.00    -0.204 NA
ATOM     22  C   UNL A   1      36.940  21.075  24.933  1.00  0.00     0.124 C 
ATOM     23  C   UNL A   1      34.686  21.280  25.858  1.00  0.00     0.124 C 
ENDBRANCH  18  21
ENDBRANCH  16  18
ENDBRANCH  10  13
ENDBRANCH   7   9
ENDBRANCH   4   7
ENDBRANCH   2   3
ENDBRANCH   1   2
BRANCH   1  24
ATOM     24  C   UNL A   1      34.538  32.437  28.934  1.00  0.00     0.002 C 
BRANCH  24  25
ATOM     25  C   UNL A   1      34.613  33.944  28.657  1.00  0.00     0.002 C 
BRANCH  25  26
ATOM     26  C   UNL A   1      33.280  34.696  28.743  1.00  0.00     0.021 C 
BRANCH  26  27
ATOM     27  C   UNL A   1      33.366  36.094  29.352  1.00  0.00     0.116 C 
BRANCH  27  28
ATOM     28  N   UNL A   1      32.531  36.225  30.534  1.00  0.00    -0.352 N 
ATOM     29  C   UNL A   1      32.670  35.672  31.781  1.00  0.00     0.251 C 
ATOM     30  H   UNL A   1      31.741  36.802  30.423  1.00  0.00     0.163 HD
ATOM     31  O   UNL A   1      31.746  35.750  32.588  1.00  0.00    -0.269 OA
BRANCH  29  32
ATOM     32  C   UNL A   1      33.915  34.972  32.163  1.00  0.00     0.039 A 
ATOM     33  C   UNL A   1      33.845  33.611  32.479  1.00  0.00     0.014 A 
ATOM     34  C   UNL A   1      35.133  35.651  32.266  1.00  0.00     0.014 A 
ATOM     35  C   UNL A   1      34.999  32.925  32.856  1.00  0.00     0.010 A 
ATOM     36  C   UNL A   1      36.295  34.953  32.588  1.00  0.00     0.010 A 
ATOM     37  C   UNL A   1      36.239  33.585  32.893  1.00  0.00    -0.014 A 
BRANCH  37  38
ATOM     38  C   UNL A   1      37.476  32.848  33.246  1.00  0.00     0.031 A 
ATOM     39  C   UNL A   1      38.194  33.131  34.536  1.00  0.00     0.074 A 
ATOM     40  C   UNL A   1      37.976  31.947  32.381  1.00  0.00     0.049 A 
ATOM     41  N   UNL A   1      39.281  32.581  35.014  1.00  0.00    -0.248 NA
ATOM     42  C   UNL A   1      37.629  34.187  35.390  1.00  0.00     0.031 C 
ATOM     43  C   UNL A   1      37.403  31.619  31.074  1.00  0.00     0.029 A 
ATOM     44  N   UNL A   1      39.081  31.138  32.473  1.00  0.00    -0.354 N 
ATOM     45  C   UNL A   1      39.540  33.232  36.213  1.00  0.00     0.074 A 
ATOM     46  C   UNL A   1      38.519  34.246  36.370  1.00  0.00     0.031 C 
ATOM     47  C   UNL A   1      38.140  30.656  30.501  1.00  0.00     0.029 A 
ATOM     48  C   UNL A   1      39.249  30.315  31.387  1.00  0.00     0.049 A 
ATOM     49  H   UNL A   1      39.695  31.148  33.243  1.00  0.00     0.167 HD
ATOM     50  C   UNL A   1      40.527  32.994  37.110  1.00  0.00     0.037 A 
ATOM     51  C   UNL A   1      40.186  29.381  31.140  1.00  0.00     0.037 A 
ATOM     52  C   UNL A   1      41.522  31.964  36.969  1.00  0.00     0.049 A 
ATOM     53  C   UNL A   1      41.257  29.122  32.160  1.00  0.00     0.074 A 
ATOM     54  C   UNL A   1      42.510  31.588  37.863  1.00  0.00     0.029 A 
ATOM     55  N   UNL A   1      41.657  31.146  35.857  1.00  0.00    -0.354 N 
ATOM     56  N   UNL A   1      41.441  29.688  33.327  1.00  0.00    -0.248 NA
ATOM     57  C   UNL A   1      42.246  28.087  31.828  1.00  0.00     0.031 C 
ATOM     58  C   UNL A   1      43.266  30.566  37.277  1.00  0.00     0.029 A 
ATOM     59  C   UNL A   1      42.727  30.282  36.033  1.00  0.00     0.049 A 
ATOM     60  H   UNL A   1      41.080  31.175  35.061  1.00  0.00     0.167 HD
ATOM     61  C   UNL A   1      42.552  29.066  33.879  1.00  0.00     0.074 A 
ATOM     62  C   UNL A   1      42.991  28.068  32.924  1.00  0.00     0.031 C 
ATOM     63  C   UNL A   1      43.155  29.299  35.071  1.00  0.00     0.037 A 
BRANCH  50  64
ATOM     64  C   UNL A   1      40.575  33.870  38.326  1.00  0.00     0.057 A 
ATOM     65  C   UNL A   1      41.373  35.021  38.376  1.00  0.00     0.134 A 
ATOM     66  C   UNL A   1      39.800  33.571  39.453  1.00  0.00     0.134 A 
ATOM     67  F   UNL A   1      42.147  35.357  37.333  1.00  0.00    -0.206 F 
ATOM     68  C   UNL A   1      41.419  35.829  39.514  1.00  0.00     0.040 A 
ATOM     69  C   UNL A   1      39.821  34.383  40.589  1.00  0.00     0.040 A 
ATOM     70  F   UNL A   1      39.012  32.487  39.470  1.00  0.00    -0.206 F 
ATOM     71  C   UNL A   1      40.637  35.513  40.624  1.00  0.00     0.006 A 
ENDBRANCH  50  64
BRANCH  51  72
ATOM     72  C   UNL A   1      40.122  28.585  29.891  1.00  0.00     0.057 A 
ATOM     73  C   UNL A   1      39.346  27.423  29.823  1.00  0.00     0.134 A 
ATOM     74  C   UNL A   1      40.823  28.966  28.741  1.00  0.00     0.134 A 
ATOM     75  F   UNL A   1      38.668  27.001  30.900  1.00  0.00    -0.206 F 
ATOM     76  C   UNL A   1      39.278  26.658  28.658  1.00  0.00     0.040 A 
ATOM     77  C   UNL A   1      40.748  28.220  27.563  1.00  0.00     0.040 A 
ATOM     78  F   UNL A   1      41.579  30.073  28.744  1.00  0.00    -0.206 F 
ATOM     79  C   UNL A   1      39.978  27.059  27.522  1.00  0.00     0.006 A 
ENDBRANCH  51  72
BRANCH  63  80
ATOM     80  C   UNL A   1      44.339  28.445  35.409  1.00  0.00     0.057 A 
ATOM     81  C   UNL A   1      45.644  28.834  35.079  1.00  0.00     0.134 A 
ATOM     82  C   UNL A   1      44.175  27.229  36.082  1.00  0.00     0.134 A 
ATOM     83  F   UNL A   1      45.865  29.982  34.420  1.00  0.00    -0.206 F 
ATOM     84  C   UNL A   1      46.742  28.028  35.383  1.00  0.00     0.040 A 
ATOM     85  C   UNL A   1      45.268  26.425  36.410  1.00  0.00     0.040 A 
ATOM     86  F   UNL A   1      42.952  26.802  36.431  1.00  0.00    -0.206 F 
ATOM     87  C   UNL A   1      46.555  26.822  36.055  1.00  0.00     0.006 A 
ENDBRANCH  63  80
ENDBRANCH  37  38
ENDBRANCH  29  32
ENDBRANCH  27  28
ENDBRANCH  26  27
ENDBRANCH  25  26
ENDBRANCH  24  25
ENDBRANCH   1  24
TORSDOF 17
ENDMDL
