MODEL 1
REMARK VINA RESULT:     -11.5      0.000      0.000
REMARK SMILES O=C(NCCCCCCNC(=O)[C@@H]1C=C[C@H](NC(=O)[C@@H]2Cc3ccccc3O2)C1)c1ccc(-c2c3nc(c(-c4c(F)cccc4F)c4ccc([nH]4)c(-c4c(F)cccc4F)c4nc(c(-c5c(F)cccc5F)c5ccc2[nH]5)C=C4)C=C3)cc1
REMARK SMILES IDX 6 1 5 2 4 3 3 4 1 5 2 6 30 8 31 9 83 10 32 11 82 12 33 13
REMARK SMILES IDX 34 14 35 15 76 16 36 17 81 18 75 19 77 20 37 21 80 22 74 23
REMARK SMILES IDX 73 24 38 26 64 27 47 28 63 29 48 30 51 31 62 32 78 33 49 34
REMARK SMILES IDX 50 35 61 37 79 38 52 39 39 40 40 41 45 42 41 43 42 44 44 45
REMARK SMILES IDX 46 46 43 47 65 48 66 49 71 50 67 51 68 52 70 53 72 54 69 55
REMARK SMILES IDX 53 56 54 57 59 58 55 59 56 60 58 61 60 62 57 63 7 64 8 65
REMARK SMILES IDX 9 66 10 67 11 68 12 70 13 71 14 72 29 73 15 74 16 75 17 76
REMARK SMILES IDX 18 77 19 79 20 80 21 81 28 82 22 83 27 84 23 85 26 86 24 87
REMARK SMILES IDX 25 88
REMARK H PARENT 3 7 77 25 51 36 10 69 17 78
REMARK Flexibility Score: inf
ROOT
ATOM      1  C   UNL A   1      37.783  20.958  24.852  1.00  0.00     0.002 C 
ENDROOT
BRANCH   1   2
ATOM      2  C   UNL A   1      38.528  19.629  24.917  1.00  0.00     0.021 C 
BRANCH   2   3
ATOM      3  C   UNL A   1      39.384  19.465  26.162  1.00  0.00     0.116 C 
BRANCH   3   4
ATOM      4  N   UNL A   1      40.663  18.850  25.859  1.00  0.00    -0.352 N 
ATOM      5  O   UNL A   1      42.867  18.866  25.357  1.00  0.00    -0.269 OA
ATOM      6  C   UNL A   1      41.902  19.443  25.839  1.00  0.00     0.251 C 
ATOM      7  H   UNL A   1      40.640  17.890  25.642  1.00  0.00     0.163 HD
BRANCH   6   8
ATOM      8  C   UNL A   1      42.049  20.802  26.402  1.00  0.00     0.039 A 
ATOM      9  C   UNL A   1      42.039  20.993  27.787  1.00  0.00     0.014 A 
ATOM     10  C   UNL A   1      42.203  21.890  25.540  1.00  0.00     0.014 A 
ATOM     11  C   UNL A   1      42.069  22.278  28.308  1.00  0.00     0.010 A 
ATOM     12  C   UNL A   1      42.336  23.176  26.070  1.00  0.00     0.010 A 
ATOM     13  C   UNL A   1      42.269  23.378  27.458  1.00  0.00    -0.014 A 
BRANCH  13  14
ATOM     14  C   UNL A   1      42.570  24.700  28.058  1.00  0.00     0.031 A 
ATOM     15  C   UNL A   1      41.501  25.726  28.290  1.00  0.00     0.074 A 
ATOM     16  C   UNL A   1      43.852  24.960  28.383  1.00  0.00     0.049 A 
ATOM     17  N   UNL A   1      41.620  26.936  28.776  1.00  0.00    -0.248 NA
ATOM     18  C   UNL A   1      40.123  25.359  27.927  1.00  0.00     0.031 C 
ATOM     19  C   UNL A   1      44.976  24.038  28.178  1.00  0.00     0.029 A 
ATOM     20  N   UNL A   1      44.434  26.063  28.950  1.00  0.00    -0.354 N 
ATOM     21  C   UNL A   1      40.344  27.482  28.761  1.00  0.00     0.074 A 
ATOM     22  C   UNL A   1      39.462  26.477  28.206  1.00  0.00     0.031 C 
ATOM     23  C   UNL A   1      46.100  24.600  28.639  1.00  0.00     0.029 A 
ATOM     24  C   UNL A   1      45.796  25.948  29.096  1.00  0.00     0.049 A 
ATOM     25  H   UNL A   1      43.926  26.861  29.226  1.00  0.00     0.167 HD
ATOM     26  C   UNL A   1      39.956  28.712  29.173  1.00  0.00     0.037 A 
ATOM     27  C   UNL A   1      46.709  26.844  29.511  1.00  0.00     0.037 A 
ATOM     28  C   UNL A   1      40.846  29.695  29.739  1.00  0.00     0.049 A 
ATOM     29  C   UNL A   1      46.244  28.210  29.921  1.00  0.00     0.074 A 
ATOM     30  C   UNL A   1      40.532  30.943  30.254  1.00  0.00     0.029 A 
ATOM     31  N   UNL A   1      42.220  29.554  29.848  1.00  0.00    -0.354 N 
ATOM     32  N   UNL A   1      45.024  28.684  29.972  1.00  0.00    -0.248 NA
ATOM     33  C   UNL A   1      47.282  29.167  30.322  1.00  0.00     0.031 C 
ATOM     34  C   UNL A   1      41.722  31.581  30.611  1.00  0.00     0.029 A 
ATOM     35  C   UNL A   1      42.773  30.709  30.378  1.00  0.00     0.049 A 
ATOM     36  H   UNL A   1      42.728  28.751  29.589  1.00  0.00     0.167 HD
ATOM     37  C   UNL A   1      45.146  29.992  30.420  1.00  0.00     0.074 A 
ATOM     38  C   UNL A   1      46.555  30.222  30.660  1.00  0.00     0.031 C 
ATOM     39  C   UNL A   1      44.179  30.922  30.606  1.00  0.00     0.037 A 
BRANCH  26  40
ATOM     40  C   UNL A   1      38.512  29.093  29.021  1.00  0.00     0.057 A 
ATOM     41  C   UNL A   1      37.613  29.045  30.094  1.00  0.00     0.134 A 
ATOM     42  C   UNL A   1      38.046  29.625  27.811  1.00  0.00     0.134 A 
ATOM     43  F   UNL A   1      37.993  28.542  31.278  1.00  0.00    -0.206 F 
ATOM     44  C   UNL A   1      36.302  29.510  29.967  1.00  0.00     0.040 A 
ATOM     45  C   UNL A   1      36.744  30.114  27.679  1.00  0.00     0.040 A 
ATOM     46  F   UNL A   1      38.858  29.708  26.747  1.00  0.00    -0.206 F 
ATOM     47  C   UNL A   1      35.869  30.059  28.761  1.00  0.00     0.006 A 
ENDBRANCH  26  40
BRANCH  27  48
ATOM     48  C   UNL A   1      48.152  26.496  29.506  1.00  0.00     0.057 A 
ATOM     49  C   UNL A   1      48.969  26.788  28.409  1.00  0.00     0.134 A 
ATOM     50  C   UNL A   1      48.744  25.834  30.591  1.00  0.00     0.134 A 
ATOM     51  F   UNL A   1      48.459  27.408  27.333  1.00  0.00    -0.206 F 
ATOM     52  C   UNL A   1      50.312  26.408  28.374  1.00  0.00     0.040 A 
ATOM     53  C   UNL A   1      50.092  25.480  30.585  1.00  0.00     0.040 A 
ATOM     54  F   UNL A   1      48.019  25.534  31.679  1.00  0.00    -0.206 F 
ATOM     55  C   UNL A   1      50.877  25.753  29.468  1.00  0.00     0.006 A 
ENDBRANCH  27  48
BRANCH  39  56
ATOM     56  C   UNL A   1      44.619  32.267  31.104  1.00  0.00     0.057 A 
ATOM     57  C   UNL A   1      44.921  33.314  30.226  1.00  0.00     0.134 A 
ATOM     58  C   UNL A   1      44.716  32.524  32.477  1.00  0.00     0.134 A 
ATOM     59  F   UNL A   1      44.866  33.126  28.899  1.00  0.00    -0.206 F 
ATOM     60  C   UNL A   1      45.328  34.563  30.694  1.00  0.00     0.040 A 
ATOM     61  C   UNL A   1      45.092  33.779  32.959  1.00  0.00     0.040 A 
ATOM     62  F   UNL A   1      44.434  31.566  33.373  1.00  0.00    -0.206 F 
ATOM     63  C   UNL A   1      45.407  34.800  32.066  1.00  0.00     0.006 A 
ENDBRANCH  39  56
ENDBRANCH  13  14
ENDBRANCH   6   8
ENDBRANCH   3   4
ENDBRANCH   2   3
ENDBRANCH   1   2
BRANCH   1  64
ATOM     64  C   UNL A   1      38.320  22.036  25.797  1.00  0.00     0.002 C 
BRANCH  64  65
ATOM     65  C   UNL A   1      37.483  23.325  25.870  1.00  0.00     0.021 C 
BRANCH  65  66
ATOM     66  C   UNL A   1      36.815  23.753  24.550  1.00  0.00     0.116 C 
BRANCH  66  67
ATOM     67  N   UNL A   1      35.439  24.143  24.752  1.00  0.00    -0.356 N 
ATOM     68  C   UNL A   1      34.534  23.736  23.816  1.00  0.00     0.227 C 
ATOM     69  H   UNL A   1      35.167  24.679  25.532  1.00  0.00     0.163 HD
ATOM     70  O   UNL A   1      34.204  24.583  22.993  1.00  0.00    -0.274 OA
BRANCH  68  71
ATOM     71  C   UNL A   1      34.149  22.252  23.770  1.00  0.00     0.103 C 
ATOM     72  C   UNL A   1      32.880  22.095  22.990  1.00  0.00    -0.016 C 
ATOM     73  C   UNL A   1      33.782  21.634  25.134  1.00  0.00     0.047 C 
ATOM     74  C   UNL A   1      31.852  21.697  23.751  1.00  0.00    -0.006 C 
ATOM     75  C   UNL A   1      32.262  21.406  25.154  1.00  0.00     0.106 C 
BRANCH  75  76
ATOM     76  N   UNL A   1      31.382  22.040  26.137  1.00  0.00    -0.347 N 
ATOM     77  C   UNL A   1      30.911  23.294  26.425  1.00  0.00     0.261 C 
ATOM     78  H   UNL A   1      31.029  21.377  26.773  1.00  0.00     0.164 HD
ATOM     79  O   UNL A   1      30.044  23.384  27.300  1.00  0.00    -0.271 OA
BRANCH  77  80
ATOM     80  C   UNL A   1      31.451  24.513  25.696  1.00  0.00     0.266 C 
ATOM     81  C   UNL A   1      32.569  25.197  26.485  1.00  0.00     0.095 C 
ATOM     82  O   UNL A   1      30.552  25.575  25.292  1.00  0.00    -0.480 OA
ATOM     83  C   UNL A   1      32.657  26.430  25.672  1.00  0.00    -0.002 A 
ATOM     84  C   UNL A   1      31.437  26.607  25.033  1.00  0.00     0.123 A 
ATOM     85  C   UNL A   1      33.711  27.305  25.485  1.00  0.00     0.008 A 
ATOM     86  C   UNL A   1      31.209  27.687  24.208  1.00  0.00     0.047 A 
ATOM     87  C   UNL A   1      33.512  28.389  24.630  1.00  0.00     0.001 A 
ATOM     88  C   UNL A   1      32.268  28.583  24.001  1.00  0.00     0.004 A 
ENDBRANCH  77  80
ENDBRANCH  75  76
ENDBRANCH  68  71
ENDBRANCH  66  67
ENDBRANCH  65  66
ENDBRANCH  64  65
ENDBRANCH   1  64
TORSDOF 15
ENDMDL
MODEL 2
REMARK VINA RESULT:     -11.3      4.261      9.366
REMARK SMILES O=C(NCCCCCCNC(=O)[C@@H]1C=C[C@H](NC(=O)[C@@H]2Cc3ccccc3O2)C1)c1ccc(-c2c3nc(c(-c4c(F)cccc4F)c4ccc([nH]4)c(-c4c(F)cccc4F)c4nc(c(-c5c(F)cccc5F)c5ccc2[nH]5)C=C4)C=C3)cc1
REMARK SMILES IDX 6 1 5 2 4 3 3 4 1 5 2 6 30 8 31 9 83 10 32 11 82 12 33 13
REMARK SMILES IDX 34 14 35 15 76 16 36 17 81 18 75 19 77 20 37 21 80 22 74 23
REMARK SMILES IDX 73 24 38 26 64 27 47 28 63 29 48 30 51 31 62 32 78 33 49 34
REMARK SMILES IDX 50 35 61 37 79 38 52 39 39 40 40 41 45 42 41 43 42 44 44 45
REMARK SMILES IDX 46 46 43 47 65 48 66 49 71 50 67 51 68 52 70 53 72 54 69 55
REMARK SMILES IDX 53 56 54 57 59 58 55 59 56 60 58 61 60 62 57 63 7 64 8 65
REMARK SMILES IDX 9 66 10 67 11 68 12 70 13 71 14 72 29 73 15 74 16 75 17 76
REMARK SMILES IDX 18 77 19 79 20 80 21 81 28 82 22 83 27 84 23 85 26 86 24 87
REMARK SMILES IDX 25 88
REMARK H PARENT 3 7 77 25 51 36 10 69 17 78
REMARK Flexibility Score: inf
ROOT
ATOM      1  C   UNL A   1      31.603  30.709  26.296  1.00  0.00     0.002 C 
ENDROOT
BRANCH   1   2
ATOM      2  C   UNL A   1      31.391  32.169  26.686  1.00  0.00     0.021 C 
BRANCH   2   3
ATOM      3  C   UNL A   1      32.625  32.833  27.274  1.00  0.00     0.116 C 
BRANCH   3   4
ATOM      4  N   UNL A   1      32.372  34.216  27.635  1.00  0.00    -0.352 N 
ATOM      5  O   UNL A   1      32.529  36.040  28.961  1.00  0.00    -0.269 OA
ATOM      6  C   UNL A   1      32.984  34.958  28.615  1.00  0.00     0.251 C 
ATOM      7  H   UNL A   1      31.677  34.678  27.113  1.00  0.00     0.163 HD
BRANCH   6   8
ATOM      8  C   UNL A   1      34.202  34.421  29.258  1.00  0.00     0.039 A 
ATOM      9  C   UNL A   1      34.113  33.748  30.480  1.00  0.00     0.014 A 
ATOM     10  C   UNL A   1      35.440  34.587  28.632  1.00  0.00     0.014 A 
ATOM     11  C   UNL A   1      35.268  33.339  31.131  1.00  0.00     0.010 A 
ATOM     12  C   UNL A   1      36.593  34.085  29.240  1.00  0.00     0.010 A 
ATOM     13  C   UNL A   1      36.514  33.458  30.495  1.00  0.00    -0.014 A 
BRANCH  13  14
ATOM     14  C   UNL A   1      37.688  32.773  31.087  1.00  0.00     0.031 A 
ATOM     15  C   UNL A   1      38.296  31.557  30.454  1.00  0.00     0.074 A 
ATOM     16  C   UNL A   1      38.192  33.276  32.231  1.00  0.00     0.049 A 
ATOM     17  N   UNL A   1      39.304  30.834  30.875  1.00  0.00    -0.248 NA
ATOM     18  C   UNL A   1      37.701  31.081  29.196  1.00  0.00     0.031 C 
ATOM     19  C   UNL A   1      37.660  34.445  32.943  1.00  0.00     0.029 A 
ATOM     20  N   UNL A   1      39.255  32.880  33.000  1.00  0.00    -0.354 N 
ATOM     21  C   UNL A   1      39.453  29.810  29.949  1.00  0.00     0.074 A 
ATOM     22  C   UNL A   1      38.424  29.995  28.947  1.00  0.00     0.031 C 
ATOM     23  C   UNL A   1      38.416  34.687  34.022  1.00  0.00     0.029 A 
ATOM     24  C   UNL A   1      39.431  33.649  34.126  1.00  0.00     0.049 A 
ATOM     25  H   UNL A   1      39.836  32.119  32.769  1.00  0.00     0.167 HD
ATOM     26  C   UNL A   1      40.367  28.811  29.946  1.00  0.00     0.037 A 
ATOM     27  C   UNL A   1      40.286  33.511  35.154  1.00  0.00     0.037 A 
ATOM     28  C   UNL A   1      41.395  28.651  30.945  1.00  0.00     0.049 A 
ATOM     29  C   UNL A   1      41.257  32.367  35.134  1.00  0.00     0.074 A 
ATOM     30  C   UNL A   1      42.413  27.712  30.987  1.00  0.00     0.029 A 
ATOM     31  N   UNL A   1      41.527  29.433  32.082  1.00  0.00    -0.354 N 
ATOM     32  N   UNL A   1      41.435  31.453  34.213  1.00  0.00    -0.248 NA
ATOM     33  C   UNL A   1      42.139  32.231  36.300  1.00  0.00     0.031 C 
ATOM     34  C   UNL A   1      43.117  27.884  32.181  1.00  0.00     0.029 A 
ATOM     35  C   UNL A   1      42.579  28.967  32.855  1.00  0.00     0.049 A 
ATOM     36  H   UNL A   1      40.958  30.204  32.307  1.00  0.00     0.167 HD
ATOM     37  C   UNL A   1      42.455  30.638  34.683  1.00  0.00     0.074 A 
ATOM     38  C   UNL A   1      42.880  31.189  35.952  1.00  0.00     0.031 C 
ATOM     39  C   UNL A   1      42.985  29.527  34.118  1.00  0.00     0.037 A 
BRANCH  26  40
ATOM     40  C   UNL A   1      40.306  27.790  28.849  1.00  0.00     0.057 A 
ATOM     41  C   UNL A   1      41.064  27.910  27.678  1.00  0.00     0.134 A 
ATOM     42  C   UNL A   1      39.564  26.613  29.020  1.00  0.00     0.134 A 
ATOM     43  F   UNL A   1      41.791  29.013  27.448  1.00  0.00    -0.206 F 
ATOM     44  C   UNL A   1      41.084  26.897  26.716  1.00  0.00     0.040 A 
ATOM     45  C   UNL A   1      39.594  25.584  28.076  1.00  0.00     0.040 A 
ATOM     46  F   UNL A   1      38.822  26.430  30.123  1.00  0.00    -0.206 F 
ATOM     47  C   UNL A   1      40.358  25.724  26.920  1.00  0.00     0.006 A 
ENDBRANCH  26  40
BRANCH  27  48
ATOM     48  C   UNL A   1      40.226  34.444  36.307  1.00  0.00     0.057 A 
ATOM     49  C   UNL A   1      40.968  35.630  36.326  1.00  0.00     0.134 A 
ATOM     50  C   UNL A   1      39.445  34.155  37.435  1.00  0.00     0.134 A 
ATOM     51  F   UNL A   1      41.746  35.955  35.283  1.00  0.00    -0.206 F 
ATOM     52  C   UNL A   1      40.962  36.478  37.434  1.00  0.00     0.040 A 
ATOM     53  C   UNL A   1      39.402  35.011  38.535  1.00  0.00     0.040 A 
ATOM     54  F   UNL A   1      38.702  33.040  37.477  1.00  0.00    -0.206 F 
ATOM     55  C   UNL A   1      40.174  36.170  38.543  1.00  0.00     0.006 A 
ENDBRANCH  27  48
BRANCH  39  56
ATOM     56  C   UNL A   1      44.091  28.846  34.870  1.00  0.00     0.057 A 
ATOM     57  C   UNL A   1      45.433  29.202  34.685  1.00  0.00     0.134 A 
ATOM     58  C   UNL A   1      43.809  27.843  35.806  1.00  0.00     0.134 A 
ATOM     59  F   UNL A   1      45.771  30.141  33.790  1.00  0.00    -0.206 F 
ATOM     60  C   UNL A   1      46.457  28.566  35.388  1.00  0.00     0.040 A 
ATOM     61  C   UNL A   1      44.822  27.223  36.537  1.00  0.00     0.040 A 
ATOM     62  F   UNL A   1      42.543  27.460  36.035  1.00  0.00    -0.206 F 
ATOM     63  C   UNL A   1      46.152  27.579  36.323  1.00  0.00     0.006 A 
ENDBRANCH  39  56
ENDBRANCH  13  14
ENDBRANCH   6   8
ENDBRANCH   3   4
ENDBRANCH   2   3
ENDBRANCH   1   2
BRANCH   1  64
ATOM     64  C   UNL A   1      33.071  30.291  26.172  1.00  0.00     0.002 C 
BRANCH  64  65
ATOM     65  C   UNL A   1      33.561  29.290  27.233  1.00  0.00     0.021 C 
BRANCH  65  66
ATOM     66  C   UNL A   1      32.645  28.074  27.466  1.00  0.00     0.116 C 
BRANCH  66  67
ATOM     67  N   UNL A   1      32.801  27.084  26.427  1.00  0.00    -0.356 N 
ATOM     68  C   UNL A   1      31.696  26.358  26.090  1.00  0.00     0.227 C 
ATOM     69  H   UNL A   1      33.667  26.939  25.982  1.00  0.00     0.163 HD
ATOM     70  O   UNL A   1      31.638  25.228  26.564  1.00  0.00    -0.274 OA
BRANCH  68  71
ATOM     71  C   UNL A   1      30.574  27.055  25.312  1.00  0.00     0.103 C 
ATOM     72  C   UNL A   1      29.701  26.021  24.669  1.00  0.00    -0.016 C 
ATOM     73  C   UNL A   1      31.044  27.894  24.107  1.00  0.00     0.047 C 
ATOM     74  C   UNL A   1      29.787  26.033  23.333  1.00  0.00    -0.006 C 
ATOM     75  C   UNL A   1      30.642  27.144  22.826  1.00  0.00     0.106 C 
BRANCH  75  76
ATOM     76  N   UNL A   1      31.621  26.690  21.838  1.00  0.00    -0.347 N 
ATOM     77  C   UNL A   1      32.564  25.703  21.715  1.00  0.00     0.261 C 
ATOM     78  H   UNL A   1      31.597  27.255  21.032  1.00  0.00     0.164 HD
ATOM     79  O   UNL A   1      33.113  25.581  20.616  1.00  0.00    -0.271 OA
BRANCH  77  80
ATOM     80  C   UNL A   1      32.916  24.813  22.895  1.00  0.00     0.266 C 
ATOM     81  C   UNL A   1      34.122  25.347  23.670  1.00  0.00     0.095 C 
ATOM     82  O   UNL A   1      33.177  23.403  22.689  1.00  0.00    -0.480 OA
ATOM     83  C   UNL A   1      34.350  24.160  24.522  1.00  0.00    -0.002 A 
ATOM     84  C   UNL A   1      33.805  23.059  23.873  1.00  0.00     0.123 A 
ATOM     85  C   UNL A   1      34.955  24.050  25.761  1.00  0.00     0.008 A 
ATOM     86  C   UNL A   1      33.874  21.797  24.422  1.00  0.00     0.047 A 
ATOM     87  C   UNL A   1      35.008  22.785  26.348  1.00  0.00     0.001 A 
ATOM     88  C   UNL A   1      34.478  21.665  25.680  1.00  0.00     0.004 A 
ENDBRANCH  77  80
ENDBRANCH  75  76
ENDBRANCH  68  71
ENDBRANCH  66  67
ENDBRANCH  65  66
ENDBRANCH  64  65
ENDBRANCH   1  64
TORSDOF 15
ENDMDL
MODEL 3
REMARK VINA RESULT:     -11.3      4.196      9.263
REMARK SMILES O=C(NCCCCCCNC(=O)[C@@H]1C=C[C@H](NC(=O)[C@@H]2Cc3ccccc3O2)C1)c1ccc(-c2c3nc(c(-c4c(F)cccc4F)c4ccc([nH]4)c(-c4c(F)cccc4F)c4nc(c(-c5c(F)cccc5F)c5ccc2[nH]5)C=C4)C=C3)cc1
REMARK SMILES IDX 6 1 5 2 4 3 3 4 1 5 2 6 30 8 31 9 83 10 32 11 82 12 33 13
REMARK SMILES IDX 34 14 35 15 76 16 36 17 81 18 75 19 77 20 37 21 80 22 74 23
REMARK SMILES IDX 73 24 38 26 64 27 47 28 63 29 48 30 51 31 62 32 78 33 49 34
REMARK SMILES IDX 50 35 61 37 79 38 52 39 39 40 40 41 45 42 41 43 42 44 44 45
REMARK SMILES IDX 46 46 43 47 65 48 66 49 71 50 67 51 68 52 70 53 72 54 69 55
REMARK SMILES IDX 53 56 54 57 59 58 55 59 56 60 58 61 60 62 57 63 7 64 8 65
REMARK SMILES IDX 9 66 10 67 11 68 12 70 13 71 14 72 29 73 15 74 16 75 17 76
REMARK SMILES IDX 18 77 19 79 20 80 21 81 28 82 22 83 27 84 23 85 26 86 24 87
REMARK SMILES IDX 25 88
REMARK H PARENT 3 7 77 25 51 36 10 69 17 78
REMARK Flexibility Score: inf
ROOT
ATOM      1  C   UNL A   1      31.642  30.517  25.764  1.00  0.00     0.002 C 
ENDROOT
BRANCH   1   2
ATOM      2  C   UNL A   1      31.393  31.844  26.474  1.00  0.00     0.021 C 
BRANCH   2   3
ATOM      3  C   UNL A   1      32.619  32.403  27.177  1.00  0.00     0.116 C 
BRANCH   3   4
ATOM      4  N   UNL A   1      32.454  33.805  27.515  1.00  0.00    -0.352 N 
ATOM      5  O   UNL A   1      32.732  35.639  28.808  1.00  0.00    -0.269 OA
ATOM      6  C   UNL A   1      33.119  34.526  28.477  1.00  0.00     0.251 C 
ATOM      7  H   UNL A   1      31.782  34.299  26.991  1.00  0.00     0.163 HD
BRANCH   6   8
ATOM      8  C   UNL A   1      34.309  33.928  29.117  1.00  0.00     0.039 A 
ATOM      9  C   UNL A   1      34.157  32.991  30.144  1.00  0.00     0.014 A 
ATOM     10  C   UNL A   1      35.584  34.302  28.685  1.00  0.00     0.014 A 
ATOM     11  C   UNL A   1      35.273  32.512  30.814  1.00  0.00     0.010 A 
ATOM     12  C   UNL A   1      36.709  33.742  29.293  1.00  0.00     0.010 A 
ATOM     13  C   UNL A   1      36.561  32.844  30.363  1.00  0.00    -0.014 A 
BRANCH  13  14
ATOM     14  C   UNL A   1      37.724  32.110  30.918  1.00  0.00     0.031 A 
ATOM     15  C   UNL A   1      38.427  31.037  30.141  1.00  0.00     0.074 A 
ATOM     16  C   UNL A   1      38.129  32.434  32.162  1.00  0.00     0.049 A 
ATOM     17  N   UNL A   1      39.437  30.290  30.508  1.00  0.00    -0.248 NA
ATOM     18  C   UNL A   1      37.936  30.757  28.782  1.00  0.00     0.031 C 
ATOM     19  C   UNL A   1      37.501  33.449  33.015  1.00  0.00     0.029 A 
ATOM     20  N   UNL A   1      39.158  31.953  32.930  1.00  0.00    -0.354 N 
ATOM     21  C   UNL A   1      39.692  29.440  29.441  1.00  0.00     0.074 A 
ATOM     22  C   UNL A   1      38.723  29.753  28.412  1.00  0.00     0.031 C 
ATOM     23  C   UNL A   1      38.173  33.535  34.170  1.00  0.00     0.029 A 
ATOM     24  C   UNL A   1      39.225  32.530  34.176  1.00  0.00     0.049 A 
ATOM     25  H   UNL A   1      39.786  31.261  32.620  1.00  0.00     0.167 HD
ATOM     26  C   UNL A   1      40.649  28.487  29.341  1.00  0.00     0.037 A 
ATOM     27  C   UNL A   1      40.018  32.253  35.225  1.00  0.00     0.037 A 
ATOM     28  C   UNL A   1      41.617  28.199  30.371  1.00  0.00     0.049 A 
ATOM     29  C   UNL A   1      41.038  31.162  35.089  1.00  0.00     0.074 A 
ATOM     30  C   UNL A   1      42.671  27.301  30.331  1.00  0.00     0.029 A 
ATOM     31  N   UNL A   1      41.639  28.785  31.627  1.00  0.00    -0.354 N 
ATOM     32  N   UNL A   1      41.317  30.419  34.047  1.00  0.00    -0.248 NA
ATOM     33  C   UNL A   1      41.849  30.864  36.277  1.00  0.00     0.031 C 
ATOM     34  C   UNL A   1      43.288  27.296  31.585  1.00  0.00     0.029 A 
ATOM     35  C   UNL A   1      42.659  28.234  32.387  1.00  0.00     0.049 A 
ATOM     36  H   UNL A   1      41.022  29.489  31.933  1.00  0.00     0.167 HD
ATOM     37  C   UNL A   1      42.341  29.573  34.448  1.00  0.00     0.074 A 
ATOM     38  C   UNL A   1      42.657  29.920  35.818  1.00  0.00     0.031 C 
ATOM     39  C   UNL A   1      42.957  28.590  33.750  1.00  0.00     0.037 A 
BRANCH  26  40
ATOM     40  C   UNL A   1      40.705  27.660  28.090  1.00  0.00     0.057 A 
ATOM     41  C   UNL A   1      41.469  28.041  26.980  1.00  0.00     0.134 A 
ATOM     42  C   UNL A   1      40.077  26.407  28.042  1.00  0.00     0.134 A 
ATOM     43  F   UNL A   1      42.091  29.229  26.957  1.00  0.00    -0.206 F 
ATOM     44  C   UNL A   1      41.603  27.208  25.866  1.00  0.00     0.040 A 
ATOM     45  C   UNL A   1      40.223  25.557  26.944  1.00  0.00     0.040 A 
ATOM     46  F   UNL A   1      39.338  25.977  29.075  1.00  0.00    -0.206 F 
ATOM     47  C   UNL A   1      40.990  25.956  25.853  1.00  0.00     0.006 A 
ENDBRANCH  26  40
BRANCH  27  48
ATOM     48  C   UNL A   1      39.841  32.979  36.508  1.00  0.00     0.057 A 
ATOM     49  C   UNL A   1      38.905  32.560  37.461  1.00  0.00     0.134 A 
ATOM     50  C   UNL A   1      40.584  34.131  36.800  1.00  0.00     0.134 A 
ATOM     51  F   UNL A   1      38.153  31.473  37.234  1.00  0.00    -0.206 F 
ATOM     52  C   UNL A   1      38.692  33.275  38.640  1.00  0.00     0.040 A 
ATOM     53  C   UNL A   1      40.407  34.835  37.989  1.00  0.00     0.040 A 
ATOM     54  F   UNL A   1      41.505  34.581  35.934  1.00  0.00    -0.206 F 
ATOM     55  C   UNL A   1      39.447  34.416  38.908  1.00  0.00     0.006 A 
ENDBRANCH  27  48
BRANCH  39  56
ATOM     56  C   UNL A   1      44.042  27.832  34.457  1.00  0.00     0.057 A 
ATOM     57  C   UNL A   1      43.772  26.662  35.177  1.00  0.00     0.134 A 
ATOM     58  C   UNL A   1      45.372  28.264  34.396  1.00  0.00     0.134 A 
ATOM     59  F   UNL A   1      42.516  26.207  35.290  1.00  0.00    -0.206 F 
ATOM     60  C   UNL A   1      44.785  25.961  35.832  1.00  0.00     0.040 A 
ATOM     61  C   UNL A   1      46.399  27.555  35.020  1.00  0.00     0.040 A 
ATOM     62  F   UNL A   1      45.699  29.375  33.716  1.00  0.00    -0.206 F 
ATOM     63  C   UNL A   1      46.104  26.403  35.747  1.00  0.00     0.006 A 
ENDBRANCH  39  56
ENDBRANCH  13  14
ENDBRANCH   6   8
ENDBRANCH   3   4
ENDBRANCH   2   3
ENDBRANCH   1   2
BRANCH   1  64
ATOM     64  C   UNL A   1      32.982  29.857  26.101  1.00  0.00     0.002 C 
BRANCH  64  65
ATOM     65  C   UNL A   1      32.888  28.559  26.922  1.00  0.00     0.021 C 
BRANCH  65  66
ATOM     66  C   UNL A   1      31.462  28.032  27.163  1.00  0.00     0.116 C 
BRANCH  66  67
ATOM     67  N   UNL A   1      31.424  26.589  27.187  1.00  0.00    -0.356 N 
ATOM     68  C   UNL A   1      30.704  25.970  26.209  1.00  0.00     0.227 C 
ATOM     69  H   UNL A   1      31.899  26.075  27.880  1.00  0.00     0.163 HD
ATOM     70  O   UNL A   1      29.590  25.576  26.537  1.00  0.00    -0.274 OA
BRANCH  68  71
ATOM     71  C   UNL A   1      31.261  25.971  24.780  1.00  0.00     0.103 C 
ATOM     72  C   UNL A   1      30.178  25.569  23.827  1.00  0.00    -0.016 C 
ATOM     73  C   UNL A   1      32.354  24.919  24.508  1.00  0.00     0.047 C 
ATOM     74  C   UNL A   1      30.412  24.383  23.251  1.00  0.00    -0.006 C 
ATOM     75  C   UNL A   1      31.742  23.822  23.622  1.00  0.00     0.106 C 
BRANCH  75  76
ATOM     76  N   UNL A   1      31.662  22.422  24.042  1.00  0.00    -0.347 N 
ATOM     77  C   UNL A   1      32.498  21.456  24.538  1.00  0.00     0.261 C 
ATOM     78  H   UNL A   1      30.747  22.074  23.936  1.00  0.00     0.164 HD
ATOM     79  O   UNL A   1      31.982  20.395  24.901  1.00  0.00    -0.271 OA
BRANCH  77  80
ATOM     80  C   UNL A   1      33.997  21.694  24.622  1.00  0.00     0.266 C 
ATOM     81  C   UNL A   1      34.765  20.396  24.872  1.00  0.00     0.095 C 
ATOM     82  O   UNL A   1      34.528  22.651  25.571  1.00  0.00    -0.480 OA
ATOM     83  C   UNL A   1      36.083  21.000  25.165  1.00  0.00    -0.002 A 
ATOM     84  C   UNL A   1      35.866  22.301  25.601  1.00  0.00     0.123 A 
ATOM     85  C   UNL A   1      37.356  20.475  25.043  1.00  0.00     0.008 A 
ATOM     86  C   UNL A   1      36.914  23.119  25.964  1.00  0.00     0.047 A 
ATOM     87  C   UNL A   1      38.433  21.297  25.377  1.00  0.00     0.001 A 
ATOM     88  C   UNL A   1      38.214  22.607  25.842  1.00  0.00     0.004 A 
ENDBRANCH  77  80
ENDBRANCH  75  76
ENDBRANCH  68  71
ENDBRANCH  66  67
ENDBRANCH  65  66
ENDBRANCH  64  65
ENDBRANCH   1  64
TORSDOF 15
ENDMDL
