MODEL 1
REMARK VINA RESULT:     -13.5      0.000      0.000
REMARK SMILES Cc1cccc(N2CCN(c3ncc(NC(=O)c4ccccc4F)cc3C(=O)NCCCCCCNC(=O)c3ccc(-c4c5nc(c(-c6c(F)cccc6F)c6ccc([nH]6)c(-c6c(F)cccc6F)c6nc(c(-c7c(F)cccc7F)c7ccc4[nH]7)C=C6)C=C5)cc3)C[C@@H]2C)c1
REMARK SMILES IDX 32 1 31 2 30 3 29 4 27 5 28 6 26 8 11 9 12 10 13 11 25 12
REMARK SMILES IDX 14 13 10 14 7 15 8 16 94 17 9 18 93 19 95 20 6 21 1 22 2 23
REMARK SMILES IDX 3 24 96 25 4 26 5 27 15 28 16 29 17 31 18 32 19 33 23 34
REMARK SMILES IDX 20 35 22 36 24 37 21 38 33 39 34 40 35 41 36 42 37 43 38 45
REMARK SMILES IDX 39 46 40 47 92 48 41 49 91 50 42 51 43 52 44 53 85 54 45 55
REMARK SMILES IDX 90 56 84 57 86 58 46 59 89 60 83 61 82 62 47 64 73 65 56 66
REMARK SMILES IDX 72 67 57 68 60 69 71 70 87 71 58 72 59 73 70 75 88 76 61 77
REMARK SMILES IDX 48 78 49 79 54 80 50 81 51 82 53 83 55 84 52 85 74 86 75 87
REMARK SMILES IDX 80 88 76 89 77 90 79 91 81 92 78 93 62 94 63 95 68 96 64 97
REMARK SMILES IDX 65 98 67 99 69 100 66 101
REMARK H PARENT 29 7 15 30 36 44 86 63 60 74
REMARK Flexibility Score: inf
ROOT
ATOM      1  C   UNL A   1      34.049  28.545  26.732  1.00  0.00     0.002 C 
ENDROOT
BRANCH   1   2
ATOM      2  C   UNL A   1      33.228  27.350  26.224  1.00  0.00     0.021 C 
BRANCH   2   3
ATOM      3  C   UNL A   1      31.710  27.588  26.235  1.00  0.00     0.116 C 
BRANCH   3   4
ATOM      4  N   UNL A   1      31.039  26.479  26.882  1.00  0.00    -0.352 N 
ATOM      5  C   UNL A   1      30.255  25.560  26.218  1.00  0.00     0.255 C 
ATOM      6  O   UNL A   1      29.066  25.479  26.500  1.00  0.00    -0.269 OA
ATOM      7  H   UNL A   1      31.150  26.374  27.855  1.00  0.00     0.163 HD
BRANCH   5   8
ATOM      8  C   UNL A   1      30.869  24.690  25.195  1.00  0.00     0.084 A 
ATOM      9  C   UNL A   1      30.996  25.095  23.853  1.00  0.00     0.141 A 
ATOM     10  N   UNL A   1      31.520  24.238  22.935  1.00  0.00    -0.236 NA
ATOM     11  C   UNL A   1      31.915  23.000  23.332  1.00  0.00     0.139 A 
ATOM     12  C   UNL A   1      31.281  23.408  25.575  1.00  0.00     0.045 A 
ATOM     13  C   UNL A   1      31.797  22.535  24.631  1.00  0.00     0.060 A 
BRANCH   9  14
ATOM     14  N   UNL A   1      30.489  26.287  23.374  1.00  0.00    -0.352 N 
ATOM     15  N   UNL A   1      29.434  28.796  22.518  1.00  0.00    -0.365 N 
ATOM     16  C   UNL A   1      28.784  28.049  23.612  1.00  0.00     0.138 C 
ATOM     17  C   UNL A   1      30.859  28.473  22.236  1.00  0.00     0.098 C 
ATOM     18  C   UNL A   1      29.044  26.530  23.501  1.00  0.00     0.139 C 
ATOM     19  C   UNL A   1      31.057  26.927  22.171  1.00  0.00     0.142 C 
ATOM     20  C   UNL A   1      31.766  29.115  23.294  1.00  0.00     0.033 C 
BRANCH  15  21
ATOM     21  C   UNL A   1      28.948  30.047  22.163  1.00  0.00     0.037 A 
ATOM     22  C   UNL A   1      29.229  33.650  23.407  1.00  0.00     0.044 C 
ATOM     23  C   UNL A   1      28.828  32.459  22.592  1.00  0.00    -0.049 A 
ATOM     24  C   UNL A   1      28.069  32.628  21.431  1.00  0.00     0.003 A 
ATOM     25  C   UNL A   1      29.248  31.168  22.951  1.00  0.00     0.029 A 
ATOM     26  C   UNL A   1      27.738  31.526  20.648  1.00  0.00     0.002 A 
ATOM     27  C   UNL A   1      28.180  30.252  21.009  1.00  0.00     0.026 A 
ENDBRANCH  15  21
ENDBRANCH   9  14
BRANCH  13  28
ATOM     28  N   UNL A   1      32.098  21.229  25.048  1.00  0.00    -0.320 N 
ATOM     29  C   UNL A   1      33.310  20.589  25.143  1.00  0.00     0.258 C 
ATOM     30  H   UNL A   1      31.319  20.686  25.311  1.00  0.00     0.170 HD
ATOM     31  O   UNL A   1      33.353  19.361  25.155  1.00  0.00    -0.269 OA
BRANCH  29  32
ATOM     32  C   UNL A   1      34.557  21.354  25.358  1.00  0.00     0.075 A 
ATOM     33  C   UNL A   1      35.619  21.175  24.462  1.00  0.00     0.017 A 
ATOM     34  C   UNL A   1      34.746  22.151  26.490  1.00  0.00     0.135 A 
ATOM     35  C   UNL A   1      36.828  21.841  24.674  1.00  0.00     0.001 A 
ATOM     36  C   UNL A   1      35.939  22.834  26.690  1.00  0.00     0.040 A 
ATOM     37  F   UNL A   1      33.802  22.251  27.438  1.00  0.00    -0.206 F 
ATOM     38  C   UNL A   1      36.983  22.682  25.778  1.00  0.00     0.003 A 
ENDBRANCH  29  32
ENDBRANCH  13  28
ENDBRANCH   5   8
ENDBRANCH   3   4
ENDBRANCH   2   3
ENDBRANCH   1   2
BRANCH   1  39
ATOM     39  C   UNL A   1      33.443  29.933  26.463  1.00  0.00     0.002 C 
BRANCH  39  40
ATOM     40  C   UNL A   1      33.478  30.909  27.641  1.00  0.00     0.021 C 
BRANCH  40  41
ATOM     41  C   UNL A   1      34.717  31.791  27.665  1.00  0.00     0.116 C 
BRANCH  41  42
ATOM     42  N   UNL A   1      35.107  32.226  28.999  1.00  0.00    -0.352 N 
ATOM     43  C   UNL A   1      35.956  31.636  29.917  1.00  0.00     0.251 C 
ATOM     44  H   UNL A   1      34.702  33.073  29.294  1.00  0.00     0.163 HD
ATOM     45  O   UNL A   1      36.081  32.136  31.030  1.00  0.00    -0.269 OA
BRANCH  43  46
ATOM     46  C   UNL A   1      36.828  30.503  29.515  1.00  0.00     0.039 A 
ATOM     47  C   UNL A   1      36.892  29.393  30.372  1.00  0.00     0.014 A 
ATOM     48  C   UNL A   1      37.723  30.609  28.458  1.00  0.00     0.014 A 
ATOM     49  C   UNL A   1      38.002  28.555  30.331  1.00  0.00     0.010 A 
ATOM     50  C   UNL A   1      38.879  29.863  28.494  1.00  0.00     0.010 A 
ATOM     51  C   UNL A   1      39.046  28.879  29.471  1.00  0.00    -0.014 A 
BRANCH  51  52
ATOM     52  C   UNL A   1      40.385  28.316  29.560  1.00  0.00     0.031 A 
ATOM     53  C   UNL A   1      40.671  27.000  28.957  1.00  0.00     0.074 A 
ATOM     54  C   UNL A   1      41.384  29.094  30.030  1.00  0.00     0.049 A 
ATOM     55  N   UNL A   1      41.728  26.303  29.195  1.00  0.00    -0.248 NA
ATOM     56  C   UNL A   1      39.745  26.339  28.046  1.00  0.00     0.031 C 
ATOM     57  C   UNL A   1      42.821  28.895  29.860  1.00  0.00     0.029 A 
ATOM     58  N   UNL A   1      41.286  30.151  30.947  1.00  0.00    -0.354 N 
ATOM     59  C   UNL A   1      41.766  25.266  28.288  1.00  0.00     0.074 A 
ATOM     60  C   UNL A   1      40.478  25.300  27.638  1.00  0.00     0.031 C 
ATOM     61  C   UNL A   1      43.469  29.572  30.821  1.00  0.00     0.029 A 
ATOM     62  C   UNL A   1      42.461  30.090  31.729  1.00  0.00     0.049 A 
ATOM     63  H   UNL A   1      40.550  30.799  31.029  1.00  0.00     0.167 HD
ATOM     64  C   UNL A   1      42.937  24.586  28.117  1.00  0.00     0.037 A 
ATOM     65  C   UNL A   1      42.409  29.812  33.064  1.00  0.00     0.037 A 
ATOM     66  C   UNL A   1      43.938  25.031  29.088  1.00  0.00     0.049 A 
ATOM     67  C   UNL A   1      43.167  28.565  33.455  1.00  0.00     0.074 A 
ATOM     68  C   UNL A   1      44.989  25.932  29.009  1.00  0.00     0.029 A 
ATOM     69  N   UNL A   1      43.734  24.780  30.441  1.00  0.00    -0.354 N 
ATOM     70  N   UNL A   1      43.473  27.607  32.623  1.00  0.00    -0.248 NA
ATOM     71  C   UNL A   1      43.636  28.296  34.812  1.00  0.00     0.031 C 
ATOM     72  C   UNL A   1      45.379  26.267  30.330  1.00  0.00     0.029 A 
ATOM     73  C   UNL A   1      44.581  25.554  31.210  1.00  0.00     0.049 A 
ATOM     74  H   UNL A   1      43.078  24.140  30.800  1.00  0.00     0.167 HD
ATOM     75  C   UNL A   1      44.141  26.614  33.292  1.00  0.00     0.074 A 
ATOM     76  C   UNL A   1      44.232  27.100  34.656  1.00  0.00     0.031 C 
ATOM     77  C   UNL A   1      44.556  25.474  32.663  1.00  0.00     0.037 A 
BRANCH  64  78
ATOM     78  C   UNL A   1      43.271  23.736  26.906  1.00  0.00     0.057 A 
ATOM     79  C   UNL A   1      43.225  22.327  26.983  1.00  0.00     0.134 A 
ATOM     80  C   UNL A   1      43.701  24.222  25.661  1.00  0.00     0.134 A 
ATOM     81  F   UNL A   1      42.736  21.692  28.056  1.00  0.00    -0.206 F 
ATOM     82  C   UNL A   1      43.680  21.487  25.957  1.00  0.00     0.040 A 
ATOM     83  C   UNL A   1      44.207  23.396  24.644  1.00  0.00     0.040 A 
ATOM     84  F   UNL A   1      43.593  25.513  25.332  1.00  0.00    -0.206 F 
ATOM     85  C   UNL A   1      44.211  22.019  24.795  1.00  0.00     0.006 A 
ENDBRANCH  64  78
BRANCH  65  86
ATOM     86  C   UNL A   1      41.166  30.302  33.713  1.00  0.00     0.057 A 
ATOM     87  C   UNL A   1      41.079  31.667  34.040  1.00  0.00     0.134 A 
ATOM     88  C   UNL A   1      39.966  29.589  33.634  1.00  0.00     0.134 A 
ATOM     89  F   UNL A   1      42.196  32.407  34.135  1.00  0.00    -0.206 F 
ATOM     90  C   UNL A   1      39.852  32.322  34.158  1.00  0.00     0.040 A 
ATOM     91  C   UNL A   1      38.729  30.234  33.762  1.00  0.00     0.040 A 
ATOM     92  F   UNL A   1      39.963  28.289  33.306  1.00  0.00    -0.206 F 
ATOM     93  C   UNL A   1      38.669  31.610  33.981  1.00  0.00     0.006 A 
ENDBRANCH  65  86
BRANCH  77  94
ATOM     94  C   UNL A   1      45.059  24.214  33.330  1.00  0.00     0.057 A 
ATOM     95  C   UNL A   1      46.368  24.034  33.800  1.00  0.00     0.134 A 
ATOM     96  C   UNL A   1      44.159  23.174  33.666  1.00  0.00     0.134 A 
ATOM     97  F   UNL A   1      47.303  24.982  33.660  1.00  0.00    -0.206 F 
ATOM     98  C   UNL A   1      46.767  22.884  34.497  1.00  0.00     0.040 A 
ATOM     99  C   UNL A   1      44.533  22.050  34.410  1.00  0.00     0.040 A 
ATOM    100  F   UNL A   1      42.866  23.213  33.310  1.00  0.00    -0.206 F 
ATOM    101  C   UNL A   1      45.848  21.894  34.817  1.00  0.00     0.006 A 
ENDBRANCH  77  94
ENDBRANCH  51  52
ENDBRANCH  43  46
ENDBRANCH  41  42
ENDBRANCH  40  41
ENDBRANCH  39  40
ENDBRANCH   1  39
TORSDOF 17
ENDMDL
MODEL 2
REMARK VINA RESULT:     -13.4      1.906      3.174
REMARK SMILES Cc1cccc(N2CCN(c3ncc(NC(=O)c4ccccc4F)cc3C(=O)NCCCCCCNC(=O)c3ccc(-c4c5nc(c(-c6c(F)cccc6F)c6ccc([nH]6)c(-c6c(F)cccc6F)c6nc(c(-c7c(F)cccc7F)c7ccc4[nH]7)C=C6)C=C5)cc3)C[C@@H]2C)c1
REMARK SMILES IDX 32 1 31 2 30 3 29 4 27 5 28 6 26 8 11 9 12 10 13 11 25 12
REMARK SMILES IDX 14 13 10 14 7 15 8 16 94 17 9 18 93 19 95 20 6 21 1 22 2 23
REMARK SMILES IDX 3 24 96 25 4 26 5 27 15 28 16 29 17 31 18 32 19 33 23 34
REMARK SMILES IDX 20 35 22 36 24 37 21 38 33 39 34 40 35 41 36 42 37 43 38 45
REMARK SMILES IDX 39 46 40 47 92 48 41 49 91 50 42 51 43 52 44 53 85 54 45 55
REMARK SMILES IDX 90 56 84 57 86 58 46 59 89 60 83 61 82 62 47 64 73 65 56 66
REMARK SMILES IDX 72 67 57 68 60 69 71 70 87 71 58 72 59 73 70 75 88 76 61 77
REMARK SMILES IDX 48 78 49 79 54 80 50 81 51 82 53 83 55 84 52 85 74 86 75 87
REMARK SMILES IDX 80 88 76 89 77 90 79 91 81 92 78 93 62 94 63 95 68 96 64 97
REMARK SMILES IDX 65 98 67 99 69 100 66 101
REMARK H PARENT 29 7 15 30 36 44 86 63 60 74
REMARK Flexibility Score: inf
ROOT
ATOM      1  C   UNL A   1      34.342  28.608  26.156  1.00  0.00     0.002 C 
ENDROOT
BRANCH   1   2
ATOM      2  C   UNL A   1      33.597  27.284  26.388  1.00  0.00     0.021 C 
BRANCH   2   3
ATOM      3  C   UNL A   1      32.067  27.416  26.350  1.00  0.00     0.116 C 
BRANCH   3   4
ATOM      4  N   UNL A   1      31.453  26.232  26.916  1.00  0.00    -0.352 N 
ATOM      5  C   UNL A   1      30.695  25.338  26.191  1.00  0.00     0.255 C 
ATOM      6  O   UNL A   1      29.516  25.185  26.483  1.00  0.00    -0.269 OA
ATOM      7  H   UNL A   1      31.587  26.054  27.875  1.00  0.00     0.163 HD
BRANCH   5   8
ATOM      8  C   UNL A   1      31.324  24.579  25.091  1.00  0.00     0.084 A 
ATOM      9  C   UNL A   1      31.419  25.101  23.788  1.00  0.00     0.141 A 
ATOM     10  N   UNL A   1      31.960  24.343  22.794  1.00  0.00    -0.236 NA
ATOM     11  C   UNL A   1      32.402  23.091  23.080  1.00  0.00     0.139 A 
ATOM     12  C   UNL A   1      31.785  23.286  25.357  1.00  0.00     0.045 A 
ATOM     13  C   UNL A   1      32.317  22.514  24.337  1.00  0.00     0.060 A 
BRANCH   9  14
ATOM     14  N   UNL A   1      30.865  26.310  23.417  1.00  0.00    -0.352 N 
ATOM     15  N   UNL A   1      29.721  28.848  22.787  1.00  0.00    -0.365 N 
ATOM     16  C   UNL A   1      29.149  28.019  23.866  1.00  0.00     0.138 C 
ATOM     17  C   UNL A   1      31.132  28.571  22.403  1.00  0.00     0.098 C 
ATOM     18  C   UNL A   1      29.426  26.516  23.643  1.00  0.00     0.139 C 
ATOM     19  C   UNL A   1      31.350  27.037  22.227  1.00  0.00     0.142 C 
ATOM     20  C   UNL A   1      32.090  29.162  23.445  1.00  0.00     0.033 C 
BRANCH  15  21
ATOM     21  C   UNL A   1      29.195  30.108  22.543  1.00  0.00     0.037 A 
ATOM     22  C   UNL A   1      27.654  32.013  19.608  1.00  0.00     0.044 C 
ATOM     23  C   UNL A   1      28.173  31.697  20.978  1.00  0.00    -0.049 A 
ATOM     24  C   UNL A   1      28.023  32.622  22.014  1.00  0.00     0.003 A 
ATOM     25  C   UNL A   1      28.769  30.455  21.252  1.00  0.00     0.029 A 
ATOM     26  C   UNL A   1      28.461  32.308  23.297  1.00  0.00     0.002 A 
ATOM     27  C   UNL A   1      29.034  31.061  23.557  1.00  0.00     0.026 A 
ENDBRANCH  15  21
ENDBRANCH   9  14
BRANCH  13  28
ATOM     28  N   UNL A   1      32.668  21.188  24.638  1.00  0.00    -0.320 N 
ATOM     29  C   UNL A   1      33.906  20.602  24.732  1.00  0.00     0.258 C 
ATOM     30  H   UNL A   1      31.908  20.585  24.806  1.00  0.00     0.170 HD
ATOM     31  O   UNL A   1      34.015  19.382  24.626  1.00  0.00    -0.269 OA
BRANCH  29  32
ATOM     32  C   UNL A   1      35.100  21.401  25.086  1.00  0.00     0.075 A 
ATOM     33  C   UNL A   1      36.211  21.364  24.235  1.00  0.00     0.017 A 
ATOM     34  C   UNL A   1      35.191  22.090  26.298  1.00  0.00     0.135 A 
ATOM     35  C   UNL A   1      37.371  22.063  24.574  1.00  0.00     0.001 A 
ATOM     36  C   UNL A   1      36.336  22.807  26.626  1.00  0.00     0.040 A 
ATOM     37  F   UNL A   1      34.199  22.049  27.201  1.00  0.00    -0.206 F 
ATOM     38  C   UNL A   1      37.428  22.797  25.760  1.00  0.00     0.003 A 
ENDBRANCH  29  32
ENDBRANCH  13  28
ENDBRANCH   5   8
ENDBRANCH   3   4
ENDBRANCH   2   3
ENDBRANCH   1   2
BRANCH   1  39
ATOM     39  C   UNL A   1      34.482  29.519  27.387  1.00  0.00     0.002 C 
BRANCH  39  40
ATOM     40  C   UNL A   1      33.705  30.836  27.325  1.00  0.00     0.021 C 
BRANCH  40  41
ATOM     41  C   UNL A   1      34.543  32.056  27.681  1.00  0.00     0.116 C 
BRANCH  41  42
ATOM     42  N   UNL A   1      33.801  33.102  28.369  1.00  0.00    -0.352 N 
ATOM     43  C   UNL A   1      34.082  33.769  29.547  1.00  0.00     0.251 C 
ATOM     44  H   UNL A   1      32.966  33.379  27.926  1.00  0.00     0.163 HD
ATOM     45  O   UNL A   1      33.268  34.568  29.997  1.00  0.00    -0.269 OA
BRANCH  43  46
ATOM     46  C   UNL A   1      35.418  33.640  30.183  1.00  0.00     0.039 A 
ATOM     47  C   UNL A   1      36.517  34.199  29.512  1.00  0.00     0.014 A 
ATOM     48  C   UNL A   1      35.629  32.813  31.279  1.00  0.00     0.014 A 
ATOM     49  C   UNL A   1      37.797  33.716  29.766  1.00  0.00     0.010 A 
ATOM     50  C   UNL A   1      36.870  32.243  31.448  1.00  0.00     0.010 A 
ATOM     51  C   UNL A   1      37.941  32.649  30.647  1.00  0.00    -0.014 A 
BRANCH  51  52
ATOM     52  C   UNL A   1      39.137  31.827  30.750  1.00  0.00     0.031 A 
ATOM     53  C   UNL A   1      39.208  30.539  30.034  1.00  0.00     0.074 A 
ATOM     54  C   UNL A   1      40.231  32.348  31.348  1.00  0.00     0.049 A 
ATOM     55  N   UNL A   1      40.092  29.629  30.255  1.00  0.00    -0.248 NA
ATOM     56  C   UNL A   1      38.240  30.158  29.013  1.00  0.00     0.031 C 
ATOM     57  C   UNL A   1      41.611  31.885  31.235  1.00  0.00     0.029 A 
ATOM     58  N   UNL A   1      40.272  33.318  32.361  1.00  0.00    -0.354 N 
ATOM     59  C   UNL A   1      39.995  28.689  29.252  1.00  0.00     0.074 A 
ATOM     60  C   UNL A   1      38.788  29.035  28.541  1.00  0.00     0.031 C 
ATOM     61  C   UNL A   1      42.307  32.333  32.292  1.00  0.00     0.029 A 
ATOM     62  C   UNL A   1      41.354  32.958  33.193  1.00  0.00     0.049 A 
ATOM     63  H   UNL A   1      39.669  34.090  32.469  1.00  0.00     0.167 HD
ATOM     64  C   UNL A   1      41.024  27.809  29.075  1.00  0.00     0.037 A 
ATOM     65  C   UNL A   1      41.155  32.578  34.488  1.00  0.00     0.037 A 
ATOM     66  C   UNL A   1      42.019  27.960  30.138  1.00  0.00     0.049 A 
ATOM     67  C   UNL A   1      41.629  31.176  34.792  1.00  0.00     0.074 A 
ATOM     68  C   UNL A   1      43.226  28.639  30.206  1.00  0.00     0.029 A 
ATOM     69  N   UNL A   1      41.675  27.635  31.446  1.00  0.00    -0.354 N 
ATOM     70  N   UNL A   1      41.805  30.255  33.885  1.00  0.00    -0.248 NA
ATOM     71  C   UNL A   1      41.940  30.701  36.138  1.00  0.00     0.031 C 
ATOM     72  C   UNL A   1      43.578  28.772  31.573  1.00  0.00     0.029 A 
ATOM     73  C   UNL A   1      42.597  28.156  32.333  1.00  0.00     0.049 A 
ATOM     74  H   UNL A   1      40.885  27.109  31.704  1.00  0.00     0.167 HD
ATOM     75  C   UNL A   1      42.220  29.094  34.485  1.00  0.00     0.074 A 
ATOM     76  C   UNL A   1      42.305  29.430  35.894  1.00  0.00     0.031 C 
ATOM     77  C   UNL A   1      42.454  27.955  33.767  1.00  0.00     0.037 A 
BRANCH  64  78
ATOM     78  C   UNL A   1      41.274  27.020  27.804  1.00  0.00     0.057 A 
ATOM     79  C   UNL A   1      40.640  25.777  27.594  1.00  0.00     0.134 A 
ATOM     80  C   UNL A   1      42.163  27.384  26.780  1.00  0.00     0.134 A 
ATOM     81  F   UNL A   1      39.682  25.324  28.413  1.00  0.00    -0.206 F 
ATOM     82  C   UNL A   1      40.955  24.925  26.526  1.00  0.00     0.040 A 
ATOM     83  C   UNL A   1      42.525  26.522  25.732  1.00  0.00     0.040 A 
ATOM     84  F   UNL A   1      42.677  28.615  26.695  1.00  0.00    -0.206 F 
ATOM     85  C   UNL A   1      41.930  25.278  25.609  1.00  0.00     0.006 A 
ENDBRANCH  64  78
BRANCH  65  86
ATOM     86  C   UNL A   1      39.985  33.245  35.117  1.00  0.00     0.057 A 
ATOM     87  C   UNL A   1      38.767  32.544  35.167  1.00  0.00     0.134 A 
ATOM     88  C   UNL A   1      40.139  34.319  35.998  1.00  0.00     0.134 A 
ATOM     89  F   UNL A   1      38.556  31.504  34.345  1.00  0.00    -0.206 F 
ATOM     90  C   UNL A   1      37.797  32.817  36.135  1.00  0.00     0.040 A 
ATOM     91  C   UNL A   1      39.167  34.609  36.965  1.00  0.00     0.040 A 
ATOM     92  F   UNL A   1      41.279  35.023  36.026  1.00  0.00    -0.206 F 
ATOM     93  C   UNL A   1      38.013  33.831  37.063  1.00  0.00     0.006 A 
ENDBRANCH  65  86
BRANCH  77  94
ATOM     94  C   UNL A   1      42.657  26.565  34.330  1.00  0.00     0.057 A 
ATOM     95  C   UNL A   1      41.699  25.867  35.080  1.00  0.00     0.134 A 
ATOM     96  C   UNL A   1      43.804  25.813  33.983  1.00  0.00     0.134 A 
ATOM     97  F   UNL A   1      40.513  26.407  35.386  1.00  0.00    -0.206 F 
ATOM     98  C   UNL A   1      41.893  24.543  35.502  1.00  0.00     0.040 A 
ATOM     99  C   UNL A   1      43.981  24.475  34.351  1.00  0.00     0.040 A 
ATOM    100  F   UNL A   1      44.797  26.334  33.246  1.00  0.00    -0.206 F 
ATOM    101  C   UNL A   1      43.029  23.838  35.128  1.00  0.00     0.006 A 
ENDBRANCH  77  94
ENDBRANCH  51  52
ENDBRANCH  43  46
ENDBRANCH  41  42
ENDBRANCH  40  41
ENDBRANCH  39  40
ENDBRANCH   1  39
TORSDOF 17
ENDMDL
MODEL 3
REMARK VINA RESULT:     -12.8      3.556      9.610
REMARK SMILES Cc1cccc(N2CCN(c3ncc(NC(=O)c4ccccc4F)cc3C(=O)NCCCCCCNC(=O)c3ccc(-c4c5nc(c(-c6c(F)cccc6F)c6ccc([nH]6)c(-c6c(F)cccc6F)c6nc(c(-c7c(F)cccc7F)c7ccc4[nH]7)C=C6)C=C5)cc3)C[C@@H]2C)c1
REMARK SMILES IDX 32 1 31 2 30 3 29 4 27 5 28 6 26 8 11 9 12 10 13 11 25 12
REMARK SMILES IDX 14 13 10 14 7 15 8 16 94 17 9 18 93 19 95 20 6 21 1 22 2 23
REMARK SMILES IDX 3 24 96 25 4 26 5 27 15 28 16 29 17 31 18 32 19 33 23 34
REMARK SMILES IDX 20 35 22 36 24 37 21 38 33 39 34 40 35 41 36 42 37 43 38 45
REMARK SMILES IDX 39 46 40 47 92 48 41 49 91 50 42 51 43 52 44 53 85 54 45 55
REMARK SMILES IDX 90 56 84 57 86 58 46 59 89 60 83 61 82 62 47 64 73 65 56 66
REMARK SMILES IDX 72 67 57 68 60 69 71 70 87 71 58 72 59 73 70 75 88 76 61 77
REMARK SMILES IDX 48 78 49 79 54 80 50 81 51 82 53 83 55 84 52 85 74 86 75 87
REMARK SMILES IDX 80 88 76 89 77 90 79 91 81 92 78 93 62 94 63 95 68 96 64 97
REMARK SMILES IDX 65 98 67 99 69 100 66 101
REMARK H PARENT 29 7 15 30 36 44 86 63 60 74
REMARK Flexibility Score: inf
ROOT
ATOM      1  C   UNL A   1      37.514  22.673  26.009  1.00  0.00     0.002 C 
ENDROOT
BRANCH   1   2
ATOM      2  C   UNL A   1      36.908  24.058  25.734  1.00  0.00     0.021 C 
BRANCH   2   3
ATOM      3  C   UNL A   1      35.422  24.021  25.347  1.00  0.00     0.116 C 
BRANCH   3   4
ATOM      4  N   UNL A   1      35.256  24.451  23.974  1.00  0.00    -0.352 N 
ATOM      5  C   UNL A   1      34.192  24.087  23.177  1.00  0.00     0.255 C 
ATOM      6  O   UNL A   1      34.404  23.429  22.166  1.00  0.00    -0.269 OA
ATOM      7  H   UNL A   1      35.944  25.039  23.587  1.00  0.00     0.163 HD
BRANCH   5   8
ATOM      8  C   UNL A   1      32.828  24.509  23.553  1.00  0.00     0.084 A 
ATOM      9  C   UNL A   1      31.906  23.616  24.129  1.00  0.00     0.141 A 
ATOM     10  N   UNL A   1      30.642  24.037  24.411  1.00  0.00    -0.236 NA
ATOM     11  C   UNL A   1      30.292  25.319  24.131  1.00  0.00     0.139 A 
ATOM     12  C   UNL A   1      32.439  25.823  23.273  1.00  0.00     0.045 A 
ATOM     13  C   UNL A   1      31.146  26.239  23.545  1.00  0.00     0.060 A 
BRANCH   9  14
ATOM     14  N   UNL A   1      32.169  22.272  24.309  1.00  0.00    -0.352 N 
ATOM     15  N   UNL A   1      32.831  19.512  24.606  1.00  0.00    -0.365 N 
ATOM     16  C   UNL A   1      32.872  20.150  23.276  1.00  0.00     0.138 C 
ATOM     17  C   UNL A   1      32.926  20.413  25.787  1.00  0.00     0.098 C 
ATOM     18  C   UNL A   1      31.910  21.356  23.188  1.00  0.00     0.139 C 
ATOM     19  C   UNL A   1      31.956  21.624  25.618  1.00  0.00     0.142 C 
ATOM     20  C   UNL A   1      34.375  20.874  25.986  1.00  0.00     0.033 C 
BRANCH  15  21
ATOM     21  C   UNL A   1      33.224  18.188  24.740  1.00  0.00     0.037 A 
ATOM     22  C   UNL A   1      31.778  14.933  26.127  1.00  0.00     0.044 C 
ATOM     23  C   UNL A   1      32.723  15.909  25.495  1.00  0.00    -0.049 A 
ATOM     24  C   UNL A   1      33.930  15.463  24.950  1.00  0.00     0.003 A 
ATOM     25  C   UNL A   1      32.390  17.269  25.394  1.00  0.00     0.029 A 
ATOM     26  C   UNL A   1      34.784  16.362  24.319  1.00  0.00     0.002 A 
ATOM     27  C   UNL A   1      34.429  17.708  24.212  1.00  0.00     0.026 A 
ENDBRANCH  15  21
ENDBRANCH   9  14
BRANCH  13  28
ATOM     28  N   UNL A   1      30.781  27.535  23.148  1.00  0.00    -0.320 N 
ATOM     29  C   UNL A   1      30.853  28.723  23.836  1.00  0.00     0.258 C 
ATOM     30  H   UNL A   1      30.416  27.604  22.236  1.00  0.00     0.170 HD
ATOM     31  O   UNL A   1      30.152  29.671  23.490  1.00  0.00    -0.269 OA
BRANCH  29  32
ATOM     32  C   UNL A   1      31.852  28.920  24.908  1.00  0.00     0.075 A 
ATOM     33  C   UNL A   1      31.405  29.034  26.230  1.00  0.00     0.017 A 
ATOM     34  C   UNL A   1      33.206  29.115  24.625  1.00  0.00     0.135 A 
ATOM     35  C   UNL A   1      32.322  29.278  27.256  1.00  0.00     0.001 A 
ATOM     36  C   UNL A   1      34.123  29.334  25.646  1.00  0.00     0.040 A 
ATOM     37  F   UNL A   1      33.659  29.140  23.362  1.00  0.00    -0.206 F 
ATOM     38  C   UNL A   1      33.681  29.412  26.966  1.00  0.00     0.003 A 
ENDBRANCH  29  32
ENDBRANCH  13  28
ENDBRANCH   5   8
ENDBRANCH   3   4
ENDBRANCH   2   3
ENDBRANCH   1   2
BRANCH   1  39
ATOM     39  C   UNL A   1      39.025  22.544  25.750  1.00  0.00     0.002 C 
BRANCH  39  40
ATOM     40  C   UNL A   1      39.919  22.670  26.986  1.00  0.00     0.021 C 
BRANCH  40  41
ATOM     41  C   UNL A   1      40.518  21.348  27.443  1.00  0.00     0.116 C 
BRANCH  41  42
ATOM     42  N   UNL A   1      41.361  20.705  26.446  1.00  0.00    -0.352 N 
ATOM     43  C   UNL A   1      42.567  21.107  25.903  1.00  0.00     0.251 C 
ATOM     44  H   UNL A   1      41.018  19.847  26.105  1.00  0.00     0.163 HD
ATOM     45  O   UNL A   1      43.073  20.445  25.003  1.00  0.00    -0.269 OA
BRANCH  43  46
ATOM     46  C   UNL A   1      43.322  22.237  26.501  1.00  0.00     0.039 A 
ATOM     47  C   UNL A   1      43.558  22.204  27.884  1.00  0.00     0.014 A 
ATOM     48  C   UNL A   1      43.596  23.394  25.783  1.00  0.00     0.014 A 
ATOM     49  C   UNL A   1      43.800  23.391  28.569  1.00  0.00     0.010 A 
ATOM     50  C   UNL A   1      43.709  24.584  26.466  1.00  0.00     0.010 A 
ATOM     51  C   UNL A   1      43.747  24.588  27.862  1.00  0.00    -0.014 A 
BRANCH  51  52
ATOM     52  C   UNL A   1      43.636  25.900  28.481  1.00  0.00     0.031 A 
ATOM     53  C   UNL A   1      42.319  26.561  28.573  1.00  0.00     0.074 A 
ATOM     54  C   UNL A   1      44.710  26.405  29.125  1.00  0.00     0.049 A 
ATOM     55  N   UNL A   1      42.145  27.804  28.858  1.00  0.00    -0.248 NA
ATOM     56  C   UNL A   1      41.071  25.856  28.308  1.00  0.00     0.031 C 
ATOM     57  C   UNL A   1      44.730  27.482  30.112  1.00  0.00     0.029 A 
ATOM     58  N   UNL A   1      46.064  26.156  28.855  1.00  0.00    -0.354 N 
ATOM     59  C   UNL A   1      40.802  28.004  29.088  1.00  0.00     0.074 A 
ATOM     60  C   UNL A   1      40.172  26.774  28.673  1.00  0.00     0.031 C 
ATOM     61  C   UNL A   1      45.968  27.997  30.167  1.00  0.00     0.029 A 
ATOM     62  C   UNL A   1      46.734  27.375  29.101  1.00  0.00     0.049 A 
ATOM     63  H   UNL A   1      46.464  25.308  28.556  1.00  0.00     0.167 HD
ATOM     64  C   UNL A   1      40.406  29.146  29.722  1.00  0.00     0.037 A 
ATOM     65  C   UNL A   1      47.351  28.059  28.094  1.00  0.00     0.037 A 
ATOM     66  C   UNL A   1      41.544  30.047  29.917  1.00  0.00     0.049 A 
ATOM     67  C   UNL A   1      46.800  29.449  27.876  1.00  0.00     0.074 A 
ATOM     68  C   UNL A   1      42.377  30.289  30.998  1.00  0.00     0.029 A 
ATOM     69  N   UNL A   1      42.163  30.614  28.808  1.00  0.00    -0.354 N 
ATOM     70  N   UNL A   1      45.615  29.832  28.265  1.00  0.00    -0.248 NA
ATOM     71  C   UNL A   1      47.538  30.515  27.203  1.00  0.00     0.031 C 
ATOM     72  C   UNL A   1      43.533  30.956  30.521  1.00  0.00     0.029 A 
ATOM     73  C   UNL A   1      43.392  31.139  29.155  1.00  0.00     0.049 A 
ATOM     74  H   UNL A   1      41.778  30.638  27.902  1.00  0.00     0.167 HD
ATOM     75  C   UNL A   1      45.413  31.139  27.901  1.00  0.00     0.074 A 
ATOM     76  C   UNL A   1      46.652  31.526  27.254  1.00  0.00     0.031 C 
ATOM     77  C   UNL A   1      44.238  31.786  28.163  1.00  0.00     0.037 A 
BRANCH  64  78
ATOM     78  C   UNL A   1      39.070  29.329  30.415  1.00  0.00     0.057 A 
ATOM     79  C   UNL A   1      38.104  30.215  29.891  1.00  0.00     0.134 A 
ATOM     80  C   UNL A   1      38.687  28.722  31.623  1.00  0.00     0.134 A 
ATOM     81  F   UNL A   1      38.253  30.798  28.695  1.00  0.00    -0.206 F 
ATOM     82  C   UNL A   1      36.924  30.554  30.569  1.00  0.00     0.040 A 
ATOM     83  C   UNL A   1      37.534  29.088  32.337  1.00  0.00     0.040 A 
ATOM     84  F   UNL A   1      39.367  27.696  32.144  1.00  0.00    -0.206 F 
ATOM     85  C   UNL A   1      36.652  30.020  31.817  1.00  0.00     0.006 A 
ENDBRANCH  64  78
BRANCH  65  86
ATOM     86  C   UNL A   1      47.888  27.171  27.030  1.00  0.00     0.057 A 
ATOM     87  C   UNL A   1      47.125  26.993  25.863  1.00  0.00     0.134 A 
ATOM     88  C   UNL A   1      49.248  26.853  26.958  1.00  0.00     0.134 A 
ATOM     89  F   UNL A   1      45.813  27.277  25.868  1.00  0.00    -0.206 F 
ATOM     90  C   UNL A   1      47.710  26.638  24.646  1.00  0.00     0.040 A 
ATOM     91  C   UNL A   1      49.842  26.484  25.744  1.00  0.00     0.040 A 
ATOM     92  F   UNL A   1      50.046  27.016  28.022  1.00  0.00    -0.206 F 
ATOM     93  C   UNL A   1      49.082  26.418  24.576  1.00  0.00     0.006 A 
ENDBRANCH  65  86
BRANCH  77  94
ATOM     94  C   UNL A   1      43.801  33.117  27.592  1.00  0.00     0.057 A 
ATOM     95  C   UNL A   1      43.545  34.262  28.359  1.00  0.00     0.134 A 
ATOM     96  C   UNL A   1      43.777  33.322  26.192  1.00  0.00     0.134 A 
ATOM     97  F   UNL A   1      43.644  34.253  29.694  1.00  0.00    -0.206 F 
ATOM     98  C   UNL A   1      43.233  35.502  27.781  1.00  0.00     0.040 A 
ATOM     99  C   UNL A   1      43.524  34.566  25.606  1.00  0.00     0.040 A 
ATOM    100  F   UNL A   1      44.028  32.328  25.325  1.00  0.00    -0.206 F 
ATOM    101  C   UNL A   1      43.235  35.662  26.402  1.00  0.00     0.006 A 
ENDBRANCH  77  94
ENDBRANCH  51  52
ENDBRANCH  43  46
ENDBRANCH  41  42
ENDBRANCH  40  41
ENDBRANCH  39  40
ENDBRANCH   1  39
TORSDOF 17
ENDMDL
