MODEL 1
REMARK VINA RESULT:     -12.4      0.000      0.000
REMARK SMILES Cn1cc(-c2ccn(Cc3ccc(C(=O)NCCCCCCNC(=O)c4ccc(-c5c6nc(c(-c7c(F)cccc7F)c7ccc([nH]7)c(-c7c(F)cccc7F)c7nc(c(-c8c(F)cccc8F)c8ccc5[nH]8)C=C7)C=C6)cc4)cc3)n2)cn1
REMARK SMILES IDX 19 1 18 2 17 3 16 4 14 5 15 6 13 8 10 9 11 10 81 11 12 12
REMARK SMILES IDX 80 13 9 14 8 15 5 16 6 17 82 18 7 19 4 20 1 21 2 22 3 23
REMARK SMILES IDX 84 24 83 25 20 26 21 27 22 28 23 29 24 30 25 32 26 33 27 34
REMARK SMILES IDX 79 35 28 36 78 37 29 38 30 39 31 40 72 41 32 42 77 43 71 44
REMARK SMILES IDX 73 45 33 46 76 47 70 48 69 49 34 51 60 52 43 53 59 54 44 55
REMARK SMILES IDX 47 56 58 57 74 58 45 59 46 60 57 62 75 63 48 64 35 65 36 66
REMARK SMILES IDX 41 67 37 68 38 69 40 70 42 71 39 72 61 73 62 74 67 75 63 76
REMARK SMILES IDX 64 77 66 78 68 79 65 80 49 81 50 82 55 83 51 84 52 85 54 86
REMARK SMILES IDX 56 87 53 88
REMARK H PARENT 16 7 23 31 73 50 47 61
REMARK Flexibility Score: inf
ROOT
ATOM      1  C   UNL A   1      39.320  22.184  26.112  1.00  0.00     0.002 C 
ENDROOT
BRANCH   1   2
ATOM      2  C   UNL A   1      38.233  21.271  25.528  1.00  0.00     0.021 C 
BRANCH   2   3
ATOM      3  C   UNL A   1      36.811  21.780  25.779  1.00  0.00     0.116 C 
BRANCH   3   4
ATOM      4  N   UNL A   1      35.847  20.743  25.459  1.00  0.00    -0.352 N 
ATOM      5  C   UNL A   1      34.665  20.768  24.765  1.00  0.00     0.251 C 
ATOM      6  O   UNL A   1      34.046  19.712  24.639  1.00  0.00    -0.269 OA
ATOM      7  H   UNL A   1      36.088  19.854  25.806  1.00  0.00     0.163 HD
BRANCH   5   8
ATOM      8  C   UNL A   1      34.144  21.995  24.102  1.00  0.00     0.039 A 
ATOM      9  C   UNL A   1      33.057  24.154  22.644  1.00  0.00    -0.026 A 
ATOM     10  C   UNL A   1      32.264  23.046  22.965  1.00  0.00     0.006 A 
ATOM     11  C   UNL A   1      34.370  24.203  23.133  1.00  0.00     0.006 A 
ATOM     12  C   UNL A   1      32.805  21.977  23.684  1.00  0.00     0.014 A 
ATOM     13  C   UNL A   1      34.897  23.148  23.882  1.00  0.00     0.014 A 
BRANCH   9  14
ATOM     14  C   UNL A   1      32.515  25.290  21.811  1.00  0.00     0.179 C 
BRANCH  14  15
ATOM     15  N   UNL A   1      31.609  26.178  22.540  1.00  0.00    -0.268 N 
ATOM     16  C   UNL A   1      30.286  27.800  22.863  1.00  0.00     0.095 A 
ATOM     17  C   UNL A   1      30.722  27.395  24.140  1.00  0.00     0.050 A 
ATOM     18  N   UNL A   1      30.833  27.073  21.886  1.00  0.00    -0.172 NA
ATOM     19  C   UNL A   1      31.566  26.336  23.901  1.00  0.00     0.110 A 
BRANCH  16  20
ATOM     20  C   UNL A   1      29.359  28.892  22.629  1.00  0.00     0.040 A 
ATOM     21  C   UNL A   1      28.119  32.110  21.620  1.00  0.00     0.173 C 
ATOM     22  N   UNL A   1      28.392  30.775  22.096  1.00  0.00    -0.275 N 
ATOM     23  C   UNL A   1      29.590  30.121  22.058  1.00  0.00     0.118 A 
ATOM     24  N   UNL A   1      27.402  30.058  22.664  1.00  0.00    -0.181 NA
ATOM     25  C   UNL A   1      27.996  28.898  22.974  1.00  0.00     0.145 A 
ENDBRANCH  16  20
ENDBRANCH  14  15
ENDBRANCH   9  14
ENDBRANCH   5   8
ENDBRANCH   3   4
ENDBRANCH   2   3
ENDBRANCH   1   2
BRANCH   1  26
ATOM     26  C   UNL A   1      40.385  21.476  26.965  1.00  0.00     0.002 C 
BRANCH  26  27
ATOM     27  C   UNL A   1      40.951  20.173  26.382  1.00  0.00     0.021 C 
BRANCH  27  28
ATOM     28  C   UNL A   1      42.306  19.792  26.962  1.00  0.00     0.116 C 
BRANCH  28  29
ATOM     29  N   UNL A   1      43.321  19.655  25.921  1.00  0.00    -0.352 N 
ATOM     30  C   UNL A   1      43.907  20.639  25.151  1.00  0.00     0.251 C 
ATOM     31  H   UNL A   1      43.629  18.737  25.744  1.00  0.00     0.163 HD
ATOM     32  O   UNL A   1      44.450  20.371  24.093  1.00  0.00    -0.269 OA
BRANCH  30  33
ATOM     33  C   UNL A   1      43.873  22.029  25.638  1.00  0.00     0.039 A 
ATOM     34  C   UNL A   1      43.055  22.983  25.025  1.00  0.00     0.014 A 
ATOM     35  C   UNL A   1      44.669  22.364  26.729  1.00  0.00     0.014 A 
ATOM     36  C   UNL A   1      42.989  24.261  25.570  1.00  0.00     0.010 A 
ATOM     37  C   UNL A   1      44.498  23.577  27.347  1.00  0.00     0.010 A 
ATOM     38  C   UNL A   1      43.700  24.546  26.746  1.00  0.00    -0.014 A 
BRANCH  38  39
ATOM     39  C   UNL A   1      43.499  25.810  27.451  1.00  0.00     0.031 A 
ATOM     40  C   UNL A   1      44.480  26.873  27.079  1.00  0.00     0.074 A 
ATOM     41  C   UNL A   1      42.379  26.073  28.160  1.00  0.00     0.049 A 
ATOM     42  N   UNL A   1      45.320  27.487  27.846  1.00  0.00    -0.248 NA
ATOM     43  C   UNL A   1      44.638  27.201  25.650  1.00  0.00     0.031 C 
ATOM     44  C   UNL A   1      41.190  25.225  28.319  1.00  0.00     0.029 A 
ATOM     45  N   UNL A   1      42.001  27.220  28.790  1.00  0.00    -0.354 N 
ATOM     46  C   UNL A   1      45.956  28.431  27.040  1.00  0.00     0.074 A 
ATOM     47  C   UNL A   1      45.642  28.079  25.682  1.00  0.00     0.031 C 
ATOM     48  C   UNL A   1      40.154  25.971  28.762  1.00  0.00     0.029 A 
ATOM     49  C   UNL A   1      40.640  27.301  29.079  1.00  0.00     0.049 A 
ATOM     50  H   UNL A   1      42.637  27.934  29.021  1.00  0.00     0.167 HD
ATOM     51  C   UNL A   1      46.457  29.580  27.571  1.00  0.00     0.037 A 
ATOM     52  C   UNL A   1      39.964  28.400  29.503  1.00  0.00     0.037 A 
ATOM     53  C   UNL A   1      46.649  29.450  28.995  1.00  0.00     0.049 A 
ATOM     54  C   UNL A   1      40.970  29.367  30.006  1.00  0.00     0.074 A 
ATOM     55  C   UNL A   1      47.355  28.583  29.808  1.00  0.00     0.029 A 
ATOM     56  N   UNL A   1      45.745  30.070  29.824  1.00  0.00    -0.354 N 
ATOM     57  N   UNL A   1      41.671  29.192  31.090  1.00  0.00    -0.248 NA
ATOM     58  C   UNL A   1      41.521  30.311  29.046  1.00  0.00     0.031 C 
ATOM     59  C   UNL A   1      46.503  28.354  30.929  1.00  0.00     0.029 A 
ATOM     60  C   UNL A   1      45.373  29.157  30.774  1.00  0.00     0.049 A 
ATOM     61  H   UNL A   1      45.425  30.999  29.747  1.00  0.00     0.167 HD
ATOM     62  C   UNL A   1      42.941  29.635  30.756  1.00  0.00     0.074 A 
ATOM     63  C   UNL A   1      42.770  30.386  29.512  1.00  0.00     0.031 C 
ATOM     64  C   UNL A   1      44.051  29.105  31.349  1.00  0.00     0.037 A 
BRANCH  51  65
ATOM     65  C   UNL A   1      46.375  30.932  26.893  1.00  0.00     0.057 A 
ATOM     66  C   UNL A   1      47.525  31.744  26.851  1.00  0.00     0.134 A 
ATOM     67  C   UNL A   1      45.173  31.594  26.567  1.00  0.00     0.134 A 
ATOM     68  F   UNL A   1      48.734  31.241  27.143  1.00  0.00    -0.206 F 
ATOM     69  C   UNL A   1      47.466  33.121  26.607  1.00  0.00     0.040 A 
ATOM     70  C   UNL A   1      45.110  32.958  26.270  1.00  0.00     0.040 A 
ATOM     71  F   UNL A   1      43.979  30.993  26.614  1.00  0.00    -0.206 F 
ATOM     72  C   UNL A   1      46.254  33.736  26.327  1.00  0.00     0.006 A 
ENDBRANCH  51  65
BRANCH  52  73
ATOM     73  C   UNL A   1      38.566  28.816  29.236  1.00  0.00     0.057 A 
ATOM     74  C   UNL A   1      37.626  28.873  30.277  1.00  0.00     0.134 A 
ATOM     75  C   UNL A   1      38.196  29.455  28.041  1.00  0.00     0.134 A 
ATOM     76  F   UNL A   1      37.895  28.319  31.470  1.00  0.00    -0.206 F 
ATOM     77  C   UNL A   1      36.414  29.565  30.157  1.00  0.00     0.040 A 
ATOM     78  C   UNL A   1      36.984  30.143  27.903  1.00  0.00     0.040 A 
ATOM     79  F   UNL A   1      39.036  29.518  26.998  1.00  0.00    -0.206 F 
ATOM     80  C   UNL A   1      36.097  30.217  28.970  1.00  0.00     0.006 A 
ENDBRANCH  52  73
BRANCH  64  81
ATOM     81  C   UNL A   1      43.859  28.223  32.553  1.00  0.00     0.057 A 
ATOM     82  C   UNL A   1      43.730  26.826  32.508  1.00  0.00     0.134 A 
ATOM     83  C   UNL A   1      43.936  28.806  33.823  1.00  0.00     0.134 A 
ATOM     84  F   UNL A   1      43.751  26.160  31.347  1.00  0.00    -0.206 F 
ATOM     85  C   UNL A   1      43.629  26.055  33.671  1.00  0.00     0.040 A 
ATOM     86  C   UNL A   1      43.874  28.045  34.992  1.00  0.00     0.040 A 
ATOM     87  F   UNL A   1      44.114  30.131  33.948  1.00  0.00    -0.206 F 
ATOM     88  C   UNL A   1      43.706  26.665  34.920  1.00  0.00     0.006 A 
ENDBRANCH  64  81
ENDBRANCH  38  39
ENDBRANCH  30  33
ENDBRANCH  28  29
ENDBRANCH  27  28
ENDBRANCH  26  27
ENDBRANCH   1  26
TORSDOF 16
ENDMDL
MODEL 2
REMARK VINA RESULT:     -12.1      2.979      7.964
REMARK SMILES Cn1cc(-c2ccn(Cc3ccc(C(=O)NCCCCCCNC(=O)c4ccc(-c5c6nc(c(-c7c(F)cccc7F)c7ccc([nH]7)c(-c7c(F)cccc7F)c7nc(c(-c8c(F)cccc8F)c8ccc5[nH]8)C=C7)C=C6)cc4)cc3)n2)cn1
REMARK SMILES IDX 19 1 18 2 17 3 16 4 14 5 15 6 13 8 10 9 11 10 81 11 12 12
REMARK SMILES IDX 80 13 9 14 8 15 5 16 6 17 82 18 7 19 4 20 1 21 2 22 3 23
REMARK SMILES IDX 84 24 83 25 20 26 21 27 22 28 23 29 24 30 25 32 26 33 27 34
REMARK SMILES IDX 79 35 28 36 78 37 29 38 30 39 31 40 72 41 32 42 77 43 71 44
REMARK SMILES IDX 73 45 33 46 76 47 70 48 69 49 34 51 60 52 43 53 59 54 44 55
REMARK SMILES IDX 47 56 58 57 74 58 45 59 46 60 57 62 75 63 48 64 35 65 36 66
REMARK SMILES IDX 41 67 37 68 38 69 40 70 42 71 39 72 61 73 62 74 67 75 63 76
REMARK SMILES IDX 64 77 66 78 68 79 65 80 49 81 50 82 55 83 51 84 52 85 54 86
REMARK SMILES IDX 56 87 53 88
REMARK H PARENT 16 7 23 31 73 50 47 61
REMARK Flexibility Score: inf
ROOT
ATOM      1  C   UNL A   1      33.673  27.592  24.930  1.00  0.00     0.002 C 
ENDROOT
BRANCH   1   2
ATOM      2  C   UNL A   1      33.378  28.959  24.297  1.00  0.00     0.021 C 
BRANCH   2   3
ATOM      3  C   UNL A   1      33.332  28.923  22.767  1.00  0.00     0.116 C 
BRANCH   3   4
ATOM      4  N   UNL A   1      31.979  29.170  22.304  1.00  0.00    -0.352 N 
ATOM      5  C   UNL A   1      30.842  28.405  22.333  1.00  0.00     0.251 C 
ATOM      6  O   UNL A   1      29.810  28.885  21.864  1.00  0.00    -0.269 OA
ATOM      7  H   UNL A   1      31.855  30.054  21.890  1.00  0.00     0.163 HD
BRANCH   5   8
ATOM      8  C   UNL A   1      30.790  27.060  22.969  1.00  0.00     0.039 A 
ATOM      9  C   UNL A   1      30.790  24.632  24.408  1.00  0.00    -0.026 A 
ATOM     10  C   UNL A   1      30.163  25.767  24.935  1.00  0.00     0.006 A 
ATOM     11  C   UNL A   1      31.341  24.707  23.121  1.00  0.00     0.006 A 
ATOM     12  C   UNL A   1      30.167  26.969  24.222  1.00  0.00     0.014 A 
ATOM     13  C   UNL A   1      31.312  25.901  22.396  1.00  0.00     0.014 A 
BRANCH   9  14
ATOM     14  C   UNL A   1      30.858  23.341  25.189  1.00  0.00     0.179 C 
BRANCH  14  15
ATOM     15  N   UNL A   1      32.146  22.655  25.082  1.00  0.00    -0.268 N 
ATOM     16  C   UNL A   1      34.249  22.404  25.139  1.00  0.00     0.095 A 
ATOM     17  C   UNL A   1      33.749  21.325  24.382  1.00  0.00     0.050 A 
ATOM     18  N   UNL A   1      33.280  23.223  25.555  1.00  0.00    -0.172 NA
ATOM     19  C   UNL A   1      32.386  21.507  24.373  1.00  0.00     0.110 A 
BRANCH  16  20
ATOM     20  C   UNL A   1      35.656  22.613  25.425  1.00  0.00     0.040 A 
ATOM     21  C   UNL A   1      39.122  21.884  26.029  1.00  0.00     0.173 C 
ATOM     22  N   UNL A   1      37.792  22.405  25.823  1.00  0.00    -0.275 N 
ATOM     23  C   UNL A   1      36.671  21.690  25.513  1.00  0.00     0.118 A 
ATOM     24  N   UNL A   1      37.571  23.729  25.953  1.00  0.00    -0.181 NA
ATOM     25  C   UNL A   1      36.263  23.853  25.692  1.00  0.00     0.145 A 
ENDBRANCH  16  20
ENDBRANCH  14  15
ENDBRANCH   9  14
ENDBRANCH   5   8
ENDBRANCH   3   4
ENDBRANCH   2   3
ENDBRANCH   1   2
BRANCH   1  26
ATOM     26  C   UNL A   1      33.765  27.584  26.465  1.00  0.00     0.002 C 
BRANCH  26  27
ATOM     27  C   UNL A   1      33.903  28.960  27.134  1.00  0.00     0.021 C 
BRANCH  27  28
ATOM     28  C   UNL A   1      35.328  29.283  27.559  1.00  0.00     0.116 C 
BRANCH  28  29
ATOM     29  N   UNL A   1      35.371  29.916  28.875  1.00  0.00    -0.352 N 
ATOM     30  C   UNL A   1      36.289  29.739  29.889  1.00  0.00     0.251 C 
ATOM     31  H   UNL A   1      34.645  30.554  29.064  1.00  0.00     0.163 HD
ATOM     32  O   UNL A   1      36.018  30.030  31.042  1.00  0.00    -0.269 OA
BRANCH  30  33
ATOM     33  C   UNL A   1      37.616  29.197  29.552  1.00  0.00     0.039 A 
ATOM     34  C   UNL A   1      38.368  29.741  28.506  1.00  0.00     0.014 A 
ATOM     35  C   UNL A   1      38.105  28.135  30.308  1.00  0.00     0.014 A 
ATOM     36  C   UNL A   1      39.652  29.254  28.279  1.00  0.00     0.010 A 
ATOM     37  C   UNL A   1      39.416  27.754  30.175  1.00  0.00     0.010 A 
ATOM     38  C   UNL A   1      40.178  28.272  29.132  1.00  0.00    -0.014 A 
BRANCH  38  39
ATOM     39  C   UNL A   1      41.584  27.883  29.043  1.00  0.00     0.031 A 
ATOM     40  C   UNL A   1      41.820  26.645  28.243  1.00  0.00     0.074 A 
ATOM     41  C   UNL A   1      42.588  28.708  29.417  1.00  0.00     0.049 A 
ATOM     42  N   UNL A   1      42.353  25.534  28.631  1.00  0.00    -0.248 NA
ATOM     43  C   UNL A   1      41.274  26.590  26.873  1.00  0.00     0.031 C 
ATOM     44  C   UNL A   1      42.487  30.088  29.907  1.00  0.00     0.029 A 
ATOM     45  N   UNL A   1      43.934  28.536  29.314  1.00  0.00    -0.354 N 
ATOM     46  C   UNL A   1      42.411  24.720  27.500  1.00  0.00     0.074 A 
ATOM     47  C   UNL A   1      41.568  25.339  26.514  1.00  0.00     0.031 C 
ATOM     48  C   UNL A   1      43.690  30.696  29.807  1.00  0.00     0.029 A 
ATOM     49  C   UNL A   1      44.677  29.711  29.409  1.00  0.00     0.049 A 
ATOM     50  H   UNL A   1      44.350  27.654  29.180  1.00  0.00     0.167 HD
ATOM     51  C   UNL A   1      43.365  23.755  27.380  1.00  0.00     0.037 A 
ATOM     52  C   UNL A   1      45.999  29.860  29.134  1.00  0.00     0.037 A 
ATOM     53  C   UNL A   1      43.922  23.417  28.667  1.00  0.00     0.049 A 
ATOM     54  C   UNL A   1      46.601  28.505  29.126  1.00  0.00     0.074 A 
ATOM     55  C   UNL A   1      43.400  22.971  29.867  1.00  0.00     0.029 A 
ATOM     56  N   UNL A   1      45.175  23.893  28.969  1.00  0.00    -0.354 N 
ATOM     57  N   UNL A   1      46.750  27.767  30.189  1.00  0.00    -0.248 NA
ATOM     58  C   UNL A   1      46.614  27.792  27.858  1.00  0.00     0.031 C 
ATOM     59  C   UNL A   1      44.136  23.671  30.870  1.00  0.00     0.029 A 
ATOM     60  C   UNL A   1      45.112  24.432  30.227  1.00  0.00     0.049 A 
ATOM     61  H   UNL A   1      45.970  23.854  28.389  1.00  0.00     0.167 HD
ATOM     62  C   UNL A   1      46.420  26.488  29.771  1.00  0.00     0.074 A 
ATOM     63  C   UNL A   1      46.421  26.550  28.309  1.00  0.00     0.031 C 
ATOM     64  C   UNL A   1      45.885  25.579  30.638  1.00  0.00     0.037 A 
BRANCH  51  65
ATOM     65  C   UNL A   1      44.081  23.431  26.085  1.00  0.00     0.057 A 
ATOM     66  C   UNL A   1      44.184  22.084  25.684  1.00  0.00     0.134 A 
ATOM     67  C   UNL A   1      44.928  24.320  25.392  1.00  0.00     0.134 A 
ATOM     68  F   UNL A   1      43.437  21.133  26.265  1.00  0.00    -0.206 F 
ATOM     69  C   UNL A   1      45.127  21.648  24.745  1.00  0.00     0.040 A 
ATOM     70  C   UNL A   1      45.836  23.902  24.414  1.00  0.00     0.040 A 
ATOM     71  F   UNL A   1      45.005  25.623  25.683  1.00  0.00    -0.206 F 
ATOM     72  C   UNL A   1      45.965  22.557  24.115  1.00  0.00     0.006 A 
ENDBRANCH  51  65
BRANCH  52  73
ATOM     73  C   UNL A   1      46.728  31.027  28.581  1.00  0.00     0.057 A 
ATOM     74  C   UNL A   1      47.916  31.478  29.178  1.00  0.00     0.134 A 
ATOM     75  C   UNL A   1      46.457  31.532  27.298  1.00  0.00     0.134 A 
ATOM     76  F   UNL A   1      48.280  31.032  30.390  1.00  0.00    -0.206 F 
ATOM     77  C   UNL A   1      48.807  32.336  28.521  1.00  0.00     0.040 A 
ATOM     78  C   UNL A   1      47.334  32.398  26.633  1.00  0.00     0.040 A 
ATOM     79  F   UNL A   1      45.382  31.128  26.605  1.00  0.00    -0.206 F 
ATOM     80  C   UNL A   1      48.524  32.787  27.236  1.00  0.00     0.006 A 
ENDBRANCH  52  73
BRANCH  64  81
ATOM     81  C   UNL A   1      45.905  25.903  32.107  1.00  0.00     0.057 A 
ATOM     82  C   UNL A   1      47.008  25.710  32.954  1.00  0.00     0.134 A 
ATOM     83  C   UNL A   1      44.798  26.560  32.657  1.00  0.00     0.134 A 
ATOM     84  F   UNL A   1      48.153  25.186  32.500  1.00  0.00    -0.206 F 
ATOM     85  C   UNL A   1      46.986  26.103  34.297  1.00  0.00     0.040 A 
ATOM     86  C   UNL A   1      44.778  26.991  33.985  1.00  0.00     0.040 A 
ATOM     87  F   UNL A   1      43.727  26.830  31.895  1.00  0.00    -0.206 F 
ATOM     88  C   UNL A   1      45.869  26.750  34.815  1.00  0.00     0.006 A 
ENDBRANCH  64  81
ENDBRANCH  38  39
ENDBRANCH  30  33
ENDBRANCH  28  29
ENDBRANCH  27  28
ENDBRANCH  26  27
ENDBRANCH   1  26
TORSDOF 16
ENDMDL
MODEL 3
REMARK VINA RESULT:     -12.1      3.893      9.367
REMARK SMILES Cn1cc(-c2ccn(Cc3ccc(C(=O)NCCCCCCNC(=O)c4ccc(-c5c6nc(c(-c7c(F)cccc7F)c7ccc([nH]7)c(-c7c(F)cccc7F)c7nc(c(-c8c(F)cccc8F)c8ccc5[nH]8)C=C7)C=C6)cc4)cc3)n2)cn1
REMARK SMILES IDX 19 1 18 2 17 3 16 4 14 5 15 6 13 8 10 9 11 10 81 11 12 12
REMARK SMILES IDX 80 13 9 14 8 15 5 16 6 17 82 18 7 19 4 20 1 21 2 22 3 23
REMARK SMILES IDX 84 24 83 25 20 26 21 27 22 28 23 29 24 30 25 32 26 33 27 34
REMARK SMILES IDX 79 35 28 36 78 37 29 38 30 39 31 40 72 41 32 42 77 43 71 44
REMARK SMILES IDX 73 45 33 46 76 47 70 48 69 49 34 51 60 52 43 53 59 54 44 55
REMARK SMILES IDX 47 56 58 57 74 58 45 59 46 60 57 62 75 63 48 64 35 65 36 66
REMARK SMILES IDX 41 67 37 68 38 69 40 70 42 71 39 72 61 73 62 74 67 75 63 76
REMARK SMILES IDX 64 77 66 78 68 79 65 80 49 81 50 82 55 83 51 84 52 85 54 86
REMARK SMILES IDX 56 87 53 88
REMARK H PARENT 16 7 23 31 73 50 47 61
REMARK Flexibility Score: inf
ROOT
ATOM      1  C   UNL A   1      34.775  31.694  28.565  1.00  0.00     0.002 C 
ENDROOT
BRANCH   1   2
ATOM      2  C   UNL A   1      34.755  30.516  27.580  1.00  0.00     0.021 C 
BRANCH   2   3
ATOM      3  C   UNL A   1      33.477  30.449  26.739  1.00  0.00     0.116 C 
BRANCH   3   4
ATOM      4  N   UNL A   1      32.454  29.701  27.446  1.00  0.00    -0.352 N 
ATOM      5  C   UNL A   1      31.888  28.473  27.218  1.00  0.00     0.251 C 
ATOM      6  O   UNL A   1      31.028  28.078  28.006  1.00  0.00    -0.269 OA
ATOM      7  H   UNL A   1      32.100  30.163  28.240  1.00  0.00     0.163 HD
BRANCH   5   8
ATOM      8  C   UNL A   1      32.319  27.579  26.109  1.00  0.00     0.039 A 
ATOM      9  C   UNL A   1      33.394  25.886  24.122  1.00  0.00    -0.026 A 
ATOM     10  C   UNL A   1      33.568  25.585  25.478  1.00  0.00     0.006 A 
ATOM     11  C   UNL A   1      32.608  26.995  23.777  1.00  0.00     0.006 A 
ATOM     12  C   UNL A   1      33.038  26.426  26.461  1.00  0.00     0.014 A 
ATOM     13  C   UNL A   1      32.050  27.814  24.762  1.00  0.00     0.014 A 
BRANCH   9  14
ATOM     14  C   UNL A   1      34.014  25.031  23.044  1.00  0.00     0.179 C 
BRANCH  14  15
ATOM     15  N   UNL A   1      34.441  23.711  23.510  1.00  0.00    -0.268 N 
ATOM     16  C   UNL A   1      34.257  21.735  24.251  1.00  0.00     0.095 A 
ATOM     17  C   UNL A   1      35.590  22.118  24.495  1.00  0.00     0.050 A 
ATOM     18  N   UNL A   1      33.550  22.704  23.664  1.00  0.00    -0.172 NA
ATOM     19  C   UNL A   1      35.684  23.396  23.995  1.00  0.00     0.110 A 
BRANCH  16  20
ATOM     20  C   UNL A   1      33.705  20.440  24.605  1.00  0.00     0.040 A 
ATOM     21  C   UNL A   1      33.506  16.898  25.174  1.00  0.00     0.173 C 
ATOM     22  N   UNL A   1      33.356  18.324  25.009  1.00  0.00    -0.275 N 
ATOM     23  C   UNL A   1      34.320  19.210  24.626  1.00  0.00     0.118 A 
ATOM     24  N   UNL A   1      32.153  18.893  25.226  1.00  0.00    -0.181 NA
ATOM     25  C   UNL A   1      32.377  20.192  24.992  1.00  0.00     0.145 A 
ENDBRANCH  16  20
ENDBRANCH  14  15
ENDBRANCH   9  14
ENDBRANCH   5   8
ENDBRANCH   3   4
ENDBRANCH   2   3
ENDBRANCH   1   2
BRANCH   1  26
ATOM     26  C   UNL A   1      35.333  33.011  28.003  1.00  0.00     0.002 C 
BRANCH  26  27
ATOM     27  C   UNL A   1      34.829  34.294  28.680  1.00  0.00     0.021 C 
BRANCH  27  28
ATOM     28  C   UNL A   1      33.484  34.122  29.371  1.00  0.00     0.116 C 
BRANCH  28  29
ATOM     29  N   UNL A   1      33.376  34.960  30.563  1.00  0.00    -0.352 N 
ATOM     30  C   UNL A   1      33.969  34.787  31.796  1.00  0.00     0.251 C 
ATOM     31  H   UNL A   1      32.803  35.755  30.474  1.00  0.00     0.163 HD
ATOM     32  O   UNL A   1      33.521  35.329  32.793  1.00  0.00    -0.269 OA
BRANCH  30  33
ATOM     33  C   UNL A   1      35.167  33.935  31.890  1.00  0.00     0.039 A 
ATOM     34  C   UNL A   1      35.054  32.543  31.952  1.00  0.00     0.014 A 
ATOM     35  C   UNL A   1      36.414  34.553  31.905  1.00  0.00     0.014 A 
ATOM     36  C   UNL A   1      36.213  31.774  31.953  1.00  0.00     0.010 A 
ATOM     37  C   UNL A   1      37.549  33.795  31.764  1.00  0.00     0.010 A 
ATOM     38  C   UNL A   1      37.461  32.408  31.839  1.00  0.00    -0.014 A 
BRANCH  38  39
ATOM     39  C   UNL A   1      38.679  31.626  31.638  1.00  0.00     0.031 A 
ATOM     40  C   UNL A   1      39.381  31.266  32.905  1.00  0.00     0.074 A 
ATOM     41  C   UNL A   1      38.987  31.058  30.451  1.00  0.00     0.049 A 
ATOM     42  N   UNL A   1      40.582  31.576  33.268  1.00  0.00    -0.248 NA
ATOM     43  C   UNL A   1      38.605  30.586  33.960  1.00  0.00     0.031 C 
ATOM     44  C   UNL A   1      38.195  31.063  29.214  1.00  0.00     0.029 A 
ATOM     45  N   UNL A   1      40.022  30.234  30.127  1.00  0.00    -0.354 N 
ATOM     46  C   UNL A   1      40.788  30.946  34.495  1.00  0.00     0.074 A 
ATOM     47  C   UNL A   1      39.493  30.523  34.954  1.00  0.00     0.031 C 
ATOM     48  C   UNL A   1      38.636  30.091  28.387  1.00  0.00     0.029 A 
ATOM     49  C   UNL A   1      39.837  29.507  28.952  1.00  0.00     0.049 A 
ATOM     50  H   UNL A   1      40.833  30.156  30.679  1.00  0.00     0.167 HD
ATOM     51  C   UNL A   1      42.038  30.584  34.894  1.00  0.00     0.037 A 
ATOM     52  C   UNL A   1      40.598  28.473  28.510  1.00  0.00     0.037 A 
ATOM     53  C   UNL A   1      43.045  31.315  34.165  1.00  0.00     0.049 A 
ATOM     54  C   UNL A   1      41.880  28.520  29.255  1.00  0.00     0.074 A 
ATOM     55  C   UNL A   1      43.327  32.654  33.971  1.00  0.00     0.029 A 
ATOM     56  N   UNL A   1      43.730  30.652  33.175  1.00  0.00    -0.354 N 
ATOM     57  N   UNL A   1      42.780  29.448  29.098  1.00  0.00    -0.248 NA
ATOM     58  C   UNL A   1      41.947  27.785  30.509  1.00  0.00     0.031 C 
ATOM     59  C   UNL A   1      43.717  32.753  32.602  1.00  0.00     0.029 A 
ATOM     60  C   UNL A   1      43.732  31.463  32.071  1.00  0.00     0.049 A 
ATOM     61  H   UNL A   1      44.140  29.760  33.247  1.00  0.00     0.167 HD
ATOM     62  C   UNL A   1      43.224  29.722  30.381  1.00  0.00     0.074 A 
ATOM     63  C   UNL A   1      42.734  28.613  31.200  1.00  0.00     0.031 C 
ATOM     64  C   UNL A   1      43.686  30.962  30.719  1.00  0.00     0.037 A 
BRANCH  51  65
ATOM     65  C   UNL A   1      42.353  29.292  35.622  1.00  0.00     0.057 A 
ATOM     66  C   UNL A   1      43.300  29.312  36.664  1.00  0.00     0.134 A 
ATOM     67  C   UNL A   1      42.017  28.005  35.152  1.00  0.00     0.134 A 
ATOM     68  F   UNL A   1      43.711  30.471  37.200  1.00  0.00    -0.206 F 
ATOM     69  C   UNL A   1      43.935  28.153  37.126  1.00  0.00     0.040 A 
ATOM     70  C   UNL A   1      42.607  26.837  35.645  1.00  0.00     0.040 A 
ATOM     71  F   UNL A   1      41.182  27.802  34.128  1.00  0.00    -0.206 F 
ATOM     72  C   UNL A   1      43.598  26.910  36.608  1.00  0.00     0.006 A 
ENDBRANCH  51  65
BRANCH  52  73
ATOM     73  C   UNL A   1      40.209  27.273  27.731  1.00  0.00     0.057 A 
ATOM     74  C   UNL A   1      40.813  26.997  26.494  1.00  0.00     0.134 A 
ATOM     75  C   UNL A   1      39.475  26.220  28.303  1.00  0.00     0.134 A 
ATOM     76  F   UNL A   1      41.559  27.926  25.877  1.00  0.00    -0.206 F 
ATOM     77  C   UNL A   1      40.736  25.736  25.887  1.00  0.00     0.040 A 
ATOM     78  C   UNL A   1      39.383  24.958  27.704  1.00  0.00     0.040 A 
ATOM     79  F   UNL A   1      38.904  26.347  29.509  1.00  0.00    -0.206 F 
ATOM     80  C   UNL A   1      40.032  24.706  26.501  1.00  0.00     0.006 A 
ENDBRANCH  52  73
BRANCH  64  81
ATOM     81  C   UNL A   1      43.948  31.946  29.612  1.00  0.00     0.057 A 
ATOM     82  C   UNL A   1      43.053  32.948  29.203  1.00  0.00     0.134 A 
ATOM     83  C   UNL A   1      45.217  31.959  29.022  1.00  0.00     0.134 A 
ATOM     84  F   UNL A   1      41.853  33.087  29.778  1.00  0.00    -0.206 F 
ATOM     85  C   UNL A   1      43.389  33.880  28.215  1.00  0.00     0.040 A 
ATOM     86  C   UNL A   1      45.578  32.907  28.062  1.00  0.00     0.040 A 
ATOM     87  F   UNL A   1      46.146  31.067  29.400  1.00  0.00    -0.206 F 
ATOM     88  C   UNL A   1      44.658  33.864  27.645  1.00  0.00     0.006 A 
ENDBRANCH  64  81
ENDBRANCH  38  39
ENDBRANCH  30  33
ENDBRANCH  28  29
ENDBRANCH  27  28
ENDBRANCH  26  27
ENDBRANCH   1  26
TORSDOF 16
ENDMDL
