MODEL 1
REMARK VINA RESULT:     -11.8      0.000      0.000
REMARK SMILES O=C(NCCCCCCNC(=O)[C@@H]1CCCC[C@H]1C(=O)Nc1cccc(O)c1)c1ccc(-c2c3nc(c(-c4c(F)cccc4F)c4ccc([nH]4)c(-c4c(F)cccc4F)c4nc(c(-c5c(F)cccc5F)c5ccc2[nH]5)C=C4)C=C3)cc1
REMARK SMILES IDX 7 1 6 2 5 3 4 4 3 5 1 6 2 7 29 9 30 10 82 11 31 12 81 13
REMARK SMILES IDX 32 14 33 15 34 16 75 17 35 18 80 19 74 20 76 21 36 22 79 23
REMARK SMILES IDX 73 24 72 25 37 27 63 28 46 29 62 30 47 31 50 32 61 33 77 34
REMARK SMILES IDX 48 35 49 36 60 38 78 39 51 40 38 41 39 42 44 43 40 44 41 45
REMARK SMILES IDX 43 46 45 47 42 48 64 49 65 50 70 51 66 52 67 53 69 54 71 55
REMARK SMILES IDX 68 56 52 57 53 58 58 59 54 60 55 61 57 62 59 63 56 64 8 65
REMARK SMILES IDX 9 66 10 67 11 68 12 70 13 71 14 72 18 73 15 74 17 75 16 76
REMARK SMILES IDX 19 77 20 78 21 79 22 81 23 82 28 83 24 84 26 85 25 86 27 87
REMARK H PARENT 3 8 76 26 50 37 10 69 21 80 27 88
REMARK Flexibility Score: inf
ROOT
ATOM      1  C   UNL A   1      36.961  21.965  24.474  1.00  0.00     0.002 C 
ENDROOT
BRANCH   1   2
ATOM      2  C   UNL A   1      36.666  20.553  25.001  1.00  0.00     0.002 C 
BRANCH   2   3
ATOM      3  C   UNL A   1      37.850  19.586  24.976  1.00  0.00     0.021 C 
BRANCH   3   4
ATOM      4  C   UNL A   1      39.068  20.067  25.751  1.00  0.00     0.116 C 
BRANCH   4   5
ATOM      5  N   UNL A   1      40.122  19.069  25.781  1.00  0.00    -0.352 N 
ATOM      6  O   UNL A   1      42.259  18.336  25.751  1.00  0.00    -0.269 OA
ATOM      7  C   UNL A   1      41.471  19.258  25.944  1.00  0.00     0.251 C 
ATOM      8  H   UNL A   1      39.831  18.134  25.670  1.00  0.00     0.163 HD
BRANCH   7   9
ATOM      9  C   UNL A   1      41.973  20.589  26.345  1.00  0.00     0.039 A 
ATOM     10  C   UNL A   1      42.265  21.553  25.376  1.00  0.00     0.014 A 
ATOM     11  C   UNL A   1      42.136  20.881  27.702  1.00  0.00     0.014 A 
ATOM     12  C   UNL A   1      42.826  22.765  25.758  1.00  0.00     0.010 A 
ATOM     13  C   UNL A   1      42.619  22.133  28.089  1.00  0.00     0.010 A 
ATOM     14  C   UNL A   1      42.979  23.080  27.118  1.00  0.00    -0.014 A 
BRANCH  14  15
ATOM     15  C   UNL A   1      43.410  24.450  27.488  1.00  0.00     0.031 A 
ATOM     16  C   UNL A   1      44.841  24.885  27.371  1.00  0.00     0.074 A 
ATOM     17  C   UNL A   1      42.464  25.319  27.898  1.00  0.00     0.049 A 
ATOM     18  N   UNL A   1      45.363  26.061  27.613  1.00  0.00    -0.248 NA
ATOM     19  C   UNL A   1      45.815  23.875  26.931  1.00  0.00     0.031 C 
ATOM     20  C   UNL A   1      41.044  24.995  28.070  1.00  0.00     0.029 A 
ATOM     21  N   UNL A   1      42.540  26.648  28.218  1.00  0.00    -0.354 N 
ATOM     22  C   UNL A   1      46.724  25.933  27.370  1.00  0.00     0.074 A 
ATOM     23  C   UNL A   1      46.954  24.557  26.981  1.00  0.00     0.031 C 
ATOM     24  C   UNL A   1      40.376  26.105  28.410  1.00  0.00     0.029 A 
ATOM     25  C   UNL A   1      41.325  27.204  28.540  1.00  0.00     0.049 A 
ATOM     26  H   UNL A   1      43.383  27.157  28.219  1.00  0.00     0.167 HD
ATOM     27  C   UNL A   1      47.687  26.881  27.456  1.00  0.00     0.037 A 
ATOM     28  C   UNL A   1      41.010  28.456  28.912  1.00  0.00     0.037 A 
ATOM     29  C   UNL A   1      47.447  28.251  27.837  1.00  0.00     0.049 A 
ATOM     30  C   UNL A   1      42.101  29.479  29.005  1.00  0.00     0.074 A 
ATOM     31  C   UNL A   1      48.356  29.291  27.938  1.00  0.00     0.029 A 
ATOM     32  N   UNL A   1      46.208  28.770  28.181  1.00  0.00    -0.354 N 
ATOM     33  N   UNL A   1      43.380  29.347  28.745  1.00  0.00    -0.248 NA
ATOM     34  C   UNL A   1      41.709  30.824  29.447  1.00  0.00     0.031 C 
ATOM     35  C   UNL A   1      47.672  30.431  28.376  1.00  0.00     0.029 A 
ATOM     36  C   UNL A   1      46.331  30.112  28.509  1.00  0.00     0.049 A 
ATOM     37  H   UNL A   1      45.365  28.262  28.191  1.00  0.00     0.167 HD
ATOM     38  C   UNL A   1      43.944  30.590  28.989  1.00  0.00     0.074 A 
ATOM     39  C   UNL A   1      42.863  31.471  29.383  1.00  0.00     0.031 C 
ATOM     40  C   UNL A   1      45.243  30.967  28.906  1.00  0.00     0.037 A 
BRANCH  27  41
ATOM     41  C   UNL A   1      49.097  26.476  27.139  1.00  0.00     0.057 A 
ATOM     42  C   UNL A   1      49.971  26.014  28.131  1.00  0.00     0.134 A 
ATOM     43  C   UNL A   1      49.564  26.481  25.819  1.00  0.00     0.134 A 
ATOM     44  F   UNL A   1      49.590  25.994  29.417  1.00  0.00    -0.206 F 
ATOM     45  C   UNL A   1      51.262  25.578  27.822  1.00  0.00     0.040 A 
ATOM     46  C   UNL A   1      50.846  26.030  25.494  1.00  0.00     0.040 A 
ATOM     47  F   UNL A   1      48.776  26.906  24.819  1.00  0.00    -0.206 F 
ATOM     48  C   UNL A   1      51.699  25.578  26.499  1.00  0.00     0.006 A 
ENDBRANCH  27  41
BRANCH  28  49
ATOM     49  C   UNL A   1      39.604  28.802  29.233  1.00  0.00     0.057 A 
ATOM     50  C   UNL A   1      38.733  29.288  28.253  1.00  0.00     0.134 A 
ATOM     51  C   UNL A   1      39.097  28.649  30.531  1.00  0.00     0.134 A 
ATOM     52  F   UNL A   1      39.165  29.469  26.996  1.00  0.00    -0.206 F 
ATOM     53  C   UNL A   1      37.413  29.627  28.553  1.00  0.00     0.040 A 
ATOM     54  C   UNL A   1      37.772  28.958  30.838  1.00  0.00     0.040 A 
ATOM     55  F   UNL A   1      39.880  28.178  31.512  1.00  0.00    -0.206 F 
ATOM     56  C   UNL A   1      36.929  29.457  29.848  1.00  0.00     0.006 A 
ENDBRANCH  28  49
BRANCH  40  57
ATOM     57  C   UNL A   1      45.548  32.396  29.240  1.00  0.00     0.057 A 
ATOM     58  C   UNL A   1      45.510  33.401  28.264  1.00  0.00     0.134 A 
ATOM     59  C   UNL A   1      45.880  32.770  30.547  1.00  0.00     0.134 A 
ATOM     60  F   UNL A   1      45.215  33.101  26.990  1.00  0.00    -0.206 F 
ATOM     61  C   UNL A   1      45.824  34.725  28.572  1.00  0.00     0.040 A 
ATOM     62  C   UNL A   1      46.172  34.096  30.872  1.00  0.00     0.040 A 
ATOM     63  F   UNL A   1      45.928  31.856  31.527  1.00  0.00    -0.206 F 
ATOM     64  C   UNL A   1      46.152  35.076  29.881  1.00  0.00     0.006 A 
ENDBRANCH  40  57
ENDBRANCH  14  15
ENDBRANCH   7   9
ENDBRANCH   4   5
ENDBRANCH   3   4
ENDBRANCH   2   3
ENDBRANCH   1   2
BRANCH   1  65
ATOM     65  C   UNL A   1      37.004  23.070  25.538  1.00  0.00     0.021 C 
BRANCH  65  66
ATOM     66  C   UNL A   1      35.664  23.768  25.753  1.00  0.00     0.116 C 
BRANCH  66  67
ATOM     67  N   UNL A   1      34.894  23.103  26.777  1.00  0.00    -0.356 N 
ATOM     68  C   UNL A   1      33.646  22.596  26.851  1.00  0.00     0.223 C 
ATOM     69  H   UNL A   1      35.396  22.993  27.616  1.00  0.00     0.163 HD
ATOM     70  O   UNL A   1      33.340  22.204  27.984  1.00  0.00    -0.275 OA
BRANCH  68  71
ATOM     71  C   UNL A   1      32.692  22.347  25.666  1.00  0.00     0.091 C 
ATOM     72  C   UNL A   1      33.241  21.655  24.413  1.00  0.00     0.014 C 
ATOM     73  C   UNL A   1      31.968  23.673  25.315  1.00  0.00     0.091 C 
ATOM     74  C   UNL A   1      32.225  21.556  23.282  1.00  0.00     0.001 C 
ATOM     75  C   UNL A   1      31.054  23.595  24.077  1.00  0.00     0.014 C 
ATOM     76  C   UNL A   1      31.718  22.926  22.886  1.00  0.00     0.001 C 
BRANCH  73  77
ATOM     77  C   UNL A   1      31.183  24.410  26.422  1.00  0.00     0.228 C 
ATOM     78  O   UNL A   1      30.548  23.742  27.251  1.00  0.00    -0.274 OA
ATOM     79  N   UNL A   1      31.312  25.748  26.680  1.00  0.00    -0.326 N 
ATOM     80  H   UNL A   1      30.850  26.058  27.493  1.00  0.00     0.169 HD
BRANCH  79  81
ATOM     81  C   UNL A   1      31.990  26.744  25.976  1.00  0.00     0.044 A 
ATOM     82  C   UNL A   1      33.362  26.936  26.132  1.00  0.00     0.026 A 
ATOM     83  C   UNL A   1      31.289  27.501  25.040  1.00  0.00     0.072 A 
ATOM     84  C   UNL A   1      34.004  27.988  25.474  1.00  0.00     0.006 A 
ATOM     85  C   UNL A   1      31.935  28.545  24.385  1.00  0.00     0.117 A 
ATOM     86  C   UNL A   1      33.282  28.812  24.612  1.00  0.00     0.046 A 
BRANCH  85  87
ATOM     87  O   UNL A   1      31.198  29.307  23.527  1.00  0.00    -0.508 OA
ATOM     88  H   UNL A   1      31.625  29.818  22.869  1.00  0.00     0.293 HD
ENDBRANCH  85  87
ENDBRANCH  79  81
ENDBRANCH  73  77
ENDBRANCH  68  71
ENDBRANCH  66  67
ENDBRANCH  65  66
ENDBRANCH   1  65
TORSDOF 16
ENDMDL
MODEL 2
REMARK VINA RESULT:     -11.8      1.542      2.283
REMARK SMILES O=C(NCCCCCCNC(=O)[C@@H]1CCCC[C@H]1C(=O)Nc1cccc(O)c1)c1ccc(-c2c3nc(c(-c4c(F)cccc4F)c4ccc([nH]4)c(-c4c(F)cccc4F)c4nc(c(-c5c(F)cccc5F)c5ccc2[nH]5)C=C4)C=C3)cc1
REMARK SMILES IDX 7 1 6 2 5 3 4 4 3 5 1 6 2 7 29 9 30 10 82 11 31 12 81 13
REMARK SMILES IDX 32 14 33 15 34 16 75 17 35 18 80 19 74 20 76 21 36 22 79 23
REMARK SMILES IDX 73 24 72 25 37 27 63 28 46 29 62 30 47 31 50 32 61 33 77 34
REMARK SMILES IDX 48 35 49 36 60 38 78 39 51 40 38 41 39 42 44 43 40 44 41 45
REMARK SMILES IDX 43 46 45 47 42 48 64 49 65 50 70 51 66 52 67 53 69 54 71 55
REMARK SMILES IDX 68 56 52 57 53 58 58 59 54 60 55 61 57 62 59 63 56 64 8 65
REMARK SMILES IDX 9 66 10 67 11 68 12 70 13 71 14 72 18 73 15 74 17 75 16 76
REMARK SMILES IDX 19 77 20 78 21 79 22 81 23 82 28 83 24 84 26 85 25 86 27 87
REMARK H PARENT 3 8 76 26 50 37 10 69 21 80 27 88
REMARK Flexibility Score: inf
ROOT
ATOM      1  C   UNL A   1      38.256  22.417  25.872  1.00  0.00     0.002 C 
ENDROOT
BRANCH   1   2
ATOM      2  C   UNL A   1      37.666  21.390  24.895  1.00  0.00     0.002 C 
BRANCH   2   3
ATOM      3  C   UNL A   1      38.340  20.018  24.904  1.00  0.00     0.021 C 
BRANCH   3   4
ATOM      4  C   UNL A   1      39.147  19.724  26.159  1.00  0.00     0.116 C 
BRANCH   4   5
ATOM      5  N   UNL A   1      40.395  19.046  25.857  1.00  0.00    -0.352 N 
ATOM      6  O   UNL A   1      42.606  18.914  25.414  1.00  0.00    -0.269 OA
ATOM      7  C   UNL A   1      41.669  19.554  25.884  1.00  0.00     0.251 C 
ATOM      8  H   UNL A   1      40.316  18.098  25.601  1.00  0.00     0.163 HD
BRANCH   7   9
ATOM      9  C   UNL A   1      41.906  20.888  26.474  1.00  0.00     0.039 A 
ATOM     10  C   UNL A   1      41.878  21.059  27.861  1.00  0.00     0.014 A 
ATOM     11  C   UNL A   1      42.176  21.972  25.634  1.00  0.00     0.014 A 
ATOM     12  C   UNL A   1      42.006  22.333  28.400  1.00  0.00     0.010 A 
ATOM     13  C   UNL A   1      42.391  23.238  26.184  1.00  0.00     0.010 A 
ATOM     14  C   UNL A   1      42.295  23.429  27.571  1.00  0.00    -0.014 A 
BRANCH  14  15
ATOM     15  C   UNL A   1      42.605  24.736  28.201  1.00  0.00     0.031 A 
ATOM     16  C   UNL A   1      43.997  25.096  28.626  1.00  0.00     0.074 A 
ATOM     17  C   UNL A   1      41.596  25.620  28.346  1.00  0.00     0.049 A 
ATOM     18  N   UNL A   1      44.431  26.215  29.149  1.00  0.00    -0.248 NA
ATOM     19  C   UNL A   1      45.039  24.073  28.449  1.00  0.00     0.031 C 
ATOM     20  C   UNL A   1      40.197  25.364  27.987  1.00  0.00     0.029 A 
ATOM     21  N   UNL A   1      41.589  26.910  28.804  1.00  0.00    -0.354 N 
ATOM     22  C   UNL A   1      45.789  26.031  29.375  1.00  0.00     0.074 A 
ATOM     23  C   UNL A   1      46.105  24.682  28.954  1.00  0.00     0.031 C 
ATOM     24  C   UNL A   1      39.480  26.478  28.186  1.00  0.00     0.029 A 
ATOM     25  C   UNL A   1      40.352  27.505  28.743  1.00  0.00     0.049 A 
ATOM     26  H   UNL A   1      42.392  27.367  29.144  1.00  0.00     0.167 HD
ATOM     27  C   UNL A   1      46.685  26.911  29.880  1.00  0.00     0.037 A 
ATOM     28  C   UNL A   1      39.958  28.737  29.106  1.00  0.00     0.037 A 
ATOM     29  C   UNL A   1      46.361  28.255  30.290  1.00  0.00     0.049 A 
ATOM     30  C   UNL A   1      40.974  29.684  29.669  1.00  0.00     0.074 A 
ATOM     31  C   UNL A   1      47.204  29.229  30.800  1.00  0.00     0.029 A 
ATOM     32  N   UNL A   1      45.093  28.813  30.239  1.00  0.00    -0.354 N 
ATOM     33  N   UNL A   1      42.259  29.502  29.853  1.00  0.00    -0.248 NA
ATOM     34  C   UNL A   1      40.486  31.007  30.082  1.00  0.00     0.031 C 
ATOM     35  C   UNL A   1      46.439  30.364  31.088  1.00  0.00     0.029 A 
ATOM     36  C   UNL A   1      45.128  30.113  30.720  1.00  0.00     0.049 A 
ATOM     37  H   UNL A   1      44.286  28.355  29.908  1.00  0.00     0.167 HD
ATOM     38  C   UNL A   1      42.734  30.685  30.398  1.00  0.00     0.074 A 
ATOM     39  C   UNL A   1      41.606  31.590  30.482  1.00  0.00     0.031 C 
ATOM     40  C   UNL A   1      43.991  30.993  30.804  1.00  0.00     0.037 A 
BRANCH  27  41
ATOM     41  C   UNL A   1      48.107  26.454  30.028  1.00  0.00     0.057 A 
ATOM     42  C   UNL A   1      48.555  25.806  31.186  1.00  0.00     0.134 A 
ATOM     43  C   UNL A   1      49.019  26.600  28.975  1.00  0.00     0.134 A 
ATOM     44  F   UNL A   1      47.736  25.643  32.234  1.00  0.00    -0.206 F 
ATOM     45  C   UNL A   1      49.864  25.326  31.293  1.00  0.00     0.040 A 
ATOM     46  C   UNL A   1      50.323  26.108  29.063  1.00  0.00     0.040 A 
ATOM     47  F   UNL A   1      48.653  27.206  27.835  1.00  0.00    -0.206 F 
ATOM     48  C   UNL A   1      50.748  25.470  30.227  1.00  0.00     0.006 A 
ENDBRANCH  27  41
BRANCH  28  49
ATOM     49  C   UNL A   1      38.537  29.135  28.959  1.00  0.00     0.057 A 
ATOM     50  C   UNL A   1      37.646  29.061  30.034  1.00  0.00     0.134 A 
ATOM     51  C   UNL A   1      38.037  29.604  27.736  1.00  0.00     0.134 A 
ATOM     52  F   UNL A   1      38.063  28.607  31.226  1.00  0.00    -0.206 F 
ATOM     53  C   UNL A   1      36.305  29.422  29.898  1.00  0.00     0.040 A 
ATOM     54  C   UNL A   1      36.706  29.994  27.593  1.00  0.00     0.040 A 
ATOM     55  F   UNL A   1      38.844  29.707  26.671  1.00  0.00    -0.206 F 
ATOM     56  C   UNL A   1      35.834  29.895  28.675  1.00  0.00     0.006 A 
ENDBRANCH  28  49
BRANCH  40  57
ATOM     57  C   UNL A   1      44.195  32.368  31.362  1.00  0.00     0.057 A 
ATOM     58  C   UNL A   1      44.086  32.626  32.735  1.00  0.00     0.134 A 
ATOM     59  C   UNL A   1      44.506  33.442  30.521  1.00  0.00     0.134 A 
ATOM     60  F   UNL A   1      43.773  31.640  33.589  1.00  0.00    -0.206 F 
ATOM     61  C   UNL A   1      44.247  33.913  33.248  1.00  0.00     0.040 A 
ATOM     62  C   UNL A   1      44.694  34.730  31.025  1.00  0.00     0.040 A 
ATOM     63  F   UNL A   1      44.631  33.259  29.198  1.00  0.00    -0.206 F 
ATOM     64  C   UNL A   1      44.557  34.969  32.392  1.00  0.00     0.006 A 
ENDBRANCH  40  57
ENDBRANCH  14  15
ENDBRANCH   7   9
ENDBRANCH   4   5
ENDBRANCH   3   4
ENDBRANCH   2   3
ENDBRANCH   1   2
BRANCH   1  65
ATOM     65  C   UNL A   1      37.620  23.813  25.825  1.00  0.00     0.021 C 
BRANCH  65  66
ATOM     66  C   UNL A   1      36.109  23.792  25.609  1.00  0.00     0.116 C 
BRANCH  66  67
ATOM     67  N   UNL A   1      35.431  23.238  26.757  1.00  0.00    -0.356 N 
ATOM     68  C   UNL A   1      34.229  22.664  26.968  1.00  0.00     0.223 C 
ATOM     69  H   UNL A   1      35.972  23.293  27.577  1.00  0.00     0.163 HD
ATOM     70  O   UNL A   1      33.998  22.429  28.160  1.00  0.00    -0.275 OA
BRANCH  68  71
ATOM     71  C   UNL A   1      33.252  22.172  25.881  1.00  0.00     0.091 C 
ATOM     72  C   UNL A   1      33.819  21.437  24.662  1.00  0.00     0.014 C 
ATOM     73  C   UNL A   1      32.332  23.349  25.461  1.00  0.00     0.091 C 
ATOM     74  C   UNL A   1      32.762  21.090  23.619  1.00  0.00     0.001 C 
ATOM     75  C   UNL A   1      31.368  23.026  24.304  1.00  0.00     0.014 C 
ATOM     76  C   UNL A   1      32.048  22.334  23.136  1.00  0.00     0.001 C 
BRANCH  73  77
ATOM     77  C   UNL A   1      31.518  24.083  26.549  1.00  0.00     0.228 C 
ATOM     78  O   UNL A   1      30.943  23.414  27.420  1.00  0.00    -0.274 OA
ATOM     79  N   UNL A   1      31.560  25.437  26.743  1.00  0.00    -0.326 N 
ATOM     80  H   UNL A   1      31.092  25.754  27.550  1.00  0.00     0.169 HD
BRANCH  79  81
ATOM     81  C   UNL A   1      32.158  26.442  25.982  1.00  0.00     0.044 A 
ATOM     82  C   UNL A   1      33.442  26.904  26.269  1.00  0.00     0.026 A 
ATOM     83  C   UNL A   1      31.485  26.927  24.862  1.00  0.00     0.072 A 
ATOM     84  C   UNL A   1      33.988  27.962  25.540  1.00  0.00     0.006 A 
ATOM     85  C   UNL A   1      32.037  27.979  24.137  1.00  0.00     0.117 A 
ATOM     86  C   UNL A   1      33.273  28.519  24.481  1.00  0.00     0.046 A 
BRANCH  85  87
ATOM     87  O   UNL A   1      31.316  28.473  23.090  1.00  0.00    -0.508 OA
ATOM     88  H   UNL A   1      31.738  28.650  22.273  1.00  0.00     0.293 HD
ENDBRANCH  85  87
ENDBRANCH  79  81
ENDBRANCH  73  77
ENDBRANCH  68  71
ENDBRANCH  66  67
ENDBRANCH  65  66
ENDBRANCH   1  65
TORSDOF 16
ENDMDL
MODEL 3
REMARK VINA RESULT:     -11.8      5.396     11.264
REMARK SMILES O=C(NCCCCCCNC(=O)[C@@H]1CCCC[C@H]1C(=O)Nc1cccc(O)c1)c1ccc(-c2c3nc(c(-c4c(F)cccc4F)c4ccc([nH]4)c(-c4c(F)cccc4F)c4nc(c(-c5c(F)cccc5F)c5ccc2[nH]5)C=C4)C=C3)cc1
REMARK SMILES IDX 7 1 6 2 5 3 4 4 3 5 1 6 2 7 29 9 30 10 82 11 31 12 81 13
REMARK SMILES IDX 32 14 33 15 34 16 75 17 35 18 80 19 74 20 76 21 36 22 79 23
REMARK SMILES IDX 73 24 72 25 37 27 63 28 46 29 62 30 47 31 50 32 61 33 77 34
REMARK SMILES IDX 48 35 49 36 60 38 78 39 51 40 38 41 39 42 44 43 40 44 41 45
REMARK SMILES IDX 43 46 45 47 42 48 64 49 65 50 70 51 66 52 67 53 69 54 71 55
REMARK SMILES IDX 68 56 52 57 53 58 58 59 54 60 55 61 57 62 59 63 56 64 8 65
REMARK SMILES IDX 9 66 10 67 11 68 12 70 13 71 14 72 18 73 15 74 17 75 16 76
REMARK SMILES IDX 19 77 20 78 21 79 22 81 23 82 28 83 24 84 26 85 25 86 27 87
REMARK H PARENT 3 8 76 26 50 37 10 69 21 80 27 88
REMARK Flexibility Score: inf
ROOT
ATOM      1  C   UNL A   1      36.070  34.507  33.311  1.00  0.00     0.002 C 
ENDROOT
BRANCH   1   2
ATOM      2  C   UNL A   1      34.775  35.268  33.630  1.00  0.00     0.002 C 
BRANCH   2   3
ATOM      3  C   UNL A   1      33.610  35.003  32.676  1.00  0.00     0.021 C 
BRANCH   3   4
ATOM      4  C   UNL A   1      33.572  35.919  31.462  1.00  0.00     0.116 C 
BRANCH   4   5
ATOM      5  N   UNL A   1      32.841  35.327  30.356  1.00  0.00    -0.352 N 
ATOM      6  O   UNL A   1      32.616  34.208  28.407  1.00  0.00    -0.269 OA
ATOM      7  C   UNL A   1      33.303  34.469  29.391  1.00  0.00     0.251 C 
ATOM      8  H   UNL A   1      31.890  35.574  30.291  1.00  0.00     0.163 HD
BRANCH   7   9
ATOM      9  C   UNL A   1      34.644  33.866  29.539  1.00  0.00     0.039 A 
ATOM     10  C   UNL A   1      35.734  34.393  28.842  1.00  0.00     0.014 A 
ATOM     11  C   UNL A   1      34.815  32.775  30.396  1.00  0.00     0.014 A 
ATOM     12  C   UNL A   1      36.969  33.760  28.913  1.00  0.00     0.010 A 
ATOM     13  C   UNL A   1      36.078  32.192  30.534  1.00  0.00     0.010 A 
ATOM     14  C   UNL A   1      37.161  32.675  29.783  1.00  0.00    -0.014 A 
BRANCH  14  15
ATOM     15  C   UNL A   1      38.534  32.144  29.967  1.00  0.00     0.031 A 
ATOM     16  C   UNL A   1      39.565  32.885  30.766  1.00  0.00     0.074 A 
ATOM     17  C   UNL A   1      38.823  30.944  29.425  1.00  0.00     0.049 A 
ATOM     18  N   UNL A   1      40.792  32.528  31.052  1.00  0.00    -0.248 NA
ATOM     19  C   UNL A   1      39.178  34.195  31.311  1.00  0.00     0.031 C 
ATOM     20  C   UNL A   1      37.901  30.147  28.609  1.00  0.00     0.029 A 
ATOM     21  N   UNL A   1      39.952  30.173  29.496  1.00  0.00    -0.354 N 
ATOM     22  C   UNL A   1      41.328  33.570  31.798  1.00  0.00     0.074 A 
ATOM     23  C   UNL A   1      40.301  34.585  31.902  1.00  0.00     0.031 C 
ATOM     24  C   UNL A   1      38.481  28.979  28.302  1.00  0.00     0.029 A 
ATOM     25  C   UNL A   1      39.834  28.968  28.845  1.00  0.00     0.049 A 
ATOM     26  H   UNL A   1      40.770  30.453  29.967  1.00  0.00     0.167 HD
ATOM     27  C   UNL A   1      42.562  33.661  32.350  1.00  0.00     0.037 A 
ATOM     28  C   UNL A   1      40.719  27.969  28.691  1.00  0.00     0.037 A 
ATOM     29  C   UNL A   1      43.576  32.642  32.246  1.00  0.00     0.049 A 
ATOM     30  C   UNL A   1      42.079  28.106  29.306  1.00  0.00     0.074 A 
ATOM     31  C   UNL A   1      44.853  32.636  32.784  1.00  0.00     0.029 A 
ATOM     32  N   UNL A   1      43.429  31.448  31.557  1.00  0.00    -0.354 N 
ATOM     33  N   UNL A   1      42.561  29.088  30.031  1.00  0.00    -0.248 NA
ATOM     34  C   UNL A   1      43.020  27.002  29.081  1.00  0.00     0.031 C 
ATOM     35  C   UNL A   1      45.488  31.453  32.391  1.00  0.00     0.029 A 
ATOM     36  C   UNL A   1      44.596  30.704  31.644  1.00  0.00     0.049 A 
ATOM     37  H   UNL A   1      42.615  31.168  31.077  1.00  0.00     0.167 HD
ATOM     38  C   UNL A   1      43.859  28.718  30.350  1.00  0.00     0.074 A 
ATOM     39  C   UNL A   1      44.076  27.409  29.770  1.00  0.00     0.031 C 
ATOM     40  C   UNL A   1      44.793  29.406  31.051  1.00  0.00     0.037 A 
BRANCH  27  41
ATOM     41  C   UNL A   1      42.895  34.911  33.113  1.00  0.00     0.057 A 
ATOM     42  C   UNL A   1      42.745  34.986  34.503  1.00  0.00     0.134 A 
ATOM     43  C   UNL A   1      43.437  36.025  32.460  1.00  0.00     0.134 A 
ATOM     44  F   UNL A   1      42.222  33.959  35.187  1.00  0.00    -0.206 F 
ATOM     45  C   UNL A   1      43.115  36.130  35.216  1.00  0.00     0.040 A 
ATOM     46  C   UNL A   1      43.829  37.166  33.163  1.00  0.00     0.040 A 
ATOM     47  F   UNL A   1      43.613  36.016  31.129  1.00  0.00    -0.206 F 
ATOM     48  C   UNL A   1      43.666  37.220  34.546  1.00  0.00     0.006 A 
ENDBRANCH  27  41
BRANCH  28  49
ATOM     49  C   UNL A   1      40.349  26.764  27.910  1.00  0.00     0.057 A 
ATOM     50  C   UNL A   1      40.791  26.585  26.596  1.00  0.00     0.134 A 
ATOM     51  C   UNL A   1      39.545  25.759  28.465  1.00  0.00     0.134 A 
ATOM     52  F   UNL A   1      41.551  27.519  26.006  1.00  0.00    -0.206 F 
ATOM     53  C   UNL A   1      40.434  25.458  25.853  1.00  0.00     0.040 A 
ATOM     54  C   UNL A   1      39.205  24.615  27.744  1.00  0.00     0.040 A 
ATOM     55  F   UNL A   1      39.098  25.868  29.724  1.00  0.00    -0.206 F 
ATOM     56  C   UNL A   1      39.643  24.467  26.430  1.00  0.00     0.006 A 
ENDBRANCH  28  49
BRANCH  40  57
ATOM     57  C   UNL A   1      46.123  28.739  31.229  1.00  0.00     0.057 A 
ATOM     58  C   UNL A   1      46.417  27.983  32.371  1.00  0.00     0.134 A 
ATOM     59  C   UNL A   1      47.115  28.850  30.249  1.00  0.00     0.134 A 
ATOM     60  F   UNL A   1      45.511  27.854  33.353  1.00  0.00    -0.206 F 
ATOM     61  C   UNL A   1      47.666  27.388  32.547  1.00  0.00     0.040 A 
ATOM     62  C   UNL A   1      48.361  28.239  30.403  1.00  0.00     0.040 A 
ATOM     63  F   UNL A   1      46.893  29.555  29.129  1.00  0.00    -0.206 F 
ATOM     64  C   UNL A   1      48.641  27.512  31.559  1.00  0.00     0.006 A 
ENDBRANCH  40  57
ENDBRANCH  14  15
ENDBRANCH   7   9
ENDBRANCH   4   5
ENDBRANCH   3   4
ENDBRANCH   2   3
ENDBRANCH   1   2
BRANCH   1  65
ATOM     65  C   UNL A   1      36.479  33.443  34.339  1.00  0.00     0.021 C 
BRANCH  65  66
ATOM     66  C   UNL A   1      37.987  33.348  34.557  1.00  0.00     0.116 C 
BRANCH  66  67
ATOM     67  N   UNL A   1      38.317  32.217  35.391  1.00  0.00    -0.356 N 
ATOM     68  C   UNL A   1      38.473  30.893  35.183  1.00  0.00     0.223 C 
ATOM     69  H   UNL A   1      38.461  32.470  36.331  1.00  0.00     0.163 HD
ATOM     70  O   UNL A   1      38.648  30.248  36.223  1.00  0.00    -0.275 OA
BRANCH  68  71
ATOM     71  C   UNL A   1      38.594  30.195  33.813  1.00  0.00     0.091 C 
ATOM     72  C   UNL A   1      37.344  29.552  33.203  1.00  0.00     0.014 C 
ATOM     73  C   UNL A   1      39.784  29.202  33.857  1.00  0.00     0.091 C 
ATOM     74  C   UNL A   1      37.618  28.815  31.897  1.00  0.00     0.001 C 
ATOM     75  C   UNL A   1      39.960  28.357  32.581  1.00  0.00     0.014 C 
ATOM     76  C   UNL A   1      38.663  27.737  32.092  1.00  0.00     0.001 C 
BRANCH  73  77
ATOM     77  C   UNL A   1      41.180  29.727  34.258  1.00  0.00     0.228 C 
ATOM     78  O   UNL A   1      41.426  30.934  34.123  1.00  0.00    -0.274 OA
ATOM     79  N   UNL A   1      42.098  28.987  34.953  1.00  0.00    -0.326 N 
ATOM     80  H   UNL A   1      42.892  29.488  35.251  1.00  0.00     0.169 HD
BRANCH  79  81
ATOM     81  C   UNL A   1      42.091  27.637  35.306  1.00  0.00     0.044 A 
ATOM     82  C   UNL A   1      42.729  26.678  34.520  1.00  0.00     0.026 A 
ATOM     83  C   UNL A   1      41.503  27.260  36.512  1.00  0.00     0.072 A 
ATOM     84  C   UNL A   1      42.643  25.325  34.853  1.00  0.00     0.006 A 
ATOM     85  C   UNL A   1      41.424  25.910  36.841  1.00  0.00     0.117 A 
ATOM     86  C   UNL A   1      41.967  24.936  36.009  1.00  0.00     0.046 A 
BRANCH  85  87
ATOM     87  O   UNL A   1      40.780  25.577  37.996  1.00  0.00    -0.508 OA
ATOM     88  H   UNL A   1      40.371  24.738  38.079  1.00  0.00     0.293 HD
ENDBRANCH  85  87
ENDBRANCH  79  81
ENDBRANCH  73  77
ENDBRANCH  68  71
ENDBRANCH  66  67
ENDBRANCH  65  66
ENDBRANCH   1  65
TORSDOF 16
ENDMDL
