MODEL 1
REMARK VINA RESULT:     -11.4      0.000      0.000
REMARK SMILES Cc1cc(C)c2c(c1)C=C(C(=O)NCCCCCCNC(=O)c1ccc(-c3c4nc(c(-c5c(F)cccc5F)c5ccc([nH]5)c(-c5c(F)cccc5F)c5nc(c(-c6c(F)cccc6F)c6ccc3[nH]6)C=C5)C=C4)cc1)[C@@H](C(F)(F)F)O2
REMARK SMILES IDX 17 1 16 2 15 3 14 4 13 5 11 6 12 7 10 9 1 10 2 11 3 12 8 13
REMARK SMILES IDX 4 14 7 15 5 16 6 17 9 18 82 19 77 20 78 21 79 22 80 23 81 24
REMARK SMILES IDX 18 25 19 26 20 27 21 28 22 30 23 31 24 32 76 33 25 34 75 35
REMARK SMILES IDX 26 36 27 37 28 38 69 39 29 40 74 41 68 42 70 43 30 44 73 45
REMARK SMILES IDX 67 46 66 47 31 49 57 50 40 51 56 52 41 53 44 54 55 55 71 56
REMARK SMILES IDX 42 57 43 58 54 60 72 61 45 62 32 63 33 64 38 65 34 66 35 67
REMARK SMILES IDX 37 68 39 69 36 70 58 71 59 72 64 73 60 74 61 75 63 76 65 77
REMARK SMILES IDX 62 78 46 79 47 80 52 81 48 82 49 83 51 84 53 85 50 86
REMARK H PARENT 13 8 20 29 70 48 44 59
REMARK Flexibility Score: inf
ROOT
ATOM      1  C   UNL A   1      33.282  29.334  24.891  1.00  0.00     0.002 C 
ENDROOT
BRANCH   1   2
ATOM      2  C   UNL A   1      33.134  28.891  23.429  1.00  0.00     0.002 C 
BRANCH   2   3
ATOM      3  C   UNL A   1      32.972  27.384  23.226  1.00  0.00     0.021 C 
BRANCH   3   4
ATOM      4  C   UNL A   1      31.520  26.923  23.271  1.00  0.00     0.116 C 
BRANCH   4   5
ATOM      5  N   UNL A   1      31.088  26.634  24.626  1.00  0.00    -0.352 N 
ATOM      6  C   UNL A   1      31.356  25.706  25.574  1.00  0.00     0.251 C 
ATOM      7  O   UNL A   1      30.760  25.859  26.645  1.00  0.00    -0.270 OA
ATOM      8  H   UNL A   1      30.421  27.288  24.939  1.00  0.00     0.163 HD
BRANCH   6   9
ATOM      9  C   UNL A   1      32.290  24.554  25.406  1.00  0.00     0.067 C 
ATOM     10  C   UNL A   1      38.272  23.083  25.948  1.00  0.00     0.044 C 
ATOM     11  C   UNL A   1      36.809  22.839  25.730  1.00  0.00    -0.050 A 
ATOM     12  C   UNL A   1      36.338  21.555  25.420  1.00  0.00     0.010 A 
ATOM     13  C   UNL A   1      35.900  23.904  25.822  1.00  0.00     0.015 A 
ATOM     14  C   UNL A   1      34.975  21.325  25.213  1.00  0.00    -0.008 A 
ATOM     15  C   UNL A   1      34.536  23.689  25.615  1.00  0.00     0.018 A 
ATOM     16  C   UNL A   1      34.464  19.949  24.892  1.00  0.00     0.048 C 
ATOM     17  C   UNL A   1      34.088  22.403  25.309  1.00  0.00     0.130 A 
ATOM     18  C   UNL A   1      33.570  24.774  25.758  1.00  0.00     0.025 C 
ATOM     19  O   UNL A   1      32.766  22.114  25.133  1.00  0.00    -0.475 OA
ATOM     20  C   UNL A   1      31.878  23.221  24.855  1.00  0.00     0.314 C 
BRANCH  20  21
ATOM     21  C   UNL A   1      31.588  23.261  23.344  1.00  0.00     0.429 C 
ATOM     22  F   UNL A   1      31.612  22.007  22.825  1.00  0.00    -0.167 F 
ATOM     23  F   UNL A   1      30.363  23.762  23.059  1.00  0.00    -0.167 F 
ATOM     24  F   UNL A   1      32.485  24.001  22.658  1.00  0.00    -0.167 F 
ENDBRANCH  20  21
ENDBRANCH   6   9
ENDBRANCH   4   5
ENDBRANCH   3   4
ENDBRANCH   2   3
ENDBRANCH   1   2
BRANCH   1  25
ATOM     25  C   UNL A   1      34.066  28.369  25.785  1.00  0.00     0.021 C 
BRANCH  25  26
ATOM     26  C   UNL A   1      33.779  28.526  27.273  1.00  0.00     0.116 C 
BRANCH  26  27
ATOM     27  N   UNL A   1      33.704  29.925  27.660  1.00  0.00    -0.352 N 
ATOM     28  C   UNL A   1      34.628  30.691  28.320  1.00  0.00     0.251 C 
ATOM     29  H   UNL A   1      32.870  30.388  27.414  1.00  0.00     0.163 HD
ATOM     30  O   UNL A   1      34.316  31.789  28.776  1.00  0.00    -0.269 OA
BRANCH  28  31
ATOM     31  C   UNL A   1      36.002  30.184  28.487  1.00  0.00     0.039 A 
ATOM     32  C   UNL A   1      36.895  30.282  27.420  1.00  0.00     0.014 A 
ATOM     33  C   UNL A   1      36.401  29.608  29.698  1.00  0.00     0.014 A 
ATOM     34  C   UNL A   1      38.209  29.844  27.582  1.00  0.00     0.010 A 
ATOM     35  C   UNL A   1      37.729  29.242  29.882  1.00  0.00     0.010 A 
ATOM     36  C   UNL A   1      38.641  29.345  28.822  1.00  0.00    -0.014 A 
BRANCH  36  37
ATOM     37  C   UNL A   1      40.043  28.903  29.019  1.00  0.00     0.031 A 
ATOM     38  C   UNL A   1      41.038  29.832  29.656  1.00  0.00     0.074 A 
ATOM     39  C   UNL A   1      40.423  27.682  28.597  1.00  0.00     0.049 A 
ATOM     40  N   UNL A   1      42.312  29.645  29.885  1.00  0.00    -0.248 NA
ATOM     41  C   UNL A   1      40.541  31.154  30.076  1.00  0.00     0.031 C 
ATOM     42  C   UNL A   1      39.552  26.706  27.938  1.00  0.00     0.029 A 
ATOM     43  N   UNL A   1      41.640  27.053  28.660  1.00  0.00    -0.354 N 
ATOM     44  C   UNL A   1      42.765  30.817  30.473  1.00  0.00     0.074 A 
ATOM     45  C   UNL A   1      41.650  31.736  30.509  1.00  0.00     0.031 C 
ATOM     46  C   UNL A   1      40.253  25.589  27.693  1.00  0.00     0.029 A 
ATOM     47  C   UNL A   1      41.631  25.782  28.136  1.00  0.00     0.049 A 
ATOM     48  H   UNL A   1      42.444  27.470  29.045  1.00  0.00     0.167 HD
ATOM     49  C   UNL A   1      43.993  31.090  30.971  1.00  0.00     0.037 A 
ATOM     50  C   UNL A   1      42.621  24.877  28.027  1.00  0.00     0.037 A 
ATOM     51  C   UNL A   1      45.095  30.165  30.950  1.00  0.00     0.049 A 
ATOM     52  C   UNL A   1      43.989  25.224  28.549  1.00  0.00     0.074 A 
ATOM     53  C   UNL A   1      46.370  30.337  31.459  1.00  0.00     0.029 A 
ATOM     54  N   UNL A   1      45.052  28.897  30.392  1.00  0.00    -0.354 N 
ATOM     55  N   UNL A   1      44.391  26.317  29.148  1.00  0.00    -0.248 NA
ATOM     56  C   UNL A   1      45.041  24.210  28.380  1.00  0.00     0.031 C 
ATOM     57  C   UNL A   1      47.113  29.190  31.167  1.00  0.00     0.029 A 
ATOM     58  C   UNL A   1      46.285  28.283  30.524  1.00  0.00     0.049 A 
ATOM     59  H   UNL A   1      44.261  28.493  29.966  1.00  0.00     0.167 HD
ATOM     60  C   UNL A   1      45.732  26.116  29.452  1.00  0.00     0.074 A 
ATOM     61  C   UNL A   1      46.070  24.787  28.985  1.00  0.00     0.031 C 
ATOM     62  C   UNL A   1      46.603  26.956  30.061  1.00  0.00     0.037 A 
BRANCH  49  63
ATOM     63  C   UNL A   1      44.211  32.436  31.600  1.00  0.00     0.057 A 
ATOM     64  C   UNL A   1      44.001  32.647  32.969  1.00  0.00     0.134 A 
ATOM     65  C   UNL A   1      44.702  33.510  30.848  1.00  0.00     0.134 A 
ATOM     66  F   UNL A   1      43.519  31.663  33.743  1.00  0.00    -0.206 F 
ATOM     67  C   UNL A   1      44.261  33.881  33.565  1.00  0.00     0.040 A 
ATOM     68  C   UNL A   1      44.994  34.741  31.438  1.00  0.00     0.040 A 
ATOM     69  F   UNL A   1      44.930  33.374  29.533  1.00  0.00    -0.206 F 
ATOM     70  C   UNL A   1      44.771  34.930  32.801  1.00  0.00     0.006 A 
ENDBRANCH  49  63
BRANCH  50  71
ATOM     71  C   UNL A   1      42.348  23.546  27.427  1.00  0.00     0.057 A 
ATOM     72  C   UNL A   1      42.038  22.444  28.233  1.00  0.00     0.134 A 
ATOM     73  C   UNL A   1      42.378  23.342  26.043  1.00  0.00     0.134 A 
ATOM     74  F   UNL A   1      42.010  22.571  29.568  1.00  0.00    -0.206 F 
ATOM     75  C   UNL A   1      41.783  21.185  27.687  1.00  0.00     0.040 A 
ATOM     76  C   UNL A   1      42.098  22.095  25.480  1.00  0.00     0.040 A 
ATOM     77  F   UNL A   1      42.662  24.358  25.214  1.00  0.00    -0.206 F 
ATOM     78  C   UNL A   1      41.805  21.010  26.304  1.00  0.00     0.006 A 
ENDBRANCH  50  71
BRANCH  62  79
ATOM     79  C   UNL A   1      48.005  26.466  30.281  1.00  0.00     0.057 A 
ATOM     80  C   UNL A   1      48.375  25.795  31.452  1.00  0.00     0.134 A 
ATOM     81  C   UNL A   1      48.971  26.595  29.274  1.00  0.00     0.134 A 
ATOM     82  F   UNL A   1      47.500  25.647  32.457  1.00  0.00    -0.206 F 
ATOM     83  C   UNL A   1      49.661  25.278  31.619  1.00  0.00     0.040 A 
ATOM     84  C   UNL A   1      50.250  26.057  29.418  1.00  0.00     0.040 A 
ATOM     85  F   UNL A   1      48.677  27.217  28.122  1.00  0.00    -0.206 F 
ATOM     86  C   UNL A   1      50.599  25.398  30.595  1.00  0.00     0.006 A 
ENDBRANCH  62  79
ENDBRANCH  36  37
ENDBRANCH  28  31
ENDBRANCH  26  27
ENDBRANCH  25  26
ENDBRANCH   1  25
TORSDOF 14
ENDMDL
MODEL 2
REMARK VINA RESULT:     -11.3      2.239      3.220
REMARK SMILES Cc1cc(C)c2c(c1)C=C(C(=O)NCCCCCCNC(=O)c1ccc(-c3c4nc(c(-c5c(F)cccc5F)c5ccc([nH]5)c(-c5c(F)cccc5F)c5nc(c(-c6c(F)cccc6F)c6ccc3[nH]6)C=C5)C=C4)cc1)[C@@H](C(F)(F)F)O2
REMARK SMILES IDX 17 1 16 2 15 3 14 4 13 5 11 6 12 7 10 9 1 10 2 11 3 12 8 13
REMARK SMILES IDX 4 14 7 15 5 16 6 17 9 18 82 19 77 20 78 21 79 22 80 23 81 24
REMARK SMILES IDX 18 25 19 26 20 27 21 28 22 30 23 31 24 32 76 33 25 34 75 35
REMARK SMILES IDX 26 36 27 37 28 38 69 39 29 40 74 41 68 42 70 43 30 44 73 45
REMARK SMILES IDX 67 46 66 47 31 49 57 50 40 51 56 52 41 53 44 54 55 55 71 56
REMARK SMILES IDX 42 57 43 58 54 60 72 61 45 62 32 63 33 64 38 65 34 66 35 67
REMARK SMILES IDX 37 68 39 69 36 70 58 71 59 72 64 73 60 74 61 75 63 76 65 77
REMARK SMILES IDX 62 78 46 79 47 80 52 81 48 82 49 83 51 84 53 85 50 86
REMARK H PARENT 13 8 20 29 70 48 44 59
REMARK Flexibility Score: inf
ROOT
ATOM      1  C   UNL A   1      31.635  28.220  26.920  1.00  0.00     0.002 C 
ENDROOT
BRANCH   1   2
ATOM      2  C   UNL A   1      31.097  27.095  26.025  1.00  0.00     0.002 C 
BRANCH   2   3
ATOM      3  C   UNL A   1      31.213  27.356  24.523  1.00  0.00     0.021 C 
BRANCH   3   4
ATOM      4  C   UNL A   1      30.857  26.144  23.670  1.00  0.00     0.116 C 
BRANCH   4   5
ATOM      5  N   UNL A   1      31.691  26.055  22.485  1.00  0.00    -0.352 N 
ATOM      6  C   UNL A   1      32.701  25.270  22.042  1.00  0.00     0.251 C 
ATOM      7  O   UNL A   1      33.119  25.537  20.911  1.00  0.00    -0.270 OA
ATOM      8  H   UNL A   1      31.461  26.752  21.829  1.00  0.00     0.163 HD
BRANCH   6   9
ATOM      9  C   UNL A   1      33.314  24.146  22.811  1.00  0.00     0.067 C 
ATOM     10  C   UNL A   1      32.265  18.265  24.410  1.00  0.00     0.044 C 
ATOM     11  C   UNL A   1      33.044  19.540  24.286  1.00  0.00    -0.050 A 
ATOM     12  C   UNL A   1      34.327  19.648  24.841  1.00  0.00     0.010 A 
ATOM     13  C   UNL A   1      32.485  20.641  23.621  1.00  0.00     0.015 A 
ATOM     14  C   UNL A   1      35.056  20.836  24.729  1.00  0.00    -0.008 A 
ATOM     15  C   UNL A   1      33.200  21.835  23.504  1.00  0.00     0.018 A 
ATOM     16  C   UNL A   1      36.435  20.953  25.312  1.00  0.00     0.048 C 
ATOM     17  C   UNL A   1      34.476  21.922  24.063  1.00  0.00     0.130 A 
ATOM     18  C   UNL A   1      32.655  22.973  22.771  1.00  0.00     0.025 C 
ATOM     19  O   UNL A   1      35.246  23.043  23.952  1.00  0.00    -0.475 OA
ATOM     20  C   UNL A   1      34.572  24.277  23.617  1.00  0.00     0.314 C 
BRANCH  20  21
ATOM     21  C   UNL A   1      34.379  25.106  24.899  1.00  0.00     0.429 C 
ATOM     22  F   UNL A   1      35.424  24.918  25.744  1.00  0.00    -0.167 F 
ATOM     23  F   UNL A   1      34.322  26.436  24.660  1.00  0.00    -0.167 F 
ATOM     24  F   UNL A   1      33.252  24.778  25.569  1.00  0.00    -0.167 F 
ENDBRANCH  20  21
ENDBRANCH   6   9
ENDBRANCH   4   5
ENDBRANCH   3   4
ENDBRANCH   2   3
ENDBRANCH   1   2
BRANCH   1  25
ATOM     25  C   UNL A   1      33.138  28.162  27.203  1.00  0.00     0.021 C 
BRANCH  25  26
ATOM     26  C   UNL A   1      33.965  29.147  26.385  1.00  0.00     0.116 C 
BRANCH  26  27
ATOM     27  N   UNL A   1      33.851  30.501  26.901  1.00  0.00    -0.352 N 
ATOM     28  C   UNL A   1      34.594  31.124  27.869  1.00  0.00     0.251 C 
ATOM     29  H   UNL A   1      33.138  31.048  26.499  1.00  0.00     0.163 HD
ATOM     30  O   UNL A   1      34.220  32.189  28.353  1.00  0.00    -0.269 OA
BRANCH  28  31
ATOM     31  C   UNL A   1      35.846  30.498  28.334  1.00  0.00     0.039 A 
ATOM     32  C   UNL A   1      37.016  30.698  27.601  1.00  0.00     0.014 A 
ATOM     33  C   UNL A   1      35.857  29.713  29.492  1.00  0.00     0.014 A 
ATOM     34  C   UNL A   1      38.213  30.147  28.056  1.00  0.00     0.010 A 
ATOM     35  C   UNL A   1      37.062  29.228  29.984  1.00  0.00     0.010 A 
ATOM     36  C   UNL A   1      38.249  29.430  29.264  1.00  0.00    -0.014 A 
BRANCH  36  37
ATOM     37  C   UNL A   1      39.520  28.863  29.776  1.00  0.00     0.031 A 
ATOM     38  C   UNL A   1      40.171  29.463  30.991  1.00  0.00     0.074 A 
ATOM     39  C   UNL A   1      40.099  27.833  29.130  1.00  0.00     0.049 A 
ATOM     40  N   UNL A   1      41.295  29.133  31.572  1.00  0.00    -0.248 NA
ATOM     41  C   UNL A   1      39.477  30.596  31.628  1.00  0.00     0.031 C 
ATOM     42  C   UNL A   1      39.575  27.189  27.924  1.00  0.00     0.029 A 
ATOM     43  N   UNL A   1      41.255  27.146  29.398  1.00  0.00    -0.354 N 
ATOM     44  C   UNL A   1      41.441  30.010  32.637  1.00  0.00     0.074 A 
ATOM     45  C   UNL A   1      40.328  30.930  32.587  1.00  0.00     0.031 C 
ATOM     46  C   UNL A   1      40.386  26.178  27.580  1.00  0.00     0.029 A 
ATOM     47  C   UNL A   1      41.508  26.127  28.512  1.00  0.00     0.049 A 
ATOM     48  H   UNL A   1      41.847  27.361  30.155  1.00  0.00     0.167 HD
ATOM     49  C   UNL A   1      42.400  30.026  33.591  1.00  0.00     0.037 A 
ATOM     50  C   UNL A   1      42.530  25.252  28.458  1.00  0.00     0.037 A 
ATOM     51  C   UNL A   1      43.496  29.096  33.646  1.00  0.00     0.049 A 
ATOM     52  C   UNL A   1      43.607  25.320  29.506  1.00  0.00     0.074 A 
ATOM     53  C   UNL A   1      44.502  29.009  34.593  1.00  0.00     0.029 A 
ATOM     54  N   UNL A   1      43.729  28.092  32.719  1.00  0.00    -0.354 N 
ATOM     55  N   UNL A   1      43.706  26.123  30.537  1.00  0.00    -0.248 NA
ATOM     56  C   UNL A   1      44.713  24.359  29.386  1.00  0.00     0.031 C 
ATOM     57  C   UNL A   1      45.370  27.983  34.212  1.00  0.00     0.029 A 
ATOM     58  C   UNL A   1      44.876  27.396  33.058  1.00  0.00     0.049 A 
ATOM     59  H   UNL A   1      43.163  27.903  31.936  1.00  0.00     0.167 HD
ATOM     60  C   UNL A   1      44.868  25.750  31.203  1.00  0.00     0.074 A 
ATOM     61  C   UNL A   1      45.429  24.637  30.466  1.00  0.00     0.031 C 
ATOM     62  C   UNL A   1      45.418  26.283  32.320  1.00  0.00     0.037 A 
BRANCH  49  63
ATOM     63  C   UNL A   1      42.301  31.068  34.667  1.00  0.00     0.057 A 
ATOM     64  C   UNL A   1      41.569  30.841  35.840  1.00  0.00     0.134 A 
ATOM     65  C   UNL A   1      42.999  32.277  34.564  1.00  0.00     0.134 A 
ATOM     66  F   UNL A   1      40.866  29.709  35.996  1.00  0.00    -0.206 F 
ATOM     67  C   UNL A   1      41.526  31.785  36.867  1.00  0.00     0.040 A 
ATOM     68  C   UNL A   1      42.987  33.216  35.597  1.00  0.00     0.040 A 
ATOM     69  F   UNL A   1      43.723  32.555  33.470  1.00  0.00    -0.206 F 
ATOM     70  C   UNL A   1      42.247  32.972  36.752  1.00  0.00     0.006 A 
ENDBRANCH  49  63
BRANCH  50  71
ATOM     71  C   UNL A   1      42.566  24.218  27.393  1.00  0.00     0.057 A 
ATOM     72  C   UNL A   1      43.120  24.496  26.138  1.00  0.00     0.134 A 
ATOM     73  C   UNL A   1      42.060  22.929  27.601  1.00  0.00     0.134 A 
ATOM     74  F   UNL A   1      43.606  25.717  25.870  1.00  0.00    -0.206 F 
ATOM     75  C   UNL A   1      43.158  23.537  25.124  1.00  0.00     0.040 A 
ATOM     76  C   UNL A   1      42.116  21.951  26.606  1.00  0.00     0.040 A 
ATOM     77  F   UNL A   1      41.521  22.595  28.783  1.00  0.00    -0.206 F 
ATOM     78  C   UNL A   1      42.662  22.257  25.360  1.00  0.00     0.006 A 
ENDBRANCH  50  71
BRANCH  62  79
ATOM     79  C   UNL A   1      46.684  25.664  32.836  1.00  0.00     0.057 A 
ATOM     80  C   UNL A   1      47.944  26.099  32.410  1.00  0.00     0.134 A 
ATOM     81  C   UNL A   1      46.641  24.678  33.832  1.00  0.00     0.134 A 
ATOM     82  F   UNL A   1      48.053  27.033  31.453  1.00  0.00    -0.206 F 
ATOM     83  C   UNL A   1      49.118  25.569  32.948  1.00  0.00     0.040 A 
ATOM     84  C   UNL A   1      47.807  24.163  34.397  1.00  0.00     0.040 A 
ATOM     85  F   UNL A   1      45.465  24.226  34.293  1.00  0.00    -0.206 F 
ATOM     86  C   UNL A   1      49.050  24.606  33.953  1.00  0.00     0.006 A 
ENDBRANCH  62  79
ENDBRANCH  36  37
ENDBRANCH  28  31
ENDBRANCH  26  27
ENDBRANCH  25  26
ENDBRANCH   1  25
TORSDOF 14
ENDMDL
MODEL 3
REMARK VINA RESULT:     -11.3      1.369      2.267
REMARK SMILES Cc1cc(C)c2c(c1)C=C(C(=O)NCCCCCCNC(=O)c1ccc(-c3c4nc(c(-c5c(F)cccc5F)c5ccc([nH]5)c(-c5c(F)cccc5F)c5nc(c(-c6c(F)cccc6F)c6ccc3[nH]6)C=C5)C=C4)cc1)[C@@H](C(F)(F)F)O2
REMARK SMILES IDX 17 1 16 2 15 3 14 4 13 5 11 6 12 7 10 9 1 10 2 11 3 12 8 13
REMARK SMILES IDX 4 14 7 15 5 16 6 17 9 18 82 19 77 20 78 21 79 22 80 23 81 24
REMARK SMILES IDX 18 25 19 26 20 27 21 28 22 30 23 31 24 32 76 33 25 34 75 35
REMARK SMILES IDX 26 36 27 37 28 38 69 39 29 40 74 41 68 42 70 43 30 44 73 45
REMARK SMILES IDX 67 46 66 47 31 49 57 50 40 51 56 52 41 53 44 54 55 55 71 56
REMARK SMILES IDX 42 57 43 58 54 60 72 61 45 62 32 63 33 64 38 65 34 66 35 67
REMARK SMILES IDX 37 68 39 69 36 70 58 71 59 72 64 73 60 74 61 75 63 76 65 77
REMARK SMILES IDX 62 78 46 79 47 80 52 81 48 82 49 83 51 84 53 85 50 86
REMARK H PARENT 13 8 20 29 70 48 44 59
REMARK Flexibility Score: inf
ROOT
ATOM      1  C   UNL A   1      31.770  27.969  25.793  1.00  0.00     0.002 C 
ENDROOT
BRANCH   1   2
ATOM      2  C   UNL A   1      30.748  26.877  25.451  1.00  0.00     0.002 C 
BRANCH   2   3
ATOM      3  C   UNL A   1      30.220  26.915  24.016  1.00  0.00     0.021 C 
BRANCH   3   4
ATOM      4  C   UNL A   1      30.436  25.610  23.259  1.00  0.00     0.116 C 
BRANCH   4   5
ATOM      5  N   UNL A   1      31.464  25.740  22.242  1.00  0.00    -0.352 N 
ATOM      6  C   UNL A   1      32.642  25.145  21.944  1.00  0.00     0.251 C 
ATOM      7  O   UNL A   1      33.202  25.565  20.927  1.00  0.00    -0.270 OA
ATOM      8  H   UNL A   1      31.246  26.452  21.599  1.00  0.00     0.163 HD
BRANCH   6   9
ATOM      9  C   UNL A   1      33.280  24.056  22.743  1.00  0.00     0.067 C 
ATOM     10  C   UNL A   1      32.344  18.209  24.523  1.00  0.00     0.044 C 
ATOM     11  C   UNL A   1      33.100  19.493  24.357  1.00  0.00    -0.050 A 
ATOM     12  C   UNL A   1      34.383  19.640  24.901  1.00  0.00     0.010 A 
ATOM     13  C   UNL A   1      32.518  20.563  23.662  1.00  0.00     0.015 A 
ATOM     14  C   UNL A   1      35.091  20.837  24.750  1.00  0.00    -0.008 A 
ATOM     15  C   UNL A   1      33.210  21.766  23.506  1.00  0.00     0.018 A 
ATOM     16  C   UNL A   1      36.470  20.997  25.321  1.00  0.00     0.048 C 
ATOM     17  C   UNL A   1      34.488  21.892  24.054  1.00  0.00     0.130 A 
ATOM     18  C   UNL A   1      32.642  22.872  22.742  1.00  0.00     0.025 C 
ATOM     19  O   UNL A   1      35.237  23.023  23.906  1.00  0.00    -0.475 OA
ATOM     20  C   UNL A   1      34.539  24.234  23.537  1.00  0.00     0.314 C 
BRANCH  20  21
ATOM     21  C   UNL A   1      34.337  25.097  24.796  1.00  0.00     0.429 C 
ATOM     22  F   UNL A   1      33.161  24.786  25.397  1.00  0.00    -0.167 F 
ATOM     23  F   UNL A   1      35.300  24.900  25.726  1.00  0.00    -0.167 F 
ATOM     24  F   UNL A   1      34.316  26.420  24.524  1.00  0.00    -0.167 F 
ENDBRANCH  20  21
ENDBRANCH   6   9
ENDBRANCH   4   5
ENDBRANCH   3   4
ENDBRANCH   2   3
ENDBRANCH   1   2
BRANCH   1  25
ATOM     25  C   UNL A   1      32.499  27.783  27.126  1.00  0.00     0.021 C 
BRANCH  25  26
ATOM     26  C   UNL A   1      33.862  28.460  27.192  1.00  0.00     0.116 C 
BRANCH  26  27
ATOM     27  N   UNL A   1      33.752  29.847  27.611  1.00  0.00    -0.352 N 
ATOM     28  C   UNL A   1      34.649  30.615  28.305  1.00  0.00     0.251 C 
ATOM     29  H   UNL A   1      32.913  30.299  27.362  1.00  0.00     0.163 HD
ATOM     30  O   UNL A   1      34.306  31.694  28.782  1.00  0.00    -0.269 OA
BRANCH  28  31
ATOM     31  C   UNL A   1      36.030  30.131  28.484  1.00  0.00     0.039 A 
ATOM     32  C   UNL A   1      36.922  30.217  27.414  1.00  0.00     0.014 A 
ATOM     33  C   UNL A   1      36.437  29.591  29.708  1.00  0.00     0.014 A 
ATOM     34  C   UNL A   1      38.241  29.801  27.586  1.00  0.00     0.010 A 
ATOM     35  C   UNL A   1      37.770  29.248  29.901  1.00  0.00     0.010 A 
ATOM     36  C   UNL A   1      38.681  29.338  28.838  1.00  0.00    -0.014 A 
BRANCH  36  37
ATOM     37  C   UNL A   1      40.089  28.922  29.044  1.00  0.00     0.031 A 
ATOM     38  C   UNL A   1      41.060  29.864  29.698  1.00  0.00     0.074 A 
ATOM     39  C   UNL A   1      40.496  27.711  28.616  1.00  0.00     0.049 A 
ATOM     40  N   UNL A   1      42.335  29.699  29.938  1.00  0.00    -0.248 NA
ATOM     41  C   UNL A   1      40.535  31.173  30.123  1.00  0.00     0.031 C 
ATOM     42  C   UNL A   1      39.650  26.725  27.942  1.00  0.00     0.029 A 
ATOM     43  N   UNL A   1      41.724  27.104  28.686  1.00  0.00    -0.354 N 
ATOM     44  C   UNL A   1      42.761  30.875  30.539  1.00  0.00     0.074 A 
ATOM     45  C   UNL A   1      41.628  31.772  30.571  1.00  0.00     0.031 C 
ATOM     46  C   UNL A   1      40.374  25.623  27.695  1.00  0.00     0.029 A 
ATOM     47  C   UNL A   1      41.743  25.838  28.153  1.00  0.00     0.049 A 
ATOM     48  H   UNL A   1      42.516  27.534  29.083  1.00  0.00     0.167 HD
ATOM     49  C   UNL A   1      43.979  31.167  31.051  1.00  0.00     0.037 A 
ATOM     50  C   UNL A   1      42.752  24.953  28.046  1.00  0.00     0.037 A 
ATOM     51  C   UNL A   1      45.098  30.263  31.033  1.00  0.00     0.049 A 
ATOM     52  C   UNL A   1      44.108  25.320  28.584  1.00  0.00     0.074 A 
ATOM     53  C   UNL A   1      46.365  30.455  31.555  1.00  0.00     0.029 A 
ATOM     54  N   UNL A   1      45.084  28.998  30.465  1.00  0.00    -0.354 N 
ATOM     55  N   UNL A   1      44.484  26.417  29.195  1.00  0.00    -0.248 NA
ATOM     56  C   UNL A   1      45.180  24.329  28.417  1.00  0.00     0.031 C 
ATOM     57  C   UNL A   1      47.132  29.324  31.261  1.00  0.00     0.029 A 
ATOM     58  C   UNL A   1      46.327  28.407  30.604  1.00  0.00     0.049 A 
ATOM     59  H   UNL A   1      44.305  28.583  30.029  1.00  0.00     0.167 HD
ATOM     60  C   UNL A   1      45.825  26.238  29.511  1.00  0.00     0.074 A 
ATOM     61  C   UNL A   1      46.192  24.920  29.036  1.00  0.00     0.031 C 
ATOM     62  C   UNL A   1      46.675  27.089  30.134  1.00  0.00     0.037 A 
BRANCH  49  63
ATOM     63  C   UNL A   1      44.166  32.512  31.692  1.00  0.00     0.057 A 
ATOM     64  C   UNL A   1      44.566  33.629  30.947  1.00  0.00     0.134 A 
ATOM     65  C   UNL A   1      43.876  32.709  33.047  1.00  0.00     0.134 A 
ATOM     66  F   UNL A   1      44.872  33.505  29.646  1.00  0.00    -0.206 F 
ATOM     67  C   UNL A   1      44.681  34.891  31.529  1.00  0.00     0.040 A 
ATOM     68  C   UNL A   1      43.960  33.972  33.635  1.00  0.00     0.040 A 
ATOM     69  F   UNL A   1      43.483  31.682  33.816  1.00  0.00    -0.206 F 
ATOM     70  C   UNL A   1      44.366  35.067  32.875  1.00  0.00     0.006 A 
ENDBRANCH  49  63
BRANCH  50  71
ATOM     71  C   UNL A   1      42.509  23.621  27.434  1.00  0.00     0.057 A 
ATOM     72  C   UNL A   1      42.160  22.519  28.224  1.00  0.00     0.134 A 
ATOM     73  C   UNL A   1      42.609  23.417  26.052  1.00  0.00     0.134 A 
ATOM     74  F   UNL A   1      42.065  22.646  29.555  1.00  0.00    -0.206 F 
ATOM     75  C   UNL A   1      41.932  21.260  27.665  1.00  0.00     0.040 A 
ATOM     76  C   UNL A   1      42.357  22.170  25.477  1.00  0.00     0.040 A 
ATOM     77  F   UNL A   1      42.933  24.433  25.239  1.00  0.00    -0.206 F 
ATOM     78  C   UNL A   1      42.023  21.085  26.286  1.00  0.00     0.006 A 
ENDBRANCH  50  71
BRANCH  62  79
ATOM     79  C   UNL A   1      48.083  26.625  30.363  1.00  0.00     0.057 A 
ATOM     80  C   UNL A   1      48.440  25.888  31.499  1.00  0.00     0.134 A 
ATOM     81  C   UNL A   1      49.073  26.846  29.396  1.00  0.00     0.134 A 
ATOM     82  F   UNL A   1      47.541  25.649  32.465  1.00  0.00    -0.206 F 
ATOM     83  C   UNL A   1      49.735  25.396  31.670  1.00  0.00     0.040 A 
ATOM     84  C   UNL A   1      50.363  26.334  29.543  1.00  0.00     0.040 A 
ATOM     85  F   UNL A   1      48.794  27.535  28.280  1.00  0.00    -0.206 F 
ATOM     86  C   UNL A   1      50.697  25.609  30.684  1.00  0.00     0.006 A 
ENDBRANCH  62  79
ENDBRANCH  36  37
ENDBRANCH  28  31
ENDBRANCH  26  27
ENDBRANCH  25  26
ENDBRANCH   1  25
TORSDOF 14
ENDMDL
