MODEL 1
REMARK VINA RESULT:     -10.8      0.000      0.000
REMARK SMILES Cc1cc(C)c2c(=O)n(CCCC(=O)NCCCCCCNC(=O)c3ccc(-c4c5nc(c(-c6c(F)cccc6F)c6ccc([nH]6)c(-c6c(F)cccc6F)c6nc(c(-c7c(F)cccc7F)c7ccc4[nH]7)C=C6)C=C5)cc3)sc2n1
REMARK SMILES IDX 18 1 17 2 16 3 15 4 13 5 14 6 12 8 11 9 10 10 9 11 1 12 2 13
REMARK SMILES IDX 3 14 81 15 4 16 80 17 5 18 6 19 79 20 7 21 8 22 19 23 20 24
REMARK SMILES IDX 21 25 22 26 23 27 24 29 25 30 26 31 78 32 27 33 77 34 28 35
REMARK SMILES IDX 29 36 30 37 71 38 31 39 76 40 70 41 72 42 32 43 75 44 69 45
REMARK SMILES IDX 68 46 33 48 59 49 42 50 58 51 43 52 46 53 57 54 73 55 44 56
REMARK SMILES IDX 45 57 56 59 74 60 47 61 34 62 35 63 40 64 36 65 37 66 39 67
REMARK SMILES IDX 41 68 38 69 60 70 61 71 66 72 62 73 63 74 65 75 67 76 64 77
REMARK SMILES IDX 48 78 49 79 54 80 50 81 51 82 53 83 55 84 52 85
REMARK H PARENT 15 7 22 28 72 47 46 58
REMARK Flexibility Score: inf
ROOT
ATOM      1  C   UNL A   1      40.042  21.414  26.576  1.00  0.00     0.002 C 
ENDROOT
BRANCH   1   2
ATOM      2  C   UNL A   1      39.739  22.896  26.335  1.00  0.00     0.021 C 
BRANCH   2   3
ATOM      3  C   UNL A   1      38.243  23.202  26.285  1.00  0.00     0.116 C 
BRANCH   3   4
ATOM      4  N   UNL A   1      37.786  23.249  24.916  1.00  0.00    -0.356 N 
ATOM      5  C   UNL A   1      37.037  22.372  24.201  1.00  0.00     0.220 C 
ATOM      6  O   UNL A   1      36.886  22.603  22.999  1.00  0.00    -0.275 OA
ATOM      7  H   UNL A   1      38.064  24.051  24.419  1.00  0.00     0.163 HD
BRANCH   5   8
ATOM      8  C   UNL A   1      36.305  21.219  24.862  1.00  0.00     0.102 C 
BRANCH   8   9
ATOM      9  C   UNL A   1      34.782  21.262  25.033  1.00  0.00     0.033 C 
BRANCH   9  10
ATOM     10  C   UNL A   1      34.102  22.148  26.091  1.00  0.00     0.139 C 
BRANCH  10  11
ATOM     11  N   UNL A   1      33.662  23.503  25.774  1.00  0.00    -0.262 N 
ATOM     12  C   UNL A   1      32.898  29.558  26.234  1.00  0.00     0.067 C 
ATOM     13  C   UNL A   1      32.631  28.091  26.068  1.00  0.00     0.039 A 
ATOM     14  C   UNL A   1      31.327  27.584  26.146  1.00  0.00     0.027 A 
ATOM     15  N   UNL A   1      33.710  27.301  25.871  1.00  0.00    -0.241 NA
ATOM     16  C   UNL A   1      31.103  26.198  26.057  1.00  0.00    -0.033 A 
ATOM     17  C   UNL A   1      33.463  25.982  25.796  1.00  0.00     0.146 A 
ATOM     18  C   UNL A   1      29.713  25.645  26.046  1.00  0.00     0.045 C 
ATOM     19  C   UNL A   1      32.226  25.388  25.944  1.00  0.00     0.081 A 
ATOM     20  S   UNL A   1      34.719  24.798  25.423  1.00  0.00    -0.035 S 
ATOM     21  C   UNL A   1      32.343  23.912  26.007  1.00  0.00     0.270 A 
ATOM     22  O   UNL A   1      31.410  23.189  26.321  1.00  0.00    -0.268 OA
ENDBRANCH  10  11
ENDBRANCH   9  10
ENDBRANCH   8   9
ENDBRANCH   5   8
ENDBRANCH   3   4
ENDBRANCH   2   3
ENDBRANCH   1   2
BRANCH   1  23
ATOM     23  C   UNL A   1      41.151  21.133  27.604  1.00  0.00     0.002 C 
BRANCH  23  24
ATOM     24  C   UNL A   1      42.168  20.047  27.226  1.00  0.00     0.021 C 
BRANCH  24  25
ATOM     25  C   UNL A   1      42.335  19.889  25.727  1.00  0.00     0.116 C 
BRANCH  25  26
ATOM     26  N   UNL A   1      43.743  19.835  25.314  1.00  0.00    -0.352 N 
ATOM     27  C   UNL A   1      44.602  20.880  25.041  1.00  0.00     0.251 C 
ATOM     28  H   UNL A   1      44.126  18.933  25.221  1.00  0.00     0.163 HD
ATOM     29  O   UNL A   1      45.650  20.704  24.420  1.00  0.00    -0.269 OA
BRANCH  27  30
ATOM     30  C   UNL A   1      44.245  22.217  25.530  1.00  0.00     0.039 A 
ATOM     31  C   UNL A   1      43.345  23.059  24.871  1.00  0.00     0.014 A 
ATOM     32  C   UNL A   1      44.834  22.606  26.725  1.00  0.00     0.014 A 
ATOM     33  C   UNL A   1      43.036  24.282  25.462  1.00  0.00     0.010 A 
ATOM     34  C   UNL A   1      44.304  23.636  27.432  1.00  0.00     0.010 A 
ATOM     35  C   UNL A   1      43.535  24.555  26.744  1.00  0.00    -0.014 A 
BRANCH  35  36
ATOM     36  C   UNL A   1      43.309  25.812  27.431  1.00  0.00     0.031 A 
ATOM     37  C   UNL A   1      44.271  26.887  27.094  1.00  0.00     0.074 A 
ATOM     38  C   UNL A   1      42.166  26.029  28.120  1.00  0.00     0.049 A 
ATOM     39  N   UNL A   1      45.128  27.454  27.872  1.00  0.00    -0.248 NA
ATOM     40  C   UNL A   1      44.389  27.287  25.682  1.00  0.00     0.031 C 
ATOM     41  C   UNL A   1      40.974  25.175  28.256  1.00  0.00     0.029 A 
ATOM     42  N   UNL A   1      41.794  27.146  28.794  1.00  0.00    -0.354 N 
ATOM     43  C   UNL A   1      45.778  28.411  27.099  1.00  0.00     0.074 A 
ATOM     44  C   UNL A   1      45.403  28.151  25.735  1.00  0.00     0.031 C 
ATOM     45  C   UNL A   1      39.947  25.893  28.764  1.00  0.00     0.029 A 
ATOM     46  C   UNL A   1      40.455  27.187  29.166  1.00  0.00     0.049 A 
ATOM     47  H   UNL A   1      42.425  27.872  29.004  1.00  0.00     0.167 HD
ATOM     48  C   UNL A   1      46.422  29.466  27.672  1.00  0.00     0.037 A 
ATOM     49  C   UNL A   1      39.828  28.244  29.738  1.00  0.00     0.037 A 
ATOM     50  C   UNL A   1      46.629  29.244  29.080  1.00  0.00     0.049 A 
ATOM     51  C   UNL A   1      40.892  29.110  30.312  1.00  0.00     0.074 A 
ATOM     52  C   UNL A   1      47.365  28.334  29.814  1.00  0.00     0.029 A 
ATOM     53  N   UNL A   1      45.704  29.765  29.954  1.00  0.00    -0.354 N 
ATOM     54  N   UNL A   1      41.662  28.748  31.302  1.00  0.00    -0.248 NA
ATOM     55  C   UNL A   1      41.423  30.161  29.458  1.00  0.00     0.031 C 
ATOM     56  C   UNL A   1      46.533  27.998  30.924  1.00  0.00     0.029 A 
ATOM     57  C   UNL A   1      45.373  28.772  30.845  1.00  0.00     0.049 A 
ATOM     58  H   UNL A   1      45.344  30.681  29.943  1.00  0.00     0.167 HD
ATOM     59  C   UNL A   1      42.925  29.219  30.967  1.00  0.00     0.074 A 
ATOM     60  C   UNL A   1      42.702  30.130  29.845  1.00  0.00     0.031 C 
ATOM     61  C   UNL A   1      44.058  28.611  31.428  1.00  0.00     0.037 A 
BRANCH  48  62
ATOM     62  C   UNL A   1      46.592  30.818  27.032  1.00  0.00     0.057 A 
ATOM     63  C   UNL A   1      47.870  31.400  26.973  1.00  0.00     0.134 A 
ATOM     64  C   UNL A   1      45.525  31.679  26.704  1.00  0.00     0.134 A 
ATOM     65  F   UNL A   1      48.966  30.691  27.279  1.00  0.00    -0.206 F 
ATOM     66  C   UNL A   1      48.064  32.753  26.667  1.00  0.00     0.040 A 
ATOM     67  C   UNL A   1      45.713  33.017  26.346  1.00  0.00     0.040 A 
ATOM     68  F   UNL A   1      44.245  31.304  26.806  1.00  0.00    -0.206 F 
ATOM     69  C   UNL A   1      46.983  33.567  26.355  1.00  0.00     0.006 A 
ENDBRANCH  48  62
BRANCH  49  70
ATOM     70  C   UNL A   1      38.462  28.746  29.462  1.00  0.00     0.057 A 
ATOM     71  C   UNL A   1      37.537  28.920  30.500  1.00  0.00     0.134 A 
ATOM     72  C   UNL A   1      38.134  29.351  28.235  1.00  0.00     0.134 A 
ATOM     73  F   UNL A   1      37.779  28.411  31.717  1.00  0.00    -0.206 F 
ATOM     74  C   UNL A   1      36.372  29.685  30.341  1.00  0.00     0.040 A 
ATOM     75  C   UNL A   1      36.975  30.115  28.062  1.00  0.00     0.040 A 
ATOM     76  F   UNL A   1      38.975  29.300  27.192  1.00  0.00    -0.206 F 
ATOM     77  C   UNL A   1      36.096  30.299  29.123  1.00  0.00     0.006 A 
ENDBRANCH  49  70
BRANCH  61  78
ATOM     78  C   UNL A   1      43.907  27.518  32.460  1.00  0.00     0.057 A 
ATOM     79  C   UNL A   1      43.946  26.145  32.165  1.00  0.00     0.134 A 
ATOM     80  C   UNL A   1      43.899  27.863  33.814  1.00  0.00     0.134 A 
ATOM     81  F   UNL A   1      44.051  25.711  30.906  1.00  0.00    -0.206 F 
ATOM     82  C   UNL A   1      43.948  25.165  33.164  1.00  0.00     0.040 A 
ATOM     83  C   UNL A   1      43.932  26.896  34.824  1.00  0.00     0.040 A 
ATOM     84  F   UNL A   1      43.918  29.153  34.182  1.00  0.00    -0.206 F 
ATOM     85  C   UNL A   1      43.949  25.542  34.502  1.00  0.00     0.006 A 
ENDBRANCH  61  78
ENDBRANCH  35  36
ENDBRANCH  27  30
ENDBRANCH  25  26
ENDBRANCH  24  25
ENDBRANCH  23  24
ENDBRANCH   1  23
TORSDOF 16
ENDMDL
MODEL 2
REMARK VINA RESULT:     -10.6      4.477     10.456
REMARK SMILES Cc1cc(C)c2c(=O)n(CCCC(=O)NCCCCCCNC(=O)c3ccc(-c4c5nc(c(-c6c(F)cccc6F)c6ccc([nH]6)c(-c6c(F)cccc6F)c6nc(c(-c7c(F)cccc7F)c7ccc4[nH]7)C=C6)C=C5)cc3)sc2n1
REMARK SMILES IDX 18 1 17 2 16 3 15 4 13 5 14 6 12 8 11 9 10 10 9 11 1 12 2 13
REMARK SMILES IDX 3 14 81 15 4 16 80 17 5 18 6 19 79 20 7 21 8 22 19 23 20 24
REMARK SMILES IDX 21 25 22 26 23 27 24 29 25 30 26 31 78 32 27 33 77 34 28 35
REMARK SMILES IDX 29 36 30 37 71 38 31 39 76 40 70 41 72 42 32 43 75 44 69 45
REMARK SMILES IDX 68 46 33 48 59 49 42 50 58 51 43 52 46 53 57 54 73 55 44 56
REMARK SMILES IDX 45 57 56 59 74 60 47 61 34 62 35 63 40 64 36 65 37 66 39 67
REMARK SMILES IDX 41 68 38 69 60 70 61 71 66 72 62 73 63 74 65 75 67 76 64 77
REMARK SMILES IDX 48 78 49 79 54 80 50 81 51 82 53 83 55 84 52 85
REMARK H PARENT 15 7 22 28 72 47 46 58
REMARK Flexibility Score: inf
ROOT
ATOM      1  C   UNL A   1      37.037  31.946  33.148  1.00  0.00     0.002 C 
ENDROOT
BRANCH   1   2
ATOM      2  C   UNL A   1      38.321  31.115  33.067  1.00  0.00     0.021 C 
BRANCH   2   3
ATOM      3  C   UNL A   1      39.086  31.062  34.390  1.00  0.00     0.116 C 
BRANCH   3   4
ATOM      4  N   UNL A   1      38.177  30.814  35.484  1.00  0.00    -0.356 N 
ATOM      5  C   UNL A   1      38.161  31.299  36.751  1.00  0.00     0.220 C 
ATOM      6  O   UNL A   1      37.329  30.828  37.529  1.00  0.00    -0.275 OA
ATOM      7  H   UNL A   1      37.448  30.186  35.276  1.00  0.00     0.163 HD
BRANCH   5   8
ATOM      8  C   UNL A   1      39.038  32.463  37.174  1.00  0.00     0.102 C 
BRANCH   8   9
ATOM      9  C   UNL A   1      38.764  33.875  36.642  1.00  0.00     0.033 C 
BRANCH   9  10
ATOM     10  C   UNL A   1      39.835  34.689  35.895  1.00  0.00     0.139 C 
BRANCH  10  11
ATOM     11  N   UNL A   1      40.273  34.313  34.554  1.00  0.00    -0.262 N 
ATOM     12  C   UNL A   1      43.302  34.469  29.239  1.00  0.00     0.067 C 
ATOM     13  C   UNL A   1      42.203  34.390  30.257  1.00  0.00     0.039 A 
ATOM     14  C   UNL A   1      40.860  34.534  29.880  1.00  0.00     0.027 A 
ATOM     15  N   UNL A   1      42.584  34.204  31.541  1.00  0.00    -0.241 NA
ATOM     16  C   UNL A   1      39.849  34.526  30.857  1.00  0.00    -0.033 A 
ATOM     17  C   UNL A   1      41.595  34.207  32.450  1.00  0.00     0.146 A 
ATOM     18  C   UNL A   1      38.406  34.587  30.468  1.00  0.00     0.045 C 
ATOM     19  C   UNL A   1      40.259  34.424  32.181  1.00  0.00     0.081 A 
ATOM     20  S   UNL A   1      41.873  33.861  34.159  1.00  0.00    -0.035 S 
ATOM     21  C   UNL A   1      39.475  34.563  33.431  1.00  0.00     0.270 A 
ATOM     22  O   UNL A   1      38.314  34.943  33.443  1.00  0.00    -0.268 OA
ENDBRANCH  10  11
ENDBRANCH   9  10
ENDBRANCH   8   9
ENDBRANCH   5   8
ENDBRANCH   3   4
ENDBRANCH   2   3
ENDBRANCH   1   2
BRANCH   1  23
ATOM     23  C   UNL A   1      35.842  31.376  32.365  1.00  0.00     0.002 C 
BRANCH  23  24
ATOM     24  C   UNL A   1      34.784  32.391  31.908  1.00  0.00     0.021 C 
BRANCH  24  25
ATOM     25  C   UNL A   1      35.076  32.971  30.537  1.00  0.00     0.116 C 
BRANCH  25  26
ATOM     26  N   UNL A   1      34.369  32.267  29.460  1.00  0.00    -0.352 N 
ATOM     27  C   UNL A   1      34.892  31.462  28.468  1.00  0.00     0.251 C 
ATOM     28  H   UNL A   1      33.392  32.383  29.444  1.00  0.00     0.163 HD
ATOM     29  O   UNL A   1      34.243  31.182  27.460  1.00  0.00    -0.269 OA
BRANCH  27  30
ATOM     30  C   UNL A   1      36.245  30.924  28.652  1.00  0.00     0.039 A 
ATOM     31  C   UNL A   1      37.370  31.730  28.851  1.00  0.00     0.014 A 
ATOM     32  C   UNL A   1      36.356  29.541  28.650  1.00  0.00     0.014 A 
ATOM     33  C   UNL A   1      38.594  31.106  29.076  1.00  0.00     0.010 A 
ATOM     34  C   UNL A   1      37.466  28.955  29.166  1.00  0.00     0.010 A 
ATOM     35  C   UNL A   1      38.621  29.712  29.222  1.00  0.00    -0.014 A 
BRANCH  35  36
ATOM     36  C   UNL A   1      39.846  28.959  29.417  1.00  0.00     0.031 A 
ATOM     37  C   UNL A   1      40.188  28.684  30.833  1.00  0.00     0.074 A 
ATOM     38  C   UNL A   1      40.464  28.359  28.375  1.00  0.00     0.049 A 
ATOM     39  N   UNL A   1      41.206  29.113  31.497  1.00  0.00    -0.248 NA
ATOM     40  C   UNL A   1      39.205  27.954  31.649  1.00  0.00     0.031 C 
ATOM     41  C   UNL A   1      40.049  28.263  26.965  1.00  0.00     0.029 A 
ATOM     42  N   UNL A   1      41.593  27.608  28.391  1.00  0.00    -0.354 N 
ATOM     43  C   UNL A   1      41.094  28.565  32.771  1.00  0.00     0.074 A 
ATOM     44  C   UNL A   1      39.772  28.003  32.855  1.00  0.00     0.031 C 
ATOM     45  C   UNL A   1      40.783  27.321  26.331  1.00  0.00     0.029 A 
ATOM     46  C   UNL A   1      41.836  26.890  27.226  1.00  0.00     0.049 A 
ATOM     47  H   UNL A   1      42.196  27.574  29.169  1.00  0.00     0.167 HD
ATOM     48  C   UNL A   1      42.177  28.447  33.588  1.00  0.00     0.037 A 
ATOM     49  C   UNL A   1      42.830  25.985  27.050  1.00  0.00     0.037 A 
ATOM     50  C   UNL A   1      43.274  29.253  33.116  1.00  0.00     0.049 A 
ATOM     51  C   UNL A   1      43.845  26.258  28.102  1.00  0.00     0.074 A 
ATOM     52  C   UNL A   1      43.475  30.612  32.966  1.00  0.00     0.029 A 
ATOM     53  N   UNL A   1      44.222  28.647  32.328  1.00  0.00    -0.354 N 
ATOM     54  N   UNL A   1      44.552  27.354  28.155  1.00  0.00    -0.248 NA
ATOM     55  C   UNL A   1      43.705  25.541  29.360  1.00  0.00     0.031 C 
ATOM     56  C   UNL A   1      44.184  30.744  31.734  1.00  0.00     0.029 A 
ATOM     57  C   UNL A   1      44.438  29.462  31.242  1.00  0.00     0.049 A 
ATOM     58  H   UNL A   1      44.666  27.787  32.508  1.00  0.00     0.167 HD
ATOM     59  C   UNL A   1      44.603  27.684  29.503  1.00  0.00     0.074 A 
ATOM     60  C   UNL A   1      44.108  26.498  30.202  1.00  0.00     0.031 C 
ATOM     61  C   UNL A   1      44.757  28.978  29.915  1.00  0.00     0.037 A 
BRANCH  48  62
ATOM     62  C   UNL A   1      42.351  27.378  34.635  1.00  0.00     0.057 A 
ATOM     63  C   UNL A   1      42.871  26.126  34.266  1.00  0.00     0.134 A 
ATOM     64  C   UNL A   1      41.793  27.438  35.928  1.00  0.00     0.134 A 
ATOM     65  F   UNL A   1      43.413  25.933  33.054  1.00  0.00    -0.206 F 
ATOM     66  C   UNL A   1      42.790  25.004  35.101  1.00  0.00     0.040 A 
ATOM     67  C   UNL A   1      41.755  26.338  36.789  1.00  0.00     0.040 A 
ATOM     68  F   UNL A   1      41.172  28.530  36.390  1.00  0.00    -0.206 F 
ATOM     69  C   UNL A   1      42.228  25.107  36.367  1.00  0.00     0.006 A 
ENDBRANCH  48  62
BRANCH  49  70
ATOM     70  C   UNL A   1      42.761  24.690  26.334  1.00  0.00     0.057 A 
ATOM     71  C   UNL A   1      43.661  24.389  25.303  1.00  0.00     0.134 A 
ATOM     72  C   UNL A   1      42.020  23.607  26.842  1.00  0.00     0.134 A 
ATOM     73  F   UNL A   1      44.437  25.349  24.780  1.00  0.00    -0.206 F 
ATOM     74  C   UNL A   1      43.844  23.082  24.831  1.00  0.00     0.040 A 
ATOM     75  C   UNL A   1      42.191  22.298  26.378  1.00  0.00     0.040 A 
ATOM     76  F   UNL A   1      41.174  23.769  27.870  1.00  0.00    -0.206 F 
ATOM     77  C   UNL A   1      43.120  22.029  25.380  1.00  0.00     0.006 A 
ENDBRANCH  49  70
BRANCH  61  78
ATOM     78  C   UNL A   1      45.053  30.025  28.868  1.00  0.00     0.057 A 
ATOM     79  C   UNL A   1      46.325  30.246  28.314  1.00  0.00     0.134 A 
ATOM     80  C   UNL A   1      43.989  30.708  28.273  1.00  0.00     0.134 A 
ATOM     81  F   UNL A   1      47.395  29.572  28.745  1.00  0.00    -0.206 F 
ATOM     82  C   UNL A   1      46.532  31.124  27.243  1.00  0.00     0.040 A 
ATOM     83  C   UNL A   1      44.175  31.564  27.184  1.00  0.00     0.040 A 
ATOM     84  F   UNL A   1      42.734  30.510  28.706  1.00  0.00    -0.206 F 
ATOM     85  C   UNL A   1      45.451  31.781  26.669  1.00  0.00     0.006 A 
ENDBRANCH  61  78
ENDBRANCH  35  36
ENDBRANCH  27  30
ENDBRANCH  25  26
ENDBRANCH  24  25
ENDBRANCH  23  24
ENDBRANCH   1  23
TORSDOF 16
ENDMDL
MODEL 3
REMARK VINA RESULT:     -10.5      2.715      8.176
REMARK SMILES Cc1cc(C)c2c(=O)n(CCCC(=O)NCCCCCCNC(=O)c3ccc(-c4c5nc(c(-c6c(F)cccc6F)c6ccc([nH]6)c(-c6c(F)cccc6F)c6nc(c(-c7c(F)cccc7F)c7ccc4[nH]7)C=C6)C=C5)cc3)sc2n1
REMARK SMILES IDX 18 1 17 2 16 3 15 4 13 5 14 6 12 8 11 9 10 10 9 11 1 12 2 13
REMARK SMILES IDX 3 14 81 15 4 16 80 17 5 18 6 19 79 20 7 21 8 22 19 23 20 24
REMARK SMILES IDX 21 25 22 26 23 27 24 29 25 30 26 31 78 32 27 33 77 34 28 35
REMARK SMILES IDX 29 36 30 37 71 38 31 39 76 40 70 41 72 42 32 43 75 44 69 45
REMARK SMILES IDX 68 46 33 48 59 49 42 50 58 51 43 52 46 53 57 54 73 55 44 56
REMARK SMILES IDX 45 57 56 59 74 60 47 61 34 62 35 63 40 64 36 65 37 66 39 67
REMARK SMILES IDX 41 68 38 69 60 70 61 71 66 72 62 73 63 74 65 75 67 76 64 77
REMARK SMILES IDX 48 78 49 79 54 80 50 81 51 82 53 83 55 84 52 85
REMARK H PARENT 15 7 22 28 72 47 46 58
REMARK Flexibility Score: inf
ROOT
ATOM      1  C   UNL A   1      34.125  28.700  26.284  1.00  0.00     0.002 C 
ENDROOT
BRANCH   1   2
ATOM      2  C   UNL A   1      32.884  27.954  26.783  1.00  0.00     0.021 C 
BRANCH   2   3
ATOM      3  C   UNL A   1      32.764  26.541  26.214  1.00  0.00     0.116 C 
BRANCH   3   4
ATOM      4  N   UNL A   1      31.492  25.962  26.575  1.00  0.00    -0.356 N 
ATOM      5  C   UNL A   1      30.301  25.959  25.924  1.00  0.00     0.220 C 
ATOM      6  O   UNL A   1      29.330  25.484  26.516  1.00  0.00    -0.275 OA
ATOM      7  H   UNL A   1      31.487  25.490  27.439  1.00  0.00     0.163 HD
BRANCH   5   8
ATOM      8  C   UNL A   1      30.180  26.403  24.478  1.00  0.00     0.102 C 
BRANCH   8   9
ATOM      9  C   UNL A   1      30.138  25.367  23.348  1.00  0.00     0.033 C 
BRANCH   9  10
ATOM     10  C   UNL A   1      30.671  23.935  23.531  1.00  0.00     0.139 C 
BRANCH  10  11
ATOM     11  N   UNL A   1      32.023  23.687  24.020  1.00  0.00    -0.262 N 
ATOM     12  C   UNL A   1      37.581  21.177  24.540  1.00  0.00     0.067 C 
ATOM     13  C   UNL A   1      36.220  21.718  24.864  1.00  0.00     0.039 A 
ATOM     14  C   UNL A   1      35.622  21.466  26.107  1.00  0.00     0.027 A 
ATOM     15  N   UNL A   1      35.604  22.425  23.890  1.00  0.00    -0.241 NA
ATOM     16  C   UNL A   1      34.318  21.923  26.368  1.00  0.00    -0.033 A 
ATOM     17  C   UNL A   1      34.358  22.841  24.167  1.00  0.00     0.146 A 
ATOM     18  C   UNL A   1      33.698  21.745  27.718  1.00  0.00     0.045 C 
ATOM     19  C   UNL A   1      33.661  22.570  25.328  1.00  0.00     0.081 A 
ATOM     20  S   UNL A   1      33.435  23.878  23.076  1.00  0.00    -0.035 S 
ATOM     21  C   UNL A   1      32.248  23.004  25.221  1.00  0.00     0.270 A 
ATOM     22  O   UNL A   1      31.401  22.700  26.046  1.00  0.00    -0.268 OA
ENDBRANCH  10  11
ENDBRANCH   9  10
ENDBRANCH   8   9
ENDBRANCH   5   8
ENDBRANCH   3   4
ENDBRANCH   2   3
ENDBRANCH   1   2
BRANCH   1  23
ATOM     23  C   UNL A   1      34.811  29.597  27.328  1.00  0.00     0.002 C 
BRANCH  23  24
ATOM     24  C   UNL A   1      34.167  30.970  27.572  1.00  0.00     0.021 C 
BRANCH  24  25
ATOM     25  C   UNL A   1      35.180  32.045  27.917  1.00  0.00     0.116 C 
BRANCH  25  26
ATOM     26  N   UNL A   1      34.976  32.608  29.258  1.00  0.00    -0.352 N 
ATOM     27  C   UNL A   1      35.460  32.152  30.467  1.00  0.00     0.251 C 
ATOM     28  H   UNL A   1      34.420  33.419  29.300  1.00  0.00     0.163 HD
ATOM     29  O   UNL A   1      34.976  32.526  31.535  1.00  0.00    -0.269 OA
BRANCH  27  30
ATOM     30  C   UNL A   1      36.591  31.216  30.453  1.00  0.00     0.039 A 
ATOM     31  C   UNL A   1      36.437  29.827  30.473  1.00  0.00     0.014 A 
ATOM     32  C   UNL A   1      37.854  31.788  30.386  1.00  0.00     0.014 A 
ATOM     33  C   UNL A   1      37.581  29.037  30.395  1.00  0.00     0.010 A 
ATOM     34  C   UNL A   1      38.915  31.032  30.005  1.00  0.00     0.010 A 
ATOM     35  C   UNL A   1      38.816  29.663  30.169  1.00  0.00    -0.014 A 
BRANCH  35  36
ATOM     36  C   UNL A   1      40.072  28.940  30.112  1.00  0.00     0.031 A 
ATOM     37  C   UNL A   1      40.715  28.707  31.426  1.00  0.00     0.074 A 
ATOM     38  C   UNL A   1      40.469  28.329  28.973  1.00  0.00     0.049 A 
ATOM     39  N   UNL A   1      41.840  29.172  31.850  1.00  0.00    -0.248 NA
ATOM     40  C   UNL A   1      39.947  27.976  32.447  1.00  0.00     0.031 C 
ATOM     41  C   UNL A   1      39.765  28.191  27.686  1.00  0.00     0.029 A 
ATOM     42  N   UNL A   1      41.594  27.602  28.762  1.00  0.00    -0.354 N 
ATOM     43  C   UNL A   1      42.016  28.652  33.128  1.00  0.00     0.074 A 
ATOM     44  C   UNL A   1      40.757  28.065  33.503  1.00  0.00     0.031 C 
ATOM     45  C   UNL A   1      40.371  27.250  26.928  1.00  0.00     0.029 A 
ATOM     46  C   UNL A   1      41.601  26.862  27.585  1.00  0.00     0.049 A 
ATOM     47  H   UNL A   1      42.349  27.599  29.394  1.00  0.00     0.167 HD
ATOM     48  C   UNL A   1      43.251  28.575  33.697  1.00  0.00     0.037 A 
ATOM     49  C   UNL A   1      42.556  25.973  27.218  1.00  0.00     0.037 A 
ATOM     50  C   UNL A   1      44.201  29.393  32.987  1.00  0.00     0.049 A 
ATOM     51  C   UNL A   1      43.765  26.292  28.023  1.00  0.00     0.074 A 
ATOM     52  C   UNL A   1      44.331  30.751  32.771  1.00  0.00     0.029 A 
ATOM     53  N   UNL A   1      44.975  28.788  32.025  1.00  0.00    -0.354 N 
ATOM     54  N   UNL A   1      44.440  27.403  27.904  1.00  0.00    -0.248 NA
ATOM     55  C   UNL A   1      43.915  25.602  29.296  1.00  0.00     0.031 C 
ATOM     56  C   UNL A   1      44.758  30.869  31.415  1.00  0.00     0.029 A 
ATOM     57  C   UNL A   1      44.934  29.581  30.904  1.00  0.00     0.049 A 
ATOM     58  H   UNL A   1      45.468  27.941  32.123  1.00  0.00     0.167 HD
ATOM     59  C   UNL A   1      44.768  27.766  29.204  1.00  0.00     0.074 A 
ATOM     60  C   UNL A   1      44.464  26.586  30.013  1.00  0.00     0.031 C 
ATOM     61  C   UNL A   1      44.975  29.072  29.549  1.00  0.00     0.037 A 
BRANCH  48  62
ATOM     62  C   UNL A   1      43.670  27.536  34.702  1.00  0.00     0.057 A 
ATOM     63  C   UNL A   1      43.800  26.195  34.299  1.00  0.00     0.134 A 
ATOM     64  C   UNL A   1      43.702  27.748  36.096  1.00  0.00     0.134 A 
ATOM     65  F   UNL A   1      43.767  25.859  33.001  1.00  0.00    -0.206 F 
ATOM     66  C   UNL A   1      43.896  25.141  35.217  1.00  0.00     0.040 A 
ATOM     67  C   UNL A   1      43.851  26.709  37.018  1.00  0.00     0.040 A 
ATOM     68  F   UNL A   1      43.495  28.952  36.641  1.00  0.00    -0.206 F 
ATOM     69  C   UNL A   1      43.919  25.396  36.582  1.00  0.00     0.006 A 
ENDBRANCH  48  62
BRANCH  49  70
ATOM     70  C   UNL A   1      42.369  24.660  26.558  1.00  0.00     0.057 A 
ATOM     71  C   UNL A   1      43.123  24.309  25.430  1.00  0.00     0.134 A 
ATOM     72  C   UNL A   1      41.677  23.611  27.190  1.00  0.00     0.134 A 
ATOM     73  F   UNL A   1      43.845  25.234  24.781  1.00  0.00    -0.206 F 
ATOM     74  C   UNL A   1      43.216  22.985  24.979  1.00  0.00     0.040 A 
ATOM     75  C   UNL A   1      41.760  22.286  26.749  1.00  0.00     0.040 A 
ATOM     76  F   UNL A   1      40.974  23.822  28.313  1.00  0.00    -0.206 F 
ATOM     77  C   UNL A   1      42.547  21.965  25.649  1.00  0.00     0.006 A 
ENDBRANCH  49  70
BRANCH  61  78
ATOM     78  C   UNL A   1      45.015  30.100  28.443  1.00  0.00     0.057 A 
ATOM     79  C   UNL A   1      43.903  30.849  28.024  1.00  0.00     0.134 A 
ATOM     80  C   UNL A   1      46.251  30.470  27.907  1.00  0.00     0.134 A 
ATOM     81  F   UNL A   1      42.691  30.640  28.546  1.00  0.00    -0.206 F 
ATOM     82  C   UNL A   1      44.011  31.893  27.097  1.00  0.00     0.040 A 
ATOM     83  C   UNL A   1      46.380  31.530  27.004  1.00  0.00     0.040 A 
ATOM     84  F   UNL A   1      47.371  29.841  28.297  1.00  0.00    -0.206 F 
ATOM     85  C   UNL A   1      45.257  32.241  26.590  1.00  0.00     0.006 A 
ENDBRANCH  61  78
ENDBRANCH  35  36
ENDBRANCH  27  30
ENDBRANCH  25  26
ENDBRANCH  24  25
ENDBRANCH  23  24
ENDBRANCH   1  23
TORSDOF 16
ENDMDL
