MODEL 1
REMARK VINA RESULT:     -12.5      0.000      0.000
REMARK SMILES CC1=C([C@H](NC(=O)c2cccc3ccccc23)C(=O)NCCCCCCNC(=O)c2ccc(-c3c4nc(c(-c5c(F)cccc5F)c5ccc([nH]5)c(-c5c(F)cccc5F)c5nc(c(-c6c(F)cccc6F)c6ccc3[nH]6)C=C5)C=C4)cc2)[C@H](C)N=N1
REMARK SMILES IDX 23 1 22 2 21 3 20 4 18 5 19 6 4 8 3 9 1 10 2 11 87 12 84 13
REMARK SMILES IDX 86 14 85 15 5 16 6 17 7 19 8 20 9 21 17 22 10 23 12 24 16 25
REMARK SMILES IDX 11 26 13 27 15 28 14 29 24 30 25 31 26 32 27 33 28 34 29 36
REMARK SMILES IDX 30 37 31 38 83 39 32 40 82 41 33 42 34 43 35 44 76 45 36 46
REMARK SMILES IDX 81 47 75 48 77 49 37 50 80 51 74 52 73 53 38 55 64 56 47 57
REMARK SMILES IDX 63 58 48 59 51 60 62 61 78 62 49 63 50 64 61 66 79 67 52 68
REMARK SMILES IDX 39 69 40 70 45 71 41 72 42 73 44 74 46 75 43 76 65 77 66 78
REMARK SMILES IDX 71 79 67 80 68 81 70 82 72 83 69 84 53 85 54 86 59 87 55 88
REMARK SMILES IDX 56 89 58 90 60 91 57 92
REMARK H PARENT 20 7 5 18 27 35 77 54 51 65
REMARK Flexibility Score: inf
ROOT
ATOM      1  C   UNL A   1      35.246  20.872  24.992  1.00  0.00     0.002 C 
ENDROOT
BRANCH   1   2
ATOM      2  C   UNL A   1      34.650  21.268  26.345  1.00  0.00     0.021 C 
BRANCH   2   3
ATOM      3  C   UNL A   1      33.145  21.479  26.325  1.00  0.00     0.116 C 
BRANCH   3   4
ATOM      4  N   UNL A   1      32.716  22.731  26.923  1.00  0.00    -0.354 N 
ATOM      5  C   UNL A   1      31.850  23.678  26.446  1.00  0.00     0.247 C 
ATOM      6  O   UNL A   1      31.419  24.517  27.242  1.00  0.00    -0.272 OA
ATOM      7  H   UNL A   1      33.107  22.928  27.806  1.00  0.00     0.163 HD
BRANCH   5   8
ATOM      8  C   UNL A   1      31.332  23.605  25.005  1.00  0.00     0.202 C 
BRANCH   8   9
ATOM      9  C   UNL A   1      32.503  23.893  24.074  1.00  0.00     0.011 C 
ATOM     10  C   UNL A   1      34.593  24.801  25.368  1.00  0.00     0.069 C 
ATOM     11  C   UNL A   1      33.754  24.388  24.200  1.00  0.00     0.064 C 
ATOM     12  N   UNL A   1      34.413  24.459  22.993  1.00  0.00    -0.160 NA
ATOM     13  C   UNL A   1      32.477  23.392  22.660  1.00  0.00     0.156 C 
ATOM     14  N   UNL A   1      33.714  23.967  22.079  1.00  0.00    -0.181 NA
ATOM     15  C   UNL A   1      32.622  21.873  22.585  1.00  0.00     0.040 C 
ENDBRANCH   8   9
BRANCH   8  16
ATOM     16  N   UNL A   1      30.202  24.514  24.721  1.00  0.00    -0.337 N 
ATOM     17  C   UNL A   1      30.131  25.865  24.401  1.00  0.00     0.252 C 
ATOM     18  H   UNL A   1      29.322  24.075  24.766  1.00  0.00     0.165 HD
ATOM     19  O   UNL A   1      29.006  26.341  24.250  1.00  0.00    -0.269 OA
BRANCH  17  20
ATOM     20  C   UNL A   1      31.334  26.740  24.200  1.00  0.00     0.047 A 
ATOM     21  C   UNL A   1      31.748  27.033  22.900  1.00  0.00     0.014 A 
ATOM     22  C   UNL A   1      31.983  27.429  25.262  1.00  0.00    -0.006 A 
ATOM     23  C   UNL A   1      32.939  27.690  22.622  1.00  0.00     0.001 A 
ATOM     24  C   UNL A   1      33.183  28.143  24.969  1.00  0.00    -0.018 A 
ATOM     25  C   UNL A   1      31.494  27.521  26.587  1.00  0.00     0.009 A 
ATOM     26  C   UNL A   1      33.686  28.194  23.667  1.00  0.00     0.009 A 
ATOM     27  C   UNL A   1      33.853  28.861  25.967  1.00  0.00     0.009 A 
ATOM     28  C   UNL A   1      32.137  28.302  27.553  1.00  0.00     0.001 A 
ATOM     29  C   UNL A   1      33.321  28.961  27.247  1.00  0.00     0.001 A 
ENDBRANCH  17  20
ENDBRANCH   8  16
ENDBRANCH   5   8
ENDBRANCH   3   4
ENDBRANCH   2   3
ENDBRANCH   1   2
BRANCH   1  30
ATOM     30  C   UNL A   1      36.331  19.780  25.004  1.00  0.00     0.002 C 
BRANCH  30  31
ATOM     31  C   UNL A   1      37.756  20.179  24.594  1.00  0.00     0.021 C 
BRANCH  31  32
ATOM     32  C   UNL A   1      38.712  20.338  25.755  1.00  0.00     0.116 C 
BRANCH  32  33
ATOM     33  N   UNL A   1      39.749  19.315  25.763  1.00  0.00    -0.352 N 
ATOM     34  C   UNL A   1      41.112  19.497  25.901  1.00  0.00     0.251 C 
ATOM     35  H   UNL A   1      39.443  18.385  25.656  1.00  0.00     0.163 HD
ATOM     36  O   UNL A   1      41.905  18.655  25.520  1.00  0.00    -0.269 OA
BRANCH  34  37
ATOM     37  C   UNL A   1      41.579  20.744  26.531  1.00  0.00     0.039 A 
ATOM     38  C   UNL A   1      42.063  21.808  25.770  1.00  0.00     0.014 A 
ATOM     39  C   UNL A   1      41.480  20.844  27.916  1.00  0.00     0.014 A 
ATOM     40  C   UNL A   1      42.382  22.998  26.418  1.00  0.00     0.010 A 
ATOM     41  C   UNL A   1      41.611  22.063  28.521  1.00  0.00     0.010 A 
ATOM     42  C   UNL A   1      42.133  23.124  27.797  1.00  0.00    -0.014 A 
BRANCH  42  43
ATOM     43  C   UNL A   1      42.294  24.403  28.478  1.00  0.00     0.031 A 
ATOM     44  C   UNL A   1      41.163  25.345  28.255  1.00  0.00     0.074 A 
ATOM     45  C   UNL A   1      43.259  24.635  29.397  1.00  0.00     0.049 A 
ATOM     46  N   UNL A   1      41.187  26.463  27.610  1.00  0.00    -0.248 NA
ATOM     47  C   UNL A   1      39.810  24.920  28.658  1.00  0.00     0.031 C 
ATOM     48  C   UNL A   1      44.248  23.700  29.949  1.00  0.00     0.029 A 
ATOM     49  N   UNL A   1      43.503  25.766  30.115  1.00  0.00    -0.354 N 
ATOM     50  C   UNL A   1      39.906  26.994  27.722  1.00  0.00     0.074 A 
ATOM     51  C   UNL A   1      39.064  25.927  28.201  1.00  0.00     0.031 C 
ATOM     52  C   UNL A   1      44.808  24.224  31.062  1.00  0.00     0.029 A 
ATOM     53  C   UNL A   1      44.363  25.597  31.200  1.00  0.00     0.049 A 
ATOM     54  H   UNL A   1      43.104  26.636  29.887  1.00  0.00     0.167 HD
ATOM     55  C   UNL A   1      39.702  28.338  27.667  1.00  0.00     0.037 A 
ATOM     56  C   UNL A   1      44.667  26.525  32.145  1.00  0.00     0.037 A 
ATOM     57  C   UNL A   1      40.832  29.010  27.071  1.00  0.00     0.049 A 
ATOM     58  C   UNL A   1      44.301  27.849  31.589  1.00  0.00     0.074 A 
ATOM     59  C   UNL A   1      41.481  28.921  25.854  1.00  0.00     0.029 A 
ATOM     60  N   UNL A   1      41.716  29.639  27.914  1.00  0.00    -0.354 N 
ATOM     61  N   UNL A   1      44.928  28.415  30.597  1.00  0.00    -0.248 NA
ATOM     62  C   UNL A   1      42.947  28.319  31.829  1.00  0.00     0.031 C 
ATOM     63  C   UNL A   1      42.869  29.027  26.169  1.00  0.00     0.029 A 
ATOM     64  C   UNL A   1      42.981  29.262  27.539  1.00  0.00     0.049 A 
ATOM     65  H   UNL A   1      41.484  30.249  28.651  1.00  0.00     0.167 HD
ATOM     66  C   UNL A   1      43.921  28.962  29.818  1.00  0.00     0.074 A 
ATOM     67  C   UNL A   1      42.728  28.935  30.664  1.00  0.00     0.031 C 
ATOM     68  C   UNL A   1      44.076  29.108  28.469  1.00  0.00     0.037 A 
BRANCH  55  69
ATOM     69  C   UNL A   1      38.675  29.064  28.501  1.00  0.00     0.057 A 
ATOM     70  C   UNL A   1      38.669  28.885  29.895  1.00  0.00     0.134 A 
ATOM     71  C   UNL A   1      37.527  29.692  27.975  1.00  0.00     0.134 A 
ATOM     72  F   UNL A   1      39.691  28.277  30.515  1.00  0.00    -0.206 F 
ATOM     73  C   UNL A   1      37.576  29.246  30.694  1.00  0.00     0.040 A 
ATOM     74  C   UNL A   1      36.454  30.103  28.769  1.00  0.00     0.040 A 
ATOM     75  F   UNL A   1      37.330  29.847  26.660  1.00  0.00    -0.206 F 
ATOM     76  C   UNL A   1      36.461  29.854  30.129  1.00  0.00     0.006 A 
ENDBRANCH  55  69
BRANCH  56  77
ATOM     77  C   UNL A   1      44.958  26.356  33.588  1.00  0.00     0.057 A 
ATOM     78  C   UNL A   1      43.981  25.858  34.465  1.00  0.00     0.134 A 
ATOM     79  C   UNL A   1      46.276  26.365  34.074  1.00  0.00     0.134 A 
ATOM     80  F   UNL A   1      42.699  25.777  34.081  1.00  0.00    -0.206 F 
ATOM     81  C   UNL A   1      44.301  25.354  35.733  1.00  0.00     0.040 A 
ATOM     82  C   UNL A   1      46.609  25.867  35.340  1.00  0.00     0.040 A 
ATOM     83  F   UNL A   1      47.294  26.763  33.298  1.00  0.00    -0.206 F 
ATOM     84  C   UNL A   1      45.623  25.341  36.167  1.00  0.00     0.006 A 
ENDBRANCH  56  77
BRANCH  68  85
ATOM     85  C   UNL A   1      45.452  28.886  27.893  1.00  0.00     0.057 A 
ATOM     86  C   UNL A   1      45.946  27.647  27.453  1.00  0.00     0.134 A 
ATOM     87  C   UNL A   1      46.271  29.999  27.674  1.00  0.00     0.134 A 
ATOM     88  F   UNL A   1      45.204  26.536  27.522  1.00  0.00    -0.206 F 
ATOM     89  C   UNL A   1      47.216  27.516  26.879  1.00  0.00     0.040 A 
ATOM     90  C   UNL A   1      47.525  29.888  27.068  1.00  0.00     0.040 A 
ATOM     91  F   UNL A   1      45.848  31.226  28.015  1.00  0.00    -0.206 F 
ATOM     92  C   UNL A   1      48.009  28.642  26.682  1.00  0.00     0.006 A 
ENDBRANCH  68  85
ENDBRANCH  42  43
ENDBRANCH  34  37
ENDBRANCH  32  33
ENDBRANCH  31  32
ENDBRANCH  30  31
ENDBRANCH   1  30
TORSDOF 16
ENDMDL
MODEL 2
REMARK VINA RESULT:     -12.4      2.158      5.889
REMARK SMILES CC1=C([C@H](NC(=O)c2cccc3ccccc23)C(=O)NCCCCCCNC(=O)c2ccc(-c3c4nc(c(-c5c(F)cccc5F)c5ccc([nH]5)c(-c5c(F)cccc5F)c5nc(c(-c6c(F)cccc6F)c6ccc3[nH]6)C=C5)C=C4)cc2)[C@H](C)N=N1
REMARK SMILES IDX 23 1 22 2 21 3 20 4 18 5 19 6 4 8 3 9 1 10 2 11 87 12 84 13
REMARK SMILES IDX 86 14 85 15 5 16 6 17 7 19 8 20 9 21 17 22 10 23 12 24 16 25
REMARK SMILES IDX 11 26 13 27 15 28 14 29 24 30 25 31 26 32 27 33 28 34 29 36
REMARK SMILES IDX 30 37 31 38 83 39 32 40 82 41 33 42 34 43 35 44 76 45 36 46
REMARK SMILES IDX 81 47 75 48 77 49 37 50 80 51 74 52 73 53 38 55 64 56 47 57
REMARK SMILES IDX 63 58 48 59 51 60 62 61 78 62 49 63 50 64 61 66 79 67 52 68
REMARK SMILES IDX 39 69 40 70 45 71 41 72 42 73 44 74 46 75 43 76 65 77 66 78
REMARK SMILES IDX 71 79 67 80 68 81 70 82 72 83 69 84 53 85 54 86 59 87 55 88
REMARK SMILES IDX 56 89 58 90 60 91 57 92
REMARK H PARENT 20 7 5 18 27 35 77 54 51 65
REMARK Flexibility Score: inf
ROOT
ATOM      1  C   UNL A   1      39.587  22.582  26.112  1.00  0.00     0.002 C 
ENDROOT
BRANCH   1   2
ATOM      2  C   UNL A   1      38.457  23.297  26.857  1.00  0.00     0.021 C 
BRANCH   2   3
ATOM      3  C   UNL A   1      37.408  23.918  25.950  1.00  0.00     0.116 C 
BRANCH   3   4
ATOM      4  N   UNL A   1      37.302  23.280  24.649  1.00  0.00    -0.354 N 
ATOM      5  C   UNL A   1      36.278  23.311  23.739  1.00  0.00     0.247 C 
ATOM      6  O   UNL A   1      36.519  22.931  22.590  1.00  0.00    -0.272 OA
ATOM      7  H   UNL A   1      38.084  22.745  24.380  1.00  0.00     0.163 HD
BRANCH   5   8
ATOM      8  C   UNL A   1      34.925  23.928  24.110  1.00  0.00     0.202 C 
BRANCH   8   9
ATOM      9  C   UNL A   1      34.023  22.806  24.611  1.00  0.00     0.011 C 
ATOM     10  C   UNL A   1      32.954  23.360  26.938  1.00  0.00     0.069 C 
ATOM     11  C   UNL A   1      33.286  22.562  25.717  1.00  0.00     0.064 C 
ATOM     12  N   UNL A   1      32.656  21.339  25.668  1.00  0.00    -0.160 NA
ATOM     13  C   UNL A   1      33.613  21.703  23.680  1.00  0.00     0.156 C 
ATOM     14  N   UNL A   1      32.856  20.784  24.563  1.00  0.00    -0.181 NA
ATOM     15  C   UNL A   1      32.634  22.188  22.610  1.00  0.00     0.040 C 
ENDBRANCH   8   9
BRANCH   8  16
ATOM     16  N   UNL A   1      34.275  24.670  23.009  1.00  0.00    -0.337 N 
ATOM     17  C   UNL A   1      33.117  25.434  22.937  1.00  0.00     0.252 C 
ATOM     18  H   UNL A   1      34.761  24.611  22.156  1.00  0.00     0.165 HD
ATOM     19  O   UNL A   1      32.830  25.906  21.837  1.00  0.00    -0.269 OA
BRANCH  17  20
ATOM     20  C   UNL A   1      32.241  25.737  24.119  1.00  0.00     0.047 A 
ATOM     21  C   UNL A   1      31.106  24.957  24.338  1.00  0.00     0.014 A 
ATOM     22  C   UNL A   1      32.594  26.673  25.130  1.00  0.00    -0.006 A 
ATOM     23  C   UNL A   1      30.155  25.268  25.301  1.00  0.00     0.001 A 
ATOM     24  C   UNL A   1      31.636  26.961  26.147  1.00  0.00    -0.018 A 
ATOM     25  C   UNL A   1      33.858  27.300  25.251  1.00  0.00     0.009 A 
ATOM     26  C   UNL A   1      30.398  26.313  26.169  1.00  0.00     0.009 A 
ATOM     27  C   UNL A   1      31.934  27.854  27.184  1.00  0.00     0.009 A 
ATOM     28  C   UNL A   1      34.164  28.133  26.332  1.00  0.00     0.001 A 
ATOM     29  C   UNL A   1      33.199  28.419  27.291  1.00  0.00     0.001 A 
ENDBRANCH  17  20
ENDBRANCH   8  16
ENDBRANCH   5   8
ENDBRANCH   3   4
ENDBRANCH   2   3
ENDBRANCH   1   2
BRANCH   1  30
ATOM     30  C   UNL A   1      40.479  21.641  26.941  1.00  0.00     0.002 C 
BRANCH  30  31
ATOM     31  C   UNL A   1      41.095  20.425  26.233  1.00  0.00     0.021 C 
BRANCH  31  32
ATOM     32  C   UNL A   1      42.368  19.916  26.870  1.00  0.00     0.116 C 
BRANCH  32  33
ATOM     33  N   UNL A   1      43.435  19.723  25.898  1.00  0.00    -0.352 N 
ATOM     34  C   UNL A   1      44.047  20.684  25.116  1.00  0.00     0.251 C 
ATOM     35  H   UNL A   1      43.758  18.799  25.785  1.00  0.00     0.163 HD
ATOM     36  O   UNL A   1      44.636  20.386  24.092  1.00  0.00    -0.269 OA
BRANCH  34  37
ATOM     37  C   UNL A   1      43.972  22.085  25.563  1.00  0.00     0.039 A 
ATOM     38  C   UNL A   1      43.212  23.030  24.872  1.00  0.00     0.014 A 
ATOM     39  C   UNL A   1      44.652  22.429  26.728  1.00  0.00     0.014 A 
ATOM     40  C   UNL A   1      43.092  24.309  25.410  1.00  0.00     0.010 A 
ATOM     41  C   UNL A   1      44.380  23.618  27.348  1.00  0.00     0.010 A 
ATOM     42  C   UNL A   1      43.665  24.589  26.664  1.00  0.00    -0.014 A 
BRANCH  42  43
ATOM     43  C   UNL A   1      43.420  25.859  27.338  1.00  0.00     0.031 A 
ATOM     44  C   UNL A   1      44.388  26.927  26.969  1.00  0.00     0.074 A 
ATOM     45  C   UNL A   1      42.302  26.111  28.056  1.00  0.00     0.049 A 
ATOM     46  N   UNL A   1      45.276  27.479  27.725  1.00  0.00    -0.248 NA
ATOM     47  C   UNL A   1      44.491  27.317  25.550  1.00  0.00     0.031 C 
ATOM     48  C   UNL A   1      41.117  25.263  28.243  1.00  0.00     0.029 A 
ATOM     49  N   UNL A   1      41.944  27.250  28.710  1.00  0.00    -0.354 N 
ATOM     50  C   UNL A   1      45.896  28.447  26.942  1.00  0.00     0.074 A 
ATOM     51  C   UNL A   1      45.514  28.173  25.580  1.00  0.00     0.031 C 
ATOM     52  C   UNL A   1      40.099  25.996  28.746  1.00  0.00     0.029 A 
ATOM     53  C   UNL A   1      40.604  27.311  29.091  1.00  0.00     0.049 A 
ATOM     54  H   UNL A   1      42.581  27.976  28.900  1.00  0.00     0.167 HD
ATOM     55  C   UNL A   1      46.452  29.552  27.510  1.00  0.00     0.037 A 
ATOM     56  C   UNL A   1      39.965  28.377  29.637  1.00  0.00     0.037 A 
ATOM     57  C   UNL A   1      46.685  29.349  28.919  1.00  0.00     0.049 A 
ATOM     58  C   UNL A   1      41.008  29.286  30.169  1.00  0.00     0.074 A 
ATOM     59  C   UNL A   1      47.412  28.435  29.659  1.00  0.00     0.029 A 
ATOM     60  N   UNL A   1      45.791  29.907  29.801  1.00  0.00    -0.354 N 
ATOM     61  N   UNL A   1      41.759  29.003  31.195  1.00  0.00    -0.248 NA
ATOM     62  C   UNL A   1      41.531  30.298  29.265  1.00  0.00     0.031 C 
ATOM     63  C   UNL A   1      46.584  28.131  30.782  1.00  0.00     0.029 A 
ATOM     64  C   UNL A   1      45.450  28.938  30.710  1.00  0.00     0.049 A 
ATOM     65  H   UNL A   1      45.457  30.833  29.783  1.00  0.00     0.167 HD
ATOM     66  C   UNL A   1      43.022  29.444  30.832  1.00  0.00     0.074 A 
ATOM     67  C   UNL A   1      42.805  30.299  29.665  1.00  0.00     0.031 C 
ATOM     68  C   UNL A   1      44.145  28.843  31.323  1.00  0.00     0.037 A 
BRANCH  55  69
ATOM     69  C   UNL A   1      46.411  30.925  26.885  1.00  0.00     0.057 A 
ATOM     70  C   UNL A   1      47.581  31.704  26.854  1.00  0.00     0.134 A 
ATOM     71  C   UNL A   1      45.223  31.621  26.579  1.00  0.00     0.134 A 
ATOM     72  F   UNL A   1      48.773  31.166  27.152  1.00  0.00    -0.206 F 
ATOM     73  C   UNL A   1      47.560  33.082  26.601  1.00  0.00     0.040 A 
ATOM     74  C   UNL A   1      45.196  32.984  26.274  1.00  0.00     0.040 A 
ATOM     75  F   UNL A   1      44.014  31.052  26.661  1.00  0.00    -0.206 F 
ATOM     76  C   UNL A   1      46.363  33.726  26.314  1.00  0.00     0.006 A 
ENDBRANCH  55  69
BRANCH  56  77
ATOM     77  C   UNL A   1      38.564  28.833  29.479  1.00  0.00     0.057 A 
ATOM     78  C   UNL A   1      37.709  28.930  30.589  1.00  0.00     0.134 A 
ATOM     79  C   UNL A   1      38.134  29.487  28.312  1.00  0.00     0.134 A 
ATOM     80  F   UNL A   1      38.046  28.368  31.758  1.00  0.00    -0.206 F 
ATOM     81  C   UNL A   1      36.521  29.673  30.555  1.00  0.00     0.040 A 
ATOM     82  C   UNL A   1      36.949  30.230  28.265  1.00  0.00     0.040 A 
ATOM     83  F   UNL A   1      38.902  29.509  27.213  1.00  0.00    -0.206 F 
ATOM     84  C   UNL A   1      36.147  30.342  29.394  1.00  0.00     0.006 A 
ENDBRANCH  56  77
BRANCH  68  85
ATOM     85  C   UNL A   1      43.976  27.854  32.449  1.00  0.00     0.057 A 
ATOM     86  C   UNL A   1      43.779  28.200  33.797  1.00  0.00     0.134 A 
ATOM     87  C   UNL A   1      43.899  26.492  32.137  1.00  0.00     0.134 A 
ATOM     88  F   UNL A   1      43.731  29.479  34.188  1.00  0.00    -0.206 F 
ATOM     89  C   UNL A   1      43.576  27.234  34.789  1.00  0.00     0.040 A 
ATOM     90  C   UNL A   1      43.660  25.521  33.111  1.00  0.00     0.040 A 
ATOM     91  F   UNL A   1      44.021  26.085  30.864  1.00  0.00    -0.206 F 
ATOM     92  C   UNL A   1      43.513  25.887  34.446  1.00  0.00     0.006 A 
ENDBRANCH  68  85
ENDBRANCH  42  43
ENDBRANCH  34  37
ENDBRANCH  32  33
ENDBRANCH  31  32
ENDBRANCH  30  31
ENDBRANCH   1  30
TORSDOF 16
ENDMDL
MODEL 3
REMARK VINA RESULT:     -12.1      2.470      7.051
REMARK SMILES CC1=C([C@H](NC(=O)c2cccc3ccccc23)C(=O)NCCCCCCNC(=O)c2ccc(-c3c4nc(c(-c5c(F)cccc5F)c5ccc([nH]5)c(-c5c(F)cccc5F)c5nc(c(-c6c(F)cccc6F)c6ccc3[nH]6)C=C5)C=C4)cc2)[C@H](C)N=N1
REMARK SMILES IDX 23 1 22 2 21 3 20 4 18 5 19 6 4 8 3 9 1 10 2 11 87 12 84 13
REMARK SMILES IDX 86 14 85 15 5 16 6 17 7 19 8 20 9 21 17 22 10 23 12 24 16 25
REMARK SMILES IDX 11 26 13 27 15 28 14 29 24 30 25 31 26 32 27 33 28 34 29 36
REMARK SMILES IDX 30 37 31 38 83 39 32 40 82 41 33 42 34 43 35 44 76 45 36 46
REMARK SMILES IDX 81 47 75 48 77 49 37 50 80 51 74 52 73 53 38 55 64 56 47 57
REMARK SMILES IDX 63 58 48 59 51 60 62 61 78 62 49 63 50 64 61 66 79 67 52 68
REMARK SMILES IDX 39 69 40 70 45 71 41 72 42 73 44 74 46 75 43 76 65 77 66 78
REMARK SMILES IDX 71 79 67 80 68 81 70 82 72 83 69 84 53 85 54 86 59 87 55 88
REMARK SMILES IDX 56 89 58 90 60 91 57 92
REMARK H PARENT 20 7 5 18 27 35 77 54 51 65
REMARK Flexibility Score: inf
ROOT
ATOM      1  C   UNL A   1      32.217  28.181  27.605  1.00  0.00     0.002 C 
ENDROOT
BRANCH   1   2
ATOM      2  C   UNL A   1      31.441  27.445  26.510  1.00  0.00     0.021 C 
BRANCH   2   3
ATOM      3  C   UNL A   1      31.721  25.953  26.443  1.00  0.00     0.116 C 
BRANCH   3   4
ATOM      4  N   UNL A   1      33.088  25.625  26.077  1.00  0.00    -0.354 N 
ATOM      5  C   UNL A   1      33.562  24.915  25.006  1.00  0.00     0.247 C 
ATOM      6  O   UNL A   1      34.765  25.003  24.745  1.00  0.00    -0.272 OA
ATOM      7  H   UNL A   1      33.779  25.966  26.692  1.00  0.00     0.163 HD
BRANCH   5   8
ATOM      8  C   UNL A   1      32.599  24.154  24.089  1.00  0.00     0.202 C 
BRANCH   8   9
ATOM      9  C   UNL A   1      32.673  22.678  24.458  1.00  0.00     0.011 C 
ATOM     10  C   UNL A   1      35.124  21.756  24.357  1.00  0.00     0.069 C 
ATOM     11  C   UNL A   1      33.638  21.734  24.530  1.00  0.00     0.064 C 
ATOM     12  N   UNL A   1      33.144  20.508  24.912  1.00  0.00    -0.160 NA
ATOM     13  C   UNL A   1      31.491  22.003  25.089  1.00  0.00     0.156 C 
ATOM     14  N   UNL A   1      31.924  20.587  25.182  1.00  0.00    -0.181 NA
ATOM     15  C   UNL A   1      31.252  22.482  26.521  1.00  0.00     0.040 C 
ENDBRANCH   8   9
BRANCH   8  16
ATOM     16  N   UNL A   1      32.857  24.346  22.646  1.00  0.00    -0.337 N 
ATOM     17  C   UNL A   1      32.985  25.478  21.850  1.00  0.00     0.252 C 
ATOM     18  H   UNL A   1      32.960  23.503  22.149  1.00  0.00     0.165 HD
ATOM     19  O   UNL A   1      33.174  25.293  20.648  1.00  0.00    -0.269 OA
BRANCH  17  20
ATOM     20  C   UNL A   1      32.943  26.882  22.381  1.00  0.00     0.047 A 
ATOM     21  C   UNL A   1      34.097  27.663  22.322  1.00  0.00     0.014 A 
ATOM     22  C   UNL A   1      31.742  27.524  22.792  1.00  0.00    -0.006 A 
ATOM     23  C   UNL A   1      34.197  28.904  22.937  1.00  0.00     0.001 A 
ATOM     24  C   UNL A   1      31.837  28.819  23.383  1.00  0.00    -0.018 A 
ATOM     25  C   UNL A   1      30.439  27.006  22.600  1.00  0.00     0.009 A 
ATOM     26  C   UNL A   1      33.074  29.454  23.521  1.00  0.00     0.009 A 
ATOM     27  C   UNL A   1      30.688  29.512  23.784  1.00  0.00     0.009 A 
ATOM     28  C   UNL A   1      29.299  27.742  22.940  1.00  0.00     0.001 A 
ATOM     29  C   UNL A   1      29.424  28.988  23.543  1.00  0.00     0.001 A 
ENDBRANCH  17  20
ENDBRANCH   8  16
ENDBRANCH   5   8
ENDBRANCH   3   4
ENDBRANCH   2   3
ENDBRANCH   1   2
BRANCH   1  30
ATOM     30  C   UNL A   1      33.507  28.904  27.177  1.00  0.00     0.002 C 
BRANCH  30  31
ATOM     31  C   UNL A   1      33.498  30.440  27.161  1.00  0.00     0.021 C 
BRANCH  31  32
ATOM     32  C   UNL A   1      34.776  31.071  27.666  1.00  0.00     0.116 C 
BRANCH  32  33
ATOM     33  N   UNL A   1      34.539  32.000  28.763  1.00  0.00    -0.352 N 
ATOM     34  C   UNL A   1      35.069  31.952  30.038  1.00  0.00     0.251 C 
ATOM     35  H   UNL A   1      33.930  32.750  28.574  1.00  0.00     0.163 HD
ATOM     36  O   UNL A   1      34.533  32.525  30.969  1.00  0.00    -0.269 OA
BRANCH  34  37
ATOM     37  C   UNL A   1      36.311  31.186  30.238  1.00  0.00     0.039 A 
ATOM     38  C   UNL A   1      36.291  29.807  30.451  1.00  0.00     0.014 A 
ATOM     39  C   UNL A   1      37.516  31.879  30.164  1.00  0.00     0.014 A 
ATOM     40  C   UNL A   1      37.504  29.127  30.520  1.00  0.00     0.010 A 
ATOM     41  C   UNL A   1      38.691  31.189  30.041  1.00  0.00     0.010 A 
ATOM     42  C   UNL A   1      38.703  29.826  30.293  1.00  0.00    -0.014 A 
BRANCH  42  43
ATOM     43  C   UNL A   1      39.977  29.123  30.189  1.00  0.00     0.031 A 
ATOM     44  C   UNL A   1      40.662  28.931  31.496  1.00  0.00     0.074 A 
ATOM     45  C   UNL A   1      40.394  28.512  29.056  1.00  0.00     0.049 A 
ATOM     46  N   UNL A   1      41.769  29.466  31.890  1.00  0.00    -0.248 NA
ATOM     47  C   UNL A   1      39.955  28.184  32.553  1.00  0.00     0.031 C 
ATOM     48  C   UNL A   1      39.680  28.349  27.783  1.00  0.00     0.029 A 
ATOM     49  N   UNL A   1      41.539  27.811  28.834  1.00  0.00    -0.354 N 
ATOM     50  C   UNL A   1      42.016  28.943  33.155  1.00  0.00     0.074 A 
ATOM     51  C   UNL A   1      40.789  28.323  33.585  1.00  0.00     0.031 C 
ATOM     52  C   UNL A   1      40.294  27.411  27.027  1.00  0.00     0.029 A 
ATOM     53  C   UNL A   1      41.539  27.042  27.671  1.00  0.00     0.049 A 
ATOM     54  H   UNL A   1      42.309  27.843  29.447  1.00  0.00     0.167 HD
ATOM     55  C   UNL A   1      43.288  28.831  33.627  1.00  0.00     0.037 A 
ATOM     56  C   UNL A   1      42.496  26.159  27.284  1.00  0.00     0.037 A 
ATOM     57  C   UNL A   1      44.192  29.676  32.885  1.00  0.00     0.049 A 
ATOM     58  C   UNL A   1      43.722  26.478  28.054  1.00  0.00     0.074 A 
ATOM     59  C   UNL A   1      44.261  31.033  32.631  1.00  0.00     0.029 A 
ATOM     60  N   UNL A   1      44.981  29.084  31.929  1.00  0.00    -0.354 N 
ATOM     61  N   UNL A   1      44.422  27.563  27.881  1.00  0.00    -0.248 NA
ATOM     62  C   UNL A   1      43.892  25.816  29.337  1.00  0.00     0.031 C 
ATOM     63  C   UNL A   1      44.652  31.131  31.261  1.00  0.00     0.029 A 
ATOM     64  C   UNL A   1      44.885  29.840  30.789  1.00  0.00     0.049 A 
ATOM     65  H   UNL A   1      45.517  28.266  32.043  1.00  0.00     0.167 HD
ATOM     66  C   UNL A   1      44.756  27.967  29.164  1.00  0.00     0.074 A 
ATOM     67  C   UNL A   1      44.465  26.814  30.015  1.00  0.00     0.031 C 
ATOM     68  C   UNL A   1      44.952  29.287  29.456  1.00  0.00     0.037 A 
BRANCH  55  69
ATOM     69  C   UNL A   1      43.767  27.678  34.474  1.00  0.00     0.057 A 
ATOM     70  C   UNL A   1      44.376  27.941  35.714  1.00  0.00     0.134 A 
ATOM     71  C   UNL A   1      43.919  26.357  34.003  1.00  0.00     0.134 A 
ATOM     72  F   UNL A   1      44.327  29.165  36.259  1.00  0.00    -0.206 F 
ATOM     73  C   UNL A   1      45.131  26.979  36.399  1.00  0.00     0.040 A 
ATOM     74  C   UNL A   1      44.625  25.377  34.702  1.00  0.00     0.040 A 
ATOM     75  F   UNL A   1      43.487  25.970  32.797  1.00  0.00    -0.206 F 
ATOM     76  C   UNL A   1      45.260  25.693  35.890  1.00  0.00     0.006 A 
ENDBRANCH  55  69
BRANCH  56  77
ATOM     77  C   UNL A   1      42.371  24.882  26.542  1.00  0.00     0.057 A 
ATOM     78  C   UNL A   1      43.175  24.620  25.422  1.00  0.00     0.134 A 
ATOM     79  C   UNL A   1      41.708  23.775  27.098  1.00  0.00     0.134 A 
ATOM     80  F   UNL A   1      43.874  25.605  24.841  1.00  0.00    -0.206 F 
ATOM     81  C   UNL A   1      43.349  23.325  24.912  1.00  0.00     0.040 A 
ATOM     82  C   UNL A   1      41.871  22.477  26.596  1.00  0.00     0.040 A 
ATOM     83  F   UNL A   1      40.963  23.902  28.204  1.00  0.00    -0.206 F 
ATOM     84  C   UNL A   1      42.710  22.246  25.512  1.00  0.00     0.006 A 
ENDBRANCH  56  77
BRANCH  68  85
ATOM     85  C   UNL A   1      45.035  30.256  28.304  1.00  0.00     0.057 A 
ATOM     86  C   UNL A   1      43.937  30.932  27.745  1.00  0.00     0.134 A 
ATOM     87  C   UNL A   1      46.297  30.601  27.810  1.00  0.00     0.134 A 
ATOM     88  F   UNL A   1      42.696  30.753  28.213  1.00  0.00    -0.206 F 
ATOM     89  C   UNL A   1      44.087  31.861  26.708  1.00  0.00     0.040 A 
ATOM     90  C   UNL A   1      46.464  31.552  26.801  1.00  0.00     0.040 A 
ATOM     91  F   UNL A   1      47.401  30.040  28.330  1.00  0.00    -0.206 F 
ATOM     92  C   UNL A   1      45.357  32.175  26.235  1.00  0.00     0.006 A 
ENDBRANCH  68  85
ENDBRANCH  42  43
ENDBRANCH  34  37
ENDBRANCH  32  33
ENDBRANCH  31  32
ENDBRANCH  30  31
ENDBRANCH   1  30
TORSDOF 16
ENDMDL
