MODEL 1
REMARK VINA RESULT:     -12.5      0.000      0.000
REMARK SMILES COc1ccc(-c2c(C(=O)NCCCCCCNC(=O)c3ccc(-c4c5nc(c(-c6c(F)cccc6F)c6ccc([nH]6)c(-c6c(F)cccc6F)c6nc(c(-c7c(F)cccc7F)c7ccc4[nH]7)C=C6)C=C5)cc3)sc3c2N=C(O)C[C@H]3c2ccc(OC)c(OC)c2)cc1
REMARK SMILES IDX 14 1 13 2 12 3 11 4 9 5 10 6 8 8 7 9 77 10 75 11 76 12 78 13
REMARK SMILES IDX 82 14 79 15 81 16 6 17 3 18 4 19 94 20 5 21 93 22 2 23 1 24
REMARK SMILES IDX 83 25 84 26 92 27 85 28 89 29 86 30 90 31 91 32 87 33 88 34
REMARK SMILES IDX 80 35 15 37 16 38 17 39 18 40 19 41 20 43 21 44 22 45 74 46
REMARK SMILES IDX 23 47 73 48 24 49 25 50 26 51 67 52 27 53 72 54 66 55 68 56
REMARK SMILES IDX 28 57 71 58 65 59 64 60 29 62 55 63 38 64 54 65 39 66 42 67
REMARK SMILES IDX 53 68 69 69 40 70 41 71 52 73 70 74 43 75 30 76 31 77 36 78
REMARK SMILES IDX 32 79 33 80 35 81 37 82 34 83 56 84 57 85 62 86 58 87 59 88
REMARK SMILES IDX 61 89 63 90 60 91 44 92 45 93 50 94 46 95 47 96 49 97 51 98
REMARK SMILES IDX 48 99
REMARK H PARENT 11 7 80 36 18 42 68 61 42 72
REMARK Flexibility Score: inf
ROOT
ATOM      1  C   UNL A   1      34.158  28.975  26.288  1.00  0.00     0.002 C 
ENDROOT
BRANCH   1   2
ATOM      2  C   UNL A   1      34.274  28.098  25.045  1.00  0.00     0.021 C 
BRANCH   2   3
ATOM      3  C   UNL A   1      34.136  28.742  23.674  1.00  0.00     0.116 C 
BRANCH   3   4
ATOM      4  N   UNL A   1      34.129  27.914  22.505  1.00  0.00    -0.351 N 
ATOM      5  C   UNL A   1      33.558  26.666  22.315  1.00  0.00     0.262 C 
ATOM      6  O   UNL A   1      33.654  26.273  21.144  1.00  0.00    -0.268 OA
ATOM      7  H   UNL A   1      34.599  28.285  21.723  1.00  0.00     0.163 HD
BRANCH   5   8
ATOM      8  C   UNL A   1      32.933  25.830  23.369  1.00  0.00     0.102 A 
ATOM      9  C   UNL A   1      31.677  25.657  23.970  1.00  0.00     0.031 A 
ATOM     10  C   UNL A   1      31.696  24.661  24.997  1.00  0.00     0.090 A 
ATOM     11  S   UNL A   1      34.063  24.694  24.118  1.00  0.00    -0.131 S 
ATOM     12  C   UNL A   1      32.904  24.068  25.178  1.00  0.00     0.040 A 
ATOM     13  N   UNL A   1      30.553  24.338  25.741  1.00  0.00    -0.216 NA
ATOM     14  C   UNL A   1      33.155  22.988  26.174  1.00  0.00     0.071 C 
ATOM     15  C   UNL A   1      30.745  23.560  26.749  1.00  0.00     0.186 C 
ATOM     16  C   UNL A   1      32.046  22.980  27.242  1.00  0.00     0.111 C 
BRANCH   9  17
ATOM     17  C   UNL A   1      30.471  26.431  23.750  1.00  0.00    -0.014 A 
ATOM     18  C   UNL A   1      28.066  27.823  23.493  1.00  0.00     0.118 A 
ATOM     19  C   UNL A   1      29.277  28.428  23.134  1.00  0.00     0.047 A 
ATOM     20  C   UNL A   1      28.048  26.485  23.880  1.00  0.00     0.047 A 
ATOM     21  C   UNL A   1      30.488  27.735  23.259  1.00  0.00     0.012 A 
ATOM     22  C   UNL A   1      29.244  25.791  23.998  1.00  0.00     0.012 A 
BRANCH  18  23
ATOM     23  O   UNL A   1      26.958  28.624  23.443  1.00  0.00    -0.497 OA
ATOM     24  C   UNL A   1      27.225  29.988  23.126  1.00  0.00     0.278 C 
ENDBRANCH  18  23
ENDBRANCH   9  17
BRANCH  14  25
ATOM     25  C   UNL A   1      33.289  21.621  25.522  1.00  0.00    -0.035 A 
ATOM     26  C   UNL A   1      32.182  20.925  25.028  1.00  0.00     0.008 A 
ATOM     27  C   UNL A   1      34.559  21.031  25.424  1.00  0.00     0.054 A 
ATOM     28  C   UNL A   1      32.353  19.670  24.449  1.00  0.00     0.051 A 
ATOM     29  C   UNL A   1      34.744  19.763  24.851  1.00  0.00     0.161 A 
ATOM     30  C   UNL A   1      33.621  19.079  24.351  1.00  0.00     0.160 A 
BRANCH  29  31
ATOM     31  O   UNL A   1      35.970  19.158  24.778  1.00  0.00    -0.493 OA
ATOM     32  C   UNL A   1      37.128  19.953  25.000  1.00  0.00     0.278 C 
ENDBRANCH  29  31
BRANCH  30  33
ATOM     33  O   UNL A   1      33.564  17.842  23.764  1.00  0.00    -0.493 OA
ATOM     34  C   UNL A   1      32.898  16.796  24.451  1.00  0.00     0.278 C 
ENDBRANCH  30  33
ENDBRANCH  14  25
BRANCH  15  35
ATOM     35  O   UNL A   1      29.681  23.267  27.524  1.00  0.00    -0.496 OA
ATOM     36  H   UNL A   1      29.374  22.384  27.583  1.00  0.00     0.294 HD
ENDBRANCH  15  35
ENDBRANCH   5   8
ENDBRANCH   3   4
ENDBRANCH   2   3
ENDBRANCH   1   2
BRANCH   1  37
ATOM     37  C   UNL A   1      33.078  30.068  26.353  1.00  0.00     0.002 C 
BRANCH  37  38
ATOM     38  C   UNL A   1      33.225  31.246  27.327  1.00  0.00     0.021 C 
BRANCH  38  39
ATOM     39  C   UNL A   1      34.592  31.460  27.952  1.00  0.00     0.116 C 
BRANCH  39  40
ATOM     40  N   UNL A   1      34.643  32.389  29.085  1.00  0.00    -0.352 N 
ATOM     41  C   UNL A   1      35.307  32.218  30.299  1.00  0.00     0.251 C 
ATOM     42  H   UNL A   1      34.150  33.235  28.976  1.00  0.00     0.163 HD
ATOM     43  O   UNL A   1      34.975  32.838  31.298  1.00  0.00    -0.269 OA
BRANCH  41  44
ATOM     44  C   UNL A   1      36.444  31.272  30.359  1.00  0.00     0.039 A 
ATOM     45  C   UNL A   1      36.304  29.880  30.373  1.00  0.00     0.014 A 
ATOM     46  C   UNL A   1      37.707  31.837  30.391  1.00  0.00     0.014 A 
ATOM     47  C   UNL A   1      37.459  29.090  30.366  1.00  0.00     0.010 A 
ATOM     48  C   UNL A   1      38.794  31.083  30.071  1.00  0.00     0.010 A 
ATOM     49  C   UNL A   1      38.708  29.712  30.213  1.00  0.00    -0.014 A 
BRANCH  49  50
ATOM     50  C   UNL A   1      39.974  28.993  30.167  1.00  0.00     0.031 A 
ATOM     51  C   UNL A   1      40.634  28.815  31.481  1.00  0.00     0.074 A 
ATOM     52  C   UNL A   1      40.379  28.315  29.066  1.00  0.00     0.049 A 
ATOM     53  N   UNL A   1      41.735  29.350  31.891  1.00  0.00    -0.248 NA
ATOM     54  C   UNL A   1      39.919  28.055  32.515  1.00  0.00     0.031 C 
ATOM     55  C   UNL A   1      39.678  28.120  27.785  1.00  0.00     0.029 A 
ATOM     56  N   UNL A   1      41.495  27.557  28.895  1.00  0.00    -0.354 N 
ATOM     57  C   UNL A   1      41.964  28.823  33.159  1.00  0.00     0.074 A 
ATOM     58  C   UNL A   1      40.732  28.200  33.563  1.00  0.00     0.031 C 
ATOM     59  C   UNL A   1      40.267  27.131  27.078  1.00  0.00     0.029 A 
ATOM     60  C   UNL A   1      41.493  26.760  27.754  1.00  0.00     0.049 A 
ATOM     61  H   UNL A   1      42.248  27.571  29.530  1.00  0.00     0.167 HD
ATOM     62  C   UNL A   1      43.229  28.722  33.654  1.00  0.00     0.037 A 
ATOM     63  C   UNL A   1      42.438  25.859  27.389  1.00  0.00     0.037 A 
ATOM     64  C   UNL A   1      44.146  29.535  32.892  1.00  0.00     0.049 A 
ATOM     65  C   UNL A   1      43.672  26.203  28.134  1.00  0.00     0.074 A 
ATOM     66  C   UNL A   1      44.242  30.882  32.603  1.00  0.00     0.029 A 
ATOM     67  N   UNL A   1      44.935  28.900  31.962  1.00  0.00    -0.354 N 
ATOM     68  N   UNL A   1      44.352  27.299  27.936  1.00  0.00    -0.248 NA
ATOM     69  C   UNL A   1      43.871  25.568  29.427  1.00  0.00     0.031 C 
ATOM     70  C   UNL A   1      44.663  30.936  31.241  1.00  0.00     0.029 A 
ATOM     71  C   UNL A   1      44.871  29.627  30.801  1.00  0.00     0.049 A 
ATOM     72  H   UNL A   1      45.451  28.074  32.104  1.00  0.00     0.167 HD
ATOM     73  C   UNL A   1      44.721  27.721  29.205  1.00  0.00     0.074 A 
ATOM     74  C   UNL A   1      44.466  26.573  30.076  1.00  0.00     0.031 C 
ATOM     75  C   UNL A   1      44.919  29.045  29.480  1.00  0.00     0.037 A 
BRANCH  62  76
ATOM     76  C   UNL A   1      43.711  27.611  34.556  1.00  0.00     0.057 A 
ATOM     77  C   UNL A   1      44.227  27.941  35.823  1.00  0.00     0.134 A 
ATOM     78  C   UNL A   1      43.968  26.290  34.134  1.00  0.00     0.134 A 
ATOM     79  F   UNL A   1      44.055  29.168  36.339  1.00  0.00    -0.206 F 
ATOM     80  C   UNL A   1      45.016  27.056  36.568  1.00  0.00     0.040 A 
ATOM     81  C   UNL A   1      44.710  25.381  34.895  1.00  0.00     0.040 A 
ATOM     82  F   UNL A   1      43.611  25.834  32.928  1.00  0.00    -0.206 F 
ATOM     83  C   UNL A   1      45.268  25.774  36.099  1.00  0.00     0.006 A 
ENDBRANCH  62  76
BRANCH  63  84
ATOM     84  C   UNL A   1      42.270  24.575  26.672  1.00  0.00     0.057 A 
ATOM     85  C   UNL A   1      43.015  24.273  25.523  1.00  0.00     0.134 A 
ATOM     86  C   UNL A   1      41.578  23.500  27.259  1.00  0.00     0.134 A 
ATOM     87  F   UNL A   1      43.743  25.222  24.917  1.00  0.00    -0.206 F 
ATOM     88  C   UNL A   1      43.086  22.973  25.001  1.00  0.00     0.040 A 
ATOM     89  C   UNL A   1      41.638  22.200  26.746  1.00  0.00     0.040 A 
ATOM     90  F   UNL A   1      40.896  23.662  28.403  1.00  0.00    -0.206 F 
ATOM     91  C   UNL A   1      42.405  21.930  25.620  1.00  0.00     0.006 A 
ENDBRANCH  63  84
BRANCH  75  92
ATOM     92  C   UNL A   1      44.952  30.008  28.322  1.00  0.00     0.057 A 
ATOM     93  C   UNL A   1      43.833  30.714  27.853  1.00  0.00     0.134 A 
ATOM     94  C   UNL A   1      46.190  30.366  27.780  1.00  0.00     0.134 A 
ATOM     95  F   UNL A   1      42.617  30.510  28.370  1.00  0.00    -0.206 F 
ATOM     96  C   UNL A   1      43.938  31.705  26.871  1.00  0.00     0.040 A 
ATOM     97  C   UNL A   1      46.314  31.375  26.822  1.00  0.00     0.040 A 
ATOM     98  F   UNL A   1      47.313  29.774  28.218  1.00  0.00    -0.206 F 
ATOM     99  C   UNL A   1      45.185  32.045  26.359  1.00  0.00     0.006 A 
ENDBRANCH  75  92
ENDBRANCH  49  50
ENDBRANCH  41  44
ENDBRANCH  39  40
ENDBRANCH  38  39
ENDBRANCH  37  38
ENDBRANCH   1  37
TORSDOF 19
ENDMDL
MODEL 2
REMARK VINA RESULT:     -12.0      2.569      8.280
REMARK SMILES COc1ccc(-c2c(C(=O)NCCCCCCNC(=O)c3ccc(-c4c5nc(c(-c6c(F)cccc6F)c6ccc([nH]6)c(-c6c(F)cccc6F)c6nc(c(-c7c(F)cccc7F)c7ccc4[nH]7)C=C6)C=C5)cc3)sc3c2N=C(O)C[C@H]3c2ccc(OC)c(OC)c2)cc1
REMARK SMILES IDX 14 1 13 2 12 3 11 4 9 5 10 6 8 8 7 9 77 10 75 11 76 12 78 13
REMARK SMILES IDX 82 14 79 15 81 16 6 17 3 18 4 19 94 20 5 21 93 22 2 23 1 24
REMARK SMILES IDX 83 25 84 26 92 27 85 28 89 29 86 30 90 31 91 32 87 33 88 34
REMARK SMILES IDX 80 35 15 37 16 38 17 39 18 40 19 41 20 43 21 44 22 45 74 46
REMARK SMILES IDX 23 47 73 48 24 49 25 50 26 51 67 52 27 53 72 54 66 55 68 56
REMARK SMILES IDX 28 57 71 58 65 59 64 60 29 62 55 63 38 64 54 65 39 66 42 67
REMARK SMILES IDX 53 68 69 69 40 70 41 71 52 73 70 74 43 75 30 76 31 77 36 78
REMARK SMILES IDX 32 79 33 80 35 81 37 82 34 83 56 84 57 85 62 86 58 87 59 88
REMARK SMILES IDX 61 89 63 90 60 91 44 92 45 93 50 94 46 95 47 96 49 97 51 98
REMARK SMILES IDX 48 99
REMARK H PARENT 11 7 80 36 18 42 68 61 42 72
REMARK Flexibility Score: inf
ROOT
ATOM      1  C   UNL A   1      36.535  22.546  25.718  1.00  0.00     0.002 C 
ENDROOT
BRANCH   1   2
ATOM      2  C   UNL A   1      36.180  22.236  24.267  1.00  0.00     0.021 C 
BRANCH   2   3
ATOM      3  C   UNL A   1      36.076  23.384  23.274  1.00  0.00     0.116 C 
BRANCH   3   4
ATOM      4  N   UNL A   1      35.254  23.235  22.110  1.00  0.00    -0.351 N 
ATOM      5  C   UNL A   1      33.888  23.421  21.969  1.00  0.00     0.262 C 
ATOM      6  O   UNL A   1      33.512  23.305  20.794  1.00  0.00    -0.268 OA
ATOM      7  H   UNL A   1      35.728  22.960  21.291  1.00  0.00     0.163 HD
BRANCH   5   8
ATOM      8  C   UNL A   1      32.931  23.684  23.071  1.00  0.00     0.102 A 
ATOM      9  C   UNL A   1      32.397  23.018  24.184  1.00  0.00     0.031 A 
ATOM     10  C   UNL A   1      31.455  23.821  24.900  1.00  0.00     0.090 A 
ATOM     11  S   UNL A   1      32.234  25.308  23.014  1.00  0.00    -0.131 S 
ATOM     12  C   UNL A   1      31.275  25.065  24.386  1.00  0.00     0.040 A 
ATOM     13  N   UNL A   1      30.784  23.347  26.037  1.00  0.00    -0.216 NA
ATOM     14  C   UNL A   1      30.362  26.083  24.978  1.00  0.00     0.071 C 
ATOM     15  C   UNL A   1      29.837  24.098  26.479  1.00  0.00     0.186 C 
ATOM     16  C   UNL A   1      29.343  25.404  25.912  1.00  0.00     0.111 C 
BRANCH   9  17
ATOM     17  C   UNL A   1      32.600  21.637  24.576  1.00  0.00    -0.014 A 
ATOM     18  C   UNL A   1      32.930  19.034  25.526  1.00  0.00     0.118 A 
ATOM     19  C   UNL A   1      32.535  19.261  24.202  1.00  0.00     0.047 A 
ATOM     20  C   UNL A   1      33.262  20.111  26.344  1.00  0.00     0.047 A 
ATOM     21  C   UNL A   1      32.369  20.564  23.718  1.00  0.00     0.012 A 
ATOM     22  C   UNL A   1      33.106  21.405  25.868  1.00  0.00     0.012 A 
BRANCH  18  23
ATOM     23  O   UNL A   1      32.950  17.727  25.931  1.00  0.00    -0.497 OA
ATOM     24  C   UNL A   1      32.187  16.840  25.113  1.00  0.00     0.278 C 
ENDBRANCH  18  23
ENDBRANCH   9  17
BRANCH  14  25
ATOM     25  C   UNL A   1      31.117  27.181  25.709  1.00  0.00    -0.035 A 
ATOM     26  C   UNL A   1      31.804  26.940  26.902  1.00  0.00     0.008 A 
ATOM     27  C   UNL A   1      31.117  28.482  25.179  1.00  0.00     0.054 A 
ATOM     28  C   UNL A   1      32.473  27.981  27.542  1.00  0.00     0.051 A 
ATOM     29  C   UNL A   1      31.779  29.541  25.818  1.00  0.00     0.161 A 
ATOM     30  C   UNL A   1      32.472  29.280  27.014  1.00  0.00     0.160 A 
BRANCH  29  31
ATOM     31  O   UNL A   1      31.760  30.822  25.334  1.00  0.00    -0.493 OA
ATOM     32  C   UNL A   1      31.119  31.826  26.110  1.00  0.00     0.278 C 
ENDBRANCH  29  31
BRANCH  30  33
ATOM     33  O   UNL A   1      33.174  30.152  27.804  1.00  0.00    -0.493 OA
ATOM     34  C   UNL A   1      34.479  30.533  27.400  1.00  0.00     0.278 C 
ENDBRANCH  30  33
ENDBRANCH  14  25
BRANCH  15  35
ATOM     35  O   UNL A   1      29.131  23.654  27.539  1.00  0.00    -0.496 OA
ATOM     36  H   UNL A   1      28.289  23.263  27.411  1.00  0.00     0.294 HD
ENDBRANCH  15  35
ENDBRANCH   5   8
ENDBRANCH   3   4
ENDBRANCH   2   3
ENDBRANCH   1   2
BRANCH   1  37
ATOM     37  C   UNL A   1      37.965  22.987  26.077  1.00  0.00     0.002 C 
BRANCH  37  38
ATOM     38  C   UNL A   1      39.099  21.955  26.146  1.00  0.00     0.021 C 
BRANCH  38  39
ATOM     39  C   UNL A   1      40.334  22.335  26.943  1.00  0.00     0.116 C 
BRANCH  39  40
ATOM     40  N   UNL A   1      41.607  22.288  26.219  1.00  0.00    -0.352 N 
ATOM     41  C   UNL A   1      42.317  23.357  25.673  1.00  0.00     0.251 C 
ATOM     42  H   UNL A   1      42.010  21.397  26.104  1.00  0.00     0.163 HD
ATOM     43  O   UNL A   1      43.127  23.189  24.773  1.00  0.00    -0.269 OA
BRANCH  41  44
ATOM     44  C   UNL A   1      42.083  24.715  26.213  1.00  0.00     0.039 A 
ATOM     45  C   UNL A   1      41.087  25.582  25.749  1.00  0.00     0.014 A 
ATOM     46  C   UNL A   1      42.913  25.112  27.247  1.00  0.00     0.014 A 
ATOM     47  C   UNL A   1      40.924  26.817  26.385  1.00  0.00     0.010 A 
ATOM     48  C   UNL A   1      42.550  26.153  28.045  1.00  0.00     0.010 A 
ATOM     49  C   UNL A   1      41.669  27.090  27.543  1.00  0.00    -0.014 A 
BRANCH  49  50
ATOM     50  C   UNL A   1      41.566  28.329  28.302  1.00  0.00     0.031 A 
ATOM     51  C   UNL A   1      42.686  29.277  28.097  1.00  0.00     0.074 A 
ATOM     52  C   UNL A   1      40.423  28.697  28.930  1.00  0.00     0.049 A 
ATOM     53  N   UNL A   1      43.589  29.629  28.949  1.00  0.00    -0.248 NA
ATOM     54  C   UNL A   1      42.909  29.799  26.741  1.00  0.00     0.031 C 
ATOM     55  C   UNL A   1      39.114  28.019  28.951  1.00  0.00     0.029 A 
ATOM     56  N   UNL A   1      40.160  29.839  29.620  1.00  0.00    -0.354 N 
ATOM     57  C   UNL A   1      44.369  30.584  28.303  1.00  0.00     0.074 A 
ATOM     58  C   UNL A   1      44.033  30.499  26.907  1.00  0.00     0.031 C 
ATOM     59  C   UNL A   1      38.163  28.859  29.413  1.00  0.00     0.029 A 
ATOM     60  C   UNL A   1      38.815  30.056  29.904  1.00  0.00     0.049 A 
ATOM     61  H   UNL A   1      40.868  30.466  29.898  1.00  0.00     0.167 HD
ATOM     62  C   UNL A   1      45.035  31.537  29.012  1.00  0.00     0.037 A 
ATOM     63  C   UNL A   1      38.275  31.145  30.506  1.00  0.00     0.037 A 
ATOM     64  C   UNL A   1      45.109  31.181  30.409  1.00  0.00     0.049 A 
ATOM     65  C   UNL A   1      39.375  31.829  31.226  1.00  0.00     0.074 A 
ATOM     66  C   UNL A   1      45.641  30.119  31.115  1.00  0.00     0.029 A 
ATOM     67  N   UNL A   1      44.225  31.790  31.267  1.00  0.00    -0.354 N 
ATOM     68  N   UNL A   1      39.992  31.315  32.255  1.00  0.00    -0.248 NA
ATOM     69  C   UNL A   1      40.109  32.856  30.504  1.00  0.00     0.031 C 
ATOM     70  C   UNL A   1      44.694  29.856  32.149  1.00  0.00     0.029 A 
ATOM     71  C   UNL A   1      43.682  30.813  32.062  1.00  0.00     0.049 A 
ATOM     72  H   UNL A   1      44.020  32.752  31.305  1.00  0.00     0.167 HD
ATOM     73  C   UNL A   1      41.330  31.631  32.059  1.00  0.00     0.074 A 
ATOM     74  C   UNL A   1      41.329  32.649  31.009  1.00  0.00     0.031 C 
ATOM     75  C   UNL A   1      42.323  30.835  32.554  1.00  0.00     0.037 A 
BRANCH  62  76
ATOM     76  C   UNL A   1      45.270  32.951  28.539  1.00  0.00     0.057 A 
ATOM     77  C   UNL A   1      46.588  33.445  28.501  1.00  0.00     0.134 A 
ATOM     78  C   UNL A   1      44.264  33.930  28.407  1.00  0.00     0.134 A 
ATOM     79  F   UNL A   1      47.637  32.616  28.619  1.00  0.00    -0.206 F 
ATOM     80  C   UNL A   1      46.877  34.813  28.433  1.00  0.00     0.040 A 
ATOM     81  C   UNL A   1      44.544  35.295  28.285  1.00  0.00     0.040 A 
ATOM     82  F   UNL A   1      42.959  33.643  28.493  1.00  0.00    -0.206 F 
ATOM     83  C   UNL A   1      45.852  35.744  28.335  1.00  0.00     0.006 A 
ENDBRANCH  62  76
BRANCH  63  84
ATOM     84  C   UNL A   1      36.958  31.778  30.271  1.00  0.00     0.057 A 
ATOM     85  C   UNL A   1      35.916  31.670  31.203  1.00  0.00     0.134 A 
ATOM     86  C   UNL A   1      36.785  32.740  29.259  1.00  0.00     0.134 A 
ATOM     87  F   UNL A   1      36.008  30.813  32.229  1.00  0.00    -0.206 F 
ATOM     88  C   UNL A   1      34.776  32.486  31.144  1.00  0.00     0.040 A 
ATOM     89  C   UNL A   1      35.652  33.558  29.188  1.00  0.00     0.040 A 
ATOM     90  F   UNL A   1      37.753  32.978  28.362  1.00  0.00    -0.206 F 
ATOM     91  C   UNL A   1      34.648  33.442  30.141  1.00  0.00     0.006 A 
ENDBRANCH  63  84
BRANCH  75  92
ATOM     92  C   UNL A   1      41.937  29.735  33.508  1.00  0.00     0.057 A 
ATOM     93  C   UNL A   1      41.699  28.406  33.123  1.00  0.00     0.134 A 
ATOM     94  C   UNL A   1      41.980  29.991  34.881  1.00  0.00     0.134 A 
ATOM     95  F   UNL A   1      41.726  28.040  31.837  1.00  0.00    -0.206 F 
ATOM     96  C   UNL A   1      41.486  27.388  34.059  1.00  0.00     0.040 A 
ATOM     97  C   UNL A   1      41.800  28.979  35.828  1.00  0.00     0.040 A 
ATOM     98  F   UNL A   1      42.257  31.227  35.328  1.00  0.00    -0.206 F 
ATOM     99  C   UNL A   1      41.545  27.673  35.419  1.00  0.00     0.006 A 
ENDBRANCH  75  92
ENDBRANCH  49  50
ENDBRANCH  41  44
ENDBRANCH  39  40
ENDBRANCH  38  39
ENDBRANCH  37  38
ENDBRANCH   1  37
TORSDOF 19
ENDMDL
MODEL 3
REMARK VINA RESULT:     -11.8      2.832      8.540
REMARK SMILES COc1ccc(-c2c(C(=O)NCCCCCCNC(=O)c3ccc(-c4c5nc(c(-c6c(F)cccc6F)c6ccc([nH]6)c(-c6c(F)cccc6F)c6nc(c(-c7c(F)cccc7F)c7ccc4[nH]7)C=C6)C=C5)cc3)sc3c2N=C(O)C[C@H]3c2ccc(OC)c(OC)c2)cc1
REMARK SMILES IDX 14 1 13 2 12 3 11 4 9 5 10 6 8 8 7 9 77 10 75 11 76 12 78 13
REMARK SMILES IDX 82 14 79 15 81 16 6 17 3 18 4 19 94 20 5 21 93 22 2 23 1 24
REMARK SMILES IDX 83 25 84 26 92 27 85 28 89 29 86 30 90 31 91 32 87 33 88 34
REMARK SMILES IDX 80 35 15 37 16 38 17 39 18 40 19 41 20 43 21 44 22 45 74 46
REMARK SMILES IDX 23 47 73 48 24 49 25 50 26 51 67 52 27 53 72 54 66 55 68 56
REMARK SMILES IDX 28 57 71 58 65 59 64 60 29 62 55 63 38 64 54 65 39 66 42 67
REMARK SMILES IDX 53 68 69 69 40 70 41 71 52 73 70 74 43 75 30 76 31 77 36 78
REMARK SMILES IDX 32 79 33 80 35 81 37 82 34 83 56 84 57 85 62 86 58 87 59 88
REMARK SMILES IDX 61 89 63 90 60 91 44 92 45 93 50 94 46 95 47 96 49 97 51 98
REMARK SMILES IDX 48 99
REMARK H PARENT 11 7 80 36 18 42 68 61 42 72
REMARK Flexibility Score: inf
ROOT
ATOM      1  C   UNL A   1      39.554  24.979  27.370  1.00  0.00     0.002 C 
ENDROOT
BRANCH   1   2
ATOM      2  C   UNL A   1      38.339  24.077  27.168  1.00  0.00     0.021 C 
BRANCH   2   3
ATOM      3  C   UNL A   1      37.876  23.774  25.751  1.00  0.00     0.116 C 
BRANCH   3   4
ATOM      4  N   UNL A   1      37.775  22.412  25.320  1.00  0.00    -0.351 N 
ATOM      5  C   UNL A   1      36.751  21.781  24.630  1.00  0.00     0.262 C 
ATOM      6  O   UNL A   1      37.032  20.614  24.326  1.00  0.00    -0.268 OA
ATOM      7  H   UNL A   1      38.544  21.840  25.547  1.00  0.00     0.163 HD
BRANCH   5   8
ATOM      8  C   UNL A   1      35.430  22.375  24.307  1.00  0.00     0.102 A 
ATOM      9  C   UNL A   1      34.078  22.002  24.311  1.00  0.00     0.031 A 
ATOM     10  C   UNL A   1      33.222  23.052  23.853  1.00  0.00     0.090 A 
ATOM     11  S   UNL A   1      35.538  24.051  23.755  1.00  0.00    -0.131 S 
ATOM     12  C   UNL A   1      33.869  24.199  23.526  1.00  0.00     0.040 A 
ATOM     13  N   UNL A   1      31.832  22.890  23.759  1.00  0.00    -0.216 NA
ATOM     14  C   UNL A   1      33.180  25.432  23.048  1.00  0.00     0.071 C 
ATOM     15  C   UNL A   1      31.199  23.842  23.166  1.00  0.00     0.186 C 
ATOM     16  C   UNL A   1      31.768  25.089  22.540  1.00  0.00     0.111 C 
BRANCH   9  17
ATOM     17  C   UNL A   1      33.516  20.696  24.595  1.00  0.00    -0.014 A 
ATOM     18  C   UNL A   1      32.516  18.116  24.959  1.00  0.00     0.118 A 
ATOM     19  C   UNL A   1      32.904  18.889  26.062  1.00  0.00     0.047 A 
ATOM     20  C   UNL A   1      32.530  18.674  23.683  1.00  0.00     0.047 A 
ATOM     21  C   UNL A   1      33.405  20.184  25.887  1.00  0.00     0.012 A 
ATOM     22  C   UNL A   1      33.019  19.960  23.505  1.00  0.00     0.012 A 
BRANCH  18  23
ATOM     23  O   UNL A   1      32.151  16.826  25.230  1.00  0.00    -0.497 OA
ATOM     24  C   UNL A   1      33.231  15.965  25.586  1.00  0.00     0.278 C 
ENDBRANCH  18  23
ENDBRANCH   9  17
BRANCH  14  25
ATOM     25  C   UNL A   1      33.123  26.512  24.116  1.00  0.00    -0.035 A 
ATOM     26  C   UNL A   1      34.018  26.541  25.189  1.00  0.00     0.008 A 
ATOM     27  C   UNL A   1      32.135  27.507  24.031  1.00  0.00     0.054 A 
ATOM     28  C   UNL A   1      33.918  27.545  26.149  1.00  0.00     0.051 A 
ATOM     29  C   UNL A   1      32.018  28.519  24.996  1.00  0.00     0.161 A 
ATOM     30  C   UNL A   1      32.931  28.538  26.066  1.00  0.00     0.160 A 
BRANCH  29  31
ATOM     31  O   UNL A   1      31.040  29.475  24.948  1.00  0.00    -0.493 OA
ATOM     32  C   UNL A   1      30.277  29.598  23.755  1.00  0.00     0.278 C 
ENDBRANCH  29  31
BRANCH  30  33
ATOM     33  O   UNL A   1      33.001  29.416  27.116  1.00  0.00    -0.493 OA
ATOM     34  C   UNL A   1      34.163  30.218  27.252  1.00  0.00     0.278 C 
ENDBRANCH  30  33
ENDBRANCH  14  25
BRANCH  15  35
ATOM     35  O   UNL A   1      29.867  23.702  23.007  1.00  0.00    -0.496 OA
ATOM     36  H   UNL A   1      29.392  24.312  22.477  1.00  0.00     0.294 HD
ENDBRANCH  15  35
ENDBRANCH   5   8
ENDBRANCH   3   4
ENDBRANCH   2   3
ENDBRANCH   1   2
BRANCH   1  37
ATOM     37  C   UNL A   1      40.829  24.409  28.014  1.00  0.00     0.002 C 
BRANCH  37  38
ATOM     38  C   UNL A   1      41.522  23.182  27.405  1.00  0.00     0.021 C 
BRANCH  38  39
ATOM     39  C   UNL A   1      43.024  23.071  27.591  1.00  0.00     0.116 C 
BRANCH  39  40
ATOM     40  N   UNL A   1      43.839  23.284  26.391  1.00  0.00    -0.352 N 
ATOM     41  C   UNL A   1      43.865  24.409  25.566  1.00  0.00     0.251 C 
ATOM     42  H   UNL A   1      44.440  22.547  26.137  1.00  0.00     0.163 HD
ATOM     43  O   UNL A   1      44.256  24.341  24.411  1.00  0.00    -0.269 OA
BRANCH  41  44
ATOM     44  C   UNL A   1      43.417  25.706  26.121  1.00  0.00     0.039 A 
ATOM     45  C   UNL A   1      42.396  26.485  25.564  1.00  0.00     0.014 A 
ATOM     46  C   UNL A   1      44.064  26.136  27.267  1.00  0.00     0.014 A 
ATOM     47  C   UNL A   1      42.020  27.663  26.218  1.00  0.00     0.010 A 
ATOM     48  C   UNL A   1      43.493  27.093  28.048  1.00  0.00     0.010 A 
ATOM     49  C   UNL A   1      42.583  27.955  27.471  1.00  0.00    -0.014 A 
BRANCH  49  50
ATOM     50  C   UNL A   1      42.251  29.138  28.256  1.00  0.00     0.031 A 
ATOM     51  C   UNL A   1      43.244  30.234  28.177  1.00  0.00     0.074 A 
ATOM     52  C   UNL A   1      41.020  29.325  28.792  1.00  0.00     0.049 A 
ATOM     53  N   UNL A   1      44.018  30.666  29.114  1.00  0.00    -0.248 NA
ATOM     54  C   UNL A   1      43.505  30.835  26.861  1.00  0.00     0.031 C 
ATOM     55  C   UNL A   1      39.819  28.479  28.679  1.00  0.00     0.029 A 
ATOM     56  N   UNL A   1      40.550  30.393  29.491  1.00  0.00    -0.354 N 
ATOM     57  C   UNL A   1      44.712  31.742  28.567  1.00  0.00     0.074 A 
ATOM     58  C   UNL A   1      44.506  31.671  27.145  1.00  0.00     0.031 C 
ATOM     59  C   UNL A   1      38.728  29.166  29.083  1.00  0.00     0.029 A 
ATOM     60  C   UNL A   1      39.169  30.418  29.663  1.00  0.00     0.049 A 
ATOM     61  H   UNL A   1      41.141  31.096  29.847  1.00  0.00     0.167 HD
ATOM     62  C   UNL A   1      45.182  32.745  29.359  1.00  0.00     0.037 A 
ATOM     63  C   UNL A   1      38.439  31.399  30.248  1.00  0.00     0.037 A 
ATOM     64  C   UNL A   1      45.189  32.345  30.746  1.00  0.00     0.049 A 
ATOM     65  C   UNL A   1      39.373  32.193  31.081  1.00  0.00     0.074 A 
ATOM     66  C   UNL A   1      45.800  31.335  31.463  1.00  0.00     0.029 A 
ATOM     67  N   UNL A   1      44.164  32.796  31.542  1.00  0.00    -0.354 N 
ATOM     68  N   UNL A   1      39.967  31.724  32.143  1.00  0.00    -0.248 NA
ATOM     69  C   UNL A   1      40.018  33.337  30.456  1.00  0.00     0.031 C 
ATOM     70  C   UNL A   1      44.817  30.906  32.403  1.00  0.00     0.029 A 
ATOM     71  C   UNL A   1      43.695  31.724  32.257  1.00  0.00     0.049 A 
ATOM     72  H   UNL A   1      43.827  33.720  31.589  1.00  0.00     0.167 HD
ATOM     73  C   UNL A   1      41.261  32.222  32.074  1.00  0.00     0.074 A 
ATOM     74  C   UNL A   1      41.209  33.273  31.058  1.00  0.00     0.031 C 
ATOM     75  C   UNL A   1      42.310  31.545  32.629  1.00  0.00     0.037 A 
BRANCH  62  76
ATOM     76  C   UNL A   1      45.261  34.197  28.950  1.00  0.00     0.057 A 
ATOM     77  C   UNL A   1      44.097  34.834  28.479  1.00  0.00     0.134 A 
ATOM     78  C   UNL A   1      46.460  34.900  28.717  1.00  0.00     0.134 A 
ATOM     79  F   UNL A   1      42.891  34.267  28.636  1.00  0.00    -0.206 F 
ATOM     80  C   UNL A   1      44.136  36.029  27.752  1.00  0.00     0.040 A 
ATOM     81  C   UNL A   1      46.504  36.121  28.037  1.00  0.00     0.040 A 
ATOM     82  F   UNL A   1      47.663  34.406  29.035  1.00  0.00    -0.206 F 
ATOM     83  C   UNL A   1      45.344  36.672  27.519  1.00  0.00     0.006 A 
ENDBRANCH  62  76
BRANCH  63  84
ATOM     84  C   UNL A   1      37.072  31.861  29.919  1.00  0.00     0.057 A 
ATOM     85  C   UNL A   1      35.998  31.659  30.797  1.00  0.00     0.134 A 
ATOM     86  C   UNL A   1      36.845  32.762  28.862  1.00  0.00     0.134 A 
ATOM     87  F   UNL A   1      36.132  30.853  31.859  1.00  0.00    -0.206 F 
ATOM     88  C   UNL A   1      34.775  32.329  30.646  1.00  0.00     0.040 A 
ATOM     89  C   UNL A   1      35.629  33.435  28.699  1.00  0.00     0.040 A 
ATOM     90  F   UNL A   1      37.827  33.086  28.009  1.00  0.00    -0.206 F 
ATOM     91  C   UNL A   1      34.592  33.229  29.600  1.00  0.00     0.006 A 
ENDBRANCH  63  84
BRANCH  75  92
ATOM     92  C   UNL A   1      41.999  30.365  33.513  1.00  0.00     0.057 A 
ATOM     93  C   UNL A   1      41.925  29.039  33.059  1.00  0.00     0.134 A 
ATOM     94  C   UNL A   1      41.949  30.557  34.897  1.00  0.00     0.134 A 
ATOM     95  F   UNL A   1      42.053  28.741  31.762  1.00  0.00    -0.206 F 
ATOM     96  C   UNL A   1      41.778  27.960  33.938  1.00  0.00     0.040 A 
ATOM     97  C   UNL A   1      41.834  29.487  35.788  1.00  0.00     0.040 A 
ATOM     98  F   UNL A   1      42.068  31.792  35.411  1.00  0.00    -0.206 F 
ATOM     99  C   UNL A   1      41.741  28.183  35.310  1.00  0.00     0.006 A 
ENDBRANCH  75  92
ENDBRANCH  49  50
ENDBRANCH  41  44
ENDBRANCH  39  40
ENDBRANCH  38  39
ENDBRANCH  37  38
ENDBRANCH   1  37
TORSDOF 19
ENDMDL
