MODEL 1
REMARK VINA RESULT:     -10.7      0.000      0.000
REMARK SMILES C[C@H](O)C[C@@H](Cc1cccc(Br)c1)C(=O)NCCCCCCNC(=O)c1ccc(-c2c3nc(c(-c4c(F)cccc4F)c4ccc([nH]4)c(-c4c(F)cccc4F)c4nc(c(-c5c(F)cccc5F)c5ccc2[nH]5)C=C4)C=C3)cc1
REMARK SMILES IDX 19 1 18 2 17 3 16 4 14 5 15 6 5 8 4 9 2 10 1 11 3 12 6 14
REMARK SMILES IDX 7 15 8 16 13 17 9 18 11 19 10 20 12 21 20 22 21 23 22 24
REMARK SMILES IDX 23 25 24 26 25 28 26 29 27 30 79 31 28 32 78 33 29 34 30 35
REMARK SMILES IDX 31 36 72 37 32 38 77 39 71 40 73 41 33 42 76 43 70 44 69 45
REMARK SMILES IDX 34 47 60 48 43 49 59 50 44 51 47 52 58 53 74 54 45 55 46 56
REMARK SMILES IDX 57 58 75 59 48 60 35 61 36 62 41 63 37 64 38 65 40 66 42 67
REMARK SMILES IDX 39 68 61 69 62 70 67 71 63 72 64 73 66 74 68 75 65 76 49 77
REMARK SMILES IDX 50 78 55 79 51 80 52 81 54 82 56 83 53 84
REMARK H PARENT 16 7 3 13 23 27 73 46 47 57
REMARK Flexibility Score: inf
ROOT
ATOM      1  C   UNL A   1      37.036  21.870  24.487  1.00  0.00     0.002 C 
ENDROOT
BRANCH   1   2
ATOM      2  C   UNL A   1      36.366  22.554  23.295  1.00  0.00     0.021 C 
BRANCH   2   3
ATOM      3  C   UNL A   1      35.260  23.541  23.644  1.00  0.00     0.116 C 
BRANCH   3   4
ATOM      4  N   UNL A   1      33.982  23.244  23.045  1.00  0.00    -0.356 N 
ATOM      5  C   UNL A   1      32.866  22.705  23.606  1.00  0.00     0.223 C 
ATOM      6  O   UNL A   1      31.828  22.746  22.937  1.00  0.00    -0.275 OA
ATOM      7  H   UNL A   1      33.906  23.465  22.088  1.00  0.00     0.163 HD
BRANCH   5   8
ATOM      8  C   UNL A   1      32.847  22.047  24.995  1.00  0.00     0.085 C 
BRANCH   8   9
ATOM      9  C   UNL A   1      32.660  23.065  26.135  1.00  0.00     0.045 C 
BRANCH   9  10
ATOM     10  C   UNL A   1      33.362  22.693  27.448  1.00  0.00     0.112 C 
ATOM     11  C   UNL A   1      34.498  21.711  27.186  1.00  0.00     0.038 C 
BRANCH  10  12
ATOM     12  O   UNL A   1      32.443  22.074  28.338  1.00  0.00    -0.393 OA
ATOM     13  H   UNL A   1      31.789  21.569  27.829  1.00  0.00     0.210 HD
ENDBRANCH  10  12
ENDBRANCH   9  10
ENDBRANCH   8   9
BRANCH   8  14
ATOM     14  C   UNL A   1      32.072  20.706  25.052  1.00  0.00     0.049 C 
BRANCH  14  15
ATOM     15  C   UNL A   1      32.545  19.477  24.305  1.00  0.00    -0.046 A 
ATOM     16  C   UNL A   1      32.138  19.180  22.996  1.00  0.00     0.004 A 
ATOM     17  C   UNL A   1      33.385  18.556  24.956  1.00  0.00     0.019 A 
ATOM     18  C   UNL A   1      32.635  18.062  22.320  1.00  0.00     0.001 A 
ATOM     19  C   UNL A   1      33.850  17.420  24.289  1.00  0.00     0.018 A 
ATOM     20  C   UNL A   1      33.496  17.180  22.965  1.00  0.00     0.016 A 
ATOM     21  Br  UNL A   1      34.973  16.195  25.191  1.00  0.00    -0.051 Br
ENDBRANCH  14  15
ENDBRANCH   8  14
ENDBRANCH   5   8
ENDBRANCH   3   4
ENDBRANCH   2   3
ENDBRANCH   1   2
BRANCH   1  22
ATOM     22  C   UNL A   1      36.698  20.388  24.698  1.00  0.00     0.002 C 
BRANCH  22  23
ATOM     23  C   UNL A   1      37.882  19.435  24.890  1.00  0.00     0.021 C 
BRANCH  23  24
ATOM     24  C   UNL A   1      38.930  19.871  25.910  1.00  0.00     0.116 C 
BRANCH  24  25
ATOM     25  N   UNL A   1      40.166  19.116  25.800  1.00  0.00    -0.352 N 
ATOM     26  C   UNL A   1      41.469  19.506  25.983  1.00  0.00     0.251 C 
ATOM     27  H   UNL A   1      40.050  18.171  25.554  1.00  0.00     0.163 HD
ATOM     28  O   UNL A   1      42.377  18.736  25.683  1.00  0.00    -0.269 OA
BRANCH  26  29
ATOM     29  C   UNL A   1      41.799  20.846  26.520  1.00  0.00     0.039 A 
ATOM     30  C   UNL A   1      41.518  21.112  27.864  1.00  0.00     0.014 A 
ATOM     31  C   UNL A   1      42.326  21.855  25.710  1.00  0.00     0.014 A 
ATOM     32  C   UNL A   1      41.816  22.365  28.407  1.00  0.00     0.010 A 
ATOM     33  C   UNL A   1      42.683  23.084  26.267  1.00  0.00     0.010 A 
ATOM     34  C   UNL A   1      42.429  23.353  27.621  1.00  0.00    -0.014 A 
BRANCH  34  35
ATOM     35  C   UNL A   1      42.808  24.669  28.198  1.00  0.00     0.031 A 
ATOM     36  C   UNL A   1      41.760  25.717  28.460  1.00  0.00     0.074 A 
ATOM     37  C   UNL A   1      44.107  24.947  28.428  1.00  0.00     0.049 A 
ATOM     38  N   UNL A   1      41.907  26.946  28.886  1.00  0.00    -0.248 NA
ATOM     39  C   UNL A   1      40.364  25.343  28.181  1.00  0.00     0.031 C 
ATOM     40  C   UNL A   1      45.225  24.035  28.181  1.00  0.00     0.029 A 
ATOM     41  N   UNL A   1      44.707  26.084  28.911  1.00  0.00    -0.354 N 
ATOM     42  C   UNL A   1      40.632  27.497  28.904  1.00  0.00     0.074 A 
ATOM     43  C   UNL A   1      39.726  26.482  28.411  1.00  0.00     0.031 C 
ATOM     44  C   UNL A   1      46.373  24.641  28.528  1.00  0.00     0.029 A 
ATOM     45  C   UNL A   1      46.077  25.994  28.987  1.00  0.00     0.049 A 
ATOM     46  H   UNL A   1      44.204  26.887  29.177  1.00  0.00     0.167 HD
ATOM     47  C   UNL A   1      40.248  28.731  29.311  1.00  0.00     0.037 A 
ATOM     48  C   UNL A   1      46.992  26.904  29.373  1.00  0.00     0.037 A 
ATOM     49  C   UNL A   1      41.143  29.725  29.843  1.00  0.00     0.049 A 
ATOM     50  C   UNL A   1      46.537  28.264  29.823  1.00  0.00     0.074 A 
ATOM     51  C   UNL A   1      40.834  30.972  30.362  1.00  0.00     0.029 A 
ATOM     52  N   UNL A   1      42.520  29.588  29.923  1.00  0.00    -0.354 N 
ATOM     53  N   UNL A   1      45.319  28.743  29.909  1.00  0.00    -0.248 NA
ATOM     54  C   UNL A   1      47.583  29.211  30.235  1.00  0.00     0.031 C 
ATOM     55  C   UNL A   1      42.029  31.607  30.714  1.00  0.00     0.029 A 
ATOM     56  C   UNL A   1      43.077  30.738  30.458  1.00  0.00     0.049 A 
ATOM     57  H   UNL A   1      43.026  28.792  29.642  1.00  0.00     0.167 HD
ATOM     58  C   UNL A   1      45.450  30.029  30.413  1.00  0.00     0.074 A 
ATOM     59  C   UNL A   1      46.865  30.254  30.626  1.00  0.00     0.031 C 
ATOM     60  C   UNL A   1      44.485  30.943  30.678  1.00  0.00     0.037 A 
BRANCH  47  61
ATOM     61  C   UNL A   1      38.793  29.084  29.199  1.00  0.00     0.057 A 
ATOM     62  C   UNL A   1      37.943  29.078  30.312  1.00  0.00     0.134 A 
ATOM     63  C   UNL A   1      38.251  29.491  27.974  1.00  0.00     0.134 A 
ATOM     64  F   UNL A   1      38.398  28.690  31.514  1.00  0.00    -0.206 F 
ATOM     65  C   UNL A   1      36.601  29.447  30.207  1.00  0.00     0.040 A 
ATOM     66  C   UNL A   1      36.918  29.886  27.860  1.00  0.00     0.040 A 
ATOM     67  F   UNL A   1      39.013  29.526  26.870  1.00  0.00    -0.206 F 
ATOM     68  C   UNL A   1      36.087  29.860  28.979  1.00  0.00     0.006 A 
ENDBRANCH  47  61
BRANCH  48  69
ATOM     69  C   UNL A   1      48.437  26.560  29.365  1.00  0.00     0.057 A 
ATOM     70  C   UNL A   1      49.031  25.917  30.457  1.00  0.00     0.134 A 
ATOM     71  C   UNL A   1      49.263  26.891  28.284  1.00  0.00     0.134 A 
ATOM     72  F   UNL A   1      48.294  25.594  31.532  1.00  0.00    -0.206 F 
ATOM     73  C   UNL A   1      50.397  25.637  30.488  1.00  0.00     0.040 A 
ATOM     74  C   UNL A   1      50.627  26.594  28.290  1.00  0.00     0.040 A 
ATOM     75  F   UNL A   1      48.754  27.502  27.205  1.00  0.00    -0.206 F 
ATOM     76  C   UNL A   1      51.199  25.974  29.399  1.00  0.00     0.006 A 
ENDBRANCH  48  69
BRANCH  60  77
ATOM     77  C   UNL A   1      44.922  32.254  31.263  1.00  0.00     0.057 A 
ATOM     78  C   UNL A   1      45.208  33.365  30.460  1.00  0.00     0.134 A 
ATOM     79  C   UNL A   1      45.017  32.416  32.651  1.00  0.00     0.134 A 
ATOM     80  F   UNL A   1      45.149  33.270  29.123  1.00  0.00    -0.206 F 
ATOM     81  C   UNL A   1      45.595  34.585  31.016  1.00  0.00     0.040 A 
ATOM     82  C   UNL A   1      45.378  33.638  33.219  1.00  0.00     0.040 A 
ATOM     83  F   UNL A   1      44.748  31.394  33.477  1.00  0.00    -0.206 F 
ATOM     84  C   UNL A   1      45.674  34.725  32.401  1.00  0.00     0.006 A 
ENDBRANCH  60  77
ENDBRANCH  34  35
ENDBRANCH  26  29
ENDBRANCH  24  25
ENDBRANCH  23  24
ENDBRANCH  22  23
ENDBRANCH   1  22
TORSDOF 18
ENDMDL
MODEL 2
REMARK VINA RESULT:     -10.6      2.371      7.315
REMARK SMILES C[C@H](O)C[C@@H](Cc1cccc(Br)c1)C(=O)NCCCCCCNC(=O)c1ccc(-c2c3nc(c(-c4c(F)cccc4F)c4ccc([nH]4)c(-c4c(F)cccc4F)c4nc(c(-c5c(F)cccc5F)c5ccc2[nH]5)C=C4)C=C3)cc1
REMARK SMILES IDX 19 1 18 2 17 3 16 4 14 5 15 6 5 8 4 9 2 10 1 11 3 12 6 14
REMARK SMILES IDX 7 15 8 16 13 17 9 18 11 19 10 20 12 21 20 22 21 23 22 24
REMARK SMILES IDX 23 25 24 26 25 28 26 29 27 30 79 31 28 32 78 33 29 34 30 35
REMARK SMILES IDX 31 36 72 37 32 38 77 39 71 40 73 41 33 42 76 43 70 44 69 45
REMARK SMILES IDX 34 47 60 48 43 49 59 50 44 51 47 52 58 53 74 54 45 55 46 56
REMARK SMILES IDX 57 58 75 59 48 60 35 61 36 62 41 63 37 64 38 65 40 66 42 67
REMARK SMILES IDX 39 68 61 69 62 70 67 71 63 72 64 73 66 74 68 75 65 76 49 77
REMARK SMILES IDX 50 78 55 79 51 80 52 81 54 82 56 83 53 84
REMARK H PARENT 16 7 3 13 23 27 73 46 47 57
REMARK Flexibility Score: inf
ROOT
ATOM      1  C   UNL A   1      32.114  26.548  25.285  1.00  0.00     0.002 C 
ENDROOT
BRANCH   1   2
ATOM      2  C   UNL A   1      31.598  25.745  24.090  1.00  0.00     0.021 C 
BRANCH   2   3
ATOM      3  C   UNL A   1      30.888  24.442  24.435  1.00  0.00     0.116 C 
BRANCH   3   4
ATOM      4  N   UNL A   1      30.988  24.056  25.821  1.00  0.00    -0.356 N 
ATOM      5  C   UNL A   1      31.839  23.178  26.418  1.00  0.00     0.223 C 
ATOM      6  O   UNL A   1      31.869  23.179  27.653  1.00  0.00    -0.275 OA
ATOM      7  H   UNL A   1      30.345  24.493  26.426  1.00  0.00     0.163 HD
BRANCH   5   8
ATOM      8  C   UNL A   1      32.731  22.198  25.639  1.00  0.00     0.085 C 
BRANCH   8   9
ATOM      9  C   UNL A   1      31.944  21.011  25.054  1.00  0.00     0.045 C 
BRANCH   9  10
ATOM     10  C   UNL A   1      32.746  19.709  24.932  1.00  0.00     0.112 C 
ATOM     11  C   UNL A   1      32.620  19.133  23.526  1.00  0.00     0.038 C 
BRANCH  10  12
ATOM     12  O   UNL A   1      32.252  18.739  25.848  1.00  0.00    -0.393 OA
ATOM     13  H   UNL A   1      31.357  18.988  26.130  1.00  0.00     0.210 HD
ENDBRANCH  10  12
ENDBRANCH   9  10
ENDBRANCH   8   9
BRANCH   8  14
ATOM     14  C   UNL A   1      33.816  22.881  24.769  1.00  0.00     0.049 C 
BRANCH  14  15
ATOM     15  C   UNL A   1      35.287  22.807  25.119  1.00  0.00    -0.046 A 
ATOM     16  C   UNL A   1      36.021  23.921  25.554  1.00  0.00     0.004 A 
ATOM     17  C   UNL A   1      35.973  21.591  24.956  1.00  0.00     0.019 A 
ATOM     18  C   UNL A   1      37.366  23.804  25.917  1.00  0.00     0.001 A 
ATOM     19  C   UNL A   1      37.328  21.487  25.285  1.00  0.00     0.018 A 
ATOM     20  C   UNL A   1      38.022  22.584  25.786  1.00  0.00     0.016 A 
ATOM     21  Br  UNL A   1      38.227  19.842  25.048  1.00  0.00    -0.051 Br
ENDBRANCH  14  15
ENDBRANCH   8  14
ENDBRANCH   5   8
ENDBRANCH   3   4
ENDBRANCH   2   3
ENDBRANCH   1   2
BRANCH   1  22
ATOM     22  C   UNL A   1      33.579  26.998  25.219  1.00  0.00     0.002 C 
BRANCH  22  23
ATOM     23  C   UNL A   1      33.895  28.387  25.783  1.00  0.00     0.021 C 
BRANCH  23  24
ATOM     24  C   UNL A   1      33.690  28.559  27.286  1.00  0.00     0.116 C 
BRANCH  24  25
ATOM     25  N   UNL A   1      33.667  29.954  27.691  1.00  0.00    -0.352 N 
ATOM     26  C   UNL A   1      34.624  30.719  28.310  1.00  0.00     0.251 C 
ATOM     27  H   UNL A   1      32.828  30.427  27.491  1.00  0.00     0.163 HD
ATOM     28  O   UNL A   1      34.334  31.845  28.705  1.00  0.00    -0.269 OA
BRANCH  26  29
ATOM     29  C   UNL A   1      35.996  30.205  28.523  1.00  0.00     0.039 A 
ATOM     30  C   UNL A   1      36.901  30.260  27.457  1.00  0.00     0.014 A 
ATOM     31  C   UNL A   1      36.385  29.622  29.731  1.00  0.00     0.014 A 
ATOM     32  C   UNL A   1      38.205  29.785  27.620  1.00  0.00     0.010 A 
ATOM     33  C   UNL A   1      37.705  29.207  29.914  1.00  0.00     0.010 A 
ATOM     34  C   UNL A   1      38.628  29.281  28.859  1.00  0.00    -0.014 A 
BRANCH  34  35
ATOM     35  C   UNL A   1      40.028  28.828  29.068  1.00  0.00     0.031 A 
ATOM     36  C   UNL A   1      41.050  29.760  29.661  1.00  0.00     0.074 A 
ATOM     37  C   UNL A   1      40.398  27.597  28.662  1.00  0.00     0.049 A 
ATOM     38  N   UNL A   1      42.332  29.570  29.849  1.00  0.00    -0.248 NA
ATOM     39  C   UNL A   1      40.574  31.089  30.076  1.00  0.00     0.031 C 
ATOM     40  C   UNL A   1      39.515  26.610  28.036  1.00  0.00     0.029 A 
ATOM     41  N   UNL A   1      41.618  26.968  28.706  1.00  0.00    -0.354 N 
ATOM     42  C   UNL A   1      42.817  30.759  30.379  1.00  0.00     0.074 A 
ATOM     43  C   UNL A   1      41.702  31.677  30.450  1.00  0.00     0.031 C 
ATOM     44  C   UNL A   1      40.218  25.497  27.769  1.00  0.00     0.029 A 
ATOM     45  C   UNL A   1      41.606  25.703  28.171  1.00  0.00     0.049 A 
ATOM     46  H   UNL A   1      42.425  27.385  29.086  1.00  0.00     0.167 HD
ATOM     47  C   UNL A   1      44.076  31.053  30.786  1.00  0.00     0.037 A 
ATOM     48  C   UNL A   1      42.603  24.812  28.011  1.00  0.00     0.037 A 
ATOM     49  C   UNL A   1      45.177  30.125  30.757  1.00  0.00     0.049 A 
ATOM     50  C   UNL A   1      43.989  25.164  28.476  1.00  0.00     0.074 A 
ATOM     51  C   UNL A   1      46.466  30.305  31.228  1.00  0.00     0.029 A 
ATOM     52  N   UNL A   1      45.119  28.846  30.226  1.00  0.00    -0.354 N 
ATOM     53  N   UNL A   1      44.415  26.264  29.048  1.00  0.00    -0.248 NA
ATOM     54  C   UNL A   1      45.033  24.148  28.277  1.00  0.00     0.031 C 
ATOM     55  C   UNL A   1      47.201  29.149  30.942  1.00  0.00     0.029 A 
ATOM     56  C   UNL A   1      46.357  28.235  30.335  1.00  0.00     0.049 A 
ATOM     57  H   UNL A   1      44.317  28.433  29.831  1.00  0.00     0.167 HD
ATOM     58  C   UNL A   1      45.764  26.061  29.306  1.00  0.00     0.074 A 
ATOM     59  C   UNL A   1      46.085  24.728  28.839  1.00  0.00     0.031 C 
ATOM     60  C   UNL A   1      46.658  26.903  29.879  1.00  0.00     0.037 A 
BRANCH  47  61
ATOM     61  C   UNL A   1      44.339  32.438  31.301  1.00  0.00     0.057 A 
ATOM     62  C   UNL A   1      44.730  33.481  30.452  1.00  0.00     0.134 A 
ATOM     63  C   UNL A   1      44.141  32.744  32.653  1.00  0.00     0.134 A 
ATOM     64  F   UNL A   1      44.945  33.253  29.148  1.00  0.00    -0.206 F 
ATOM     65  C   UNL A   1      44.933  34.776  30.934  1.00  0.00     0.040 A 
ATOM     66  C   UNL A   1      44.317  34.039  33.142  1.00  0.00     0.040 A 
ATOM     67  F   UNL A   1      43.760  31.793  33.518  1.00  0.00    -0.206 F 
ATOM     68  C   UNL A   1      44.718  35.059  32.282  1.00  0.00     0.006 A 
ENDBRANCH  47  61
BRANCH  48  69
ATOM     69  C   UNL A   1      42.332  23.488  27.394  1.00  0.00     0.057 A 
ATOM     70  C   UNL A   1      41.972  22.386  28.178  1.00  0.00     0.134 A 
ATOM     71  C   UNL A   1      42.454  23.285  26.014  1.00  0.00     0.134 A 
ATOM     72  F   UNL A   1      41.860  22.515  29.509  1.00  0.00    -0.206 F 
ATOM     73  C   UNL A   1      41.768  21.125  27.619  1.00  0.00     0.040 A 
ATOM     74  C   UNL A   1      42.228  22.034  25.437  1.00  0.00     0.040 A 
ATOM     75  F   UNL A   1      42.790  24.302  25.206  1.00  0.00    -0.206 F 
ATOM     76  C   UNL A   1      41.893  20.948  26.243  1.00  0.00     0.006 A 
ENDBRANCH  48  69
BRANCH  60  77
ATOM     77  C   UNL A   1      48.056  26.394  30.070  1.00  0.00     0.057 A 
ATOM     78  C   UNL A   1      49.039  26.541  29.083  1.00  0.00     0.134 A 
ATOM     79  C   UNL A   1      48.434  25.785  31.274  1.00  0.00     0.134 A 
ATOM     80  F   UNL A   1      48.737  27.103  27.902  1.00  0.00    -0.206 F 
ATOM     81  C   UNL A   1      50.342  26.081  29.278  1.00  0.00     0.040 A 
ATOM     82  C   UNL A   1      49.740  25.344  31.490  1.00  0.00     0.040 A 
ATOM     83  F   UNL A   1      47.543  25.622  32.263  1.00  0.00    -0.206 F 
ATOM     84  C   UNL A   1      50.697  25.487  30.489  1.00  0.00     0.006 A 
ENDBRANCH  60  77
ENDBRANCH  34  35
ENDBRANCH  26  29
ENDBRANCH  24  25
ENDBRANCH  23  24
ENDBRANCH  22  23
ENDBRANCH   1  22
TORSDOF 18
ENDMDL
MODEL 3
REMARK VINA RESULT:     -10.5      2.104      3.499
REMARK SMILES C[C@H](O)C[C@@H](Cc1cccc(Br)c1)C(=O)NCCCCCCNC(=O)c1ccc(-c2c3nc(c(-c4c(F)cccc4F)c4ccc([nH]4)c(-c4c(F)cccc4F)c4nc(c(-c5c(F)cccc5F)c5ccc2[nH]5)C=C4)C=C3)cc1
REMARK SMILES IDX 19 1 18 2 17 3 16 4 14 5 15 6 5 8 4 9 2 10 1 11 3 12 6 14
REMARK SMILES IDX 7 15 8 16 13 17 9 18 11 19 10 20 12 21 20 22 21 23 22 24
REMARK SMILES IDX 23 25 24 26 25 28 26 29 27 30 79 31 28 32 78 33 29 34 30 35
REMARK SMILES IDX 31 36 72 37 32 38 77 39 71 40 73 41 33 42 76 43 70 44 69 45
REMARK SMILES IDX 34 47 60 48 43 49 59 50 44 51 47 52 58 53 74 54 45 55 46 56
REMARK SMILES IDX 57 58 75 59 48 60 35 61 36 62 41 63 37 64 38 65 40 66 42 67
REMARK SMILES IDX 39 68 61 69 62 70 67 71 63 72 64 73 66 74 68 75 65 76 49 77
REMARK SMILES IDX 50 78 55 79 51 80 52 81 54 82 56 83 53 84
REMARK H PARENT 16 7 3 13 23 27 73 46 47 57
REMARK Flexibility Score: inf
ROOT
ATOM      1  C   UNL A   1      35.980  21.081  25.392  1.00  0.00     0.002 C 
ENDROOT
BRANCH   1   2
ATOM      2  C   UNL A   1      34.680  20.813  24.634  1.00  0.00     0.021 C 
BRANCH   2   3
ATOM      3  C   UNL A   1      33.461  20.536  25.504  1.00  0.00     0.116 C 
BRANCH   3   4
ATOM      4  N   UNL A   1      33.546  21.070  26.841  1.00  0.00    -0.356 N 
ATOM      5  C   UNL A   1      33.154  22.283  27.316  1.00  0.00     0.223 C 
ATOM      6  O   UNL A   1      33.138  22.425  28.544  1.00  0.00    -0.275 OA
ATOM      7  H   UNL A   1      33.946  20.467  27.509  1.00  0.00     0.163 HD
BRANCH   5   8
ATOM      8  C   UNL A   1      32.759  23.462  26.413  1.00  0.00     0.085 C 
BRANCH   8   9
ATOM      9  C   UNL A   1      31.606  24.301  26.996  1.00  0.00     0.045 C 
BRANCH   9  10
ATOM     10  C   UNL A   1      30.308  24.261  26.180  1.00  0.00     0.112 C 
ATOM     11  C   UNL A   1      29.973  25.647  25.641  1.00  0.00     0.038 C 
BRANCH  10  12
ATOM     12  O   UNL A   1      29.225  23.836  26.998  1.00  0.00    -0.393 OA
ATOM     13  H   UNL A   1      28.657  24.595  27.202  1.00  0.00     0.210 HD
ENDBRANCH  10  12
ENDBRANCH   9  10
ENDBRANCH   8   9
BRANCH   8  14
ATOM     14  C   UNL A   1      33.959  24.189  25.757  1.00  0.00     0.049 C 
BRANCH  14  15
ATOM     15  C   UNL A   1      33.798  25.515  25.042  1.00  0.00    -0.046 A 
ATOM     16  C   UNL A   1      33.760  25.623  23.643  1.00  0.00     0.004 A 
ATOM     17  C   UNL A   1      33.738  26.700  25.795  1.00  0.00     0.019 A 
ATOM     18  C   UNL A   1      33.560  26.857  23.019  1.00  0.00     0.001 A 
ATOM     19  C   UNL A   1      33.575  27.937  25.164  1.00  0.00     0.018 A 
ATOM     20  C   UNL A   1      33.463  28.019  23.780  1.00  0.00     0.016 A 
ATOM     21  Br  UNL A   1      33.504  29.516  26.200  1.00  0.00    -0.051 Br
ENDBRANCH  14  15
ENDBRANCH   8  14
ENDBRANCH   5   8
ENDBRANCH   3   4
ENDBRANCH   2   3
ENDBRANCH   1   2
BRANCH   1  22
ATOM     22  C   UNL A   1      37.273  21.017  24.569  1.00  0.00     0.002 C 
BRANCH  22  23
ATOM     23  C   UNL A   1      38.171  19.797  24.796  1.00  0.00     0.021 C 
BRANCH  23  24
ATOM     24  C   UNL A   1      39.062  19.847  26.035  1.00  0.00     0.116 C 
BRANCH  24  25
ATOM     25  N   UNL A   1      40.308  19.122  25.857  1.00  0.00    -0.352 N 
ATOM     26  C   UNL A   1      41.610  19.546  25.960  1.00  0.00     0.251 C 
ATOM     27  H   UNL A   1      40.203  18.172  25.624  1.00  0.00     0.163 HD
ATOM     28  O   UNL A   1      42.518  18.797  25.613  1.00  0.00    -0.269 OA
BRANCH  26  29
ATOM     29  C   UNL A   1      41.936  20.898  26.468  1.00  0.00     0.039 A 
ATOM     30  C   UNL A   1      41.961  21.101  27.853  1.00  0.00     0.014 A 
ATOM     31  C   UNL A   1      42.162  21.975  25.607  1.00  0.00     0.014 A 
ATOM     32  C   UNL A   1      42.265  22.363  28.371  1.00  0.00     0.010 A 
ATOM     33  C   UNL A   1      42.529  23.218  26.124  1.00  0.00     0.010 A 
ATOM     34  C   UNL A   1      42.582  23.426  27.511  1.00  0.00    -0.014 A 
BRANCH  34  35
ATOM     35  C   UNL A   1      42.967  24.759  28.046  1.00  0.00     0.031 A 
ATOM     36  C   UNL A   1      41.918  25.802  28.320  1.00  0.00     0.074 A 
ATOM     37  C   UNL A   1      44.271  25.054  28.223  1.00  0.00     0.049 A 
ATOM     38  N   UNL A   1      42.068  27.041  28.714  1.00  0.00    -0.248 NA
ATOM     39  C   UNL A   1      40.518  25.409  28.098  1.00  0.00     0.031 C 
ATOM     40  C   UNL A   1      45.389  24.146  27.958  1.00  0.00     0.029 A 
ATOM     41  N   UNL A   1      44.876  26.206  28.660  1.00  0.00    -0.354 N 
ATOM     42  C   UNL A   1      40.789  27.580  28.765  1.00  0.00     0.074 A 
ATOM     43  C   UNL A   1      39.877  26.546  28.326  1.00  0.00     0.031 C 
ATOM     44  C   UNL A   1      46.542  24.770  28.251  1.00  0.00     0.029 A 
ATOM     45  C   UNL A   1      46.248  26.131  28.690  1.00  0.00     0.049 A 
ATOM     46  H   UNL A   1      44.375  27.011  28.927  1.00  0.00     0.167 HD
ATOM     47  C   UNL A   1      40.407  28.820  29.157  1.00  0.00     0.037 A 
ATOM     48  C   UNL A   1      47.167  27.057  29.024  1.00  0.00     0.037 A 
ATOM     49  C   UNL A   1      41.310  29.834  29.637  1.00  0.00     0.049 A 
ATOM     50  C   UNL A   1      46.714  28.422  29.460  1.00  0.00     0.074 A 
ATOM     51  C   UNL A   1      41.007  31.089  30.138  1.00  0.00     0.029 A 
ATOM     52  N   UNL A   1      42.690  29.712  29.671  1.00  0.00    -0.354 N 
ATOM     53  N   UNL A   1      45.496  28.892  29.578  1.00  0.00    -0.248 NA
ATOM     54  C   UNL A   1      47.764  29.388  29.815  1.00  0.00     0.031 C 
ATOM     55  C   UNL A   1      42.207  31.742  30.435  1.00  0.00     0.029 A 
ATOM     56  C   UNL A   1      43.254  30.878  30.161  1.00  0.00     0.049 A 
ATOM     57  H   UNL A   1      43.194  28.914  29.390  1.00  0.00     0.167 HD
ATOM     58  C   UNL A   1      45.631  30.190  30.049  1.00  0.00     0.074 A 
ATOM     59  C   UNL A   1      47.050  30.433  30.208  1.00  0.00     0.031 C 
ATOM     60  C   UNL A   1      44.667  31.101  30.327  1.00  0.00     0.037 A 
BRANCH  47  61
ATOM     61  C   UNL A   1      38.946  29.156  29.089  1.00  0.00     0.057 A 
ATOM     62  C   UNL A   1      38.324  29.512  27.885  1.00  0.00     0.134 A 
ATOM     63  C   UNL A   1      38.140  29.066  30.231  1.00  0.00     0.134 A 
ATOM     64  F   UNL A   1      39.041  29.624  26.756  1.00  0.00    -0.206 F 
ATOM     65  C   UNL A   1      36.956  29.783  27.823  1.00  0.00     0.040 A 
ATOM     66  C   UNL A   1      36.767  29.311  30.177  1.00  0.00     0.040 A 
ATOM     67  F   UNL A   1      38.671  28.724  31.414  1.00  0.00    -0.206 F 
ATOM     68  C   UNL A   1      36.172  29.675  28.971  1.00  0.00     0.006 A 
ENDBRANCH  47  61
BRANCH  48  69
ATOM     69  C   UNL A   1      48.615  26.727  28.974  1.00  0.00     0.057 A 
ATOM     70  C   UNL A   1      49.361  26.931  27.807  1.00  0.00     0.134 A 
ATOM     71  C   UNL A   1      49.279  26.175  30.076  1.00  0.00     0.134 A 
ATOM     72  F   UNL A   1      48.774  27.438  26.712  1.00  0.00    -0.206 F 
ATOM     73  C   UNL A   1      50.707  26.575  27.728  1.00  0.00     0.040 A 
ATOM     74  C   UNL A   1      50.632  25.837  30.019  1.00  0.00     0.040 A 
ATOM     75  F   UNL A   1      48.622  25.960  31.225  1.00  0.00    -0.206 F 
ATOM     76  C   UNL A   1      51.347  26.030  28.839  1.00  0.00     0.006 A 
ENDBRANCH  48  69
BRANCH  60  77
ATOM     77  C   UNL A   1      45.110  32.428  30.868  1.00  0.00     0.057 A 
ATOM     78  C   UNL A   1      45.369  33.520  30.030  1.00  0.00     0.134 A 
ATOM     79  C   UNL A   1      45.240  32.626  32.249  1.00  0.00     0.134 A 
ATOM     80  F   UNL A   1      45.276  33.391  28.698  1.00  0.00    -0.206 F 
ATOM     81  C   UNL A   1      45.763  34.756  30.545  1.00  0.00     0.040 A 
ATOM     82  C   UNL A   1      45.608  33.864  32.777  1.00  0.00     0.040 A 
ATOM     83  F   UNL A   1      44.998  31.623  33.107  1.00  0.00    -0.206 F 
ATOM     84  C   UNL A   1      45.876  34.932  31.924  1.00  0.00     0.006 A 
ENDBRANCH  60  77
ENDBRANCH  34  35
ENDBRANCH  26  29
ENDBRANCH  24  25
ENDBRANCH  23  24
ENDBRANCH  22  23
ENDBRANCH   1  22
TORSDOF 18
ENDMDL
