MODEL 1
REMARK VINA RESULT:     -12.3      0.000      0.000
REMARK SMILES O=C(NCCCCCCNC(=O)c1ccc(N2C(=O)C[C@H]([NH+]3CCN(c4ccc(F)cc4)CC3)C2=O)cc1)c1ccc(-c2c3nc(c(-c4c(F)cccc4F)c4ccc([nH]4)c(-c4c(F)cccc4F)c4nc(c(-c5c(F)cccc5F)c5ccc2[nH]5)C=C4)C=C3)cc1
REMARK SMILES IDX 7 1 6 2 5 3 4 4 3 5 1 6 2 7 39 9 40 10 92 11 41 12 91 13
REMARK SMILES IDX 42 14 43 15 44 16 85 17 45 18 90 19 84 20 86 21 46 22 89 23
REMARK SMILES IDX 83 24 82 25 47 27 73 28 56 29 72 30 57 31 60 32 71 33 87 34
REMARK SMILES IDX 58 35 59 36 70 38 88 39 61 40 48 41 49 42 54 43 50 44 51 45
REMARK SMILES IDX 53 46 55 47 52 48 74 49 75 50 80 51 76 52 77 53 79 54 81 55
REMARK SMILES IDX 78 56 62 57 63 58 68 59 64 60 65 61 67 62 69 63 66 64 8 65
REMARK SMILES IDX 9 66 10 67 11 68 12 70 13 71 14 72 38 73 15 74 37 75 16 76
REMARK SMILES IDX 17 77 18 78 35 79 19 80 20 81 21 82 36 83 22 84 23 85 34 86
REMARK SMILES IDX 24 88 33 89 25 90 26 91 27 92 32 93 28 94 31 95 29 96 30 97
REMARK H PARENT 3 8 86 26 60 37 10 69 22 87
REMARK Flexibility Score: inf
ROOT
ATOM      1  C   UNL A   1      34.924  33.615  29.037  1.00  0.00     0.002 C 
ENDROOT
BRANCH   1   2
ATOM      2  C   UNL A   1      34.882  34.984  28.350  1.00  0.00     0.002 C 
BRANCH   2   3
ATOM      3  C   UNL A   1      33.762  35.910  28.824  1.00  0.00     0.021 C 
BRANCH   3   4
ATOM      4  C   UNL A   1      32.729  35.239  29.717  1.00  0.00     0.116 C 
BRANCH   4   5
ATOM      5  N   UNL A   1      32.357  36.073  30.848  1.00  0.00    -0.352 N 
ATOM      6  O   UNL A   1      32.292  36.685  33.021  1.00  0.00    -0.269 OA
ATOM      7  C   UNL A   1      32.839  36.041  32.133  1.00  0.00     0.251 C 
ATOM      8  H   UNL A   1      31.667  36.751  30.668  1.00  0.00     0.163 HD
BRANCH   7   9
ATOM      9  C   UNL A   1      34.021  35.211  32.440  1.00  0.00     0.039 A 
ATOM     10  C   UNL A   1      35.309  35.703  32.208  1.00  0.00     0.014 A 
ATOM     11  C   UNL A   1      33.839  33.937  32.983  1.00  0.00     0.014 A 
ATOM     12  C   UNL A   1      36.411  34.883  32.415  1.00  0.00     0.010 A 
ATOM     13  C   UNL A   1      34.952  33.145  33.272  1.00  0.00     0.010 A 
ATOM     14  C   UNL A   1      36.245  33.610  32.984  1.00  0.00    -0.014 A 
BRANCH  14  15
ATOM     15  C   UNL A   1      37.442  32.834  33.390  1.00  0.00     0.031 A 
ATOM     16  C   UNL A   1      38.173  33.133  34.665  1.00  0.00     0.074 A 
ATOM     17  C   UNL A   1      37.873  31.860  32.564  1.00  0.00     0.049 A 
ATOM     18  N   UNL A   1      39.262  32.579  35.134  1.00  0.00    -0.248 NA
ATOM     19  C   UNL A   1      37.620  34.191  35.523  1.00  0.00     0.031 C 
ATOM     20  C   UNL A   1      37.246  31.499  31.289  1.00  0.00     0.029 A 
ATOM     21  N   UNL A   1      38.936  31.001  32.664  1.00  0.00    -0.354 N 
ATOM     22  C   UNL A   1      39.540  33.232  36.327  1.00  0.00     0.074 A 
ATOM     23  C   UNL A   1      38.510  34.236  36.507  1.00  0.00     0.031 C 
ATOM     24  C   UNL A   1      37.923  30.484  30.736  1.00  0.00     0.029 A 
ATOM     25  C   UNL A   1      39.070  30.172  31.577  1.00  0.00     0.049 A 
ATOM     26  H   UNL A   1      39.545  30.981  33.438  1.00  0.00     0.167 HD
ATOM     27  C   UNL A   1      40.563  33.010  37.187  1.00  0.00     0.037 A 
ATOM     28  C   UNL A   1      40.034  29.285  31.268  1.00  0.00     0.037 A 
ATOM     29  C   UNL A   1      41.569  31.996  37.000  1.00  0.00     0.049 A 
ATOM     30  C   UNL A   1      41.176  29.094  32.223  1.00  0.00     0.074 A 
ATOM     31  C   UNL A   1      42.599  31.642  37.854  1.00  0.00     0.029 A 
ATOM     32  N   UNL A   1      41.684  31.188  35.879  1.00  0.00    -0.354 N 
ATOM     33  N   UNL A   1      41.383  29.666  33.384  1.00  0.00    -0.248 NA
ATOM     34  C   UNL A   1      42.221  28.144  31.823  1.00  0.00     0.031 C 
ATOM     35  C   UNL A   1      43.376  30.666  37.221  1.00  0.00     0.029 A 
ATOM     36  C   UNL A   1      42.796  30.371  35.998  1.00  0.00     0.049 A 
ATOM     37  H   UNL A   1      41.066  31.194  35.112  1.00  0.00     0.167 HD
ATOM     38  C   UNL A   1      42.575  29.137  33.858  1.00  0.00     0.074 A 
ATOM     39  C   UNL A   1      43.029  28.179  32.872  1.00  0.00     0.031 C 
ATOM     40  C   UNL A   1      43.236  29.423  35.006  1.00  0.00     0.037 A 
BRANCH  27  41
ATOM     41  C   UNL A   1      40.674  33.888  38.400  1.00  0.00     0.057 A 
ATOM     42  C   UNL A   1      41.449  35.054  38.406  1.00  0.00     0.134 A 
ATOM     43  C   UNL A   1      39.919  33.607  39.547  1.00  0.00     0.134 A 
ATOM     44  F   UNL A   1      42.200  35.378  37.344  1.00  0.00    -0.206 F 
ATOM     45  C   UNL A   1      41.477  35.904  39.515  1.00  0.00     0.040 A 
ATOM     46  C   UNL A   1      39.920  34.461  40.650  1.00  0.00     0.040 A 
ATOM     47  F   UNL A   1      39.147  32.510  39.602  1.00  0.00    -0.206 F 
ATOM     48  C   UNL A   1      40.702  35.613  40.637  1.00  0.00     0.006 A 
ENDBRANCH  27  41
BRANCH  28  49
ATOM     49  C   UNL A   1      39.981  28.552  29.978  1.00  0.00     0.057 A 
ATOM     50  C   UNL A   1      39.265  27.357  29.849  1.00  0.00     0.134 A 
ATOM     51  C   UNL A   1      40.658  29.024  28.845  1.00  0.00     0.134 A 
ATOM     52  F   UNL A   1      38.610  26.845  30.902  1.00  0.00    -0.206 F 
ATOM     53  C   UNL A   1      39.242  26.646  28.648  1.00  0.00     0.040 A 
ATOM     54  C   UNL A   1      40.616  28.341  27.630  1.00  0.00     0.040 A 
ATOM     55  F   UNL A   1      41.355  30.168  28.901  1.00  0.00    -0.206 F 
ATOM     56  C   UNL A   1      39.916  27.142  27.533  1.00  0.00     0.006 A 
ENDBRANCH  28  49
BRANCH  40  57
ATOM     57  C   UNL A   1      44.513  28.681  35.261  1.00  0.00     0.057 A 
ATOM     58  C   UNL A   1      44.525  27.441  35.913  1.00  0.00     0.134 A 
ATOM     59  C   UNL A   1      45.738  29.189  34.809  1.00  0.00     0.134 A 
ATOM     60  F   UNL A   1      43.388  26.909  36.384  1.00  0.00    -0.206 F 
ATOM     61  C   UNL A   1      45.714  26.741  36.122  1.00  0.00     0.040 A 
ATOM     62  C   UNL A   1      46.929  28.485  34.987  1.00  0.00     0.040 A 
ATOM     63  F   UNL A   1      45.793  30.369  34.172  1.00  0.00    -0.206 F 
ATOM     64  C   UNL A   1      46.919  27.259  35.648  1.00  0.00     0.006 A 
ENDBRANCH  40  57
ENDBRANCH  14  15
ENDBRANCH   7   9
ENDBRANCH   4   5
ENDBRANCH   3   4
ENDBRANCH   2   3
ENDBRANCH   1   2
BRANCH   1  65
ATOM     65  C   UNL A   1      35.535  32.485  28.202  1.00  0.00     0.021 C 
BRANCH  65  66
ATOM     66  C   UNL A   1      34.518  31.520  27.598  1.00  0.00     0.116 C 
BRANCH  66  67
ATOM     67  N   UNL A   1      33.202  32.126  27.505  1.00  0.00    -0.352 N 
ATOM     68  C   UNL A   1      32.068  31.620  26.929  1.00  0.00     0.251 C 
ATOM     69  H   UNL A   1      33.113  33.019  27.910  1.00  0.00     0.163 HD
ATOM     70  O   UNL A   1      31.083  32.323  26.741  1.00  0.00    -0.269 OA
BRANCH  68  71
ATOM     71  C   UNL A   1      32.048  30.202  26.532  1.00  0.00     0.039 A 
ATOM     72  C   UNL A   1      32.265  29.222  27.498  1.00  0.00     0.016 A 
ATOM     73  C   UNL A   1      31.829  29.853  25.198  1.00  0.00     0.016 A 
ATOM     74  C   UNL A   1      32.210  27.875  27.134  1.00  0.00     0.027 A 
ATOM     75  C   UNL A   1      31.813  28.507  24.835  1.00  0.00     0.027 A 
ATOM     76  C   UNL A   1      31.996  27.503  25.798  1.00  0.00     0.052 A 
BRANCH  76  77
ATOM     77  N   UNL A   1      32.005  26.139  25.422  1.00  0.00    -0.245 N 
ATOM     78  C   UNL A   1      30.982  25.266  25.707  1.00  0.00     0.240 C 
ATOM     79  C   UNL A   1      33.030  25.527  24.732  1.00  0.00     0.292 C 
ATOM     80  O   UNL A   1      29.978  25.448  26.375  1.00  0.00    -0.274 OA
ATOM     81  C   UNL A   1      31.227  23.997  24.954  1.00  0.00     0.176 C 
ATOM     82  C   UNL A   1      32.710  24.034  24.642  1.00  0.00     0.284 C 
ATOM     83  O   UNL A   1      34.068  26.035  24.321  1.00  0.00    -0.267 OA
BRANCH  82  84
ATOM     84  N   UNL A   1      33.642  23.236  25.465  1.00  0.00    -0.321 N 
ATOM     85  C   UNL A   1      33.070  22.367  26.512  1.00  0.00     0.284 C 
ATOM     86  C   UNL A   1      34.634  22.473  24.680  1.00  0.00     0.284 C 
ATOM     87  H   UNL A   1      34.104  23.992  25.969  1.00  0.00     0.348 HD
ATOM     88  C   UNL A   1      32.522  20.998  26.049  1.00  0.00     0.178 C 
ATOM     89  C   UNL A   1      34.182  21.095  24.144  1.00  0.00     0.178 C 
ATOM     90  N   UNL A   1      33.484  20.324  25.178  1.00  0.00    -0.360 N 
BRANCH  90  91
ATOM     91  C   UNL A   1      33.458  18.945  25.084  1.00  0.00     0.037 A 
ATOM     92  C   UNL A   1      32.522  18.160  25.772  1.00  0.00     0.029 A 
ATOM     93  C   UNL A   1      34.440  18.293  24.323  1.00  0.00     0.029 A 
ATOM     94  C   UNL A   1      32.577  16.763  25.713  1.00  0.00     0.041 A 
ATOM     95  C   UNL A   1      34.512  16.901  24.277  1.00  0.00     0.041 A 
ATOM     96  C   UNL A   1      33.579  16.149  24.974  1.00  0.00     0.123 A 
ATOM     97  F   UNL A   1      33.653  14.812  24.942  1.00  0.00    -0.207 F 
ENDBRANCH  90  91
ENDBRANCH  82  84
ENDBRANCH  76  77
ENDBRANCH  68  71
ENDBRANCH  66  67
ENDBRANCH  65  66
ENDBRANCH   1  65
TORSDOF 16
ENDMDL
MODEL 2
REMARK VINA RESULT:     -12.1      4.920     10.647
REMARK SMILES O=C(NCCCCCCNC(=O)c1ccc(N2C(=O)C[C@H]([NH+]3CCN(c4ccc(F)cc4)CC3)C2=O)cc1)c1ccc(-c2c3nc(c(-c4c(F)cccc4F)c4ccc([nH]4)c(-c4c(F)cccc4F)c4nc(c(-c5c(F)cccc5F)c5ccc2[nH]5)C=C4)C=C3)cc1
REMARK SMILES IDX 7 1 6 2 5 3 4 4 3 5 1 6 2 7 39 9 40 10 92 11 41 12 91 13
REMARK SMILES IDX 42 14 43 15 44 16 85 17 45 18 90 19 84 20 86 21 46 22 89 23
REMARK SMILES IDX 83 24 82 25 47 27 73 28 56 29 72 30 57 31 60 32 71 33 87 34
REMARK SMILES IDX 58 35 59 36 70 38 88 39 61 40 48 41 49 42 54 43 50 44 51 45
REMARK SMILES IDX 53 46 55 47 52 48 74 49 75 50 80 51 76 52 77 53 79 54 81 55
REMARK SMILES IDX 78 56 62 57 63 58 68 59 64 60 65 61 67 62 69 63 66 64 8 65
REMARK SMILES IDX 9 66 10 67 11 68 12 70 13 71 14 72 38 73 15 74 37 75 16 76
REMARK SMILES IDX 17 77 18 78 35 79 19 80 20 81 21 82 36 83 22 84 23 85 34 86
REMARK SMILES IDX 24 88 33 89 25 90 26 91 27 92 32 93 28 94 31 95 29 96 30 97
REMARK H PARENT 3 8 86 26 60 37 10 69 22 87
REMARK Flexibility Score: inf
ROOT
ATOM      1  C   UNL A   1      34.484  35.918  28.057  1.00  0.00     0.002 C 
ENDROOT
BRANCH   1   2
ATOM      2  C   UNL A   1      34.521  34.386  28.016  1.00  0.00     0.002 C 
BRANCH   2   3
ATOM      3  C   UNL A   1      35.647  33.747  28.828  1.00  0.00     0.021 C 
BRANCH   3   4
ATOM      4  C   UNL A   1      35.208  32.581  29.702  1.00  0.00     0.116 C 
BRANCH   4   5
ATOM      5  N   UNL A   1      34.403  31.618  28.969  1.00  0.00    -0.352 N 
ATOM      6  O   UNL A   1      34.034  29.890  27.562  1.00  0.00    -0.269 OA
ATOM      7  C   UNL A   1      34.813  30.500  28.287  1.00  0.00     0.251 C 
ATOM      8  H   UNL A   1      33.435  31.792  28.959  1.00  0.00     0.163 HD
BRANCH   7   9
ATOM      9  C   UNL A   1      36.210  30.041  28.426  1.00  0.00     0.039 A 
ATOM     10  C   UNL A   1      37.125  30.238  27.387  1.00  0.00     0.014 A 
ATOM     11  C   UNL A   1      36.611  29.423  29.613  1.00  0.00     0.014 A 
ATOM     12  C   UNL A   1      38.410  29.724  27.491  1.00  0.00     0.010 A 
ATOM     13  C   UNL A   1      37.928  28.982  29.750  1.00  0.00     0.010 A 
ATOM     14  C   UNL A   1      38.835  29.124  28.687  1.00  0.00    -0.014 A 
BRANCH  14  15
ATOM     15  C   UNL A   1      40.265  28.769  28.854  1.00  0.00     0.031 A 
ATOM     16  C   UNL A   1      40.801  27.443  28.403  1.00  0.00     0.074 A 
ATOM     17  C   UNL A   1      41.074  29.668  29.449  1.00  0.00     0.049 A 
ATOM     18  N   UNL A   1      42.013  26.965  28.524  1.00  0.00    -0.248 NA
ATOM     19  C   UNL A   1      39.860  26.531  27.736  1.00  0.00     0.031 C 
ATOM     20  C   UNL A   1      40.651  30.983  29.943  1.00  0.00     0.029 A 
ATOM     21  N   UNL A   1      42.411  29.619  29.747  1.00  0.00    -0.354 N 
ATOM     22  C   UNL A   1      41.979  25.691  27.972  1.00  0.00     0.074 A 
ATOM     23  C   UNL A   1      40.620  25.463  27.525  1.00  0.00     0.031 C 
ATOM     24  C   UNL A   1      41.708  31.619  30.464  1.00  0.00     0.029 A 
ATOM     25  C   UNL A   1      42.864  30.734  30.407  1.00  0.00     0.049 A 
ATOM     26  H   UNL A   1      42.989  28.858  29.511  1.00  0.00     0.167 HD
ATOM     27  C   UNL A   1      42.992  24.800  27.855  1.00  0.00     0.037 A 
ATOM     28  C   UNL A   1      44.067  31.002  30.949  1.00  0.00     0.037 A 
ATOM     29  C   UNL A   1      44.343  25.050  28.291  1.00  0.00     0.049 A 
ATOM     30  C   UNL A   1      45.155  29.975  30.838  1.00  0.00     0.074 A 
ATOM     31  C   UNL A   1      45.456  24.240  28.145  1.00  0.00     0.029 A 
ATOM     32  N   UNL A   1      44.760  26.183  28.973  1.00  0.00    -0.354 N 
ATOM     33  N   UNL A   1      45.127  28.805  30.246  1.00  0.00    -0.248 NA
ATOM     34  C   UNL A   1      46.437  30.297  31.477  1.00  0.00     0.031 C 
ATOM     35  C   UNL A   1      46.531  24.853  28.796  1.00  0.00     0.029 A 
ATOM     36  C   UNL A   1      46.102  26.072  29.297  1.00  0.00     0.049 A 
ATOM     37  H   UNL A   1      44.187  26.953  29.194  1.00  0.00     0.167 HD
ATOM     38  C   UNL A   1      46.389  28.258  30.430  1.00  0.00     0.074 A 
ATOM     39  C   UNL A   1      47.165  29.235  31.164  1.00  0.00     0.031 C 
ATOM     40  C   UNL A   1      46.860  27.053  30.031  1.00  0.00     0.037 A 
BRANCH  27  41
ATOM     41  C   UNL A   1      42.690  23.457  27.256  1.00  0.00     0.057 A 
ATOM     42  C   UNL A   1      42.862  23.195  25.891  1.00  0.00     0.134 A 
ATOM     43  C   UNL A   1      42.309  22.386  28.077  1.00  0.00     0.134 A 
ATOM     44  F   UNL A   1      43.218  24.175  25.049  1.00  0.00    -0.206 F 
ATOM     45  C   UNL A   1      42.656  21.918  25.363  1.00  0.00     0.040 A 
ATOM     46  C   UNL A   1      42.125  21.101  27.565  1.00  0.00     0.040 A 
ATOM     47  F   UNL A   1      42.137  22.567  29.395  1.00  0.00    -0.206 F 
ATOM     48  C   UNL A   1      42.297  20.864  26.203  1.00  0.00     0.006 A 
ENDBRANCH  27  41
BRANCH  28  49
ATOM     49  C   UNL A   1      44.284  32.274  31.682  1.00  0.00     0.057 A 
ATOM     50  C   UNL A   1      44.831  33.395  31.048  1.00  0.00     0.134 A 
ATOM     51  C   UNL A   1      43.960  32.395  33.040  1.00  0.00     0.134 A 
ATOM     52  F   UNL A   1      45.177  33.337  29.753  1.00  0.00    -0.206 F 
ATOM     53  C   UNL A   1      45.070  34.581  31.743  1.00  0.00     0.040 A 
ATOM     54  C   UNL A   1      44.163  33.585  33.738  1.00  0.00     0.040 A 
ATOM     55  F   UNL A   1      43.424  31.359  33.703  1.00  0.00    -0.206 F 
ATOM     56  C   UNL A   1      44.730  34.680  33.091  1.00  0.00     0.006 A 
ENDBRANCH  28  49
BRANCH  40  57
ATOM     57  C   UNL A   1      48.284  26.730  30.369  1.00  0.00     0.057 A 
ATOM     58  C   UNL A   1      49.342  27.097  29.527  1.00  0.00     0.134 A 
ATOM     59  C   UNL A   1      48.606  26.089  31.571  1.00  0.00     0.134 A 
ATOM     60  F   UNL A   1      49.099  27.698  28.353  1.00  0.00    -0.206 F 
ATOM     61  C   UNL A   1      50.668  26.820  29.861  1.00  0.00     0.040 A 
ATOM     62  C   UNL A   1      49.930  25.832  31.930  1.00  0.00     0.040 A 
ATOM     63  F   UNL A   1      47.639  25.717  32.426  1.00  0.00    -0.206 F 
ATOM     64  C   UNL A   1      50.964  26.195  31.071  1.00  0.00     0.006 A 
ENDBRANCH  40  57
ENDBRANCH  14  15
ENDBRANCH   7   9
ENDBRANCH   4   5
ENDBRANCH   3   4
ENDBRANCH   2   3
ENDBRANCH   1   2
BRANCH   1  65
ATOM     65  C   UNL A   1      33.359  36.521  28.904  1.00  0.00     0.021 C 
BRANCH  65  66
ATOM     66  C   UNL A   1      32.675  35.534  29.847  1.00  0.00     0.116 C 
BRANCH  66  67
ATOM     67  N   UNL A   1      32.137  36.204  31.017  1.00  0.00    -0.352 N 
ATOM     68  C   UNL A   1      32.508  36.062  32.327  1.00  0.00     0.251 C 
ATOM     69  H   UNL A   1      31.411  36.847  30.846  1.00  0.00     0.163 HD
ATOM     70  O   UNL A   1      31.833  36.536  33.233  1.00  0.00    -0.269 OA
BRANCH  68  71
ATOM     71  C   UNL A   1      33.743  35.324  32.638  1.00  0.00     0.039 A 
ATOM     72  C   UNL A   1      34.963  35.995  32.607  1.00  0.00     0.016 A 
ATOM     73  C   UNL A   1      33.685  33.962  32.943  1.00  0.00     0.016 A 
ATOM     74  C   UNL A   1      36.134  35.308  32.936  1.00  0.00     0.027 A 
ATOM     75  C   UNL A   1      34.862  33.274  33.235  1.00  0.00     0.027 A 
ATOM     76  C   UNL A   1      36.098  33.938  33.242  1.00  0.00     0.052 A 
BRANCH  76  77
ATOM     77  N   UNL A   1      37.293  33.232  33.512  1.00  0.00    -0.245 N 
ATOM     78  C   UNL A   1      38.249  32.964  32.560  1.00  0.00     0.240 C 
ATOM     79  C   UNL A   1      37.641  32.731  34.749  1.00  0.00     0.292 C 
ATOM     80  O   UNL A   1      38.221  33.179  31.360  1.00  0.00    -0.274 OA
ATOM     81  C   UNL A   1      39.460  32.426  33.252  1.00  0.00     0.176 C 
ATOM     82  C   UNL A   1      38.933  31.929  34.585  1.00  0.00     0.284 C 
ATOM     83  O   UNL A   1      37.013  32.817  35.798  1.00  0.00    -0.267 OA
BRANCH  82  84
ATOM     84  N   UNL A   1      38.695  30.484  34.775  1.00  0.00    -0.321 N 
ATOM     85  C   UNL A   1      38.769  29.609  33.589  1.00  0.00     0.284 C 
ATOM     86  C   UNL A   1      39.475  29.886  35.877  1.00  0.00     0.284 C 
ATOM     87  H   UNL A   1      37.706  30.512  35.023  1.00  0.00     0.348 HD
ATOM     88  C   UNL A   1      40.183  29.177  33.137  1.00  0.00     0.178 C 
ATOM     89  C   UNL A   1      40.917  29.439  35.542  1.00  0.00     0.178 C 
ATOM     90  N   UNL A   1      40.966  28.702  34.276  1.00  0.00    -0.360 N 
BRANCH  90  91
ATOM     91  C   UNL A   1      42.001  27.810  34.058  1.00  0.00     0.037 A 
ATOM     92  C   UNL A   1      42.843  27.891  32.941  1.00  0.00     0.029 A 
ATOM     93  C   UNL A   1      42.185  26.745  34.952  1.00  0.00     0.029 A 
ATOM     94  C   UNL A   1      43.830  26.926  32.715  1.00  0.00     0.041 A 
ATOM     95  C   UNL A   1      43.154  25.768  34.723  1.00  0.00     0.041 A 
ATOM     96  C   UNL A   1      43.967  25.868  33.603  1.00  0.00     0.123 A 
ATOM     97  F   UNL A   1      44.889  24.925  33.373  1.00  0.00    -0.207 F 
ENDBRANCH  90  91
ENDBRANCH  82  84
ENDBRANCH  76  77
ENDBRANCH  68  71
ENDBRANCH  66  67
ENDBRANCH  65  66
ENDBRANCH   1  65
TORSDOF 16
ENDMDL
MODEL 3
REMARK VINA RESULT:     -12.0      0.303      5.732
REMARK SMILES O=C(NCCCCCCNC(=O)c1ccc(N2C(=O)C[C@H]([NH+]3CCN(c4ccc(F)cc4)CC3)C2=O)cc1)c1ccc(-c2c3nc(c(-c4c(F)cccc4F)c4ccc([nH]4)c(-c4c(F)cccc4F)c4nc(c(-c5c(F)cccc5F)c5ccc2[nH]5)C=C4)C=C3)cc1
REMARK SMILES IDX 7 1 6 2 5 3 4 4 3 5 1 6 2 7 39 9 40 10 92 11 41 12 91 13
REMARK SMILES IDX 42 14 43 15 44 16 85 17 45 18 90 19 84 20 86 21 46 22 89 23
REMARK SMILES IDX 83 24 82 25 47 27 73 28 56 29 72 30 57 31 60 32 71 33 87 34
REMARK SMILES IDX 58 35 59 36 70 38 88 39 61 40 48 41 49 42 54 43 50 44 51 45
REMARK SMILES IDX 53 46 55 47 52 48 74 49 75 50 80 51 76 52 77 53 79 54 81 55
REMARK SMILES IDX 78 56 62 57 63 58 68 59 64 60 65 61 67 62 69 63 66 64 8 65
REMARK SMILES IDX 9 66 10 67 11 68 12 70 13 71 14 72 38 73 15 74 37 75 16 76
REMARK SMILES IDX 17 77 18 78 35 79 19 80 20 81 21 82 36 83 22 84 23 85 34 86
REMARK SMILES IDX 24 88 33 89 25 90 26 91 27 92 32 93 28 94 31 95 29 96 30 97
REMARK H PARENT 3 8 86 26 60 37 10 69 22 87
REMARK Flexibility Score: inf
ROOT
ATOM      1  C   UNL A   1      34.908  33.617  29.152  1.00  0.00     0.002 C 
ENDROOT
BRANCH   1   2
ATOM      2  C   UNL A   1      34.901  35.062  28.640  1.00  0.00     0.002 C 
BRANCH   2   3
ATOM      3  C   UNL A   1      33.627  35.848  28.949  1.00  0.00     0.021 C 
BRANCH   3   4
ATOM      4  C   UNL A   1      32.679  35.154  29.916  1.00  0.00     0.116 C 
BRANCH   4   5
ATOM      5  N   UNL A   1      32.354  35.989  31.060  1.00  0.00    -0.352 N 
ATOM      6  O   UNL A   1      32.407  36.623  33.228  1.00  0.00    -0.269 OA
ATOM      7  C   UNL A   1      32.916  35.985  32.312  1.00  0.00     0.251 C 
ATOM      8  H   UNL A   1      31.633  36.644  30.918  1.00  0.00     0.163 HD
BRANCH   7   9
ATOM      9  C   UNL A   1      34.140  35.194  32.552  1.00  0.00     0.039 A 
ATOM     10  C   UNL A   1      35.395  35.722  32.234  1.00  0.00     0.014 A 
ATOM     11  C   UNL A   1      34.031  33.921  33.117  1.00  0.00     0.014 A 
ATOM     12  C   UNL A   1      36.532  34.937  32.379  1.00  0.00     0.010 A 
ATOM     13  C   UNL A   1      35.183  33.166  33.342  1.00  0.00     0.010 A 
ATOM     14  C   UNL A   1      36.441  33.666  32.968  1.00  0.00    -0.014 A 
BRANCH  14  15
ATOM     15  C   UNL A   1      37.683  32.930  33.305  1.00  0.00     0.031 A 
ATOM     16  C   UNL A   1      38.221  31.851  32.413  1.00  0.00     0.074 A 
ATOM     17  C   UNL A   1      38.310  33.244  34.457  1.00  0.00     0.049 A 
ATOM     18  N   UNL A   1      39.265  31.084  32.594  1.00  0.00    -0.248 NA
ATOM     19  C   UNL A   1      37.494  31.592  31.161  1.00  0.00     0.031 C 
ATOM     20  C   UNL A   1      37.862  34.266  35.408  1.00  0.00     0.029 A 
ATOM     21  N   UNL A   1      39.448  32.737  35.029  1.00  0.00    -0.354 N 
ATOM     22  C   UNL A   1      39.311  30.236  31.495  1.00  0.00     0.074 A 
ATOM     23  C   UNL A   1      38.180  30.574  30.655  1.00  0.00     0.031 C 
ATOM     24  C   UNL A   1      38.723  34.323  36.432  1.00  0.00     0.029 A 
ATOM     25  C   UNL A   1      39.740  33.296  36.249  1.00  0.00     0.049 A 
ATOM     26  H   UNL A   1      40.001  32.040  34.607  1.00  0.00     0.167 HD
ATOM     27  C   UNL A   1      40.216  29.266  31.221  1.00  0.00     0.037 A 
ATOM     28  C   UNL A   1      40.696  32.990  37.145  1.00  0.00     0.037 A 
ATOM     29  C   UNL A   1      41.345  28.954  32.060  1.00  0.00     0.049 A 
ATOM     30  C   UNL A   1      41.657  31.881  36.828  1.00  0.00     0.074 A 
ATOM     31  C   UNL A   1      42.361  28.043  31.828  1.00  0.00     0.029 A 
ATOM     32  N   UNL A   1      41.598  29.527  33.297  1.00  0.00    -0.354 N 
ATOM     33  N   UNL A   1      41.732  31.140  35.750  1.00  0.00    -0.248 NA
ATOM     34  C   UNL A   1      42.657  31.559  37.853  1.00  0.00     0.031 C 
ATOM     35  C   UNL A   1      43.191  28.017  32.953  1.00  0.00     0.029 A 
ATOM     36  C   UNL A   1      42.726  28.955  33.861  1.00  0.00     0.049 A 
ATOM     37  H   UNL A   1      41.056  30.237  33.712  1.00  0.00     0.167 HD
ATOM     38  C   UNL A   1      42.794  30.272  35.961  1.00  0.00     0.074 A 
ATOM     39  C   UNL A   1      43.350  30.599  37.258  1.00  0.00     0.031 C 
ATOM     40  C   UNL A   1      43.264  29.290  35.155  1.00  0.00     0.037 A 
BRANCH  27  41
ATOM     41  C   UNL A   1      40.023  28.446  29.978  1.00  0.00     0.057 A 
ATOM     42  C   UNL A   1      40.661  28.760  28.772  1.00  0.00     0.134 A 
ATOM     43  C   UNL A   1      39.257  27.272  30.018  1.00  0.00     0.134 A 
ATOM     44  F   UNL A   1      41.402  29.871  28.664  1.00  0.00    -0.206 F 
ATOM     45  C   UNL A   1      40.537  27.940  27.648  1.00  0.00     0.040 A 
ATOM     46  C   UNL A   1      39.146  26.433  28.909  1.00  0.00     0.040 A 
ATOM     47  F   UNL A   1      38.627  26.908  31.146  1.00  0.00    -0.206 F 
ATOM     48  C   UNL A   1      39.786  26.767  27.718  1.00  0.00     0.006 A 
ENDBRANCH  27  41
BRANCH  28  49
ATOM     49  C   UNL A   1      40.757  33.711  38.441  1.00  0.00     0.057 A 
ATOM     50  C   UNL A   1      39.915  33.371  39.504  1.00  0.00     0.134 A 
ATOM     51  C   UNL A   1      41.654  34.769  38.642  1.00  0.00     0.134 A 
ATOM     52  F   UNL A   1      39.023  32.378  39.368  1.00  0.00    -0.206 F 
ATOM     53  C   UNL A   1      39.945  34.070  40.711  1.00  0.00     0.040 A 
ATOM     54  C   UNL A   1      41.718  35.455  39.854  1.00  0.00     0.040 A 
ATOM     55  F   UNL A   1      42.496  35.139  37.664  1.00  0.00    -0.206 F 
ATOM     56  C   UNL A   1      40.853  35.112  40.890  1.00  0.00     0.006 A 
ENDBRANCH  28  49
BRANCH  40  57
ATOM     57  C   UNL A   1      44.445  28.509  35.648  1.00  0.00     0.057 A 
ATOM     58  C   UNL A   1      44.289  27.325  36.381  1.00  0.00     0.134 A 
ATOM     59  C   UNL A   1      45.750  28.919  35.348  1.00  0.00     0.134 A 
ATOM     60  F   UNL A   1      43.066  26.888  36.715  1.00  0.00    -0.206 F 
ATOM     61  C   UNL A   1      45.392  26.587  36.812  1.00  0.00     0.040 A 
ATOM     62  C   UNL A   1      46.859  28.174  35.749  1.00  0.00     0.040 A 
ATOM     63  F   UNL A   1      45.967  30.041  34.644  1.00  0.00    -0.206 F 
ATOM     64  C   UNL A   1      46.681  27.006  36.487  1.00  0.00     0.006 A 
ENDBRANCH  40  57
ENDBRANCH  14  15
ENDBRANCH   7   9
ENDBRANCH   4   5
ENDBRANCH   3   4
ENDBRANCH   2   3
ENDBRANCH   1   2
BRANCH   1  65
ATOM     65  C   UNL A   1      35.417  32.574  28.153  1.00  0.00     0.021 C 
BRANCH  65  66
ATOM     66  C   UNL A   1      34.367  31.562  27.700  1.00  0.00     0.116 C 
BRANCH  66  67
ATOM     67  N   UNL A   1      33.067  32.187  27.531  1.00  0.00    -0.352 N 
ATOM     68  C   UNL A   1      31.957  31.692  26.901  1.00  0.00     0.251 C 
ATOM     69  H   UNL A   1      32.970  33.086  27.923  1.00  0.00     0.163 HD
ATOM     70  O   UNL A   1      30.994  32.408  26.655  1.00  0.00    -0.269 OA
BRANCH  68  71
ATOM     71  C   UNL A   1      31.936  30.270  26.518  1.00  0.00     0.039 A 
ATOM     72  C   UNL A   1      32.280  29.306  27.462  1.00  0.00     0.016 A 
ATOM     73  C   UNL A   1      31.588  29.903  25.216  1.00  0.00     0.016 A 
ATOM     74  C   UNL A   1      32.226  27.955  27.114  1.00  0.00     0.027 A 
ATOM     75  C   UNL A   1      31.572  28.554  24.865  1.00  0.00     0.027 A 
ATOM     76  C   UNL A   1      31.884  27.564  25.810  1.00  0.00     0.052 A 
BRANCH  76  77
ATOM     77  N   UNL A   1      31.893  26.198  25.444  1.00  0.00    -0.245 N 
ATOM     78  C   UNL A   1      30.850  25.337  25.696  1.00  0.00     0.240 C 
ATOM     79  C   UNL A   1      32.937  25.571  24.797  1.00  0.00     0.292 C 
ATOM     80  O   UNL A   1      29.824  25.535  26.325  1.00  0.00    -0.274 OA
ATOM     81  C   UNL A   1      31.110  24.061  24.961  1.00  0.00     0.176 C 
ATOM     82  C   UNL A   1      32.604  24.080  24.705  1.00  0.00     0.284 C 
ATOM     83  O   UNL A   1      33.994  26.064  24.422  1.00  0.00    -0.267 OA
BRANCH  82  84
ATOM     84  N   UNL A   1      33.496  23.278  25.567  1.00  0.00    -0.321 N 
ATOM     85  C   UNL A   1      32.874  22.378  26.558  1.00  0.00     0.284 C 
ATOM     86  C   UNL A   1      34.547  22.548  24.831  1.00  0.00     0.284 C 
ATOM     87  H   UNL A   1      33.913  24.030  26.116  1.00  0.00     0.348 HD
ATOM     88  C   UNL A   1      32.378  21.012  26.033  1.00  0.00     0.178 C 
ATOM     89  C   UNL A   1      34.152  21.175  24.238  1.00  0.00     0.178 C 
ATOM     90  N   UNL A   1      33.403  20.371  25.210  1.00  0.00    -0.360 N 
BRANCH  90  91
ATOM     91  C   UNL A   1      33.406  18.994  25.086  1.00  0.00     0.037 A 
ATOM     92  C   UNL A   1      32.530  18.170  25.807  1.00  0.00     0.029 A 
ATOM     93  C   UNL A   1      34.359  18.384  24.256  1.00  0.00     0.029 A 
ATOM     94  C   UNL A   1      32.615  16.778  25.712  1.00  0.00     0.041 A 
ATOM     95  C   UNL A   1      34.461  16.996  24.173  1.00  0.00     0.041 A 
ATOM     96  C   UNL A   1      33.588  16.205  24.905  1.00  0.00     0.123 A 
ATOM     97  F   UNL A   1      33.693  14.872  24.837  1.00  0.00    -0.207 F 
ENDBRANCH  90  91
ENDBRANCH  82  84
ENDBRANCH  76  77
ENDBRANCH  68  71
ENDBRANCH  66  67
ENDBRANCH  65  66
ENDBRANCH   1  65
TORSDOF 16
ENDMDL
