MODEL 1
REMARK VINA RESULT:     -11.8      0.000      0.000
REMARK SMILES O=C(NCCCCCCNC(=O)c1ccc(-c2c3nc(c(-c4c(F)cccc4F)c4ccc([nH]4)c(-c4c(F)cccc4F)c4nc(c(-c5c(F)cccc5F)c5ccc2[nH]5)C=C4)C=C3)cc1)C1=Cc2cc(Cl)cc(Cl)c2O[C@@H]1C(F)(F)F
REMARK SMILES IDX 7 1 6 2 5 3 4 4 3 5 1 6 2 7 67 9 68 10 78 11 69 12 77 13
REMARK SMILES IDX 70 14 76 15 71 16 74 17 72 18 73 19 75 20 79 21 80 22 81 23
REMARK SMILES IDX 82 24 8 25 9 26 10 27 11 28 12 30 13 31 14 32 66 33 15 34
REMARK SMILES IDX 65 35 16 36 17 37 18 38 59 39 19 40 64 41 58 42 60 43 20 44
REMARK SMILES IDX 63 45 57 46 56 47 21 49 47 50 30 51 46 52 31 53 34 54 45 55
REMARK SMILES IDX 61 56 32 57 33 58 44 60 62 61 35 62 22 63 23 64 28 65 24 66
REMARK SMILES IDX 25 67 27 68 29 69 26 70 48 71 49 72 54 73 50 74 51 75 53 76
REMARK SMILES IDX 55 77 52 78 36 79 37 80 42 81 38 82 39 83 41 84 43 85 40 86
REMARK H PARENT 3 8 10 29 60 48 34 59
REMARK Flexibility Score: inf
ROOT
ATOM      1  C   UNL A   1      35.888  20.634  24.718  1.00  0.00     0.002 C 
ENDROOT
BRANCH   1   2
ATOM      2  C   UNL A   1      34.482  20.143  25.085  1.00  0.00     0.002 C 
BRANCH   2   3
ATOM      3  C   UNL A   1      33.633  21.069  25.954  1.00  0.00     0.021 C 
BRANCH   3   4
ATOM      4  C   UNL A   1      32.277  21.473  25.387  1.00  0.00     0.116 C 
BRANCH   4   5
ATOM      5  N   UNL A   1      31.262  21.803  26.370  1.00  0.00    -0.352 N 
ATOM      6  O   UNL A   1      29.781  23.083  27.472  1.00  0.00    -0.270 OA
ATOM      7  C   UNL A   1      30.759  23.024  26.729  1.00  0.00     0.251 C 
ATOM      8  H   UNL A   1      30.879  21.034  26.851  1.00  0.00     0.163 HD
BRANCH   7   9
ATOM      9  C   UNL A   1      31.300  24.302  26.177  1.00  0.00     0.067 C 
ATOM     10  C   UNL A   1      32.518  24.763  26.510  1.00  0.00     0.025 C 
ATOM     11  C   UNL A   1      30.728  24.648  24.823  1.00  0.00     0.314 C 
ATOM     12  C   UNL A   1      33.469  24.656  25.374  1.00  0.00     0.020 A 
ATOM     13  O   UNL A   1      31.668  24.334  23.761  1.00  0.00    -0.474 OA
ATOM     14  C   UNL A   1      34.835  24.581  25.672  1.00  0.00     0.032 A 
ATOM     15  C   UNL A   1      33.005  24.332  24.086  1.00  0.00     0.146 A 
ATOM     16  C   UNL A   1      35.721  24.093  24.714  1.00  0.00     0.043 A 
ATOM     17  C   UNL A   1      33.916  23.869  23.128  1.00  0.00     0.085 A 
ATOM     18  Cl  UNL A   1      37.363  23.817  25.143  1.00  0.00    -0.084 Cl
ATOM     19  C   UNL A   1      35.268  23.728  23.448  1.00  0.00     0.045 A 
ATOM     20  Cl  UNL A   1      33.385  23.331  21.575  1.00  0.00    -0.080 Cl
BRANCH  11  21
ATOM     21  C   UNL A   1      30.259  26.110  24.742  1.00  0.00     0.429 C 
ATOM     22  F   UNL A   1      30.208  26.681  25.969  1.00  0.00    -0.167 F 
ATOM     23  F   UNL A   1      31.095  26.864  23.990  1.00  0.00    -0.167 F 
ATOM     24  F   UNL A   1      29.024  26.222  24.196  1.00  0.00    -0.167 F 
ENDBRANCH  11  21
ENDBRANCH   7   9
ENDBRANCH   4   5
ENDBRANCH   3   4
ENDBRANCH   2   3
ENDBRANCH   1   2
BRANCH   1  25
ATOM     25  C   UNL A   1      37.055  19.675  24.979  1.00  0.00     0.021 C 
BRANCH  25  26
ATOM     26  C   UNL A   1      38.350  20.302  25.491  1.00  0.00     0.116 C 
BRANCH  26  27
ATOM     27  N   UNL A   1      39.446  19.354  25.581  1.00  0.00    -0.352 N 
ATOM     28  C   UNL A   1      40.742  19.528  25.996  1.00  0.00     0.251 C 
ATOM     29  H   UNL A   1      39.223  18.437  25.296  1.00  0.00     0.163 HD
ATOM     30  O   UNL A   1      41.544  18.607  25.871  1.00  0.00    -0.269 OA
BRANCH  28  31
ATOM     31  C   UNL A   1      41.198  20.815  26.573  1.00  0.00     0.039 A 
ATOM     32  C   UNL A   1      41.755  21.769  25.713  1.00  0.00     0.014 A 
ATOM     33  C   UNL A   1      41.132  21.076  27.943  1.00  0.00     0.014 A 
ATOM     34  C   UNL A   1      42.193  22.996  26.216  1.00  0.00     0.010 A 
ATOM     35  C   UNL A   1      41.509  22.327  28.437  1.00  0.00     0.010 A 
ATOM     36  C   UNL A   1      42.048  23.298  27.579  1.00  0.00    -0.014 A 
BRANCH  36  37
ATOM     37  C   UNL A   1      42.461  24.620  28.119  1.00  0.00     0.031 A 
ATOM     38  C   UNL A   1      41.445  25.709  28.330  1.00  0.00     0.074 A 
ATOM     39  C   UNL A   1      43.763  24.858  28.375  1.00  0.00     0.049 A 
ATOM     40  N   UNL A   1      41.623  26.940  28.738  1.00  0.00    -0.248 NA
ATOM     41  C   UNL A   1      40.044  25.378  28.021  1.00  0.00     0.031 C 
ATOM     42  C   UNL A   1      44.853  23.901  28.179  1.00  0.00     0.029 A 
ATOM     43  N   UNL A   1      44.392  25.983  28.848  1.00  0.00    -0.354 N 
ATOM     44  C   UNL A   1      40.366  27.532  28.721  1.00  0.00     0.074 A 
ATOM     45  C   UNL A   1      39.441  26.540  28.219  1.00  0.00     0.031 C 
ATOM     46  C   UNL A   1      46.012  24.470  28.546  1.00  0.00     0.029 A 
ATOM     47  C   UNL A   1      45.754  25.844  28.969  1.00  0.00     0.049 A 
ATOM     48  H   UNL A   1      43.912  26.811  29.080  1.00  0.00     0.167 HD
ATOM     49  C   UNL A   1      40.011  28.781  29.109  1.00  0.00     0.037 A 
ATOM     50  C   UNL A   1      46.691  26.726  29.367  1.00  0.00     0.037 A 
ATOM     51  C   UNL A   1      40.929  29.759  29.634  1.00  0.00     0.049 A 
ATOM     52  C   UNL A   1      46.271  28.109  29.782  1.00  0.00     0.074 A 
ATOM     53  C   UNL A   1      40.656  31.030  30.108  1.00  0.00     0.029 A 
ATOM     54  N   UNL A   1      42.298  29.575  29.751  1.00  0.00    -0.354 N 
ATOM     55  N   UNL A   1      45.070  28.632  29.822  1.00  0.00    -0.248 NA
ATOM     56  C   UNL A   1      47.338  29.024  30.212  1.00  0.00     0.031 C 
ATOM     57  C   UNL A   1      41.864  31.632  30.470  1.00  0.00     0.029 A 
ATOM     58  C   UNL A   1      42.885  30.717  30.270  1.00  0.00     0.049 A 
ATOM     59  H   UNL A   1      42.782  28.754  29.504  1.00  0.00     0.167 HD
ATOM     60  C   UNL A   1      45.232  29.923  30.310  1.00  0.00     0.074 A 
ATOM     61  C   UNL A   1      46.646  30.098  30.564  1.00  0.00     0.031 C 
ATOM     62  C   UNL A   1      44.293  30.875  30.528  1.00  0.00     0.037 A 
BRANCH  49  63
ATOM     63  C   UNL A   1      38.565  29.164  28.985  1.00  0.00     0.057 A 
ATOM     64  C   UNL A   1      37.686  29.091  30.074  1.00  0.00     0.134 A 
ATOM     65  C   UNL A   1      38.056  29.658  27.777  1.00  0.00     0.134 A 
ATOM     66  F   UNL A   1      38.106  28.617  31.256  1.00  0.00    -0.206 F 
ATOM     67  C   UNL A   1      36.348  29.475  29.959  1.00  0.00     0.040 A 
ATOM     68  C   UNL A   1      36.728  30.071  27.658  1.00  0.00     0.040 A 
ATOM     69  F   UNL A   1      38.846  29.762  26.697  1.00  0.00    -0.206 F 
ATOM     70  C   UNL A   1      35.868  29.974  28.750  1.00  0.00     0.006 A 
ENDBRANCH  49  63
BRANCH  50  71
ATOM     71  C   UNL A   1      48.121  26.327  29.409  1.00  0.00     0.057 A 
ATOM     72  C   UNL A   1      48.951  26.499  28.294  1.00  0.00     0.134 A 
ATOM     73  C   UNL A   1      48.687  25.748  30.550  1.00  0.00     0.134 A 
ATOM     74  F   UNL A   1      48.462  27.030  27.163  1.00  0.00    -0.206 F 
ATOM     75  C   UNL A   1      50.285  26.087  28.305  1.00  0.00     0.040 A 
ATOM     76  C   UNL A   1      50.026  25.356  30.584  1.00  0.00     0.040 A 
ATOM     77  F   UNL A   1      47.947  25.561  31.653  1.00  0.00    -0.206 F 
ATOM     78  C   UNL A   1      50.827  25.517  29.455  1.00  0.00     0.006 A 
ENDBRANCH  50  71
BRANCH  62  79
ATOM     79  C   UNL A   1      44.759  32.180  31.106  1.00  0.00     0.057 A 
ATOM     80  C   UNL A   1      45.122  33.263  30.294  1.00  0.00     0.134 A 
ATOM     81  C   UNL A   1      44.809  32.366  32.493  1.00  0.00     0.134 A 
ATOM     82  F   UNL A   1      45.108  33.145  28.958  1.00  0.00    -0.206 F 
ATOM     83  C   UNL A   1      45.538  34.476  30.843  1.00  0.00     0.040 A 
ATOM     84  C   UNL A   1      45.198  33.584  33.052  1.00  0.00     0.040 A 
ATOM     85  F   UNL A   1      44.467  31.372  33.327  1.00  0.00    -0.206 F 
ATOM     86  C   UNL A   1      45.570  34.641  32.226  1.00  0.00     0.006 A 
ENDBRANCH  62  79
ENDBRANCH  36  37
ENDBRANCH  28  31
ENDBRANCH  26  27
ENDBRANCH  25  26
ENDBRANCH   1  25
TORSDOF 14
ENDMDL
MODEL 2
REMARK VINA RESULT:     -11.7      4.394      8.924
REMARK SMILES O=C(NCCCCCCNC(=O)c1ccc(-c2c3nc(c(-c4c(F)cccc4F)c4ccc([nH]4)c(-c4c(F)cccc4F)c4nc(c(-c5c(F)cccc5F)c5ccc2[nH]5)C=C4)C=C3)cc1)C1=Cc2cc(Cl)cc(Cl)c2O[C@@H]1C(F)(F)F
REMARK SMILES IDX 7 1 6 2 5 3 4 4 3 5 1 6 2 7 67 9 68 10 78 11 69 12 77 13
REMARK SMILES IDX 70 14 76 15 71 16 74 17 72 18 73 19 75 20 79 21 80 22 81 23
REMARK SMILES IDX 82 24 8 25 9 26 10 27 11 28 12 30 13 31 14 32 66 33 15 34
REMARK SMILES IDX 65 35 16 36 17 37 18 38 59 39 19 40 64 41 58 42 60 43 20 44
REMARK SMILES IDX 63 45 57 46 56 47 21 49 47 50 30 51 46 52 31 53 34 54 45 55
REMARK SMILES IDX 61 56 32 57 33 58 44 60 62 61 35 62 22 63 23 64 28 65 24 66
REMARK SMILES IDX 25 67 27 68 29 69 26 70 48 71 49 72 54 73 50 74 51 75 53 76
REMARK SMILES IDX 55 77 52 78 36 79 37 80 42 81 38 82 39 83 41 84 43 85 40 86
REMARK H PARENT 3 8 10 29 60 48 34 59
REMARK Flexibility Score: inf
ROOT
ATOM      1  C   UNL A   1      31.427  30.428  26.129  1.00  0.00     0.002 C 
ENDROOT
BRANCH   1   2
ATOM      2  C   UNL A   1      32.219  29.491  27.048  1.00  0.00     0.002 C 
BRANCH   2   3
ATOM      3  C   UNL A   1      31.554  28.167  27.422  1.00  0.00     0.021 C 
BRANCH   3   4
ATOM      4  C   UNL A   1      31.517  27.098  26.336  1.00  0.00     0.116 C 
BRANCH   4   5
ATOM      5  N   UNL A   1      30.748  25.910  26.655  1.00  0.00    -0.352 N 
ATOM      6  O   UNL A   1      30.372  23.742  27.109  1.00  0.00    -0.270 OA
ATOM      7  C   UNL A   1      31.128  24.595  26.647  1.00  0.00     0.251 C 
ATOM      8  H   UNL A   1      29.813  26.074  26.917  1.00  0.00     0.163 HD
BRANCH   7   9
ATOM      9  C   UNL A   1      32.476  24.159  26.176  1.00  0.00     0.067 C 
ATOM     10  C   UNL A   1      33.085  23.068  26.671  1.00  0.00     0.025 C 
ATOM     11  C   UNL A   1      32.772  24.585  24.758  1.00  0.00     0.314 C 
ATOM     12  C   UNL A   1      33.126  21.968  25.674  1.00  0.00     0.020 A 
ATOM     13  O   UNL A   1      32.605  23.479  23.832  1.00  0.00    -0.474 OA
ATOM     14  C   UNL A   1      33.225  20.656  26.154  1.00  0.00     0.032 A 
ATOM     15  C   UNL A   1      32.771  22.209  24.335  1.00  0.00     0.146 A 
ATOM     16  C   UNL A   1      32.875  19.594  25.323  1.00  0.00     0.043 A 
ATOM     17  C   UNL A   1      32.450  21.125  23.508  1.00  0.00     0.085 A 
ATOM     18  Cl  UNL A   1      32.808  18.001  25.970  1.00  0.00    -0.084 Cl
ATOM     19  C   UNL A   1      32.481  19.821  24.007  1.00  0.00     0.045 A 
ATOM     20  Cl  UNL A   1      31.880  21.367  21.896  1.00  0.00    -0.080 Cl
BRANCH  11  21
ATOM     21  C   UNL A   1      34.162  25.228  24.618  1.00  0.00     0.429 C 
ATOM     22  F   UNL A   1      34.533  25.856  25.759  1.00  0.00    -0.167 F 
ATOM     23  F   UNL A   1      35.115  24.307  24.345  1.00  0.00    -0.167 F 
ATOM     24  F   UNL A   1      34.202  26.148  23.624  1.00  0.00    -0.167 F 
ENDBRANCH  11  21
ENDBRANCH   7   9
ENDBRANCH   4   5
ENDBRANCH   3   4
ENDBRANCH   2   3
ENDBRANCH   1   2
BRANCH   1  25
ATOM     25  C   UNL A   1      31.374  31.909  26.518  1.00  0.00     0.021 C 
BRANCH  25  26
ATOM     26  C   UNL A   1      32.672  32.525  27.036  1.00  0.00     0.116 C 
BRANCH  26  27
ATOM     27  N   UNL A   1      32.496  33.866  27.565  1.00  0.00    -0.352 N 
ATOM     28  C   UNL A   1      33.181  34.531  28.551  1.00  0.00     0.251 C 
ATOM     29  H   UNL A   1      31.767  34.381  27.148  1.00  0.00     0.163 HD
ATOM     30  O   UNL A   1      32.780  35.628  28.929  1.00  0.00    -0.269 OA
BRANCH  28  31
ATOM     31  C   UNL A   1      34.383  33.939  29.185  1.00  0.00     0.039 A 
ATOM     32  C   UNL A   1      34.202  32.967  30.175  1.00  0.00     0.014 A 
ATOM     33  C   UNL A   1      35.674  34.360  28.857  1.00  0.00     0.014 A 
ATOM     34  C   UNL A   1      35.309  32.382  30.795  1.00  0.00     0.010 A 
ATOM     35  C   UNL A   1      36.781  33.729  29.428  1.00  0.00     0.010 A 
ATOM     36  C   UNL A   1      36.610  32.738  30.406  1.00  0.00    -0.014 A 
BRANCH  36  37
ATOM     37  C   UNL A   1      37.798  32.085  31.019  1.00  0.00     0.031 A 
ATOM     38  C   UNL A   1      38.518  30.981  30.297  1.00  0.00     0.074 A 
ATOM     39  C   UNL A   1      38.199  32.455  32.252  1.00  0.00     0.049 A 
ATOM     40  N   UNL A   1      39.535  30.257  30.694  1.00  0.00    -0.248 NA
ATOM     41  C   UNL A   1      38.018  30.626  28.959  1.00  0.00     0.031 C 
ATOM     42  C   UNL A   1      37.565  33.486  33.075  1.00  0.00     0.029 A 
ATOM     43  N   UNL A   1      39.233  31.999  33.032  1.00  0.00    -0.354 N 
ATOM     44  C   UNL A   1      39.786  29.357  29.665  1.00  0.00     0.074 A 
ATOM     45  C   UNL A   1      38.786  29.593  28.646  1.00  0.00     0.031 C 
ATOM     46  C   UNL A   1      38.233  33.598  34.234  1.00  0.00     0.029 A 
ATOM     47  C   UNL A   1      39.319  32.623  34.253  1.00  0.00     0.049 A 
ATOM     48  H   UNL A   1      39.854  31.292  32.743  1.00  0.00     0.167 HD
ATOM     49  C   UNL A   1      40.771  28.433  29.568  1.00  0.00     0.037 A 
ATOM     50  C   UNL A   1      40.172  32.427  35.277  1.00  0.00     0.037 A 
ATOM     51  C   UNL A   1      41.782  28.216  30.572  1.00  0.00     0.049 A 
ATOM     52  C   UNL A   1      41.250  31.386  35.148  1.00  0.00     0.074 A 
ATOM     53  C   UNL A   1      42.856  27.343  30.539  1.00  0.00     0.029 A 
ATOM     54  N   UNL A   1      41.841  28.877  31.788  1.00  0.00    -0.354 N 
ATOM     55  N   UNL A   1      41.514  30.588  34.142  1.00  0.00    -0.248 NA
ATOM     56  C   UNL A   1      42.154  31.222  36.296  1.00  0.00     0.031 C 
ATOM     57  C   UNL A   1      43.539  27.443  31.754  1.00  0.00     0.029 A 
ATOM     58  C   UNL A   1      42.921  28.416  32.524  1.00  0.00     0.049 A 
ATOM     59  H   UNL A   1      41.211  29.572  32.086  1.00  0.00     0.167 HD
ATOM     60  C   UNL A   1      42.629  29.852  34.522  1.00  0.00     0.074 A 
ATOM     61  C   UNL A   1      43.000  30.308  35.845  1.00  0.00     0.031 C 
ATOM     62  C   UNL A   1      43.286  28.886  33.835  1.00  0.00     0.037 A 
BRANCH  49  63
ATOM     63  C   UNL A   1      40.811  27.583  28.331  1.00  0.00     0.057 A 
ATOM     64  C   UNL A   1      40.085  26.389  28.231  1.00  0.00     0.134 A 
ATOM     65  C   UNL A   1      41.546  27.987  27.208  1.00  0.00     0.134 A 
ATOM     66  F   UNL A   1      39.369  25.940  29.272  1.00  0.00    -0.206 F 
ATOM     67  C   UNL A   1      40.104  25.618  27.067  1.00  0.00     0.040 A 
ATOM     68  C   UNL A   1      41.551  27.239  26.031  1.00  0.00     0.040 A 
ATOM     69  F   UNL A   1      42.258  29.124  27.234  1.00  0.00    -0.206 F 
ATOM     70  C   UNL A   1      40.833  26.046  25.960  1.00  0.00     0.006 A 
ENDBRANCH  49  63
BRANCH  50  71
ATOM     71  C   UNL A   1      40.055  33.243  36.513  1.00  0.00     0.057 A 
ATOM     72  C   UNL A   1      39.176  32.875  37.540  1.00  0.00     0.134 A 
ATOM     73  C   UNL A   1      40.798  34.415  36.690  1.00  0.00     0.134 A 
ATOM     74  F   UNL A   1      38.421  31.773  37.420  1.00  0.00    -0.206 F 
ATOM     75  C   UNL A   1      39.023  33.657  38.686  1.00  0.00     0.040 A 
ATOM     76  C   UNL A   1      40.675  35.191  37.843  1.00  0.00     0.040 A 
ATOM     77  F   UNL A   1      41.662  34.818  35.747  1.00  0.00    -0.206 F 
ATOM     78  C   UNL A   1      39.778  34.818  38.842  1.00  0.00     0.006 A 
ENDBRANCH  50  71
BRANCH  62  79
ATOM     79  C   UNL A   1      44.498  28.283  34.485  1.00  0.00     0.057 A 
ATOM     80  C   UNL A   1      44.421  27.123  35.266  1.00  0.00     0.134 A 
ATOM     81  C   UNL A   1      45.763  28.853  34.296  1.00  0.00     0.134 A 
ATOM     82  F   UNL A   1      43.236  26.536  35.496  1.00  0.00    -0.206 F 
ATOM     83  C   UNL A   1      45.556  26.563  35.852  1.00  0.00     0.040 A 
ATOM     84  C   UNL A   1      46.910  28.286  34.854  1.00  0.00     0.040 A 
ATOM     85  F   UNL A   1      45.908  29.960  33.552  1.00  0.00    -0.206 F 
ATOM     86  C   UNL A   1      46.806  27.141  35.641  1.00  0.00     0.006 A 
ENDBRANCH  62  79
ENDBRANCH  36  37
ENDBRANCH  28  31
ENDBRANCH  26  27
ENDBRANCH  25  26
ENDBRANCH   1  25
TORSDOF 14
ENDMDL
MODEL 3
REMARK VINA RESULT:     -11.7      1.613      2.557
REMARK SMILES O=C(NCCCCCCNC(=O)c1ccc(-c2c3nc(c(-c4c(F)cccc4F)c4ccc([nH]4)c(-c4c(F)cccc4F)c4nc(c(-c5c(F)cccc5F)c5ccc2[nH]5)C=C4)C=C3)cc1)C1=Cc2cc(Cl)cc(Cl)c2O[C@@H]1C(F)(F)F
REMARK SMILES IDX 7 1 6 2 5 3 4 4 3 5 1 6 2 7 67 9 68 10 78 11 69 12 77 13
REMARK SMILES IDX 70 14 76 15 71 16 74 17 72 18 73 19 75 20 79 21 80 22 81 23
REMARK SMILES IDX 82 24 8 25 9 26 10 27 11 28 12 30 13 31 14 32 66 33 15 34
REMARK SMILES IDX 65 35 16 36 17 37 18 38 59 39 19 40 64 41 58 42 60 43 20 44
REMARK SMILES IDX 63 45 57 46 56 47 21 49 47 50 30 51 46 52 31 53 34 54 45 55
REMARK SMILES IDX 61 56 32 57 33 58 44 60 62 61 35 62 22 63 23 64 28 65 24 66
REMARK SMILES IDX 25 67 27 68 29 69 26 70 48 71 49 72 54 73 50 74 51 75 53 76
REMARK SMILES IDX 55 77 52 78 36 79 37 80 42 81 38 82 39 83 41 84 43 85 40 86
REMARK H PARENT 3 8 10 29 60 48 34 59
REMARK Flexibility Score: inf
ROOT
ATOM      1  C   UNL A   1      36.203  20.603  24.773  1.00  0.00     0.002 C 
ENDROOT
BRANCH   1   2
ATOM      2  C   UNL A   1      34.814  19.961  24.873  1.00  0.00     0.002 C 
BRANCH   2   3
ATOM      3  C   UNL A   1      33.788  20.669  25.754  1.00  0.00     0.021 C 
BRANCH   3   4
ATOM      4  C   UNL A   1      32.379  20.796  25.185  1.00  0.00     0.116 C 
BRANCH   4   5
ATOM      5  N   UNL A   1      31.507  21.727  25.877  1.00  0.00    -0.352 N 
ATOM      6  O   UNL A   1      30.335  23.614  26.210  1.00  0.00    -0.270 OA
ATOM      7  C   UNL A   1      31.232  23.038  25.596  1.00  0.00     0.251 C 
ATOM      8  H   UNL A   1      31.045  21.361  26.666  1.00  0.00     0.163 HD
BRANCH   7   9
ATOM      9  C   UNL A   1      31.923  23.780  24.501  1.00  0.00     0.067 C 
ATOM     10  C   UNL A   1      31.242  24.436  23.545  1.00  0.00     0.025 C 
ATOM     11  C   UNL A   1      33.294  24.273  24.896  1.00  0.00     0.314 C 
ATOM     12  C   UNL A   1      31.365  25.908  23.702  1.00  0.00     0.020 A 
ATOM     13  O   UNL A   1      33.271  25.691  25.209  1.00  0.00    -0.474 OA
ATOM     14  C   UNL A   1      30.349  26.708  23.166  1.00  0.00     0.032 A 
ATOM     15  C   UNL A   1      32.291  26.451  24.611  1.00  0.00     0.146 A 
ATOM     16  C   UNL A   1      30.202  28.020  23.612  1.00  0.00     0.043 A 
ATOM     17  C   UNL A   1      32.143  27.780  25.026  1.00  0.00     0.085 A 
ATOM     18  Cl  UNL A   1      28.840  28.939  23.103  1.00  0.00    -0.084 Cl
ATOM     19  C   UNL A   1      31.087  28.557  24.544  1.00  0.00     0.045 A 
ATOM     20  Cl  UNL A   1      33.168  28.459  26.238  1.00  0.00    -0.080 Cl
BRANCH  11  21
ATOM     21  C   UNL A   1      34.360  23.950  23.836  1.00  0.00     0.429 C 
ATOM     22  F   UNL A   1      34.090  22.785  23.202  1.00  0.00    -0.167 F 
ATOM     23  F   UNL A   1      34.428  24.911  22.884  1.00  0.00    -0.167 F 
ATOM     24  F   UNL A   1      35.598  23.836  24.374  1.00  0.00    -0.167 F 
ENDBRANCH  11  21
ENDBRANCH   7   9
ENDBRANCH   4   5
ENDBRANCH   3   4
ENDBRANCH   2   3
ENDBRANCH   1   2
BRANCH   1  25
ATOM     25  C   UNL A   1      37.415  19.676  24.919  1.00  0.00     0.021 C 
BRANCH  25  26
ATOM     26  C   UNL A   1      38.610  20.234  25.689  1.00  0.00     0.116 C 
BRANCH  26  27
ATOM     27  N   UNL A   1      39.755  19.342  25.689  1.00  0.00    -0.352 N 
ATOM     28  C   UNL A   1      41.065  19.574  26.028  1.00  0.00     0.251 C 
ATOM     29  H   UNL A   1      39.561  18.421  25.397  1.00  0.00     0.163 HD
ATOM     30  O   UNL A   1      41.903  18.698  25.832  1.00  0.00    -0.269 OA
BRANCH  28  31
ATOM     31  C   UNL A   1      41.491  20.870  26.606  1.00  0.00     0.039 A 
ATOM     32  C   UNL A   1      41.995  21.849  25.743  1.00  0.00     0.014 A 
ATOM     33  C   UNL A   1      41.448  21.117  27.980  1.00  0.00     0.014 A 
ATOM     34  C   UNL A   1      42.403  23.086  26.247  1.00  0.00     0.010 A 
ATOM     35  C   UNL A   1      41.794  22.375  28.477  1.00  0.00     0.010 A 
ATOM     36  C   UNL A   1      42.280  23.371  27.616  1.00  0.00    -0.014 A 
BRANCH  36  37
ATOM     37  C   UNL A   1      42.662  24.702  28.159  1.00  0.00     0.031 A 
ATOM     38  C   UNL A   1      41.620  25.767  28.367  1.00  0.00     0.074 A 
ATOM     39  C   UNL A   1      43.957  24.969  28.420  1.00  0.00     0.049 A 
ATOM     40  N   UNL A   1      41.769  27.002  28.777  1.00  0.00    -0.248 NA
ATOM     41  C   UNL A   1      40.229  25.405  28.054  1.00  0.00     0.031 C 
ATOM     42  C   UNL A   1      45.069  24.037  28.226  1.00  0.00     0.029 A 
ATOM     43  N   UNL A   1      44.559  26.107  28.896  1.00  0.00    -0.354 N 
ATOM     44  C   UNL A   1      40.499  27.565  28.757  1.00  0.00     0.074 A 
ATOM     45  C   UNL A   1      39.598  26.553  28.250  1.00  0.00     0.031 C 
ATOM     46  C   UNL A   1      46.213  24.632  28.598  1.00  0.00     0.029 A 
ATOM     47  C   UNL A   1      45.923  25.999  29.021  1.00  0.00     0.049 A 
ATOM     48  H   UNL A   1      44.060  26.924  29.127  1.00  0.00     0.167 HD
ATOM     49  C   UNL A   1      40.115  28.805  29.145  1.00  0.00     0.037 A 
ATOM     50  C   UNL A   1      46.839  26.901  29.423  1.00  0.00     0.037 A 
ATOM     51  C   UNL A   1      41.009  29.803  29.674  1.00  0.00     0.049 A 
ATOM     52  C   UNL A   1      46.386  28.275  29.838  1.00  0.00     0.074 A 
ATOM     53  C   UNL A   1      40.705  31.067  30.149  1.00  0.00     0.029 A 
ATOM     54  N   UNL A   1      42.381  29.650  29.796  1.00  0.00    -0.354 N 
ATOM     55  N   UNL A   1      45.173  28.770  29.875  1.00  0.00    -0.248 NA
ATOM     56  C   UNL A   1      47.430  29.213  30.273  1.00  0.00     0.031 C 
ATOM     57  C   UNL A   1      41.898  31.696  30.516  1.00  0.00     0.029 A 
ATOM     58  C   UNL A   1      42.941  30.805  30.318  1.00  0.00     0.049 A 
ATOM     59  H   UNL A   1      42.884  28.840  29.549  1.00  0.00     0.167 HD
ATOM     60  C   UNL A   1      45.305  30.063  30.365  1.00  0.00     0.074 A 
ATOM     61  C   UNL A   1      46.714  30.271  30.624  1.00  0.00     0.031 C 
ATOM     62  C   UNL A   1      44.344  30.994  30.581  1.00  0.00     0.037 A 
BRANCH  49  63
ATOM     63  C   UNL A   1      38.661  29.156  29.017  1.00  0.00     0.057 A 
ATOM     64  C   UNL A   1      37.792  29.116  30.115  1.00  0.00     0.134 A 
ATOM     65  C   UNL A   1      38.133  29.585  27.791  1.00  0.00     0.134 A 
ATOM     66  F   UNL A   1      38.230  28.704  31.314  1.00  0.00    -0.206 F 
ATOM     67  C   UNL A   1      36.446  29.470  29.995  1.00  0.00     0.040 A 
ATOM     68  C   UNL A   1      36.797  29.967  27.665  1.00  0.00     0.040 A 
ATOM     69  F   UNL A   1      38.912  29.654  26.701  1.00  0.00    -0.206 F 
ATOM     70  C   UNL A   1      35.948  29.905  28.769  1.00  0.00     0.006 A 
ENDBRANCH  49  63
BRANCH  50  71
ATOM     71  C   UNL A   1      48.277  26.535  29.470  1.00  0.00     0.057 A 
ATOM     72  C   UNL A   1      49.126  26.805  28.389  1.00  0.00     0.134 A 
ATOM     73  C   UNL A   1      48.833  25.890  30.580  1.00  0.00     0.134 A 
ATOM     74  F   UNL A   1      48.648  27.404  27.288  1.00  0.00    -0.206 F 
ATOM     75  C   UNL A   1      50.470  26.426  28.402  1.00  0.00     0.040 A 
ATOM     76  C   UNL A   1      50.181  25.529  30.617  1.00  0.00     0.040 A 
ATOM     77  F   UNL A   1      48.076  25.608  31.650  1.00  0.00    -0.206 F 
ATOM     78  C   UNL A   1      51.001  25.789  29.521  1.00  0.00     0.006 A 
ENDBRANCH  50  71
BRANCH  62  79
ATOM     79  C   UNL A   1      44.777  32.309  31.162  1.00  0.00     0.057 A 
ATOM     80  C   UNL A   1      44.857  32.517  32.545  1.00  0.00     0.134 A 
ATOM     81  C   UNL A   1      45.154  33.366  30.325  1.00  0.00     0.134 A 
ATOM     82  F   UNL A   1      44.497  31.549  33.401  1.00  0.00    -0.206 F 
ATOM     83  C   UNL A   1      45.276  33.739  33.074  1.00  0.00     0.040 A 
ATOM     84  C   UNL A   1      45.602  34.583  30.843  1.00  0.00     0.040 A 
ATOM     85  F   UNL A   1      45.110  33.229  28.991  1.00  0.00    -0.206 F 
ATOM     86  C   UNL A   1      45.657  34.773  32.221  1.00  0.00     0.006 A 
ENDBRANCH  62  79
ENDBRANCH  36  37
ENDBRANCH  28  31
ENDBRANCH  26  27
ENDBRANCH  25  26
ENDBRANCH   1  25
TORSDOF 14
ENDMDL
