MODEL 1
REMARK VINA RESULT:     -12.4      0.000      0.000
REMARK SMILES Cc1cccc(C[N@H+]2CC[C@@](C)(C(=O)NCCCCCCNC(=O)c3ccc(-c4c5nc(c(-c6c(F)cccc6F)c6ccc([nH]6)c(-c6c(F)cccc6F)c6nc(c(-c7c(F)cccc7F)c7ccc4[nH]7)C=C6)C=C5)cc3)C2)n1
REMARK SMILES IDX 18 1 17 2 16 3 15 4 13 5 14 6 11 8 8 9 9 10 79 11 10 13
REMARK SMILES IDX 12 14 7 15 6 16 1 17 2 18 3 19 80 20 4 21 5 22 19 23 20 24
REMARK SMILES IDX 21 25 22 26 23 27 24 29 25 30 26 31 78 32 27 33 77 34 28 35
REMARK SMILES IDX 29 36 30 37 71 38 31 39 76 40 70 41 72 42 32 43 75 44 69 45
REMARK SMILES IDX 68 46 33 48 59 49 42 50 58 51 43 52 46 53 57 54 73 55 44 56
REMARK SMILES IDX 45 57 56 59 74 60 47 61 34 62 35 63 40 64 36 65 37 66 39 67
REMARK SMILES IDX 41 68 38 69 60 70 61 71 66 72 62 73 63 74 65 75 67 76 64 77
REMARK SMILES IDX 48 78 49 79 54 80 50 81 51 82 53 83 55 84 52 85
REMARK H PARENT 15 7 8 12 22 28 72 47 46 58
REMARK Flexibility Score: inf
ROOT
ATOM      1  C   UNL A   1      32.335  29.789  26.083  1.00  0.00     0.002 C 
ENDROOT
BRANCH   1   2
ATOM      2  C   UNL A   1      31.880  28.180  26.665  1.00  0.00     0.021 C 
BRANCH   2   3
ATOM      3  C   UNL A   1      32.865  26.235  26.513  1.00  0.00     0.116 C 
BRANCH   3   4
ATOM      4  N   UNL A   1      34.108  25.726  25.742  1.00  0.00    -0.355 N 
ATOM      5  C   UNL A   1      34.447  24.460  25.396  1.00  0.00     0.231 C 
ATOM      6  O   UNL A   1      35.566  24.366  24.876  1.00  0.00    -0.274 OA
ATOM      7  H   UNL A   1      34.744  26.423  25.463  1.00  0.00     0.163 HD
BRANCH   5   8
ATOM      8  C   UNL A   1      33.481  23.234  25.503  1.00  0.00     0.100 C 
ATOM      9  N   UNL A   1      31.450  22.972  24.113  1.00  0.00    -0.329 N 
ATOM     10  C   UNL A   1      32.543  22.283  23.422  1.00  0.00     0.263 C 
ATOM     11  C   UNL A   1      31.955  23.470  25.416  1.00  0.00     0.279 C 
ATOM     12  H   UNL A   1      30.716  22.288  24.290  1.00  0.00     0.348 HD
ATOM     13  C   UNL A   1      33.746  22.230  24.370  1.00  0.00     0.084 C 
ATOM     14  C   UNL A   1      33.820  22.596  26.872  1.00  0.00     0.028 C 
BRANCH   9  15
ATOM     15  C   UNL A   1      30.652  23.947  23.306  1.00  0.00     0.319 C 
BRANCH  15  16
ATOM     16  C   UNL A   1      30.833  25.453  23.652  1.00  0.00     0.095 A 
ATOM     17  C   UNL A   1      33.920  28.291  22.375  1.00  0.00     0.067 C 
ATOM     18  C   UNL A   1      32.546  27.806  22.697  1.00  0.00     0.038 A 
ATOM     19  C   UNL A   1      31.081  28.869  22.611  1.00  0.00     0.023 A 
ATOM     20  N   UNL A   1      32.389  26.121  23.153  1.00  0.00    -0.252 NA
ATOM     21  C   UNL A   1      29.493  28.206  23.168  1.00  0.00     0.004 A 
ATOM     22  C   UNL A   1      29.366  26.470  23.642  1.00  0.00     0.030 A 
ENDBRANCH  15  16
ENDBRANCH   9  15
ENDBRANCH   5   8
ENDBRANCH   3   4
ENDBRANCH   2   3
ENDBRANCH   1   2
BRANCH   1  23
ATOM     23  C   UNL A   1      31.256  30.700  25.457  1.00  0.00     0.002 C 
BRANCH  23  24
ATOM     24  C   UNL A   1      31.028  31.990  26.218  1.00  0.00     0.021 C 
BRANCH  24  25
ATOM     25  C   UNL A   1      32.272  32.396  26.975  1.00  0.00     0.116 C 
BRANCH  25  26
ATOM     26  N   UNL A   1      32.227  33.829  27.258  1.00  0.00    -0.352 N 
ATOM     27  C   UNL A   1      32.932  34.463  28.250  1.00  0.00     0.251 C 
ATOM     28  H   UNL A   1      31.643  34.383  26.693  1.00  0.00     0.163 HD
ATOM     29  O   UNL A   1      32.570  35.515  28.752  1.00  0.00    -0.269 OA
BRANCH  27  30
ATOM     30  C   UNL A   1      34.164  33.781  28.667  1.00  0.00     0.039 A 
ATOM     31  C   UNL A   1      35.403  34.366  28.424  1.00  0.00     0.014 A 
ATOM     32  C   UNL A   1      34.020  32.673  29.512  1.00  0.00     0.014 A 
ATOM     33  C   UNL A   1      36.518  33.848  29.078  1.00  0.00     0.010 A 
ATOM     34  C   UNL A   1      35.103  32.257  30.258  1.00  0.00     0.010 A 
ATOM     35  C   UNL A   1      36.366  32.817  30.024  1.00  0.00    -0.014 A 
BRANCH  35  36
ATOM     36  C   UNL A   1      37.522  32.251  30.749  1.00  0.00     0.031 A 
ATOM     37  C   UNL A   1      38.260  31.096  30.131  1.00  0.00     0.074 A 
ATOM     38  C   UNL A   1      37.860  32.725  31.962  1.00  0.00     0.049 A 
ATOM     39  N   UNL A   1      39.230  30.376  30.628  1.00  0.00    -0.248 NA
ATOM     40  C   UNL A   1      37.825  30.670  28.787  1.00  0.00     0.031 C 
ATOM     41  C   UNL A   1      37.181  33.812  32.672  1.00  0.00     0.029 A 
ATOM     42  N   UNL A   1      38.857  32.343  32.820  1.00  0.00    -0.354 N 
ATOM     43  C   UNL A   1      39.517  29.423  29.661  1.00  0.00     0.074 A 
ATOM     44  C   UNL A   1      38.568  29.593  28.588  1.00  0.00     0.031 C 
ATOM     45  C   UNL A   1      37.800  34.025  33.845  1.00  0.00     0.029 A 
ATOM     46  C   UNL A   1      38.880  33.057  33.994  1.00  0.00     0.049 A 
ATOM     47  H   UNL A   1      39.498  31.624  32.614  1.00  0.00     0.167 HD
ATOM     48  C   UNL A   1      40.515  28.511  29.650  1.00  0.00     0.037 A 
ATOM     49  C   UNL A   1      39.674  32.922  35.073  1.00  0.00     0.037 A 
ATOM     50  C   UNL A   1      41.466  28.362  30.715  1.00  0.00     0.049 A 
ATOM     51  C   UNL A   1      40.739  31.857  35.058  1.00  0.00     0.074 A 
ATOM     52  C   UNL A   1      42.536  27.491  30.794  1.00  0.00     0.029 A 
ATOM     53  N   UNL A   1      41.459  29.104  31.886  1.00  0.00    -0.354 N 
ATOM     54  N   UNL A   1      41.045  31.006  34.107  1.00  0.00    -0.248 NA
ATOM     55  C   UNL A   1      41.569  31.731  36.264  1.00  0.00     0.031 C 
ATOM     56  C   UNL A   1      43.144  27.667  32.039  1.00  0.00     0.029 A 
ATOM     57  C   UNL A   1      42.490  28.689  32.709  1.00  0.00     0.049 A 
ATOM     58  H   UNL A   1      40.817  29.820  32.099  1.00  0.00     0.167 HD
ATOM     59  C   UNL A   1      42.117  30.265  34.590  1.00  0.00     0.074 A 
ATOM     60  C   UNL A   1      42.426  30.787  35.904  1.00  0.00     0.031 C 
ATOM     61  C   UNL A   1      42.782  29.238  34.007  1.00  0.00     0.037 A 
BRANCH  48  62
ATOM     62  C   UNL A   1      40.638  27.627  28.446  1.00  0.00     0.057 A 
ATOM     63  C   UNL A   1      39.967  26.400  28.364  1.00  0.00     0.134 A 
ATOM     64  C   UNL A   1      41.387  28.030  27.335  1.00  0.00     0.134 A 
ATOM     65  F   UNL A   1      39.248  25.946  29.401  1.00  0.00    -0.206 F 
ATOM     66  C   UNL A   1      40.044  25.600  27.223  1.00  0.00     0.040 A 
ATOM     67  C   UNL A   1      41.448  27.254  26.177  1.00  0.00     0.040 A 
ATOM     68  F   UNL A   1      42.057  29.193  27.349  1.00  0.00    -0.206 F 
ATOM     69  C   UNL A   1      40.778  26.034  26.120  1.00  0.00     0.006 A 
ENDBRANCH  48  62
BRANCH  49  70
ATOM     70  C   UNL A   1      39.487  33.788  36.268  1.00  0.00     0.057 A 
ATOM     71  C   UNL A   1      40.112  35.037  36.366  1.00  0.00     0.134 A 
ATOM     72  C   UNL A   1      38.726  33.365  37.365  1.00  0.00     0.134 A 
ATOM     73  F   UNL A   1      40.865  35.497  35.357  1.00  0.00    -0.206 F 
ATOM     74  C   UNL A   1      40.029  35.809  37.527  1.00  0.00     0.040 A 
ATOM     75  C   UNL A   1      38.604  34.142  38.518  1.00  0.00     0.040 A 
ATOM     76  F   UNL A   1      38.088  32.185  37.334  1.00  0.00    -0.206 F 
ATOM     77  C   UNL A   1      39.272  35.361  38.607  1.00  0.00     0.006 A 
ENDBRANCH  49  70
BRANCH  61  78
ATOM     78  C   UNL A   1      43.922  28.633  34.773  1.00  0.00     0.057 A 
ATOM     79  C   UNL A   1      45.221  29.148  34.691  1.00  0.00     0.134 A 
ATOM     80  C   UNL A   1      43.704  27.560  35.648  1.00  0.00     0.134 A 
ATOM     81  F   UNL A   1      45.498  30.168  33.864  1.00  0.00    -0.206 F 
ATOM     82  C   UNL A   1      46.269  28.600  35.432  1.00  0.00     0.040 A 
ATOM     83  C   UNL A   1      44.735  27.028  36.419  1.00  0.00     0.040 A 
ATOM     84  F   UNL A   1      42.479  27.029  35.784  1.00  0.00    -0.206 F 
ATOM     85  C   UNL A   1      46.025  27.544  36.307  1.00  0.00     0.006 A 
ENDBRANCH  61  78
ENDBRANCH  35  36
ENDBRANCH  27  30
ENDBRANCH  25  26
ENDBRANCH  24  25
ENDBRANCH  23  24
ENDBRANCH   1  23
TORSDOF 15
ENDMDL
MODEL 2
REMARK VINA RESULT:     -12.4      1.150      6.651
REMARK SMILES Cc1cccc(C[N@H+]2CC[C@@](C)(C(=O)NCCCCCCNC(=O)c3ccc(-c4c5nc(c(-c6c(F)cccc6F)c6ccc([nH]6)c(-c6c(F)cccc6F)c6nc(c(-c7c(F)cccc7F)c7ccc4[nH]7)C=C6)C=C5)cc3)C2)n1
REMARK SMILES IDX 18 1 17 2 16 3 15 4 13 5 14 6 11 8 8 9 9 10 79 11 10 13
REMARK SMILES IDX 12 14 7 15 6 16 1 17 2 18 3 19 80 20 4 21 5 22 19 23 20 24
REMARK SMILES IDX 21 25 22 26 23 27 24 29 25 30 26 31 78 32 27 33 77 34 28 35
REMARK SMILES IDX 29 36 30 37 71 38 31 39 76 40 70 41 72 42 32 43 75 44 69 45
REMARK SMILES IDX 68 46 33 48 59 49 42 50 58 51 43 52 46 53 57 54 73 55 44 56
REMARK SMILES IDX 45 57 56 59 74 60 47 61 34 62 35 63 40 64 36 65 37 66 39 67
REMARK SMILES IDX 41 68 38 69 60 70 61 71 66 72 62 73 63 74 65 75 67 76 64 77
REMARK SMILES IDX 48 78 49 79 54 80 50 81 51 82 53 83 55 84 52 85
REMARK H PARENT 15 7 8 12 22 28 72 47 46 58
REMARK Flexibility Score: inf
ROOT
ATOM      1  C   UNL A   1      31.633  29.904  25.317  1.00  0.00     0.002 C 
ENDROOT
BRANCH   1   2
ATOM      2  C   UNL A   1      32.892  29.230  24.271  1.00  0.00     0.021 C 
BRANCH   2   3
ATOM      3  C   UNL A   1      33.584  27.182  23.946  1.00  0.00     0.116 C 
BRANCH   3   4
ATOM      4  N   UNL A   1      34.152  26.087  24.882  1.00  0.00    -0.355 N 
ATOM      5  C   UNL A   1      33.499  25.266  25.742  1.00  0.00     0.231 C 
ATOM      6  O   UNL A   1      34.251  24.569  26.435  1.00  0.00    -0.274 OA
ATOM      7  H   UNL A   1      35.129  25.970  24.848  1.00  0.00     0.163 HD
BRANCH   5   8
ATOM      8  C   UNL A   1      31.946  25.094  25.779  1.00  0.00     0.100 C 
ATOM      9  N   UNL A   1      30.716  23.494  24.345  1.00  0.00    -0.329 N 
ATOM     10  C   UNL A   1      31.006  22.813  25.608  1.00  0.00     0.263 C 
ATOM     11  C   UNL A   1      31.178  24.900  24.451  1.00  0.00     0.279 C 
ATOM     12  H   UNL A   1      29.704  23.495  24.218  1.00  0.00     0.348 HD
ATOM     13  C   UNL A   1      31.555  23.851  26.594  1.00  0.00     0.084 C 
ATOM     14  C   UNL A   1      31.433  26.375  26.481  1.00  0.00     0.028 C 
BRANCH   9  15
ATOM     15  C   UNL A   1      31.095  22.774  23.089  1.00  0.00     0.319 C 
BRANCH  15  16
ATOM     16  C   UNL A   1      32.430  21.976  23.118  1.00  0.00     0.095 A 
ATOM     17  C   UNL A   1      36.498  23.314  24.051  1.00  0.00     0.067 C 
ATOM     18  C   UNL A   1      35.309  22.412  24.066  1.00  0.00     0.038 A 
ATOM     19  C   UNL A   1      35.307  20.800  24.893  1.00  0.00     0.023 A 
ATOM     20  N   UNL A   1      33.868  22.990  23.254  1.00  0.00    -0.252 NA
ATOM     21  C   UNL A   1      33.856  19.735  24.716  1.00  0.00     0.004 A 
ATOM     22  C   UNL A   1      32.391  20.355  23.863  1.00  0.00     0.030 A 
ENDBRANCH  15  16
ENDBRANCH   9  15
ENDBRANCH   5   8
ENDBRANCH   3   4
ENDBRANCH   2   3
ENDBRANCH   1   2
BRANCH   1  23
ATOM     23  C   UNL A   1      32.023  30.458  26.706  1.00  0.00     0.002 C 
BRANCH  23  24
ATOM     24  C   UNL A   1      31.753  31.940  26.870  1.00  0.00     0.021 C 
BRANCH  24  25
ATOM     25  C   UNL A   1      32.926  32.632  27.525  1.00  0.00     0.116 C 
BRANCH  25  26
ATOM     26  N   UNL A   1      32.678  34.072  27.578  1.00  0.00    -0.352 N 
ATOM     27  C   UNL A   1      33.066  34.905  28.597  1.00  0.00     0.251 C 
ATOM     28  H   UNL A   1      32.193  34.475  26.823  1.00  0.00     0.163 HD
ATOM     29  O   UNL A   1      32.496  35.955  28.848  1.00  0.00    -0.269 OA
BRANCH  27  30
ATOM     30  C   UNL A   1      34.225  34.440  29.370  1.00  0.00     0.039 A 
ATOM     31  C   UNL A   1      34.037  33.676  30.518  1.00  0.00     0.014 A 
ATOM     32  C   UNL A   1      35.484  34.589  28.776  1.00  0.00     0.014 A 
ATOM     33  C   UNL A   1      35.137  33.014  31.058  1.00  0.00     0.010 A 
ATOM     34  C   UNL A   1      36.535  33.822  29.236  1.00  0.00     0.010 A 
ATOM     35  C   UNL A   1      36.379  33.055  30.398  1.00  0.00    -0.014 A 
BRANCH  35  36
ATOM     36  C   UNL A   1      37.565  32.355  30.932  1.00  0.00     0.031 A 
ATOM     37  C   UNL A   1      38.233  32.909  32.160  1.00  0.00     0.074 A 
ATOM     38  C   UNL A   1      38.066  31.283  30.290  1.00  0.00     0.049 A 
ATOM     39  N   UNL A   1      39.339  32.527  32.741  1.00  0.00    -0.248 NA
ATOM     40  C   UNL A   1      37.590  34.072  32.802  1.00  0.00     0.031 C 
ATOM     41  C   UNL A   1      37.522  30.693  29.065  1.00  0.00     0.029 A 
ATOM     42  N   UNL A   1      39.157  30.505  30.576  1.00  0.00    -0.354 N 
ATOM     43  C   UNL A   1      39.517  33.397  33.808  1.00  0.00     0.074 A 
ATOM     44  C   UNL A   1      38.461  34.379  33.748  1.00  0.00     0.031 C 
ATOM     45  C   UNL A   1      38.267  29.629  28.721  1.00  0.00     0.029 A 
ATOM     46  C   UNL A   1      39.369  29.497  29.667  1.00  0.00     0.049 A 
ATOM     47  H   UNL A   1      39.733  30.654  31.360  1.00  0.00     0.167 HD
ATOM     48  C   UNL A   1      40.455  33.354  34.780  1.00  0.00     0.037 A 
ATOM     49  C   UNL A   1      40.359  28.586  29.600  1.00  0.00     0.037 A 
ATOM     50  C   UNL A   1      41.490  32.362  34.841  1.00  0.00     0.049 A 
ATOM     51  C   UNL A   1      41.426  28.600  30.664  1.00  0.00     0.074 A 
ATOM     52  C   UNL A   1      42.475  32.206  35.799  1.00  0.00     0.029 A 
ATOM     53  N   UNL A   1      41.672  31.356  33.905  1.00  0.00    -0.354 N 
ATOM     54  N   UNL A   1      41.543  29.386  31.708  1.00  0.00    -0.248 NA
ATOM     55  C   UNL A   1      42.498  27.603  30.541  1.00  0.00     0.031 C 
ATOM     56  C   UNL A   1      43.289  31.140  35.411  1.00  0.00     0.029 A 
ATOM     57  C   UNL A   1      42.774  30.593  34.246  1.00  0.00     0.049 A 
ATOM     58  H   UNL A   1      41.102  31.206  33.116  1.00  0.00     0.167 HD
ATOM     59  C   UNL A   1      42.684  28.961  32.378  1.00  0.00     0.074 A 
ATOM     60  C   UNL A   1      43.204  27.830  31.639  1.00  0.00     0.031 C 
ATOM     61  C   UNL A   1      43.260  29.463  33.498  1.00  0.00     0.037 A 
BRANCH  48  62
ATOM     62  C   UNL A   1      40.389  34.392  35.859  1.00  0.00     0.057 A 
ATOM     63  C   UNL A   1      41.066  35.614  35.745  1.00  0.00     0.134 A 
ATOM     64  C   UNL A   1      39.597  34.195  36.996  1.00  0.00     0.134 A 
ATOM     65  F   UNL A   1      41.857  35.859  34.690  1.00  0.00    -0.206 F 
ATOM     66  C   UNL A   1      40.965  36.599  36.728  1.00  0.00     0.040 A 
ATOM     67  C   UNL A   1      39.464  35.184  37.971  1.00  0.00     0.040 A 
ATOM     68  F   UNL A   1      38.925  33.046  37.168  1.00  0.00    -0.206 F 
ATOM     69  C   UNL A   1      40.151  36.389  37.841  1.00  0.00     0.006 A 
ENDBRANCH  48  62
BRANCH  49  70
ATOM     70  C   UNL A   1      40.414  27.604  28.485  1.00  0.00     0.057 A 
ATOM     71  C   UNL A   1      41.126  27.875  27.311  1.00  0.00     0.134 A 
ATOM     72  C   UNL A   1      39.710  26.394  28.542  1.00  0.00     0.134 A 
ATOM     73  F   UNL A   1      41.813  29.020  27.186  1.00  0.00    -0.206 F 
ATOM     74  C   UNL A   1      41.096  27.006  26.217  1.00  0.00     0.040 A 
ATOM     75  C   UNL A   1      39.700  25.499  27.471  1.00  0.00     0.040 A 
ATOM     76  F   UNL A   1      39.017  26.064  29.642  1.00  0.00    -0.206 F 
ATOM     77  C   UNL A   1      40.381  25.813  26.297  1.00  0.00     0.006 A 
ENDBRANCH  49  70
BRANCH  61  78
ATOM     78  C   UNL A   1      44.495  28.778  34.003  1.00  0.00     0.057 A 
ATOM     79  C   UNL A   1      45.777  29.203  33.635  1.00  0.00     0.134 A 
ATOM     80  C   UNL A   1      44.401  27.717  34.914  1.00  0.00     0.134 A 
ATOM     81  F   UNL A   1      45.936  30.208  32.758  1.00  0.00    -0.206 F 
ATOM     82  C   UNL A   1      46.922  28.582  34.135  1.00  0.00     0.040 A 
ATOM     83  C   UNL A   1      45.537  27.112  35.447  1.00  0.00     0.040 A 
ATOM     84  F   UNL A   1      43.202  27.270  35.318  1.00  0.00    -0.206 F 
ATOM     85  C   UNL A   1      46.803  27.540  35.052  1.00  0.00     0.006 A 
ENDBRANCH  61  78
ENDBRANCH  35  36
ENDBRANCH  27  30
ENDBRANCH  25  26
ENDBRANCH  24  25
ENDBRANCH  23  24
ENDBRANCH   1  23
TORSDOF 15
ENDMDL
MODEL 3
REMARK VINA RESULT:     -12.4      0.899      6.324
REMARK SMILES Cc1cccc(C[N@H+]2CC[C@@](C)(C(=O)NCCCCCCNC(=O)c3ccc(-c4c5nc(c(-c6c(F)cccc6F)c6ccc([nH]6)c(-c6c(F)cccc6F)c6nc(c(-c7c(F)cccc7F)c7ccc4[nH]7)C=C6)C=C5)cc3)C2)n1
REMARK SMILES IDX 18 1 17 2 16 3 15 4 13 5 14 6 11 8 8 9 9 10 79 11 10 13
REMARK SMILES IDX 12 14 7 15 6 16 1 17 2 18 3 19 80 20 4 21 5 22 19 23 20 24
REMARK SMILES IDX 21 25 22 26 23 27 24 29 25 30 26 31 78 32 27 33 77 34 28 35
REMARK SMILES IDX 29 36 30 37 71 38 31 39 76 40 70 41 72 42 32 43 75 44 69 45
REMARK SMILES IDX 68 46 33 48 59 49 42 50 58 51 43 52 46 53 57 54 73 55 44 56
REMARK SMILES IDX 45 57 56 59 74 60 47 61 34 62 35 63 40 64 36 65 37 66 39 67
REMARK SMILES IDX 41 68 38 69 60 70 61 71 66 72 62 73 63 74 65 75 67 76 64 77
REMARK SMILES IDX 48 78 49 79 54 80 50 81 51 82 53 83 55 84 52 85
REMARK H PARENT 15 7 8 12 22 28 72 47 46 58
REMARK Flexibility Score: inf
ROOT
ATOM      1  C   UNL A   1      32.096  29.825  26.259  1.00  0.00     0.002 C 
ENDROOT
BRANCH   1   2
ATOM      2  C   UNL A   1      31.616  28.173  26.676  1.00  0.00     0.021 C 
BRANCH   2   3
ATOM      3  C   UNL A   1      32.656  26.259  26.502  1.00  0.00     0.116 C 
BRANCH   3   4
ATOM      4  N   UNL A   1      33.948  25.809  25.778  1.00  0.00    -0.355 N 
ATOM      5  C   UNL A   1      34.340  24.563  25.411  1.00  0.00     0.231 C 
ATOM      6  O   UNL A   1      35.485  24.517  24.943  1.00  0.00    -0.274 OA
ATOM      7  H   UNL A   1      34.577  26.532  25.550  1.00  0.00     0.163 HD
BRANCH   5   8
ATOM      8  C   UNL A   1      33.407  23.309  25.435  1.00  0.00     0.100 C 
ATOM      9  N   UNL A   1      31.443  23.040  23.951  1.00  0.00    -0.329 N 
ATOM     10  C   UNL A   1      32.583  22.407  23.285  1.00  0.00     0.263 C 
ATOM     11  C   UNL A   1      31.880  23.505  25.291  1.00  0.00     0.279 C 
ATOM     12  H   UNL A   1      30.723  22.330  24.074  1.00  0.00     0.348 HD
ATOM     13  C   UNL A   1      33.747  22.353  24.281  1.00  0.00     0.084 C 
ATOM     14  C   UNL A   1      33.707  22.632  26.794  1.00  0.00     0.028 C 
BRANCH   9  15
ATOM     15  C   UNL A   1      30.652  24.021  23.145  1.00  0.00     0.319 C 
BRANCH  15  16
ATOM     16  C   UNL A   1      30.766  25.517  23.557  1.00  0.00     0.095 A 
ATOM     17  C   UNL A   1      33.760  28.525  22.459  1.00  0.00     0.067 C 
ATOM     18  C   UNL A   1      32.401  27.973  22.734  1.00  0.00     0.038 A 
ATOM     19  C   UNL A   1      30.897  28.981  22.664  1.00  0.00     0.023 A 
ATOM     20  N   UNL A   1      32.303  26.265  23.116  1.00  0.00    -0.252 NA
ATOM     21  C   UNL A   1      29.327  28.234  23.161  1.00  0.00     0.004 A 
ATOM     22  C   UNL A   1      29.261  26.475  23.561  1.00  0.00     0.030 A 
ENDBRANCH  15  16
ENDBRANCH   9  15
ENDBRANCH   5   8
ENDBRANCH   3   4
ENDBRANCH   2   3
ENDBRANCH   1   2
BRANCH   1  23
ATOM     23  C   UNL A   1      31.038  30.802  25.701  1.00  0.00     0.002 C 
BRANCH  23  24
ATOM     24  C   UNL A   1      31.059  32.168  26.358  1.00  0.00     0.021 C 
BRANCH  24  25
ATOM     25  C   UNL A   1      32.431  32.476  26.915  1.00  0.00     0.116 C 
BRANCH  25  26
ATOM     26  N   UNL A   1      32.479  33.870  27.353  1.00  0.00    -0.352 N 
ATOM     27  C   UNL A   1      33.256  34.351  28.376  1.00  0.00     0.251 C 
ATOM     28  H   UNL A   1      31.907  34.513  26.877  1.00  0.00     0.163 HD
ATOM     29  O   UNL A   1      32.974  35.359  29.004  1.00  0.00    -0.269 OA
BRANCH  27  30
ATOM     30  C   UNL A   1      34.461  33.563  28.663  1.00  0.00     0.039 A 
ATOM     31  C   UNL A   1      35.710  34.175  28.675  1.00  0.00     0.014 A 
ATOM     32  C   UNL A   1      34.267  32.264  29.151  1.00  0.00     0.014 A 
ATOM     33  C   UNL A   1      36.782  33.479  29.228  1.00  0.00     0.010 A 
ATOM     34  C   UNL A   1      35.301  31.640  29.819  1.00  0.00     0.010 A 
ATOM     35  C   UNL A   1      36.573  32.226  29.834  1.00  0.00    -0.014 A 
BRANCH  35  36
ATOM     36  C   UNL A   1      37.682  31.463  30.443  1.00  0.00     0.031 A 
ATOM     37  C   UNL A   1      38.049  31.749  31.872  1.00  0.00     0.074 A 
ATOM     38  C   UNL A   1      38.381  30.580  29.707  1.00  0.00     0.049 A 
ATOM     39  N   UNL A   1      39.045  31.282  32.577  1.00  0.00    -0.248 NA
ATOM     40  C   UNL A   1      37.203  32.717  32.597  1.00  0.00     0.031 C 
ATOM     41  C   UNL A   1      38.137  30.261  28.297  1.00  0.00     0.029 A 
ATOM     42  N   UNL A   1      39.451  29.792  30.042  1.00  0.00    -0.354 N 
ATOM     43  C   UNL A   1      38.941  31.896  33.818  1.00  0.00     0.074 A 
ATOM     44  C   UNL A   1      37.844  32.832  33.748  1.00  0.00     0.031 C 
ATOM     45  C   UNL A   1      39.015  29.326  27.899  1.00  0.00     0.029 A 
ATOM     46  C   UNL A   1      39.915  29.021  29.005  1.00  0.00     0.049 A 
ATOM     47  H   UNL A   1      39.848  29.780  30.943  1.00  0.00     0.167 HD
ATOM     48  C   UNL A   1      39.669  31.667  34.933  1.00  0.00     0.037 A 
ATOM     49  C   UNL A   1      40.967  28.182  28.954  1.00  0.00     0.037 A 
ATOM     50  C   UNL A   1      40.746  30.720  34.997  1.00  0.00     0.049 A 
ATOM     51  C   UNL A   1      41.799  27.991  30.196  1.00  0.00     0.074 A 
ATOM     52  C   UNL A   1      41.532  30.385  36.084  1.00  0.00     0.029 A 
ATOM     53  N   UNL A   1      41.186  29.956  33.927  1.00  0.00    -0.354 N 
ATOM     54  N   UNL A   1      41.647  28.526  31.384  1.00  0.00    -0.248 NA
ATOM     55  C   UNL A   1      42.949  27.082  30.091  1.00  0.00     0.031 C 
ATOM     56  C   UNL A   1      42.486  29.460  35.657  1.00  0.00     0.029 A 
ATOM     57  C   UNL A   1      42.255  29.172  34.321  1.00  0.00     0.049 A 
ATOM     58  H   UNL A   1      40.797  29.968  33.023  1.00  0.00     0.167 HD
ATOM     59  C   UNL A   1      42.663  27.998  32.172  1.00  0.00     0.074 A 
ATOM     60  C   UNL A   1      43.405  27.079  31.335  1.00  0.00     0.031 C 
ATOM     61  C   UNL A   1      42.965  28.255  33.468  1.00  0.00     0.037 A 
BRANCH  48  62
ATOM     62  C   UNL A   1      39.311  32.433  36.169  1.00  0.00     0.057 A 
ATOM     63  C   UNL A   1      39.889  33.678  36.456  1.00  0.00     0.134 A 
ATOM     64  C   UNL A   1      38.338  31.954  37.054  1.00  0.00     0.134 A 
ATOM     65  F   UNL A   1      40.841  34.186  35.659  1.00  0.00    -0.206 F 
ATOM     66  C   UNL A   1      39.520  34.413  37.583  1.00  0.00     0.040 A 
ATOM     67  C   UNL A   1      37.939  32.693  38.168  1.00  0.00     0.040 A 
ATOM     68  F   UNL A   1      37.748  30.768  36.840  1.00  0.00    -0.206 F 
ATOM     69  C   UNL A   1      38.532  33.925  38.436  1.00  0.00     0.006 A 
ENDBRANCH  48  62
BRANCH  49  70
ATOM     70  C   UNL A   1      41.318  27.476  27.693  1.00  0.00     0.057 A 
ATOM     71  C   UNL A   1      40.890  26.165  27.449  1.00  0.00     0.134 A 
ATOM     72  C   UNL A   1      42.136  28.073  26.726  1.00  0.00     0.134 A 
ATOM     73  F   UNL A   1      40.114  25.531  28.340  1.00  0.00    -0.206 F 
ATOM     74  C   UNL A   1      41.303  25.458  26.317  1.00  0.00     0.040 A 
ATOM     75  C   UNL A   1      42.527  27.391  25.572  1.00  0.00     0.040 A 
ATOM     76  F   UNL A   1      42.571  29.331  26.888  1.00  0.00    -0.206 F 
ATOM     77  C   UNL A   1      42.124  26.072  25.375  1.00  0.00     0.006 A 
ENDBRANCH  49  70
BRANCH  61  78
ATOM     78  C   UNL A   1      44.127  27.514  34.064  1.00  0.00     0.057 A 
ATOM     79  C   UNL A   1      45.420  28.050  34.068  1.00  0.00     0.134 A 
ATOM     80  C   UNL A   1      43.937  26.276  34.691  1.00  0.00     0.134 A 
ATOM     81  F   UNL A   1      45.670  29.228  33.474  1.00  0.00    -0.206 F 
ATOM     82  C   UNL A   1      46.488  27.370  34.653  1.00  0.00     0.040 A 
ATOM     83  C   UNL A   1      44.989  25.604  35.310  1.00  0.00     0.040 A 
ATOM     84  F   UNL A   1      42.719  25.713  34.735  1.00  0.00    -0.206 F 
ATOM     85  C   UNL A   1      46.272  26.147  35.285  1.00  0.00     0.006 A 
ENDBRANCH  61  78
ENDBRANCH  35  36
ENDBRANCH  27  30
ENDBRANCH  25  26
ENDBRANCH  24  25
ENDBRANCH  23  24
ENDBRANCH   1  23
TORSDOF 15
ENDMDL
