MODEL 1
REMARK VINA RESULT:     -12.1      0.000      0.000
REMARK SMILES O=C(NCCCCCCNC(=O)[C@H]1CC2(CCN(C(=O)c3cccc(O)c3)CC2)CN1C(=O)C1CC1)c1ccc(-c2c3nc(c(-c4c(F)cccc4F)c4ccc([nH]4)c(-c4c(F)cccc4F)c4nc(c(-c5c(F)cccc5F)c5ccc2[nH]5)C=C4)C=C3)cc1
REMARK SMILES IDX 6 1 5 2 4 3 3 4 1 5 2 6 37 8 38 9 90 10 39 11 89 12 40 13
REMARK SMILES IDX 41 14 42 15 83 16 43 17 88 18 82 19 84 20 44 21 87 22 81 23
REMARK SMILES IDX 80 24 45 26 71 27 54 28 70 29 55 30 58 31 69 32 85 33 56 34
REMARK SMILES IDX 57 35 68 37 86 38 59 39 46 40 47 41 52 42 48 43 49 44 51 45
REMARK SMILES IDX 53 46 50 47 72 48 73 49 78 50 74 51 75 52 77 53 79 54 76 55
REMARK SMILES IDX 60 56 61 57 66 58 62 59 63 60 65 61 67 62 64 63 7 64 8 65
REMARK SMILES IDX 9 66 10 67 11 68 12 70 13 71 14 72 31 73 15 74 30 75 16 76
REMARK SMILES IDX 29 77 17 78 28 79 18 80 19 81 20 82 32 83 33 84 34 85 35 86
REMARK SMILES IDX 36 87 21 88 22 89 27 90 23 91 25 92 24 93 26 94
REMARK H PARENT 3 7 84 25 58 36 10 69 26 95
REMARK Flexibility Score: inf
ROOT
ATOM      1  C   UNL A   1      41.059  21.452  26.069  1.00  0.00     0.002 C 
ENDROOT
BRANCH   1   2
ATOM      2  C   UNL A   1      41.284  19.953  25.900  1.00  0.00     0.021 C 
BRANCH   2   3
ATOM      3  C   UNL A   1      42.585  19.441  26.498  1.00  0.00     0.116 C 
BRANCH   3   4
ATOM      4  N   UNL A   1      43.447  18.807  25.511  1.00  0.00    -0.352 N 
ATOM      5  O   UNL A   1      44.915  18.831  23.775  1.00  0.00    -0.269 OA
ATOM      6  C   UNL A   1      44.361  19.423  24.676  1.00  0.00     0.251 C 
ATOM      7  H   UNL A   1      43.371  17.829  25.428  1.00  0.00     0.163 HD
BRANCH   6   8
ATOM      8  C   UNL A   1      44.629  20.857  24.922  1.00  0.00     0.039 A 
ATOM      9  C   UNL A   1      45.244  21.225  26.119  1.00  0.00     0.014 A 
ATOM     10  C   UNL A   1      44.154  21.822  24.031  1.00  0.00     0.014 A 
ATOM     11  C   UNL A   1      45.235  22.555  26.501  1.00  0.00     0.010 A 
ATOM     12  C   UNL A   1      44.259  23.175  24.368  1.00  0.00     0.010 A 
ATOM     13  C   UNL A   1      44.780  23.551  25.616  1.00  0.00    -0.014 A 
BRANCH  13  14
ATOM     14  C   UNL A   1      44.989  24.970  25.999  1.00  0.00     0.031 A 
ATOM     15  C   UNL A   1      43.907  25.801  26.627  1.00  0.00     0.074 A 
ATOM     16  C   UNL A   1      46.224  25.480  25.819  1.00  0.00     0.049 A 
ATOM     17  N   UNL A   1      43.971  27.038  27.054  1.00  0.00    -0.248 NA
ATOM     18  C   UNL A   1      42.586  25.179  26.794  1.00  0.00     0.031 C 
ATOM     19  C   UNL A   1      47.342  24.764  25.195  1.00  0.00     0.029 A 
ATOM     20  N   UNL A   1      46.763  26.687  26.171  1.00  0.00    -0.354 N 
ATOM     21  C   UNL A   1      42.702  27.348  27.527  1.00  0.00     0.074 A 
ATOM     22  C   UNL A   1      41.878  26.177  27.311  1.00  0.00     0.031 C 
ATOM     23  C   UNL A   1      48.448  25.512  25.277  1.00  0.00     0.029 A 
ATOM     24  C   UNL A   1      48.100  26.795  25.870  1.00  0.00     0.049 A 
ATOM     25  H   UNL A   1      46.245  27.408  26.596  1.00  0.00     0.167 HD
ATOM     26  C   UNL A   1      42.272  28.504  28.092  1.00  0.00     0.037 A 
ATOM     27  C   UNL A   1      48.951  27.823  26.025  1.00  0.00     0.037 A 
ATOM     28  C   UNL A   1      43.107  29.662  28.300  1.00  0.00     0.049 A 
ATOM     29  C   UNL A   1      48.439  29.089  26.637  1.00  0.00     0.074 A 
ATOM     30  C   UNL A   1      42.769  30.880  28.868  1.00  0.00     0.029 A 
ATOM     31  N   UNL A   1      44.448  29.747  27.951  1.00  0.00    -0.354 N 
ATOM     32  N   UNL A   1      47.238  29.360  27.089  1.00  0.00    -0.248 NA
ATOM     33  C   UNL A   1      49.396  30.195  26.756  1.00  0.00     0.031 C 
ATOM     34  C   UNL A   1      43.892  31.715  28.821  1.00  0.00     0.029 A 
ATOM     35  C   UNL A   1      44.945  31.001  28.275  1.00  0.00     0.049 A 
ATOM     36  H   UNL A   1      44.969  29.025  27.532  1.00  0.00     0.167 HD
ATOM     37  C   UNL A   1      47.295  30.666  27.549  1.00  0.00     0.074 A 
ATOM     38  C   UNL A   1      48.660  31.116  27.359  1.00  0.00     0.031 C 
ATOM     39  C   UNL A   1      46.305  31.431  28.069  1.00  0.00     0.037 A 
BRANCH  26  40
ATOM     40  C   UNL A   1      40.833  28.586  28.520  1.00  0.00     0.057 A 
ATOM     41  C   UNL A   1      39.817  28.956  27.631  1.00  0.00     0.134 A 
ATOM     42  C   UNL A   1      40.451  28.223  29.819  1.00  0.00     0.134 A 
ATOM     43  F   UNL A   1      40.113  29.325  26.375  1.00  0.00    -0.206 F 
ATOM     44  C   UNL A   1      38.474  28.970  28.018  1.00  0.00     0.040 A 
ATOM     45  C   UNL A   1      39.110  28.210  30.211  1.00  0.00     0.040 A 
ATOM     46  F   UNL A   1      41.370  27.849  30.721  1.00  0.00    -0.206 F 
ATOM     47  C   UNL A   1      38.117  28.588  29.309  1.00  0.00     0.006 A 
ENDBRANCH  26  40
BRANCH  27  48
ATOM     48  C   UNL A   1      50.354  27.698  25.557  1.00  0.00     0.057 A 
ATOM     49  C   UNL A   1      50.688  27.821  24.205  1.00  0.00     0.134 A 
ATOM     50  C   UNL A   1      51.399  27.454  26.459  1.00  0.00     0.134 A 
ATOM     51  F   UNL A   1      49.732  28.042  23.291  1.00  0.00    -0.206 F 
ATOM     52  C   UNL A   1      52.004  27.683  23.763  1.00  0.00     0.040 A 
ATOM     53  C   UNL A   1      52.723  27.351  26.037  1.00  0.00     0.040 A 
ATOM     54  F   UNL A   1      51.148  27.339  27.772  1.00  0.00    -0.206 F 
ATOM     55  C   UNL A   1      53.027  27.455  24.682  1.00  0.00     0.006 A 
ENDBRANCH  27  48
BRANCH  39  56
ATOM     56  C   UNL A   1      46.685  32.824  28.480  1.00  0.00     0.057 A 
ATOM     57  C   UNL A   1      46.590  33.907  27.595  1.00  0.00     0.134 A 
ATOM     58  C   UNL A   1      47.165  33.081  29.769  1.00  0.00     0.134 A 
ATOM     59  F   UNL A   1      46.153  33.722  26.340  1.00  0.00    -0.206 F 
ATOM     60  C   UNL A   1      46.999  35.188  27.965  1.00  0.00     0.040 A 
ATOM     61  C   UNL A   1      47.548  34.364  30.161  1.00  0.00     0.040 A 
ATOM     62  F   UNL A   1      47.274  32.090  30.668  1.00  0.00    -0.206 F 
ATOM     63  C   UNL A   1      47.477  35.419  29.254  1.00  0.00     0.006 A 
ENDBRANCH  39  56
ENDBRANCH  13  14
ENDBRANCH   6   8
ENDBRANCH   3   4
ENDBRANCH   2   3
ENDBRANCH   1   2
BRANCH   1  64
ATOM     64  C   UNL A   1      39.760  21.838  26.780  1.00  0.00     0.002 C 
BRANCH  64  65
ATOM     65  C   UNL A   1      39.378  23.325  26.732  1.00  0.00     0.021 C 
BRANCH  65  66
ATOM     66  C   UNL A   1      38.030  23.660  26.090  1.00  0.00     0.116 C 
BRANCH  66  67
ATOM     67  N   UNL A   1      37.784  23.025  24.805  1.00  0.00    -0.354 N 
ATOM     68  C   UNL A   1      36.672  23.001  24.012  1.00  0.00     0.242 C 
ATOM     69  H   UNL A   1      38.553  22.527  24.444  1.00  0.00     0.163 HD
ATOM     70  O   UNL A   1      36.820  22.653  22.836  1.00  0.00    -0.273 OA
BRANCH  68  71
ATOM     71  C   UNL A   1      35.337  23.579  24.497  1.00  0.00     0.175 C 
ATOM     72  C   UNL A   1      34.690  24.783  23.786  1.00  0.00     0.044 C 
ATOM     73  N   UNL A   1      34.143  22.809  24.779  1.00  0.00    -0.330 N 
ATOM     74  C   UNL A   1      33.413  25.058  24.684  1.00  0.00    -0.006 C 
ATOM     75  C   UNL A   1      33.279  23.730  25.510  1.00  0.00     0.127 C 
ATOM     76  C   UNL A   1      32.092  25.263  23.897  1.00  0.00     0.030 C 
ATOM     77  C   UNL A   1      33.667  26.288  25.587  1.00  0.00     0.030 C 
ATOM     78  C   UNL A   1      31.961  26.621  23.218  1.00  0.00     0.120 C 
ATOM     79  C   UNL A   1      33.551  27.607  24.812  1.00  0.00     0.120 C 
ATOM     80  N   UNL A   1      32.250  27.697  24.162  1.00  0.00    -0.339 N 
ATOM     81  C   UNL A   1      31.469  28.833  24.374  1.00  0.00     0.253 C 
ATOM     82  O   UNL A   1      31.862  29.821  24.992  1.00  0.00    -0.269 OA
BRANCH  73  83
ATOM     83  C   UNL A   1      33.494  21.946  23.884  1.00  0.00     0.226 C 
ATOM     84  O   UNL A   1      33.239  22.299  22.735  1.00  0.00    -0.275 OA
BRANCH  83  85
ATOM     85  C   UNL A   1      33.001  20.589  24.270  1.00  0.00     0.079 C 
ATOM     86  C   UNL A   1      34.046  19.545  24.626  1.00  0.00     0.014 C 
ATOM     87  C   UNL A   1      32.960  19.870  25.591  1.00  0.00     0.014 C 
ENDBRANCH  83  85
ENDBRANCH  73  83
BRANCH  81  88
ATOM     88  C   UNL A   1      30.079  28.868  23.870  1.00  0.00     0.043 A 
ATOM     89  C   UNL A   1      29.301  27.703  23.864  1.00  0.00     0.014 A 
ATOM     90  C   UNL A   1      29.517  30.093  23.503  1.00  0.00     0.060 A 
ATOM     91  C   UNL A   1      27.970  27.760  23.445  1.00  0.00     0.005 A 
ATOM     92  C   UNL A   1      28.192  30.135  23.085  1.00  0.00     0.116 A 
ATOM     93  C   UNL A   1      27.414  28.979  23.048  1.00  0.00     0.046 A 
BRANCH  92  94
ATOM     94  O   UNL A   1      27.677  31.344  22.722  1.00  0.00    -0.508 OA
ATOM     95  H   UNL A   1      28.145  31.892  22.122  1.00  0.00     0.293 HD
ENDBRANCH  92  94
ENDBRANCH  81  88
ENDBRANCH  68  71
ENDBRANCH  66  67
ENDBRANCH  65  66
ENDBRANCH  64  65
ENDBRANCH   1  64
TORSDOF 17
ENDMDL
MODEL 2
REMARK VINA RESULT:     -12.0      5.991     11.365
REMARK SMILES O=C(NCCCCCCNC(=O)[C@H]1CC2(CCN(C(=O)c3cccc(O)c3)CC2)CN1C(=O)C1CC1)c1ccc(-c2c3nc(c(-c4c(F)cccc4F)c4ccc([nH]4)c(-c4c(F)cccc4F)c4nc(c(-c5c(F)cccc5F)c5ccc2[nH]5)C=C4)C=C3)cc1
REMARK SMILES IDX 6 1 5 2 4 3 3 4 1 5 2 6 37 8 38 9 90 10 39 11 89 12 40 13
REMARK SMILES IDX 41 14 42 15 83 16 43 17 88 18 82 19 84 20 44 21 87 22 81 23
REMARK SMILES IDX 80 24 45 26 71 27 54 28 70 29 55 30 58 31 69 32 85 33 56 34
REMARK SMILES IDX 57 35 68 37 86 38 59 39 46 40 47 41 52 42 48 43 49 44 51 45
REMARK SMILES IDX 53 46 50 47 72 48 73 49 78 50 74 51 75 52 77 53 79 54 76 55
REMARK SMILES IDX 60 56 61 57 66 58 62 59 63 60 65 61 67 62 64 63 7 64 8 65
REMARK SMILES IDX 9 66 10 67 11 68 12 70 13 71 14 72 31 73 15 74 30 75 16 76
REMARK SMILES IDX 29 77 17 78 28 79 18 80 19 81 20 82 32 83 33 84 34 85 35 86
REMARK SMILES IDX 36 87 21 88 22 89 27 90 23 91 25 92 24 93 26 94
REMARK H PARENT 3 7 84 25 58 36 10 69 26 95
REMARK Flexibility Score: inf
ROOT
ATOM      1  C   UNL A   1      34.715  33.207  28.546  1.00  0.00     0.002 C 
ENDROOT
BRANCH   1   2
ATOM      2  C   UNL A   1      33.491  34.112  28.638  1.00  0.00     0.021 C 
BRANCH   2   3
ATOM      3  C   UNL A   1      33.767  35.482  29.237  1.00  0.00     0.116 C 
BRANCH   3   4
ATOM      4  N   UNL A   1      32.786  35.864  30.242  1.00  0.00    -0.352 N 
ATOM      5  O   UNL A   1      31.820  35.736  32.297  1.00  0.00    -0.269 OA
ATOM      6  C   UNL A   1      32.766  35.501  31.577  1.00  0.00     0.251 C 
ATOM      7  H   UNL A   1      32.053  36.448  29.938  1.00  0.00     0.163 HD
BRANCH   6   8
ATOM      8  C   UNL A   1      33.958  34.792  32.092  1.00  0.00     0.039 A 
ATOM      9  C   UNL A   1      35.147  35.506  32.237  1.00  0.00     0.014 A 
ATOM     10  C   UNL A   1      33.917  33.412  32.301  1.00  0.00     0.014 A 
ATOM     11  C   UNL A   1      36.331  34.813  32.428  1.00  0.00     0.010 A 
ATOM     12  C   UNL A   1      35.098  32.732  32.616  1.00  0.00     0.010 A 
ATOM     13  C   UNL A   1      36.318  33.425  32.660  1.00  0.00    -0.014 A 
BRANCH  13  14
ATOM     14  C   UNL A   1      37.590  32.774  33.064  1.00  0.00     0.031 A 
ATOM     15  C   UNL A   1      38.245  33.043  34.389  1.00  0.00     0.074 A 
ATOM     16  C   UNL A   1      38.115  31.869  32.214  1.00  0.00     0.049 A 
ATOM     17  N   UNL A   1      39.330  32.506  34.888  1.00  0.00    -0.248 NA
ATOM     18  C   UNL A   1      37.615  34.041  35.265  1.00  0.00     0.031 C 
ATOM     19  C   UNL A   1      37.569  31.550  30.890  1.00  0.00     0.029 A 
ATOM     20  N   UNL A   1      39.186  31.027  32.339  1.00  0.00    -0.354 N 
ATOM     21  C   UNL A   1      39.523  33.106  36.125  1.00  0.00     0.074 A 
ATOM     22  C   UNL A   1      38.456  34.069  36.293  1.00  0.00     0.031 C 
ATOM     23  C   UNL A   1      38.259  30.534  30.360  1.00  0.00     0.029 A 
ATOM     24  C   UNL A   1      39.352  30.193  31.259  1.00  0.00     0.049 A 
ATOM     25  H   UNL A   1      39.779  31.020  33.124  1.00  0.00     0.167 HD
ATOM     26  C   UNL A   1      40.501  32.867  37.034  1.00  0.00     0.037 A 
ATOM     27  C   UNL A   1      40.296  29.272  31.002  1.00  0.00     0.037 A 
ATOM     28  C   UNL A   1      41.558  31.902  36.851  1.00  0.00     0.049 A 
ATOM     29  C   UNL A   1      41.370  29.045  32.021  1.00  0.00     0.074 A 
ATOM     30  C   UNL A   1      42.594  31.581  37.713  1.00  0.00     0.029 A 
ATOM     31  N   UNL A   1      41.715  31.100  35.729  1.00  0.00    -0.354 N 
ATOM     32  N   UNL A   1      41.529  29.615  33.191  1.00  0.00    -0.248 NA
ATOM     33  C   UNL A   1      42.398  28.056  31.682  1.00  0.00     0.031 C 
ATOM     34  C   UNL A   1      43.401  30.618  37.094  1.00  0.00     0.029 A 
ATOM     35  C   UNL A   1      42.839  30.298  35.870  1.00  0.00     0.049 A 
ATOM     36  H   UNL A   1      41.118  31.100  34.947  1.00  0.00     0.167 HD
ATOM     37  C   UNL A   1      42.674  29.050  33.732  1.00  0.00     0.074 A 
ATOM     38  C   UNL A   1      43.142  28.063  32.777  1.00  0.00     0.031 C 
ATOM     39  C   UNL A   1      43.292  29.330  34.904  1.00  0.00     0.037 A 
BRANCH  26  40
ATOM     40  C   UNL A   1      40.488  33.663  38.309  1.00  0.00     0.057 A 
ATOM     41  C   UNL A   1      39.705  33.287  39.408  1.00  0.00     0.134 A 
ATOM     42  C   UNL A   1      41.322  34.779  38.466  1.00  0.00     0.134 A 
ATOM     43  F   UNL A   1      38.877  32.234  39.324  1.00  0.00    -0.206 F 
ATOM     44  C   UNL A   1      39.745  33.995  40.612  1.00  0.00     0.040 A 
ATOM     45  C   UNL A   1      41.388  35.480  39.672  1.00  0.00     0.040 A 
ATOM     46  F   UNL A   1      42.105  35.191  37.459  1.00  0.00    -0.206 F 
ATOM     47  C   UNL A   1      40.596  35.090  40.749  1.00  0.00     0.006 A 
ENDBRANCH  26  40
BRANCH  27  48
ATOM     48  C   UNL A   1      40.279  28.535  29.714  1.00  0.00     0.057 A 
ATOM     49  C   UNL A   1      39.549  27.353  29.557  1.00  0.00     0.134 A 
ATOM     50  C   UNL A   1      40.996  29.002  28.604  1.00  0.00     0.134 A 
ATOM     51  F   UNL A   1      38.852  26.848  30.585  1.00  0.00    -0.206 F 
ATOM     52  C   UNL A   1      39.550  26.650  28.352  1.00  0.00     0.040 A 
ATOM     53  C   UNL A   1      40.977  28.330  27.383  1.00  0.00     0.040 A 
ATOM     54  F   UNL A   1      41.707  30.138  28.684  1.00  0.00    -0.206 F 
ATOM     55  C   UNL A   1      40.260  27.143  27.259  1.00  0.00     0.006 A 
ENDBRANCH  27  48
BRANCH  39  56
ATOM     56  C   UNL A   1      44.529  28.537  35.212  1.00  0.00     0.057 A 
ATOM     57  C   UNL A   1      44.471  27.319  35.903  1.00  0.00     0.134 A 
ATOM     58  C   UNL A   1      45.790  29.005  34.828  1.00  0.00     0.134 A 
ATOM     59  F   UNL A   1      43.293  26.825  36.315  1.00  0.00    -0.206 F 
ATOM     60  C   UNL A   1      45.629  26.616  36.238  1.00  0.00     0.040 A 
ATOM     61  C   UNL A   1      46.953  28.296  35.129  1.00  0.00     0.040 A 
ATOM     62  F   UNL A   1      45.915  30.161  34.157  1.00  0.00    -0.206 F 
ATOM     63  C   UNL A   1      46.875  27.104  35.846  1.00  0.00     0.006 A 
ENDBRANCH  39  56
ENDBRANCH  13  14
ENDBRANCH   6   8
ENDBRANCH   3   4
ENDBRANCH   2   3
ENDBRANCH   1   2
BRANCH   1  64
ATOM     64  C   UNL A   1      34.419  31.706  28.599  1.00  0.00     0.002 C 
BRANCH  64  65
ATOM     65  C   UNL A   1      35.229  30.822  27.639  1.00  0.00     0.021 C 
BRANCH  65  66
ATOM     66  C   UNL A   1      34.654  29.434  27.346  1.00  0.00     0.116 C 
BRANCH  66  67
ATOM     67  N   UNL A   1      33.243  29.273  27.656  1.00  0.00    -0.354 N 
ATOM     68  C   UNL A   1      32.338  28.326  27.265  1.00  0.00     0.242 C 
ATOM     69  H   UNL A   1      32.876  29.965  28.253  1.00  0.00     0.163 HD
ATOM     70  O   UNL A   1      31.289  28.243  27.912  1.00  0.00    -0.273 OA
BRANCH  68  71
ATOM     71  C   UNL A   1      32.693  27.277  26.206  1.00  0.00     0.175 C 
ATOM     72  C   UNL A   1      32.535  25.772  26.497  1.00  0.00     0.044 C 
ATOM     73  N   UNL A   1      32.249  27.293  24.827  1.00  0.00    -0.330 N 
ATOM     74  C   UNL A   1      33.099  25.111  25.171  1.00  0.00    -0.006 C 
ATOM     75  C   UNL A   1      33.097  26.310  24.159  1.00  0.00     0.127 C 
ATOM     76  C   UNL A   1      32.215  23.985  24.575  1.00  0.00     0.030 C 
ATOM     77  C   UNL A   1      34.522  24.563  25.429  1.00  0.00     0.030 C 
ATOM     78  C   UNL A   1      32.288  22.657  25.320  1.00  0.00     0.120 C 
ATOM     79  C   UNL A   1      34.500  23.245  26.215  1.00  0.00     0.120 C 
ATOM     80  N   UNL A   1      33.678  22.260  25.526  1.00  0.00    -0.339 N 
ATOM     81  C   UNL A   1      34.220  21.005  25.250  1.00  0.00     0.253 C 
ATOM     82  O   UNL A   1      35.321  20.637  25.657  1.00  0.00    -0.269 OA
BRANCH  73  83
ATOM     83  C   UNL A   1      30.916  27.339  24.396  1.00  0.00     0.226 C 
ATOM     84  O   UNL A   1      30.011  26.875  25.087  1.00  0.00    -0.275 OA
BRANCH  83  85
ATOM     85  C   UNL A   1      30.506  27.871  23.062  1.00  0.00     0.079 C 
ATOM     86  C   UNL A   1      29.278  28.765  23.017  1.00  0.00     0.014 C 
ATOM     87  C   UNL A   1      30.572  29.251  22.464  1.00  0.00     0.014 C 
ENDBRANCH  83  85
ENDBRANCH  73  83
BRANCH  81  88
ATOM     88  C   UNL A   1      33.471  20.055  24.400  1.00  0.00     0.043 A 
ATOM     89  C   UNL A   1      32.820  20.506  23.245  1.00  0.00     0.014 A 
ATOM     90  C   UNL A   1      33.509  18.692  24.703  1.00  0.00     0.060 A 
ATOM     91  C   UNL A   1      32.167  19.591  22.415  1.00  0.00     0.005 A 
ATOM     92  C   UNL A   1      32.853  17.792  23.869  1.00  0.00     0.116 A 
ATOM     93  C   UNL A   1      32.179  18.230  22.730  1.00  0.00     0.046 A 
BRANCH  92  94
ATOM     94  O   UNL A   1      32.899  16.470  24.198  1.00  0.00    -0.508 OA
ATOM     95  H   UNL A   1      33.615  15.939  23.908  1.00  0.00     0.293 HD
ENDBRANCH  92  94
ENDBRANCH  81  88
ENDBRANCH  68  71
ENDBRANCH  66  67
ENDBRANCH  65  66
ENDBRANCH  64  65
ENDBRANCH   1  64
TORSDOF 17
ENDMDL
MODEL 3
REMARK VINA RESULT:     -12.0      0.489      6.006
REMARK SMILES O=C(NCCCCCCNC(=O)[C@H]1CC2(CCN(C(=O)c3cccc(O)c3)CC2)CN1C(=O)C1CC1)c1ccc(-c2c3nc(c(-c4c(F)cccc4F)c4ccc([nH]4)c(-c4c(F)cccc4F)c4nc(c(-c5c(F)cccc5F)c5ccc2[nH]5)C=C4)C=C3)cc1
REMARK SMILES IDX 6 1 5 2 4 3 3 4 1 5 2 6 37 8 38 9 90 10 39 11 89 12 40 13
REMARK SMILES IDX 41 14 42 15 83 16 43 17 88 18 82 19 84 20 44 21 87 22 81 23
REMARK SMILES IDX 80 24 45 26 71 27 54 28 70 29 55 30 58 31 69 32 85 33 56 34
REMARK SMILES IDX 57 35 68 37 86 38 59 39 46 40 47 41 52 42 48 43 49 44 51 45
REMARK SMILES IDX 53 46 50 47 72 48 73 49 78 50 74 51 75 52 77 53 79 54 76 55
REMARK SMILES IDX 60 56 61 57 66 58 62 59 63 60 65 61 67 62 64 63 7 64 8 65
REMARK SMILES IDX 9 66 10 67 11 68 12 70 13 71 14 72 31 73 15 74 30 75 16 76
REMARK SMILES IDX 29 77 17 78 28 79 18 80 19 81 20 82 32 83 33 84 34 85 35 86
REMARK SMILES IDX 36 87 21 88 22 89 27 90 23 91 25 92 24 93 26 94
REMARK H PARENT 3 7 84 25 58 36 10 69 26 95
REMARK Flexibility Score: inf
ROOT
ATOM      1  C   UNL A   1      40.973  21.618  26.092  1.00  0.00     0.002 C 
ENDROOT
BRANCH   1   2
ATOM      2  C   UNL A   1      41.157  20.106  26.018  1.00  0.00     0.021 C 
BRANCH   2   3
ATOM      3  C   UNL A   1      42.555  19.625  26.376  1.00  0.00     0.116 C 
BRANCH   3   4
ATOM      4  N   UNL A   1      43.283  19.108  25.226  1.00  0.00    -0.352 N 
ATOM      5  O   UNL A   1      44.557  19.330  23.356  1.00  0.00    -0.269 OA
ATOM      6  C   UNL A   1      44.124  19.810  24.381  1.00  0.00     0.251 C 
ATOM      7  H   UNL A   1      43.165  18.151  25.027  1.00  0.00     0.163 HD
BRANCH   6   8
ATOM      8  C   UNL A   1      44.466  21.193  24.778  1.00  0.00     0.039 A 
ATOM      9  C   UNL A   1      45.214  21.388  25.939  1.00  0.00     0.014 A 
ATOM     10  C   UNL A   1      43.938  22.277  24.073  1.00  0.00     0.014 A 
ATOM     11  C   UNL A   1      45.292  22.657  26.487  1.00  0.00     0.010 A 
ATOM     12  C   UNL A   1      44.125  23.572  24.566  1.00  0.00     0.010 A 
ATOM     13  C   UNL A   1      44.784  23.770  25.790  1.00  0.00    -0.014 A 
BRANCH  13  14
ATOM     14  C   UNL A   1      45.081  25.122  26.326  1.00  0.00     0.031 A 
ATOM     15  C   UNL A   1      46.444  25.746  26.224  1.00  0.00     0.074 A 
ATOM     16  C   UNL A   1      44.053  25.811  26.860  1.00  0.00     0.049 A 
ATOM     17  N   UNL A   1      46.827  26.938  26.607  1.00  0.00    -0.248 NA
ATOM     18  C   UNL A   1      47.516  24.936  25.629  1.00  0.00     0.031 C 
ATOM     19  C   UNL A   1      42.692  25.288  27.027  1.00  0.00     0.029 A 
ATOM     20  N   UNL A   1      43.969  27.097  27.321  1.00  0.00    -0.354 N 
ATOM     21  C   UNL A   1      48.182  27.020  26.314  1.00  0.00     0.074 A 
ATOM     22  C   UNL A   1      48.563  25.745  25.743  1.00  0.00     0.031 C 
ATOM     23  C   UNL A   1      41.895  26.263  27.479  1.00  0.00     0.029 A 
ATOM     24  C   UNL A   1      42.703  27.449  27.725  1.00  0.00     0.049 A 
ATOM     25  H   UNL A   1      44.739  27.708  27.360  1.00  0.00     0.167 HD
ATOM     26  C   UNL A   1      49.023  28.068  26.501  1.00  0.00     0.037 A 
ATOM     27  C   UNL A   1      42.243  28.591  28.262  1.00  0.00     0.037 A 
ATOM     28  C   UNL A   1      48.626  29.333  27.071  1.00  0.00     0.049 A 
ATOM     29  C   UNL A   1      43.203  29.721  28.471  1.00  0.00     0.074 A 
ATOM     30  C   UNL A   1      49.401  30.458  27.300  1.00  0.00     0.029 A 
ATOM     31  N   UNL A   1      47.343  29.641  27.502  1.00  0.00    -0.354 N 
ATOM     32  N   UNL A   1      44.479  29.784  28.176  1.00  0.00    -0.248 NA
ATOM     33  C   UNL A   1      42.663  30.935  29.092  1.00  0.00     0.031 C 
ATOM     34  C   UNL A   1      48.598  31.430  27.908  1.00  0.00     0.029 A 
ATOM     35  C   UNL A   1      47.309  30.933  28.009  1.00  0.00     0.049 A 
ATOM     36  H   UNL A   1      46.571  29.033  27.456  1.00  0.00     0.167 HD
ATOM     37  C   UNL A   1      44.895  31.045  28.572  1.00  0.00     0.074 A 
ATOM     38  C   UNL A   1      43.724  31.727  29.088  1.00  0.00     0.031 C 
ATOM     39  C   UNL A   1      46.135  31.588  28.527  1.00  0.00     0.037 A 
BRANCH  26  40
ATOM     40  C   UNL A   1      50.462  27.897  26.098  1.00  0.00     0.057 A 
ATOM     41  C   UNL A   1      51.455  27.564  27.027  1.00  0.00     0.134 A 
ATOM     42  C   UNL A   1      50.845  27.998  24.754  1.00  0.00     0.134 A 
ATOM     43  F   UNL A   1      51.160  27.460  28.331  1.00  0.00    -0.206 F 
ATOM     44  C   UNL A   1      52.779  27.345  26.635  1.00  0.00     0.040 A 
ATOM     45  C   UNL A   1      52.160  27.759  24.347  1.00  0.00     0.040 A 
ATOM     46  F   UNL A   1      49.945  28.306  23.809  1.00  0.00    -0.206 F 
ATOM     47  C   UNL A   1      53.133  27.433  25.290  1.00  0.00     0.006 A 
ENDBRANCH  26  40
BRANCH  27  48
ATOM     48  C   UNL A   1      40.820  28.695  28.671  1.00  0.00     0.057 A 
ATOM     49  C   UNL A   1      40.414  28.434  29.983  1.00  0.00     0.134 A 
ATOM     50  C   UNL A   1      39.828  29.062  27.751  1.00  0.00     0.134 A 
ATOM     51  F   UNL A   1      41.313  28.066  30.907  1.00  0.00    -0.206 F 
ATOM     52  C   UNL A   1      39.073  28.513  30.361  1.00  0.00     0.040 A 
ATOM     53  C   UNL A   1      38.491  29.181  28.122  1.00  0.00     0.040 A 
ATOM     54  F   UNL A   1      40.153  29.339  26.478  1.00  0.00    -0.206 F 
ATOM     55  C   UNL A   1      38.109  28.894  29.431  1.00  0.00     0.006 A 
ENDBRANCH  27  48
BRANCH  39  56
ATOM     56  C   UNL A   1      46.268  32.993  29.036  1.00  0.00     0.057 A 
ATOM     57  C   UNL A   1      46.574  33.267  30.377  1.00  0.00     0.134 A 
ATOM     58  C   UNL A   1      46.070  34.083  28.182  1.00  0.00     0.134 A 
ATOM     59  F   UNL A   1      46.758  32.265  31.250  1.00  0.00    -0.206 F 
ATOM     60  C   UNL A   1      46.638  34.575  30.857  1.00  0.00     0.040 A 
ATOM     61  C   UNL A   1      46.162  35.397  28.644  1.00  0.00     0.040 A 
ATOM     62  F   UNL A   1      45.780  33.892  26.886  1.00  0.00    -0.206 F 
ATOM     63  C   UNL A   1      46.435  35.645  29.987  1.00  0.00     0.006 A 
ENDBRANCH  39  56
ENDBRANCH  13  14
ENDBRANCH   6   8
ENDBRANCH   3   4
ENDBRANCH   2   3
ENDBRANCH   1   2
BRANCH   1  64
ATOM     64  C   UNL A   1      39.759  22.086  26.897  1.00  0.00     0.002 C 
BRANCH  64  65
ATOM     65  C   UNL A   1      39.202  23.472  26.540  1.00  0.00     0.021 C 
BRANCH  65  66
ATOM     66  C   UNL A   1      37.753  23.517  26.050  1.00  0.00     0.116 C 
BRANCH  66  67
ATOM     67  N   UNL A   1      37.544  23.033  24.695  1.00  0.00    -0.354 N 
ATOM     68  C   UNL A   1      36.477  23.155  23.850  1.00  0.00     0.242 C 
ATOM     69  H   UNL A   1      38.305  22.531  24.321  1.00  0.00     0.163 HD
ATOM     70  O   UNL A   1      36.671  22.921  22.653  1.00  0.00    -0.273 OA
BRANCH  68  71
ATOM     71  C   UNL A   1      35.149  23.755  24.328  1.00  0.00     0.175 C 
ATOM     72  C   UNL A   1      34.555  25.004  23.649  1.00  0.00     0.044 C 
ATOM     73  N   UNL A   1      33.927  23.013  24.556  1.00  0.00    -0.330 N 
ATOM     74  C   UNL A   1      33.268  25.285  24.529  1.00  0.00    -0.006 C 
ATOM     75  C   UNL A   1      33.075  23.933  25.303  1.00  0.00     0.127 C 
ATOM     76  C   UNL A   1      31.971  25.559  23.723  1.00  0.00     0.030 C 
ATOM     77  C   UNL A   1      33.539  26.473  25.482  1.00  0.00     0.030 C 
ATOM     78  C   UNL A   1      31.896  26.945  23.092  1.00  0.00     0.120 C 
ATOM     79  C   UNL A   1      33.479  27.822  24.754  1.00  0.00     0.120 C 
ATOM     80  N   UNL A   1      32.196  27.977  24.081  1.00  0.00    -0.339 N 
ATOM     81  C   UNL A   1      31.445  29.127  24.318  1.00  0.00     0.253 C 
ATOM     82  O   UNL A   1      31.854  30.080  24.980  1.00  0.00    -0.269 OA
BRANCH  73  83
ATOM     83  C   UNL A   1      33.273  22.203  23.617  1.00  0.00     0.226 C 
ATOM     84  O   UNL A   1      32.895  22.660  22.540  1.00  0.00    -0.275 OA
BRANCH  83  85
ATOM     85  C   UNL A   1      32.918  20.774  23.875  1.00  0.00     0.079 C 
ATOM     86  C   UNL A   1      33.910  19.946  24.674  1.00  0.00     0.014 C 
ATOM     87  C   UNL A   1      32.496  20.052  25.126  1.00  0.00     0.014 C 
ENDBRANCH  83  85
ENDBRANCH  73  83
BRANCH  81  88
ATOM     88  C   UNL A   1      30.069  29.224  23.787  1.00  0.00     0.043 A 
ATOM     89  C   UNL A   1      29.324  28.063  23.542  1.00  0.00     0.014 A 
ATOM     90  C   UNL A   1      29.483  30.483  23.635  1.00  0.00     0.060 A 
ATOM     91  C   UNL A   1      28.003  28.166  23.100  1.00  0.00     0.005 A 
ATOM     92  C   UNL A   1      28.168  30.571  23.192  1.00  0.00     0.116 A 
ATOM     93  C   UNL A   1      27.424  29.424  22.918  1.00  0.00     0.046 A 
BRANCH  92  94
ATOM     94  O   UNL A   1      27.629  31.815  23.042  1.00  0.00    -0.508 OA
ATOM     95  H   UNL A   1      26.947  32.103  23.616  1.00  0.00     0.293 HD
ENDBRANCH  92  94
ENDBRANCH  81  88
ENDBRANCH  68  71
ENDBRANCH  66  67
ENDBRANCH  65  66
ENDBRANCH  64  65
ENDBRANCH   1  64
TORSDOF 17
ENDMDL
