MODEL 1
REMARK VINA RESULT:     -13.2      0.000      0.000
REMARK SMILES O=C(NCCCCCCNC(=O)c1ccc([C@@H]2CC(O)=Nc3c2ncn3-c2cccc(Cl)c2)cc1)c1ccc(-c2c3nc(c(-c4c(F)cccc4F)c4ccc([nH]4)c(-c4c(F)cccc4F)c4nc(c(-c5c(F)cccc5F)c5ccc2[nH]5)C=C4)C=C3)cc1
REMARK SMILES IDX 6 1 5 2 4 3 3 4 1 5 2 6 36 8 37 9 89 10 38 11 88 12 39 13
REMARK SMILES IDX 40 14 41 15 82 16 42 17 87 18 81 19 83 20 43 21 86 22 80 23
REMARK SMILES IDX 79 24 44 26 70 27 53 28 69 29 54 30 57 31 68 32 84 33 55 34
REMARK SMILES IDX 56 35 67 37 85 38 58 39 45 40 46 41 51 42 47 43 48 44 50 45
REMARK SMILES IDX 52 46 49 47 71 48 72 49 77 50 73 51 74 52 76 53 78 54 75 55
REMARK SMILES IDX 59 56 60 57 65 58 61 59 62 60 64 61 66 62 63 63 7 64 8 65
REMARK SMILES IDX 9 66 10 67 11 68 12 70 13 71 14 72 35 73 15 74 34 75 16 76
REMARK SMILES IDX 17 77 18 78 23 79 19 80 22 81 24 82 21 83 26 84 25 85 20 86
REMARK SMILES IDX 27 88 28 89 33 90 29 91 31 92 30 93 32 94
REMARK H PARENT 3 7 83 25 57 36 10 69 20 87
REMARK Flexibility Score: inf
ROOT
ATOM      1  C   UNL A   1      34.071  28.536  26.359  1.00  0.00     0.002 C 
ENDROOT
BRANCH   1   2
ATOM      2  C   UNL A   1      33.588  29.472  27.473  1.00  0.00     0.021 C 
BRANCH   2   3
ATOM      3  C   UNL A   1      34.034  30.925  27.326  1.00  0.00     0.116 C 
BRANCH   3   4
ATOM      4  N   UNL A   1      34.140  31.647  28.575  1.00  0.00    -0.352 N 
ATOM      5  O   UNL A   1      34.896  32.601  30.423  1.00  0.00    -0.269 OA
ATOM      6  C   UNL A   1      35.113  31.785  29.524  1.00  0.00     0.251 C 
ATOM      7  H   UNL A   1      33.325  32.156  28.790  1.00  0.00     0.163 HD
BRANCH   6   8
ATOM      8  C   UNL A   1      36.353  30.970  29.589  1.00  0.00     0.039 A 
ATOM      9  C   UNL A   1      36.421  29.593  29.811  1.00  0.00     0.014 A 
ATOM     10  C   UNL A   1      37.552  31.686  29.412  1.00  0.00     0.014 A 
ATOM     11  C   UNL A   1      37.656  28.965  29.954  1.00  0.00     0.010 A 
ATOM     12  C   UNL A   1      38.785  31.063  29.538  1.00  0.00     0.010 A 
ATOM     13  C   UNL A   1      38.834  29.707  29.847  1.00  0.00    -0.014 A 
BRANCH  13  14
ATOM     14  C   UNL A   1      40.115  29.006  29.877  1.00  0.00     0.031 A 
ATOM     15  C   UNL A   1      40.697  28.866  31.245  1.00  0.00     0.074 A 
ATOM     16  C   UNL A   1      40.638  28.378  28.804  1.00  0.00     0.049 A 
ATOM     17  N   UNL A   1      41.827  29.317  31.685  1.00  0.00    -0.248 NA
ATOM     18  C   UNL A   1      39.860  28.247  32.289  1.00  0.00     0.031 C 
ATOM     19  C   UNL A   1      40.026  28.183  27.488  1.00  0.00     0.029 A 
ATOM     20  N   UNL A   1      41.806  27.683  28.695  1.00  0.00    -0.354 N 
ATOM     21  C   UNL A   1      41.930  28.878  33.005  1.00  0.00     0.074 A 
ATOM     22  C   UNL A   1      40.637  28.363  33.367  1.00  0.00     0.031 C 
ATOM     23  C   UNL A   1      40.714  27.237  26.807  1.00  0.00     0.029 A 
ATOM     24  C   UNL A   1      41.884  26.856  27.579  1.00  0.00     0.049 A 
ATOM     25  H   UNL A   1      42.534  27.759  29.353  1.00  0.00     0.167 HD
ATOM     26  C   UNL A   1      43.136  28.766  33.628  1.00  0.00     0.037 A 
ATOM     27  C   UNL A   1      42.811  25.889  27.343  1.00  0.00     0.037 A 
ATOM     28  C   UNL A   1      44.153  29.515  32.938  1.00  0.00     0.049 A 
ATOM     29  C   UNL A   1      43.967  26.151  28.234  1.00  0.00     0.074 A 
ATOM     30  C   UNL A   1      44.353  30.847  32.640  1.00  0.00     0.029 A 
ATOM     31  N   UNL A   1      45.011  28.815  32.128  1.00  0.00    -0.354 N 
ATOM     32  N   UNL A   1      44.772  27.166  28.101  1.00  0.00    -0.248 NA
ATOM     33  C   UNL A   1      43.955  25.528  29.548  1.00  0.00     0.031 C 
ATOM     34  C   UNL A   1      44.944  30.845  31.342  1.00  0.00     0.029 A 
ATOM     35  C   UNL A   1      45.126  29.518  30.959  1.00  0.00     0.049 A 
ATOM     36  H   UNL A   1      45.460  27.968  32.347  1.00  0.00     0.167 HD
ATOM     37  C   UNL A   1      45.018  27.587  29.399  1.00  0.00     0.074 A 
ATOM     38  C   UNL A   1      44.555  26.492  30.250  1.00  0.00     0.031 C 
ATOM     39  C   UNL A   1      45.304  28.894  29.670  1.00  0.00     0.037 A 
BRANCH  26  40
ATOM     40  C   UNL A   1      43.490  27.685  34.622  1.00  0.00     0.057 A 
ATOM     41  C   UNL A   1      43.517  26.343  34.194  1.00  0.00     0.134 A 
ATOM     42  C   UNL A   1      43.487  27.867  36.018  1.00  0.00     0.134 A 
ATOM     43  F   UNL A   1      43.513  26.036  32.888  1.00  0.00    -0.206 F 
ATOM     44  C   UNL A   1      43.453  25.268  35.090  1.00  0.00     0.040 A 
ATOM     45  C   UNL A   1      43.474  26.801  36.922  1.00  0.00     0.040 A 
ATOM     46  F   UNL A   1      43.388  29.076  36.585  1.00  0.00    -0.206 F 
ATOM     47  C   UNL A   1      43.421  25.496  36.460  1.00  0.00     0.006 A 
ENDBRANCH  26  40
BRANCH  27  48
ATOM     48  C   UNL A   1      42.647  24.586  26.653  1.00  0.00     0.057 A 
ATOM     49  C   UNL A   1      43.240  24.342  25.404  1.00  0.00     0.134 A 
ATOM     50  C   UNL A   1      42.156  23.457  27.330  1.00  0.00     0.134 A 
ATOM     51  F   UNL A   1      43.780  25.346  24.698  1.00  0.00    -0.206 F 
ATOM     52  C   UNL A   1      43.359  23.049  24.872  1.00  0.00     0.040 A 
ATOM     53  C   UNL A   1      42.263  22.162  26.808  1.00  0.00     0.040 A 
ATOM     54  F   UNL A   1      41.641  23.559  28.563  1.00  0.00    -0.206 F 
ATOM     55  C   UNL A   1      42.880  21.952  25.581  1.00  0.00     0.006 A 
ENDBRANCH  27  48
BRANCH  39  56
ATOM     56  C   UNL A   1      45.595  29.806  28.512  1.00  0.00     0.057 A 
ATOM     57  C   UNL A   1      44.619  30.529  27.810  1.00  0.00     0.134 A 
ATOM     58  C   UNL A   1      46.931  30.080  28.202  1.00  0.00     0.134 A 
ATOM     59  F   UNL A   1      43.318  30.408  28.105  1.00  0.00    -0.206 F 
ATOM     60  C   UNL A   1      44.959  31.451  26.815  1.00  0.00     0.040 A 
ATOM     61  C   UNL A   1      47.285  31.023  27.236  1.00  0.00     0.040 A 
ATOM     62  F   UNL A   1      47.920  29.468  28.872  1.00  0.00    -0.206 F 
ATOM     63  C   UNL A   1      46.297  31.706  26.531  1.00  0.00     0.006 A 
ENDBRANCH  39  56
ENDBRANCH  13  14
ENDBRANCH   6   8
ENDBRANCH   3   4
ENDBRANCH   2   3
ENDBRANCH   1   2
BRANCH   1  64
ATOM     64  C   UNL A   1      33.027  28.166  25.301  1.00  0.00     0.002 C 
BRANCH  64  65
ATOM     65  C   UNL A   1      32.514  29.327  24.446  1.00  0.00     0.021 C 
BRANCH  65  66
ATOM     66  C   UNL A   1      31.097  29.786  24.775  1.00  0.00     0.116 C 
BRANCH  66  67
ATOM     67  N   UNL A   1      30.273  29.917  23.583  1.00  0.00    -0.352 N 
ATOM     68  C   UNL A   1      29.918  28.950  22.680  1.00  0.00     0.251 C 
ATOM     69  H   UNL A   1      29.926  30.820  23.401  1.00  0.00     0.163 HD
ATOM     70  O   UNL A   1      29.367  29.256  21.619  1.00  0.00    -0.269 OA
BRANCH  68  71
ATOM     71  C   UNL A   1      30.213  27.535  22.971  1.00  0.00     0.039 A 
ATOM     72  C   UNL A   1      31.171  26.873  22.204  1.00  0.00     0.014 A 
ATOM     73  C   UNL A   1      29.548  26.867  24.004  1.00  0.00     0.014 A 
ATOM     74  C   UNL A   1      31.514  25.558  22.518  1.00  0.00     0.005 A 
ATOM     75  C   UNL A   1      29.903  25.559  24.327  1.00  0.00     0.005 A 
ATOM     76  C   UNL A   1      30.899  24.890  23.593  1.00  0.00    -0.038 A 
BRANCH  76  77
ATOM     77  C   UNL A   1      31.286  23.452  23.891  1.00  0.00     0.081 C 
ATOM     78  C   UNL A   1      30.906  23.039  25.331  1.00  0.00     0.111 C 
ATOM     79  C   UNL A   1      32.749  23.337  23.659  1.00  0.00     0.093 A 
ATOM     80  C   UNL A   1      32.079  22.872  26.283  1.00  0.00     0.188 C 
ATOM     81  C   UNL A   1      33.605  22.966  24.671  1.00  0.00     0.164 A 
ATOM     82  N   UNL A   1      33.426  23.594  22.495  1.00  0.00    -0.238 NA
ATOM     83  N   UNL A   1      33.333  22.775  25.983  1.00  0.00    -0.198 NA
ATOM     84  N   UNL A   1      34.863  22.961  24.102  1.00  0.00    -0.283 N 
ATOM     85  C   UNL A   1      34.695  23.408  22.807  1.00  0.00     0.206 A 
BRANCH  80  86
ATOM     86  O   UNL A   1      31.727  22.770  27.579  1.00  0.00    -0.496 OA
ATOM     87  H   UNL A   1      32.388  22.750  28.244  1.00  0.00     0.294 HD
ENDBRANCH  80  86
BRANCH  84  88
ATOM     88  C   UNL A   1      36.070  22.572  24.722  1.00  0.00     0.050 A 
ATOM     89  C   UNL A   1      36.544  21.262  24.593  1.00  0.00     0.027 A 
ATOM     90  C   UNL A   1      36.798  23.523  25.449  1.00  0.00     0.047 A 
ATOM     91  C   UNL A   1      37.780  20.924  25.152  1.00  0.00     0.004 A 
ATOM     92  C   UNL A   1      38.001  23.159  26.045  1.00  0.00     0.043 A 
ATOM     93  C   UNL A   1      38.503  21.870  25.884  1.00  0.00     0.020 A 
ATOM     94  Cl  UNL A   1      38.864  24.304  26.997  1.00  0.00    -0.084 Cl
ENDBRANCH  84  88
ENDBRANCH  76  77
ENDBRANCH  68  71
ENDBRANCH  66  67
ENDBRANCH  65  66
ENDBRANCH  64  65
ENDBRANCH   1  64
TORSDOF 16
ENDMDL
MODEL 2
REMARK VINA RESULT:     -13.2      1.921      5.875
REMARK SMILES O=C(NCCCCCCNC(=O)c1ccc([C@@H]2CC(O)=Nc3c2ncn3-c2cccc(Cl)c2)cc1)c1ccc(-c2c3nc(c(-c4c(F)cccc4F)c4ccc([nH]4)c(-c4c(F)cccc4F)c4nc(c(-c5c(F)cccc5F)c5ccc2[nH]5)C=C4)C=C3)cc1
REMARK SMILES IDX 6 1 5 2 4 3 3 4 1 5 2 6 36 8 37 9 89 10 38 11 88 12 39 13
REMARK SMILES IDX 40 14 41 15 82 16 42 17 87 18 81 19 83 20 43 21 86 22 80 23
REMARK SMILES IDX 79 24 44 26 70 27 53 28 69 29 54 30 57 31 68 32 84 33 55 34
REMARK SMILES IDX 56 35 67 37 85 38 58 39 45 40 46 41 51 42 47 43 48 44 50 45
REMARK SMILES IDX 52 46 49 47 71 48 72 49 77 50 73 51 74 52 76 53 78 54 75 55
REMARK SMILES IDX 59 56 60 57 65 58 61 59 62 60 64 61 66 62 63 63 7 64 8 65
REMARK SMILES IDX 9 66 10 67 11 68 12 70 13 71 14 72 35 73 15 74 34 75 16 76
REMARK SMILES IDX 17 77 18 78 23 79 19 80 22 81 24 82 21 83 26 84 25 85 20 86
REMARK SMILES IDX 27 88 28 89 33 90 29 91 31 92 30 93 32 94
REMARK H PARENT 3 7 83 25 57 36 10 69 20 87
REMARK Flexibility Score: inf
ROOT
ATOM      1  C   UNL A   1      33.779  27.008  25.526  1.00  0.00     0.002 C 
ENDROOT
BRANCH   1   2
ATOM      2  C   UNL A   1      33.662  28.068  26.628  1.00  0.00     0.021 C 
BRANCH   2   3
ATOM      3  C   UNL A   1      34.938  28.868  26.883  1.00  0.00     0.116 C 
BRANCH   3   4
ATOM      4  N   UNL A   1      35.014  29.467  28.198  1.00  0.00    -0.352 N 
ATOM      5  O   UNL A   1      35.725  30.434  30.057  1.00  0.00    -0.269 OA
ATOM      6  C   UNL A   1      36.035  29.815  29.036  1.00  0.00     0.251 C 
ATOM      7  H   UNL A   1      34.128  29.670  28.575  1.00  0.00     0.163 HD
BRANCH   6   8
ATOM      8  C   UNL A   1      37.456  29.430  28.842  1.00  0.00     0.039 A 
ATOM      9  C   UNL A   1      38.248  29.737  27.734  1.00  0.00     0.014 A 
ATOM     10  C   UNL A   1      38.024  28.681  29.891  1.00  0.00     0.014 A 
ATOM     11  C   UNL A   1      39.538  29.224  27.629  1.00  0.00     0.010 A 
ATOM     12  C   UNL A   1      39.313  28.180  29.799  1.00  0.00     0.010 A 
ATOM     13  C   UNL A   1      40.057  28.422  28.648  1.00  0.00    -0.014 A 
BRANCH  13  14
ATOM     14  C   UNL A   1      41.453  28.000  28.572  1.00  0.00     0.031 A 
ATOM     15  C   UNL A   1      41.661  26.722  27.827  1.00  0.00     0.074 A 
ATOM     16  C   UNL A   1      42.482  28.777  28.970  1.00  0.00     0.049 A 
ATOM     17  N   UNL A   1      42.169  25.615  28.262  1.00  0.00    -0.248 NA
ATOM     18  C   UNL A   1      41.124  26.629  26.458  1.00  0.00     0.031 C 
ATOM     19  C   UNL A   1      42.435  30.165  29.435  1.00  0.00     0.029 A 
ATOM     20  N   UNL A   1      43.820  28.516  28.946  1.00  0.00    -0.354 N 
ATOM     21  C   UNL A   1      42.190  24.745  27.171  1.00  0.00     0.074 A 
ATOM     22  C   UNL A   1      41.401  25.364  26.141  1.00  0.00     0.031 C 
ATOM     23  C   UNL A   1      43.683  30.686  29.422  1.00  0.00     0.029 A 
ATOM     24  C   UNL A   1      44.630  29.640  29.077  1.00  0.00     0.049 A 
ATOM     25  H   UNL A   1      44.184  27.607  28.842  1.00  0.00     0.167 HD
ATOM     26  C   UNL A   1      43.042  23.684  27.121  1.00  0.00     0.037 A 
ATOM     27  C   UNL A   1      45.970  29.709  28.856  1.00  0.00     0.037 A 
ATOM     28  C   UNL A   1      43.559  23.365  28.426  1.00  0.00     0.049 A 
ATOM     29  C   UNL A   1      46.501  28.325  28.887  1.00  0.00     0.074 A 
ATOM     30  C   UNL A   1      43.007  22.953  29.621  1.00  0.00     0.029 A 
ATOM     31  N   UNL A   1      44.826  23.796  28.725  1.00  0.00    -0.354 N 
ATOM     32  N   UNL A   1      46.565  27.595  29.964  1.00  0.00    -0.248 NA
ATOM     33  C   UNL A   1      46.542  27.595  27.630  1.00  0.00     0.031 C 
ATOM     34  C   UNL A   1      43.776  23.613  30.624  1.00  0.00     0.029 A 
ATOM     35  C   UNL A   1      44.784  24.332  29.984  1.00  0.00     0.049 A 
ATOM     36  H   UNL A   1      45.617  23.730  28.144  1.00  0.00     0.167 HD
ATOM     37  C   UNL A   1      46.200  26.325  29.544  1.00  0.00     0.074 A 
ATOM     38  C   UNL A   1      46.277  26.368  28.085  1.00  0.00     0.031 C 
ATOM     39  C   UNL A   1      45.594  25.451  30.400  1.00  0.00     0.037 A 
BRANCH  26  40
ATOM     40  C   UNL A   1      43.711  23.182  25.863  1.00  0.00     0.057 A 
ATOM     41  C   UNL A   1      43.646  21.809  25.553  1.00  0.00     0.134 A 
ATOM     42  C   UNL A   1      44.666  23.915  25.133  1.00  0.00     0.134 A 
ATOM     43  F   UNL A   1      42.784  21.000  26.186  1.00  0.00    -0.206 F 
ATOM     44  C   UNL A   1      44.529  21.201  24.652  1.00  0.00     0.040 A 
ATOM     45  C   UNL A   1      45.518  23.326  24.194  1.00  0.00     0.040 A 
ATOM     46  F   UNL A   1      44.903  25.212  25.361  1.00  0.00    -0.206 F 
ATOM     47  C   UNL A   1      45.476  21.959  23.976  1.00  0.00     0.006 A 
ENDBRANCH  26  40
BRANCH  27  48
ATOM     48  C   UNL A   1      46.769  30.831  28.304  1.00  0.00     0.057 A 
ATOM     49  C   UNL A   1      46.628  31.239  26.967  1.00  0.00     0.134 A 
ATOM     50  C   UNL A   1      47.468  31.714  29.144  1.00  0.00     0.134 A 
ATOM     51  F   UNL A   1      45.938  30.490  26.095  1.00  0.00    -0.206 F 
ATOM     52  C   UNL A   1      47.132  32.463  26.502  1.00  0.00     0.040 A 
ATOM     53  C   UNL A   1      47.980  32.935  28.691  1.00  0.00     0.040 A 
ATOM     54  F   UNL A   1      47.595  31.466  30.455  1.00  0.00    -0.206 F 
ATOM     55  C   UNL A   1      47.800  33.321  27.369  1.00  0.00     0.006 A 
ENDBRANCH  27  48
BRANCH  39  56
ATOM     56  C   UNL A   1      45.564  25.802  31.860  1.00  0.00     0.057 A 
ATOM     57  C   UNL A   1      46.635  25.603  32.744  1.00  0.00     0.134 A 
ATOM     58  C   UNL A   1      44.462  26.510  32.351  1.00  0.00     0.134 A 
ATOM     59  F   UNL A   1      47.773  25.024  32.338  1.00  0.00    -0.206 F 
ATOM     60  C   UNL A   1      46.592  26.053  34.067  1.00  0.00     0.040 A 
ATOM     61  C   UNL A   1      44.421  26.994  33.659  1.00  0.00     0.040 A 
ATOM     62  F   UNL A   1      43.423  26.787  31.547  1.00  0.00    -0.206 F 
ATOM     63  C   UNL A   1      45.484  26.758  34.526  1.00  0.00     0.006 A 
ENDBRANCH  39  56
ENDBRANCH  13  14
ENDBRANCH   6   8
ENDBRANCH   3   4
ENDBRANCH   2   3
ENDBRANCH   1   2
BRANCH   1  64
ATOM     64  C   UNL A   1      33.599  27.515  24.092  1.00  0.00     0.002 C 
BRANCH  64  65
ATOM     65  C   UNL A   1      32.785  28.803  23.946  1.00  0.00     0.021 C 
BRANCH  65  66
ATOM     66  C   UNL A   1      31.954  28.893  22.669  1.00  0.00     0.116 C 
BRANCH  66  67
ATOM     67  N   UNL A   1      30.531  29.000  22.949  1.00  0.00    -0.352 N 
ATOM     68  C   UNL A   1      29.656  28.012  23.317  1.00  0.00     0.251 C 
ATOM     69  H   UNL A   1      30.145  29.901  22.862  1.00  0.00     0.163 HD
ATOM     70  O   UNL A   1      28.440  28.228  23.338  1.00  0.00    -0.269 OA
BRANCH  68  71
ATOM     71  C   UNL A   1      30.169  26.677  23.673  1.00  0.00     0.039 A 
ATOM     72  C   UNL A   1      30.656  25.849  22.662  1.00  0.00     0.014 A 
ATOM     73  C   UNL A   1      30.175  26.247  25.004  1.00  0.00     0.014 A 
ATOM     74  C   UNL A   1      31.215  24.615  22.994  1.00  0.00     0.005 A 
ATOM     75  C   UNL A   1      30.749  25.022  25.336  1.00  0.00     0.005 A 
ATOM     76  C   UNL A   1      31.285  24.193  24.335  1.00  0.00    -0.038 A 
BRANCH  76  77
ATOM     77  C   UNL A   1      31.884  22.834  24.654  1.00  0.00     0.081 C 
ATOM     78  C   UNL A   1      31.638  22.426  26.124  1.00  0.00     0.111 C 
ATOM     79  C   UNL A   1      33.336  22.913  24.345  1.00  0.00     0.093 A 
ATOM     80  C   UNL A   1      32.869  22.458  27.015  1.00  0.00     0.188 C 
ATOM     81  C   UNL A   1      34.285  22.702  25.319  1.00  0.00     0.164 A 
ATOM     82  N   UNL A   1      33.910  23.218  23.140  1.00  0.00    -0.238 NA
ATOM     83  N   UNL A   1      34.108  22.524  26.649  1.00  0.00    -0.198 NA
ATOM     84  N   UNL A   1      35.501  22.849  24.683  1.00  0.00    -0.283 N 
ATOM     85  C   UNL A   1      35.207  23.220  23.387  1.00  0.00     0.206 A 
BRANCH  80  86
ATOM     86  O   UNL A   1      32.601  22.357  28.331  1.00  0.00    -0.496 OA
ATOM     87  H   UNL A   1      33.218  22.673  28.961  1.00  0.00     0.294 HD
ENDBRANCH  80  86
BRANCH  84  88
ATOM     88  C   UNL A   1      36.780  22.654  25.247  1.00  0.00     0.050 A 
ATOM     89  C   UNL A   1      37.443  23.708  25.883  1.00  0.00     0.027 A 
ATOM     90  C   UNL A   1      37.365  21.382  25.180  1.00  0.00     0.047 A 
ATOM     91  C   UNL A   1      38.675  23.468  26.500  1.00  0.00     0.004 A 
ATOM     92  C   UNL A   1      38.615  21.170  25.752  1.00  0.00     0.043 A 
ATOM     93  C   UNL A   1      39.263  22.202  26.428  1.00  0.00     0.020 A 
ATOM     94  Cl  UNL A   1      39.369  19.629  25.613  1.00  0.00    -0.084 Cl
ENDBRANCH  84  88
ENDBRANCH  76  77
ENDBRANCH  68  71
ENDBRANCH  66  67
ENDBRANCH  65  66
ENDBRANCH  64  65
ENDBRANCH   1  64
TORSDOF 16
ENDMDL
MODEL 3
REMARK VINA RESULT:     -12.8      2.804      8.086
REMARK SMILES O=C(NCCCCCCNC(=O)c1ccc([C@@H]2CC(O)=Nc3c2ncn3-c2cccc(Cl)c2)cc1)c1ccc(-c2c3nc(c(-c4c(F)cccc4F)c4ccc([nH]4)c(-c4c(F)cccc4F)c4nc(c(-c5c(F)cccc5F)c5ccc2[nH]5)C=C4)C=C3)cc1
REMARK SMILES IDX 6 1 5 2 4 3 3 4 1 5 2 6 36 8 37 9 89 10 38 11 88 12 39 13
REMARK SMILES IDX 40 14 41 15 82 16 42 17 87 18 81 19 83 20 43 21 86 22 80 23
REMARK SMILES IDX 79 24 44 26 70 27 53 28 69 29 54 30 57 31 68 32 84 33 55 34
REMARK SMILES IDX 56 35 67 37 85 38 58 39 45 40 46 41 51 42 47 43 48 44 50 45
REMARK SMILES IDX 52 46 49 47 71 48 72 49 77 50 73 51 74 52 76 53 78 54 75 55
REMARK SMILES IDX 59 56 60 57 65 58 61 59 62 60 64 61 66 62 63 63 7 64 8 65
REMARK SMILES IDX 9 66 10 67 11 68 12 70 13 71 14 72 35 73 15 74 34 75 16 76
REMARK SMILES IDX 17 77 18 78 23 79 19 80 22 81 24 82 21 83 26 84 25 85 20 86
REMARK SMILES IDX 27 88 28 89 33 90 29 91 31 92 30 93 32 94
REMARK H PARENT 3 7 83 25 57 36 10 69 20 87
REMARK Flexibility Score: inf
ROOT
ATOM      1  C   UNL A   1      36.641  23.160  24.970  1.00  0.00     0.002 C 
ENDROOT
BRANCH   1   2
ATOM      2  C   UNL A   1      37.803  22.160  24.986  1.00  0.00     0.021 C 
BRANCH   2   3
ATOM      3  C   UNL A   1      38.701  22.243  26.218  1.00  0.00     0.116 C 
BRANCH   3   4
ATOM      4  N   UNL A   1      40.118  22.186  25.931  1.00  0.00    -0.352 N 
ATOM      5  O   UNL A   1      42.302  22.539  25.919  1.00  0.00    -0.269 OA
ATOM      6  C   UNL A   1      41.192  22.973  26.236  1.00  0.00     0.251 C 
ATOM      7  H   UNL A   1      40.364  21.400  25.392  1.00  0.00     0.163 HD
BRANCH   6   8
ATOM      8  C   UNL A   1      41.103  24.328  26.837  1.00  0.00     0.039 A 
ATOM      9  C   UNL A   1      40.358  25.400  26.341  1.00  0.00     0.014 A 
ATOM     10  C   UNL A   1      41.857  24.515  28.010  1.00  0.00     0.014 A 
ATOM     11  C   UNL A   1      40.445  26.653  26.942  1.00  0.00     0.010 A 
ATOM     12  C   UNL A   1      41.935  25.757  28.623  1.00  0.00     0.010 A 
ATOM     13  C   UNL A   1      41.257  26.836  28.064  1.00  0.00    -0.014 A 
BRANCH  13  14
ATOM     14  C   UNL A   1      41.234  28.125  28.749  1.00  0.00     0.031 A 
ATOM     15  C   UNL A   1      42.332  29.051  28.336  1.00  0.00     0.074 A 
ATOM     16  C   UNL A   1      40.217  28.523  29.541  1.00  0.00     0.049 A 
ATOM     17  N   UNL A   1      43.265  29.564  29.069  1.00  0.00    -0.248 NA
ATOM     18  C   UNL A   1      42.478  29.346  26.899  1.00  0.00     0.031 C 
ATOM     19  C   UNL A   1      38.946  27.838  29.786  1.00  0.00     0.029 A 
ATOM     20  N   UNL A   1      40.062  29.692  30.226  1.00  0.00    -0.354 N 
ATOM     21  C   UNL A   1      44.003  30.397  28.228  1.00  0.00     0.074 A 
ATOM     22  C   UNL A   1      43.574  30.105  26.886  1.00  0.00     0.031 C 
ATOM     23  C   UNL A   1      38.075  28.698  30.362  1.00  0.00     0.029 A 
ATOM     24  C   UNL A   1      38.761  29.947  30.646  1.00  0.00     0.049 A 
ATOM     25  H   UNL A   1      40.810  30.306  30.407  1.00  0.00     0.167 HD
ATOM     26  C   UNL A   1      44.754  31.422  28.717  1.00  0.00     0.037 A 
ATOM     27  C   UNL A   1      38.276  31.120  31.133  1.00  0.00     0.037 A 
ATOM     28  C   UNL A   1      45.001  31.265  30.125  1.00  0.00     0.049 A 
ATOM     29  C   UNL A   1      39.436  31.941  31.559  1.00  0.00     0.074 A 
ATOM     30  C   UNL A   1      45.647  30.329  30.906  1.00  0.00     0.029 A 
ATOM     31  N   UNL A   1      44.233  32.007  30.987  1.00  0.00    -0.354 N 
ATOM     32  N   UNL A   1      40.192  31.656  32.580  1.00  0.00    -0.248 NA
ATOM     33  C   UNL A   1      40.024  32.833  30.572  1.00  0.00     0.031 C 
ATOM     34  C   UNL A   1      44.865  30.241  32.094  1.00  0.00     0.029 A 
ATOM     35  C   UNL A   1      43.831  31.171  31.993  1.00  0.00     0.049 A 
ATOM     36  H   UNL A   1      44.015  32.962  30.899  1.00  0.00     0.167 HD
ATOM     37  C   UNL A   1      41.478  31.951  32.153  1.00  0.00     0.074 A 
ATOM     38  C   UNL A   1      41.304  32.748  30.940  1.00  0.00     0.031 C 
ATOM     39  C   UNL A   1      42.555  31.282  32.658  1.00  0.00     0.037 A 
BRANCH  26  40
ATOM     40  C   UNL A   1      44.936  32.754  28.028  1.00  0.00     0.057 A 
ATOM     41  C   UNL A   1      46.219  33.122  27.576  1.00  0.00     0.134 A 
ATOM     42  C   UNL A   1      43.997  33.802  28.078  1.00  0.00     0.134 A 
ATOM     43  F   UNL A   1      47.206  32.217  27.492  1.00  0.00    -0.206 F 
ATOM     44  C   UNL A   1      46.560  34.449  27.285  1.00  0.00     0.040 A 
ATOM     45  C   UNL A   1      44.314  35.121  27.741  1.00  0.00     0.040 A 
ATOM     46  F   UNL A   1      42.758  33.633  28.554  1.00  0.00    -0.206 F 
ATOM     47  C   UNL A   1      45.608  35.455  27.377  1.00  0.00     0.006 A 
ENDBRANCH  26  40
BRANCH  27  48
ATOM     48  C   UNL A   1      36.928  31.717  30.963  1.00  0.00     0.057 A 
ATOM     49  C   UNL A   1      36.056  31.871  32.053  1.00  0.00     0.134 A 
ATOM     50  C   UNL A   1      36.580  32.415  29.794  1.00  0.00     0.134 A 
ATOM     51  F   UNL A   1      36.323  31.283  33.228  1.00  0.00    -0.206 F 
ATOM     52  C   UNL A   1      34.918  32.689  31.989  1.00  0.00     0.040 A 
ATOM     53  C   UNL A   1      35.445  33.230  29.717  1.00  0.00     0.040 A 
ATOM     54  F   UNL A   1      37.379  32.405  28.719  1.00  0.00    -0.206 F 
ATOM     55  C   UNL A   1      34.617  33.382  30.821  1.00  0.00     0.006 A 
ENDBRANCH  27  48
BRANCH  39  56
ATOM     56  C   UNL A   1      42.341  30.406  33.859  1.00  0.00     0.057 A 
ATOM     57  C   UNL A   1      42.346  30.866  35.185  1.00  0.00     0.134 A 
ATOM     58  C   UNL A   1      41.960  29.076  33.653  1.00  0.00     0.134 A 
ATOM     59  F   UNL A   1      42.601  32.149  35.474  1.00  0.00    -0.206 F 
ATOM     60  C   UNL A   1      42.028  30.028  36.257  1.00  0.00     0.040 A 
ATOM     61  C   UNL A   1      41.606  28.238  34.712  1.00  0.00     0.040 A 
ATOM     62  F   UNL A   1      41.877  28.581  32.408  1.00  0.00    -0.206 F 
ATOM     63  C   UNL A   1      41.649  28.710  36.021  1.00  0.00     0.006 A 
ENDBRANCH  39  56
ENDBRANCH  13  14
ENDBRANCH   6   8
ENDBRANCH   3   4
ENDBRANCH   2   3
ENDBRANCH   1   2
BRANCH   1  64
ATOM     64  C   UNL A   1      35.439  22.799  25.847  1.00  0.00     0.002 C 
BRANCH  64  65
ATOM     65  C   UNL A   1      35.256  21.306  26.132  1.00  0.00     0.021 C 
BRANCH  65  66
ATOM     66  C   UNL A   1      35.244  20.416  24.894  1.00  0.00     0.116 C 
BRANCH  66  67
ATOM     67  N   UNL A   1      34.176  19.429  24.939  1.00  0.00    -0.352 N 
ATOM     68  C   UNL A   1      32.825  19.627  24.830  1.00  0.00     0.251 C 
ATOM     69  H   UNL A   1      34.462  18.496  25.066  1.00  0.00     0.163 HD
ATOM     70  O   UNL A   1      32.036  18.710  25.074  1.00  0.00    -0.269 OA
BRANCH  68  71
ATOM     71  C   UNL A   1      32.311  20.951  24.435  1.00  0.00     0.039 A 
ATOM     72  C   UNL A   1      31.700  21.753  25.398  1.00  0.00     0.014 A 
ATOM     73  C   UNL A   1      32.439  21.401  23.117  1.00  0.00     0.014 A 
ATOM     74  C   UNL A   1      31.278  23.038  25.056  1.00  0.00     0.005 A 
ATOM     75  C   UNL A   1      32.032  22.691  22.780  1.00  0.00     0.005 A 
ATOM     76  C   UNL A   1      31.454  23.530  23.749  1.00  0.00    -0.038 A 
BRANCH  76  77
ATOM     77  C   UNL A   1      30.964  24.927  23.411  1.00  0.00     0.081 C 
ATOM     78  C   UNL A   1      31.693  25.512  22.179  1.00  0.00     0.111 C 
ATOM     79  C   UNL A   1      31.173  25.768  24.619  1.00  0.00     0.093 A 
ATOM     80  C   UNL A   1      32.675  26.630  22.486  1.00  0.00     0.188 C 
ATOM     81  C   UNL A   1      31.984  26.878  24.583  1.00  0.00     0.164 A 
ATOM     82  N   UNL A   1      30.654  25.562  25.870  1.00  0.00    -0.238 NA
ATOM     83  N   UNL A   1      32.779  27.315  23.578  1.00  0.00    -0.198 NA
ATOM     84  N   UNL A   1      31.941  27.404  25.859  1.00  0.00    -0.283 N 
ATOM     85  C   UNL A   1      31.172  26.531  26.601  1.00  0.00     0.206 A 
BRANCH  80  86
ATOM     86  O   UNL A   1      33.485  26.949  21.458  1.00  0.00    -0.496 OA
ATOM     87  H   UNL A   1      33.495  27.825  21.123  1.00  0.00     0.294 HD
ENDBRANCH  80  86
BRANCH  84  88
ATOM     88  C   UNL A   1      32.554  28.595  26.305  1.00  0.00     0.050 A 
ATOM     89  C   UNL A   1      31.822  29.784  26.381  1.00  0.00     0.027 A 
ATOM     90  C   UNL A   1      33.901  28.561  26.690  1.00  0.00     0.047 A 
ATOM     91  C   UNL A   1      32.433  30.930  26.899  1.00  0.00     0.004 A 
ATOM     92  C   UNL A   1      34.511  29.723  27.153  1.00  0.00     0.043 A 
ATOM     93  C   UNL A   1      33.779  30.901  27.277  1.00  0.00     0.020 A 
ATOM     94  Cl  UNL A   1      36.183  29.705  27.563  1.00  0.00    -0.084 Cl
ENDBRANCH  84  88
ENDBRANCH  76  77
ENDBRANCH  68  71
ENDBRANCH  66  67
ENDBRANCH  65  66
ENDBRANCH  64  65
ENDBRANCH   1  64
TORSDOF 16
ENDMDL
