MODEL 1
REMARK VINA RESULT:     -11.5      0.000      0.000
REMARK SMILES COc1cc(C(=O)N[C@H]2CCCC[C@H]2C(=O)NCCCCCCNC(=O)c2ccc(-c3c4nc(c(-c5c(F)cccc5F)c5ccc([nH]5)c(-c5c(F)cccc5F)c5nc(c(-c6c(F)cccc6F)c6ccc3[nH]6)C=C5)C=C4)cc2)cc(Cl)c1OC
REMARK SMILES IDX 20 1 19 2 18 3 17 4 15 5 16 6 14 8 9 9 10 10 11 11 13 12
REMARK SMILES IDX 12 13 8 14 6 15 7 16 5 18 3 19 4 20 84 21 82 22 81 23 83 24
REMARK SMILES IDX 2 25 1 26 85 27 86 28 21 29 22 30 23 31 24 32 25 33 26 35
REMARK SMILES IDX 27 36 28 37 80 38 29 39 79 40 30 41 31 42 32 43 73 44 33 45
REMARK SMILES IDX 78 46 72 47 74 48 34 49 77 50 71 51 70 52 35 54 61 55 44 56
REMARK SMILES IDX 60 57 45 58 48 59 59 60 75 61 46 62 47 63 58 65 76 66 49 67
REMARK SMILES IDX 36 68 37 69 42 70 38 71 39 72 41 73 43 74 40 75 62 76 63 77
REMARK SMILES IDX 68 78 64 79 65 80 67 81 69 82 66 83 50 84 51 85 56 86 52 87
REMARK SMILES IDX 53 88 55 89 57 90 54 91
REMARK H PARENT 17 7 8 17 24 34 74 53 48 64
REMARK Flexibility Score: inf
ROOT
ATOM      1  C   UNL A   1      32.170  29.942  27.142  1.00  0.00     0.002 C 
ENDROOT
BRANCH   1   2
ATOM      2  C   UNL A   1      32.340  28.478  26.731  1.00  0.00     0.021 C 
BRANCH   2   3
ATOM      3  C   UNL A   1      33.791  28.074  26.482  1.00  0.00     0.116 C 
BRANCH   3   4
ATOM      4  N   UNL A   1      33.915  27.334  25.245  1.00  0.00    -0.356 N 
ATOM      5  C   UNL A   1      33.853  26.009  24.976  1.00  0.00     0.225 C 
ATOM      6  O   UNL A   1      34.177  25.658  23.836  1.00  0.00    -0.275 OA
ATOM      7  H   UNL A   1      34.072  27.898  24.454  1.00  0.00     0.163 HD
BRANCH   5   8
ATOM      8  C   UNL A   1      33.405  24.954  25.985  1.00  0.00     0.101 C 
ATOM      9  C   UNL A   1      31.889  24.642  25.985  1.00  0.00     0.094 C 
ATOM     10  C   UNL A   1      31.553  23.732  27.182  1.00  0.00     0.026 C 
ATOM     11  C   UNL A   1      32.444  22.488  27.227  1.00  0.00     0.002 C 
ATOM     12  C   UNL A   1      34.336  23.749  26.142  1.00  0.00     0.015 C 
ATOM     13  C   UNL A   1      33.916  22.870  27.319  1.00  0.00     0.001 C 
BRANCH   9  14
ATOM     14  N   UNL A   1      31.349  24.034  24.772  1.00  0.00    -0.349 N 
ATOM     15  C   UNL A   1      30.617  24.508  23.709  1.00  0.00     0.251 C 
ATOM     16  O   UNL A   1      30.337  23.675  22.842  1.00  0.00    -0.269 OA
ATOM     17  H   UNL A   1      31.556  23.074  24.699  1.00  0.00     0.164 HD
BRANCH  15  18
ATOM     18  C   UNL A   1      30.084  25.902  23.556  1.00  0.00     0.045 A 
ATOM     19  C   UNL A   1      30.554  28.183  22.814  1.00  0.00     0.163 A 
ATOM     20  C   UNL A   1      30.980  26.874  23.092  1.00  0.00     0.064 A 
ATOM     21  C   UNL A   1      29.215  28.580  23.023  1.00  0.00     0.179 A 
ATOM     22  C   UNL A   1      28.331  27.621  23.525  1.00  0.00     0.087 A 
ATOM     23  C   UNL A   1      28.773  26.309  23.788  1.00  0.00     0.038 A 
ATOM     24  Cl  UNL A   1      26.656  27.875  23.888  1.00  0.00    -0.080 Cl
BRANCH  19  25
ATOM     25  O   UNL A   1      31.435  29.151  22.383  1.00  0.00    -0.493 OA
ATOM     26  C   UNL A   1      32.804  28.878  22.665  1.00  0.00     0.278 C 
ENDBRANCH  19  25
BRANCH  21  27
ATOM     27  O   UNL A   1      28.977  29.887  22.693  1.00  0.00    -0.491 OA
ATOM     28  C   UNL A   1      28.144  30.225  21.600  1.00  0.00     0.278 C 
ENDBRANCH  21  27
ENDBRANCH  15  18
ENDBRANCH   9  14
ENDBRANCH   5   8
ENDBRANCH   3   4
ENDBRANCH   2   3
ENDBRANCH   1   2
BRANCH   1  29
ATOM     29  C   UNL A   1      31.369  30.796  26.154  1.00  0.00     0.002 C 
BRANCH  29  30
ATOM     30  C   UNL A   1      31.316  32.292  26.476  1.00  0.00     0.021 C 
BRANCH  30  31
ATOM     31  C   UNL A   1      32.553  32.830  27.192  1.00  0.00     0.116 C 
BRANCH  31  32
ATOM     32  N   UNL A   1      32.377  34.218  27.590  1.00  0.00    -0.352 N 
ATOM     33  C   UNL A   1      32.997  34.925  28.588  1.00  0.00     0.251 C 
ATOM     34  H   UNL A   1      31.716  34.724  27.065  1.00  0.00     0.163 HD
ATOM     35  O   UNL A   1      32.546  36.007  28.949  1.00  0.00    -0.269 OA
BRANCH  33  36
ATOM     36  C   UNL A   1      34.209  34.381  29.234  1.00  0.00     0.039 A 
ATOM     37  C   UNL A   1      34.081  33.701  30.448  1.00  0.00     0.014 A 
ATOM     38  C   UNL A   1      35.470  34.569  28.662  1.00  0.00     0.014 A 
ATOM     39  C   UNL A   1      35.214  33.167  31.063  1.00  0.00     0.010 A 
ATOM     40  C   UNL A   1      36.589  33.978  29.240  1.00  0.00     0.010 A 
ATOM     41  C   UNL A   1      36.474  33.277  30.450  1.00  0.00    -0.014 A 
BRANCH  41  42
ATOM     42  C   UNL A   1      37.681  32.670  31.062  1.00  0.00     0.031 A 
ATOM     43  C   UNL A   1      38.321  31.463  30.435  1.00  0.00     0.074 A 
ATOM     44  C   UNL A   1      38.163  33.169  32.217  1.00  0.00     0.049 A 
ATOM     45  N   UNL A   1      39.336  30.753  30.856  1.00  0.00    -0.248 NA
ATOM     46  C   UNL A   1      37.726  30.973  29.182  1.00  0.00     0.031 C 
ATOM     47  C   UNL A   1      37.602  34.308  32.945  1.00  0.00     0.029 A 
ATOM     48  N   UNL A   1      39.227  32.773  32.986  1.00  0.00    -0.354 N 
ATOM     49  C   UNL A   1      39.492  29.728  29.931  1.00  0.00     0.074 A 
ATOM     50  C   UNL A   1      38.436  29.879  28.953  1.00  0.00     0.031 C 
ATOM     51  C   UNL A   1      38.339  34.531  34.045  1.00  0.00     0.029 A 
ATOM     52  C   UNL A   1      39.399  33.531  34.119  1.00  0.00     0.049 A 
ATOM     53  H   UNL A   1      39.812  32.018  32.750  1.00  0.00     0.167 HD
ATOM     54  C   UNL A   1      40.440  28.764  29.889  1.00  0.00     0.037 A 
ATOM     55  C   UNL A   1      40.305  33.426  35.109  1.00  0.00     0.037 A 
ATOM     56  C   UNL A   1      41.503  28.630  30.851  1.00  0.00     0.049 A 
ATOM     57  C   UNL A   1      41.345  32.343  35.041  1.00  0.00     0.074 A 
ATOM     58  C   UNL A   1      42.548  27.723  30.863  1.00  0.00     0.029 A 
ATOM     59  N   UNL A   1      41.655  29.430  31.974  1.00  0.00    -0.354 N 
ATOM     60  N   UNL A   1      41.520  31.421  34.125  1.00  0.00    -0.248 NA
ATOM     61  C   UNL A   1      42.318  32.289  36.141  1.00  0.00     0.031 C 
ATOM     62  C   UNL A   1      43.307  27.946  32.016  1.00  0.00     0.029 A 
ATOM     63  C   UNL A   1      42.764  29.023  32.696  1.00  0.00     0.049 A 
ATOM     64  H   UNL A   1      41.062  30.177  32.220  1.00  0.00     0.167 HD
ATOM     65  C   UNL A   1      42.637  30.698  34.521  1.00  0.00     0.074 A 
ATOM     66  C   UNL A   1      43.106  31.296  35.754  1.00  0.00     0.031 C 
ATOM     67  C   UNL A   1      43.222  29.635  33.918  1.00  0.00     0.037 A 
BRANCH  54  68
ATOM     68  C   UNL A   1      40.374  27.775  28.760  1.00  0.00     0.057 A 
ATOM     69  C   UNL A   1      41.082  27.969  27.567  1.00  0.00     0.134 A 
ATOM     70  C   UNL A   1      39.622  26.599  28.881  1.00  0.00     0.134 A 
ATOM     71  F   UNL A   1      41.812  29.079  27.382  1.00  0.00    -0.206 F 
ATOM     72  C   UNL A   1      41.024  27.041  26.525  1.00  0.00     0.040 A 
ATOM     73  C   UNL A   1      39.579  25.652  27.857  1.00  0.00     0.040 A 
ATOM     74  F   UNL A   1      38.925  26.348  30.000  1.00  0.00    -0.206 F 
ATOM     75  C   UNL A   1      40.276  25.876  26.672  1.00  0.00     0.006 A 
ENDBRANCH  54  68
BRANCH  55  76
ATOM     76  C   UNL A   1      40.283  34.387  36.240  1.00  0.00     0.057 A 
ATOM     77  C   UNL A   1      39.550  34.117  37.402  1.00  0.00     0.134 A 
ATOM     78  C   UNL A   1      40.986  35.597  36.188  1.00  0.00     0.134 A 
ATOM     79  F   UNL A   1      38.841  32.983  37.503  1.00  0.00    -0.206 F 
ATOM     80  C   UNL A   1      39.500  35.023  38.461  1.00  0.00     0.040 A 
ATOM     81  C   UNL A   1      40.964  36.501  37.250  1.00  0.00     0.040 A 
ATOM     82  F   UNL A   1      41.715  35.910  35.106  1.00  0.00    -0.206 F 
ATOM     83  C   UNL A   1      40.213  36.218  38.389  1.00  0.00     0.006 A 
ENDBRANCH  55  76
BRANCH  67  84
ATOM     84  C   UNL A   1      44.456  29.074  34.563  1.00  0.00     0.057 A 
ATOM     85  C   UNL A   1      45.733  29.567  34.271  1.00  0.00     0.134 A 
ATOM     86  C   UNL A   1      44.357  28.054  35.519  1.00  0.00     0.134 A 
ATOM     87  F   UNL A   1      45.896  30.534  33.355  1.00  0.00    -0.206 F 
ATOM     88  C   UNL A   1      46.872  29.050  34.891  1.00  0.00     0.040 A 
ATOM     89  C   UNL A   1      45.486  27.548  36.164  1.00  0.00     0.040 A 
ATOM     90  F   UNL A   1      43.161  27.544  35.850  1.00  0.00    -0.206 F 
ATOM     91  C   UNL A   1      46.748  28.042  35.845  1.00  0.00     0.006 A 
ENDBRANCH  67  84
ENDBRANCH  41  42
ENDBRANCH  33  36
ENDBRANCH  31  32
ENDBRANCH  30  31
ENDBRANCH  29  30
ENDBRANCH   1  29
TORSDOF 17
ENDMDL
MODEL 2
REMARK VINA RESULT:     -11.3      0.863      6.090
REMARK SMILES COc1cc(C(=O)N[C@H]2CCCC[C@H]2C(=O)NCCCCCCNC(=O)c2ccc(-c3c4nc(c(-c5c(F)cccc5F)c5ccc([nH]5)c(-c5c(F)cccc5F)c5nc(c(-c6c(F)cccc6F)c6ccc3[nH]6)C=C5)C=C4)cc2)cc(Cl)c1OC
REMARK SMILES IDX 20 1 19 2 18 3 17 4 15 5 16 6 14 8 9 9 10 10 11 11 13 12
REMARK SMILES IDX 12 13 8 14 6 15 7 16 5 18 3 19 4 20 84 21 82 22 81 23 83 24
REMARK SMILES IDX 2 25 1 26 85 27 86 28 21 29 22 30 23 31 24 32 25 33 26 35
REMARK SMILES IDX 27 36 28 37 80 38 29 39 79 40 30 41 31 42 32 43 73 44 33 45
REMARK SMILES IDX 78 46 72 47 74 48 34 49 77 50 71 51 70 52 35 54 61 55 44 56
REMARK SMILES IDX 60 57 45 58 48 59 59 60 75 61 46 62 47 63 58 65 76 66 49 67
REMARK SMILES IDX 36 68 37 69 42 70 38 71 39 72 41 73 43 74 40 75 62 76 63 77
REMARK SMILES IDX 68 78 64 79 65 80 67 81 69 82 66 83 50 84 51 85 56 86 52 87
REMARK SMILES IDX 53 88 55 89 57 90 54 91
REMARK H PARENT 17 7 8 17 24 34 74 53 48 64
REMARK Flexibility Score: inf
ROOT
ATOM      1  C   UNL A   1      32.697  30.254  26.826  1.00  0.00     0.002 C 
ENDROOT
BRANCH   1   2
ATOM      2  C   UNL A   1      32.630  28.726  26.847  1.00  0.00     0.021 C 
BRANCH   2   3
ATOM      3  C   UNL A   1      33.973  28.048  26.587  1.00  0.00     0.116 C 
BRANCH   3   4
ATOM      4  N   UNL A   1      33.962  27.353  25.319  1.00  0.00    -0.356 N 
ATOM      5  C   UNL A   1      33.795  26.045  25.008  1.00  0.00     0.225 C 
ATOM      6  O   UNL A   1      34.016  25.721  23.835  1.00  0.00    -0.275 OA
ATOM      7  H   UNL A   1      34.102  27.937  24.540  1.00  0.00     0.163 HD
BRANCH   5   8
ATOM      8  C   UNL A   1      33.349  24.982  26.007  1.00  0.00     0.101 C 
ATOM      9  C   UNL A   1      31.836  24.656  25.993  1.00  0.00     0.094 C 
ATOM     10  C   UNL A   1      31.499  23.736  27.183  1.00  0.00     0.026 C 
ATOM     11  C   UNL A   1      32.400  22.501  27.228  1.00  0.00     0.002 C 
ATOM     12  C   UNL A   1      34.289  23.784  26.165  1.00  0.00     0.015 C 
ATOM     13  C   UNL A   1      33.867  22.895  27.334  1.00  0.00     0.001 C 
BRANCH   9  14
ATOM     14  N   UNL A   1      31.311  24.050  24.773  1.00  0.00    -0.349 N 
ATOM     15  C   UNL A   1      30.590  24.524  23.703  1.00  0.00     0.251 C 
ATOM     16  O   UNL A   1      30.321  23.693  22.830  1.00  0.00    -0.269 OA
ATOM     17  H   UNL A   1      31.520  23.090  24.701  1.00  0.00     0.164 HD
BRANCH  15  18
ATOM     18  C   UNL A   1      30.057  25.918  23.546  1.00  0.00     0.045 A 
ATOM     19  C   UNL A   1      30.531  28.200  22.810  1.00  0.00     0.163 A 
ATOM     20  C   UNL A   1      30.955  26.892  23.090  1.00  0.00     0.064 A 
ATOM     21  C   UNL A   1      29.189  28.596  23.009  1.00  0.00     0.179 A 
ATOM     22  C   UNL A   1      28.302  27.635  23.503  1.00  0.00     0.087 A 
ATOM     23  C   UNL A   1      28.744  26.323  23.768  1.00  0.00     0.038 A 
ATOM     24  Cl  UNL A   1      26.624  27.888  23.853  1.00  0.00    -0.080 Cl
BRANCH  19  25
ATOM     25  O   UNL A   1      31.414  29.169  22.386  1.00  0.00    -0.493 OA
ATOM     26  C   UNL A   1      32.786  28.859  22.602  1.00  0.00     0.278 C 
ENDBRANCH  19  25
BRANCH  21  27
ATOM     27  O   UNL A   1      28.953  29.903  22.677  1.00  0.00    -0.491 OA
ATOM     28  C   UNL A   1      28.073  30.242  21.622  1.00  0.00     0.278 C 
ENDBRANCH  21  27
ENDBRANCH  15  18
ENDBRANCH   9  14
ENDBRANCH   5   8
ENDBRANCH   3   4
ENDBRANCH   2   3
ENDBRANCH   1   2
BRANCH   1  29
ATOM     29  C   UNL A   1      31.392  30.947  26.419  1.00  0.00     0.002 C 
BRANCH  29  30
ATOM     30  C   UNL A   1      31.334  32.450  26.706  1.00  0.00     0.021 C 
BRANCH  30  31
ATOM     31  C   UNL A   1      32.666  33.069  27.120  1.00  0.00     0.116 C 
BRANCH  31  32
ATOM     32  N   UNL A   1      32.478  34.354  27.774  1.00  0.00    -0.352 N 
ATOM     33  C   UNL A   1      33.114  34.878  28.870  1.00  0.00     0.251 C 
ATOM     34  H   UNL A   1      31.791  34.934  27.370  1.00  0.00     0.163 HD
ATOM     35  O   UNL A   1      32.655  35.864  29.437  1.00  0.00    -0.269 OA
BRANCH  33  36
ATOM     36  C   UNL A   1      34.355  34.252  29.371  1.00  0.00     0.039 A 
ATOM     37  C   UNL A   1      34.290  33.434  30.501  1.00  0.00     0.014 A 
ATOM     38  C   UNL A   1      35.582  34.498  28.748  1.00  0.00     0.014 A 
ATOM     39  C   UNL A   1      35.451  32.822  30.978  1.00  0.00     0.010 A 
ATOM     40  C   UNL A   1      36.725  33.834  29.183  1.00  0.00     0.010 A 
ATOM     41  C   UNL A   1      36.672  32.995  30.306  1.00  0.00    -0.014 A 
BRANCH  41  42
ATOM     42  C   UNL A   1      37.906  32.311  30.767  1.00  0.00     0.031 A 
ATOM     43  C   UNL A   1      38.724  32.899  31.882  1.00  0.00     0.074 A 
ATOM     44  C   UNL A   1      38.320  31.195  30.138  1.00  0.00     0.049 A 
ATOM     45  N   UNL A   1      39.864  32.487  32.377  1.00  0.00    -0.248 NA
ATOM     46  C   UNL A   1      38.208  34.127  32.507  1.00  0.00     0.031 C 
ATOM     47  C   UNL A   1      37.636  30.554  29.014  1.00  0.00     0.029 A 
ATOM     48  N   UNL A   1      39.425  30.409  30.347  1.00  0.00    -0.354 N 
ATOM     49  C   UNL A   1      40.206  33.409  33.358  1.00  0.00     0.074 A 
ATOM     50  C   UNL A   1      39.180  34.429  33.355  1.00  0.00     0.031 C 
ATOM     51  C   UNL A   1      38.326  29.462  28.646  1.00  0.00     0.029 A 
ATOM     52  C   UNL A   1      39.516  29.346  29.481  1.00  0.00     0.049 A 
ATOM     53  H   UNL A   1      40.089  30.588  31.052  1.00  0.00     0.167 HD
ATOM     54  C   UNL A   1      41.267  33.395  34.198  1.00  0.00     0.037 A 
ATOM     55  C   UNL A   1      40.459  28.392  29.369  1.00  0.00     0.037 A 
ATOM     56  C   UNL A   1      42.274  32.366  34.214  1.00  0.00     0.049 A 
ATOM     57  C   UNL A   1      41.629  28.401  30.312  1.00  0.00     0.074 A 
ATOM     58  C   UNL A   1      43.356  32.230  35.066  1.00  0.00     0.029 A 
ATOM     59  N   UNL A   1      42.321  31.296  33.334  1.00  0.00    -0.354 N 
ATOM     60  N   UNL A   1      41.906  29.243  31.278  1.00  0.00    -0.248 NA
ATOM     61  C   UNL A   1      42.617  27.324  30.153  1.00  0.00     0.031 C 
ATOM     62  C   UNL A   1      44.082  31.101  34.675  1.00  0.00     0.029 A 
ATOM     63  C   UNL A   1      43.426  30.507  33.609  1.00  0.00     0.049 A 
ATOM     64  H   UNL A   1      41.666  31.122  32.619  1.00  0.00     0.167 HD
ATOM     65  C   UNL A   1      43.079  28.783  31.860  1.00  0.00     0.074 A 
ATOM     66  C   UNL A   1      43.456  27.580  31.147  1.00  0.00     0.031 C 
ATOM     67  C   UNL A   1      43.781  29.308  32.894  1.00  0.00     0.037 A 
BRANCH  54  68
ATOM     68  C   UNL A   1      41.392  34.528  35.176  1.00  0.00     0.057 A 
ATOM     69  C   UNL A   1      40.810  34.471  36.450  1.00  0.00     0.134 A 
ATOM     70  C   UNL A   1      42.130  35.674  34.855  1.00  0.00     0.134 A 
ATOM     71  F   UNL A   1      40.080  33.408  36.817  1.00  0.00    -0.206 F 
ATOM     72  C   UNL A   1      40.938  35.524  37.358  1.00  0.00     0.040 A 
ATOM     73  C   UNL A   1      42.288  36.720  35.765  1.00  0.00     0.040 A 
ATOM     74  F   UNL A   1      42.720  35.790  33.654  1.00  0.00    -0.206 F 
ATOM     75  C   UNL A   1      41.684  36.649  37.019  1.00  0.00     0.006 A 
ENDBRANCH  54  68
BRANCH  55  76
ATOM     76  C   UNL A   1      40.324  27.333  28.337  1.00  0.00     0.057 A 
ATOM     77  C   UNL A   1      39.559  26.185  28.579  1.00  0.00     0.134 A 
ATOM     78  C   UNL A   1      40.955  27.437  27.093  1.00  0.00     0.134 A 
ATOM     79  F   UNL A   1      38.945  26.020  29.760  1.00  0.00    -0.206 F 
ATOM     80  C   UNL A   1      39.445  25.171  27.628  1.00  0.00     0.040 A 
ATOM     81  C   UNL A   1      40.829  26.441  26.124  1.00  0.00     0.040 A 
ATOM     82  F   UNL A   1      41.695  28.517  26.797  1.00  0.00    -0.206 F 
ATOM     83  C   UNL A   1      40.078  25.299  26.394  1.00  0.00     0.006 A 
ENDBRANCH  55  76
BRANCH  67  84
ATOM     84  C   UNL A   1      45.007  28.564  33.338  1.00  0.00     0.057 A 
ATOM     85  C   UNL A   1      44.946  27.534  34.284  1.00  0.00     0.134 A 
ATOM     86  C   UNL A   1      46.258  28.859  32.779  1.00  0.00     0.134 A 
ATOM     87  F   UNL A   1      43.780  27.213  34.865  1.00  0.00    -0.206 F 
ATOM     88  C   UNL A   1      46.090  26.837  34.676  1.00  0.00     0.040 A 
ATOM     89  C   UNL A   1      47.404  28.151  33.144  1.00  0.00     0.040 A 
ATOM     90  F   UNL A   1      46.383  29.829  31.862  1.00  0.00    -0.206 F 
ATOM     91  C   UNL A   1      47.322  27.141  34.100  1.00  0.00     0.006 A 
ENDBRANCH  67  84
ENDBRANCH  41  42
ENDBRANCH  33  36
ENDBRANCH  31  32
ENDBRANCH  30  31
ENDBRANCH  29  30
ENDBRANCH   1  29
TORSDOF 17
ENDMDL
MODEL 3
REMARK VINA RESULT:     -11.1      2.289      7.115
REMARK SMILES COc1cc(C(=O)N[C@H]2CCCC[C@H]2C(=O)NCCCCCCNC(=O)c2ccc(-c3c4nc(c(-c5c(F)cccc5F)c5ccc([nH]5)c(-c5c(F)cccc5F)c5nc(c(-c6c(F)cccc6F)c6ccc3[nH]6)C=C5)C=C4)cc2)cc(Cl)c1OC
REMARK SMILES IDX 20 1 19 2 18 3 17 4 15 5 16 6 14 8 9 9 10 10 11 11 13 12
REMARK SMILES IDX 12 13 8 14 6 15 7 16 5 18 3 19 4 20 84 21 82 22 81 23 83 24
REMARK SMILES IDX 2 25 1 26 85 27 86 28 21 29 22 30 23 31 24 32 25 33 26 35
REMARK SMILES IDX 27 36 28 37 80 38 29 39 79 40 30 41 31 42 32 43 73 44 33 45
REMARK SMILES IDX 78 46 72 47 74 48 34 49 77 50 71 51 70 52 35 54 61 55 44 56
REMARK SMILES IDX 60 57 45 58 48 59 59 60 75 61 46 62 47 63 58 65 76 66 49 67
REMARK SMILES IDX 36 68 37 69 42 70 38 71 39 72 41 73 43 74 40 75 62 76 63 77
REMARK SMILES IDX 68 78 64 79 65 80 67 81 69 82 66 83 50 84 51 85 56 86 52 87
REMARK SMILES IDX 53 88 55 89 57 90 54 91
REMARK H PARENT 17 7 8 17 24 34 74 53 48 64
REMARK Flexibility Score: inf
ROOT
ATOM      1  C   UNL A   1      34.656  32.655  28.987  1.00  0.00     0.002 C 
ENDROOT
BRANCH   1   2
ATOM      2  C   UNL A   1      34.340  31.956  27.664  1.00  0.00     0.021 C 
BRANCH   2   3
ATOM      3  C   UNL A   1      34.779  30.494  27.621  1.00  0.00     0.116 C 
BRANCH   3   4
ATOM      4  N   UNL A   1      33.669  29.614  27.918  1.00  0.00    -0.356 N 
ATOM      5  C   UNL A   1      32.976  28.744  27.146  1.00  0.00     0.225 C 
ATOM      6  O   UNL A   1      31.953  28.257  27.641  1.00  0.00    -0.275 OA
ATOM      7  H   UNL A   1      33.364  29.656  28.852  1.00  0.00     0.163 HD
BRANCH   5   8
ATOM      8  C   UNL A   1      33.392  28.338  25.735  1.00  0.00     0.101 C 
ATOM      9  C   UNL A   1      33.184  26.844  25.389  1.00  0.00     0.094 C 
ATOM     10  C   UNL A   1      33.837  26.537  24.027  1.00  0.00     0.026 C 
ATOM     11  C   UNL A   1      33.367  27.499  22.935  1.00  0.00     0.002 C 
ATOM     12  C   UNL A   1      33.042  29.335  24.628  1.00  0.00     0.015 C 
ATOM     13  C   UNL A   1      33.687  28.943  23.300  1.00  0.00     0.001 C 
BRANCH   9  14
ATOM     14  N   UNL A   1      31.804  26.367  25.361  1.00  0.00    -0.349 N 
ATOM     15  C   UNL A   1      31.219  25.142  25.145  1.00  0.00     0.251 C 
ATOM     16  O   UNL A   1      29.986  25.122  25.204  1.00  0.00    -0.269 OA
ATOM     17  H   UNL A   1      31.148  27.081  25.536  1.00  0.00     0.164 HD
BRANCH  15  18
ATOM     18  C   UNL A   1      31.934  23.874  24.783  1.00  0.00     0.045 A 
ATOM     19  C   UNL A   1      33.552  22.184  25.493  1.00  0.00     0.163 A 
ATOM     20  C   UNL A   1      32.902  23.414  25.686  1.00  0.00     0.064 A 
ATOM     21  C   UNL A   1      33.281  21.379  24.364  1.00  0.00     0.179 A 
ATOM     22  C   UNL A   1      32.346  21.859  23.443  1.00  0.00     0.087 A 
ATOM     23  C   UNL A   1      31.695  23.090  23.658  1.00  0.00     0.038 A 
ATOM     24  Cl  UNL A   1      31.870  21.068  21.976  1.00  0.00    -0.080 Cl
BRANCH  19  25
ATOM     25  O   UNL A   1      34.523  21.738  26.363  1.00  0.00    -0.493 OA
ATOM     26  C   UNL A   1      34.073  21.525  27.697  1.00  0.00     0.278 C 
ENDBRANCH  19  25
BRANCH  21  27
ATOM     27  O   UNL A   1      33.999  20.214  24.342  1.00  0.00    -0.491 OA
ATOM     28  C   UNL A   1      33.363  18.960  24.507  1.00  0.00     0.278 C 
ENDBRANCH  21  27
ENDBRANCH  15  18
ENDBRANCH   9  14
ENDBRANCH   5   8
ENDBRANCH   3   4
ENDBRANCH   2   3
ENDBRANCH   1   2
BRANCH   1  29
ATOM     29  C   UNL A   1      35.265  34.054  28.841  1.00  0.00     0.002 C 
BRANCH  29  30
ATOM     30  C   UNL A   1      34.257  35.208  28.829  1.00  0.00     0.021 C 
BRANCH  30  31
ATOM     31  C   UNL A   1      32.893  34.864  29.420  1.00  0.00     0.116 C 
BRANCH  31  32
ATOM     32  N   UNL A   1      32.521  35.789  30.479  1.00  0.00    -0.352 N 
ATOM     33  C   UNL A   1      32.945  35.841  31.782  1.00  0.00     0.251 C 
ATOM     34  H   UNL A   1      31.868  36.480  30.222  1.00  0.00     0.163 HD
ATOM     35  O   UNL A   1      32.340  36.524  32.601  1.00  0.00    -0.269 OA
BRANCH  33  36
ATOM     36  C   UNL A   1      34.133  35.068  32.202  1.00  0.00     0.039 A 
ATOM     37  C   UNL A   1      33.961  33.760  32.659  1.00  0.00     0.014 A 
ATOM     38  C   UNL A   1      35.406  35.645  32.176  1.00  0.00     0.014 A 
ATOM     39  C   UNL A   1      35.075  33.011  33.044  1.00  0.00     0.010 A 
ATOM     40  C   UNL A   1      36.521  34.876  32.496  1.00  0.00     0.010 A 
ATOM     41  C   UNL A   1      36.366  33.554  32.939  1.00  0.00    -0.014 A 
BRANCH  41  42
ATOM     42  C   UNL A   1      37.566  32.756  33.294  1.00  0.00     0.031 A 
ATOM     43  C   UNL A   1      38.303  33.029  34.576  1.00  0.00     0.074 A 
ATOM     44  C   UNL A   1      38.027  31.830  32.432  1.00  0.00     0.049 A 
ATOM     45  N   UNL A   1      39.406  32.488  35.026  1.00  0.00    -0.248 NA
ATOM     46  C   UNL A   1      37.741  34.066  35.456  1.00  0.00     0.031 C 
ATOM     47  C   UNL A   1      37.425  31.507  31.138  1.00  0.00     0.029 A 
ATOM     48  N   UNL A   1      39.115  31.000  32.510  1.00  0.00    -0.354 N 
ATOM     49  C   UNL A   1      39.676  33.125  36.231  1.00  0.00     0.074 A 
ATOM     50  C   UNL A   1      38.650  34.128  36.417  1.00  0.00     0.031 C 
ATOM     51  C   UNL A   1      38.141  30.534  30.552  1.00  0.00     0.029 A 
ATOM     52  C   UNL A   1      39.270  30.191  31.410  1.00  0.00     0.049 A 
ATOM     53  H   UNL A   1      39.728  30.984  33.280  1.00  0.00     0.167 HD
ATOM     54  C   UNL A   1      40.675  32.881  37.111  1.00  0.00     0.037 A 
ATOM     55  C   UNL A   1      40.221  29.282  31.124  1.00  0.00     0.037 A 
ATOM     56  C   UNL A   1      41.681  31.866  36.934  1.00  0.00     0.049 A 
ATOM     57  C   UNL A   1      41.322  29.033  32.116  1.00  0.00     0.074 A 
ATOM     58  C   UNL A   1      42.700  31.501  37.795  1.00  0.00     0.029 A 
ATOM     59  N   UNL A   1      41.792  31.054  35.815  1.00  0.00    -0.354 N 
ATOM     60  N   UNL A   1      41.528  29.598  33.281  1.00  0.00    -0.248 NA
ATOM     61  C   UNL A   1      42.321  28.017  31.756  1.00  0.00     0.031 C 
ATOM     62  C   UNL A   1      43.455  30.498  37.180  1.00  0.00     0.029 A 
ATOM     63  C   UNL A   1      42.877  30.204  35.956  1.00  0.00     0.049 A 
ATOM     64  H   UNL A   1      41.190  31.078  35.037  1.00  0.00     0.167 HD
ATOM     65  C   UNL A   1      42.659  28.986  33.806  1.00  0.00     0.074 A 
ATOM     66  C   UNL A   1      43.087  27.999  32.838  1.00  0.00     0.031 C 
ATOM     67  C   UNL A   1      43.285  29.221  34.985  1.00  0.00     0.037 A 
BRANCH  54  68
ATOM     68  C   UNL A   1      40.728  33.727  38.351  1.00  0.00     0.057 A 
ATOM     69  C   UNL A   1      39.978  33.411  39.492  1.00  0.00     0.134 A 
ATOM     70  C   UNL A   1      41.564  34.848  38.419  1.00  0.00     0.134 A 
ATOM     71  F   UNL A   1      39.149  32.356  39.490  1.00  0.00    -0.206 F 
ATOM     72  C   UNL A   1      40.038  34.195  40.646  1.00  0.00     0.040 A 
ATOM     73  C   UNL A   1      41.654  35.624  39.575  1.00  0.00     0.040 A 
ATOM     74  F   UNL A   1      42.314  35.203  37.364  1.00  0.00    -0.206 F 
ATOM     75  C   UNL A   1      40.884  35.301  40.691  1.00  0.00     0.006 A 
ENDBRANCH  54  68
BRANCH  55  76
ATOM     76  C   UNL A   1      40.161  28.522  29.850  1.00  0.00     0.057 A 
ATOM     77  C   UNL A   1      39.388  27.360  29.739  1.00  0.00     0.134 A 
ATOM     78  C   UNL A   1      40.875  28.931  28.718  1.00  0.00     0.134 A 
ATOM     79  F   UNL A   1      38.696  26.908  30.795  1.00  0.00    -0.206 F 
ATOM     80  C   UNL A   1      39.343  26.622  28.556  1.00  0.00     0.040 A 
ATOM     81  C   UNL A   1      40.820  28.216  27.521  1.00  0.00     0.040 A 
ATOM     82  F   UNL A   1      41.628  30.042  28.757  1.00  0.00    -0.206 F 
ATOM     83  C   UNL A   1      40.057  27.053  27.440  1.00  0.00     0.006 A 
ENDBRANCH  55  76
BRANCH  67  84
ATOM     84  C   UNL A   1      44.478  28.370  35.308  1.00  0.00     0.057 A 
ATOM     85  C   UNL A   1      45.778  28.757  34.964  1.00  0.00     0.134 A 
ATOM     86  C   UNL A   1      44.324  27.166  36.009  1.00  0.00     0.134 A 
ATOM     87  F   UNL A   1      45.991  29.892  34.280  1.00  0.00    -0.206 F 
ATOM     88  C   UNL A   1      46.883  27.967  35.285  1.00  0.00     0.040 A 
ATOM     89  C   UNL A   1      45.423  26.381  36.359  1.00  0.00     0.040 A 
ATOM     90  F   UNL A   1      43.105  26.743  36.377  1.00  0.00    -0.206 F 
ATOM     91  C   UNL A   1      46.706  26.777  35.991  1.00  0.00     0.006 A 
ENDBRANCH  67  84
ENDBRANCH  41  42
ENDBRANCH  33  36
ENDBRANCH  31  32
ENDBRANCH  30  31
ENDBRANCH  29  30
ENDBRANCH   1  29
TORSDOF 17
ENDMDL
