MODEL 1
REMARK VINA RESULT:     -13.7      0.000      0.000
REMARK SMILES O=C(NCCCCCCNC(=O)c1nccnc1C(=O)Nc1n[nH]c2ncccc12)c1ccc(-c2c3nc(c(-c4c(F)cccc4F)c4ccc([nH]4)c(-c4c(F)cccc4F)c4nc(c(-c5c(F)cccc5F)c5ccc2[nH]5)C=C4)C=C3)cc1
REMARK SMILES IDX 6 1 5 2 4 3 3 4 1 5 2 6 31 8 32 9 84 10 33 11 83 12 34 13
REMARK SMILES IDX 35 14 36 15 77 16 37 17 82 18 76 19 78 20 38 21 81 22 75 23
REMARK SMILES IDX 74 24 39 26 65 27 48 28 64 29 49 30 52 31 63 32 79 33 50 34
REMARK SMILES IDX 51 35 62 37 80 38 53 39 40 40 41 41 46 42 42 43 43 44 45 45
REMARK SMILES IDX 47 46 44 47 66 48 67 49 72 50 68 51 69 52 71 53 73 54 70 55
REMARK SMILES IDX 54 56 55 57 60 58 56 59 57 60 59 61 61 62 58 63 7 64 8 65
REMARK SMILES IDX 9 66 10 67 11 68 12 70 13 71 14 72 18 73 15 74 17 75 16 76
REMARK SMILES IDX 19 77 20 78 21 79 22 81 23 82 30 83 24 84 25 85 29 86 26 88
REMARK SMILES IDX 28 89 27 90
REMARK H PARENT 3 7 78 25 52 36 10 69 21 80 24 87
REMARK Flexibility Score: inf
ROOT
ATOM      1  C   UNL A   1      31.472  30.714  26.046  1.00  0.00     0.002 C 
ENDROOT
BRANCH   1   2
ATOM      2  C   UNL A   1      31.322  32.153  26.526  1.00  0.00     0.021 C 
BRANCH   2   3
ATOM      3  C   UNL A   1      32.524  32.666  27.287  1.00  0.00     0.116 C 
BRANCH   3   4
ATOM      4  N   UNL A   1      32.385  34.084  27.572  1.00  0.00    -0.352 N 
ATOM      5  O   UNL A   1      32.539  35.902  28.905  1.00  0.00    -0.269 OA
ATOM      6  C   UNL A   1      33.000  34.822  28.556  1.00  0.00     0.251 C 
ATOM      7  H   UNL A   1      31.770  34.582  26.985  1.00  0.00     0.163 HD
BRANCH   6   8
ATOM      8  C   UNL A   1      34.227  34.294  29.192  1.00  0.00     0.039 A 
ATOM      9  C   UNL A   1      34.130  33.534  30.358  1.00  0.00     0.014 A 
ATOM     10  C   UNL A   1      35.476  34.532  28.614  1.00  0.00     0.014 A 
ATOM     11  C   UNL A   1      35.276  33.158  31.037  1.00  0.00     0.010 A 
ATOM     12  C   UNL A   1      36.626  34.018  29.221  1.00  0.00     0.010 A 
ATOM     13  C   UNL A   1      36.533  33.336  30.445  1.00  0.00    -0.014 A 
BRANCH  13  14
ATOM     14  C   UNL A   1      37.703  32.667  31.065  1.00  0.00     0.031 A 
ATOM     15  C   UNL A   1      38.281  33.134  32.367  1.00  0.00     0.074 A 
ATOM     16  C   UNL A   1      38.224  31.596  30.430  1.00  0.00     0.049 A 
ATOM     17  N   UNL A   1      39.297  32.648  33.032  1.00  0.00    -0.248 NA
ATOM     18  C   UNL A   1      37.649  34.299  33.002  1.00  0.00     0.031 C 
ATOM     19  C   UNL A   1      37.746  31.061  29.149  1.00  0.00     0.029 A 
ATOM     20  N   UNL A   1      39.248  30.755  30.773  1.00  0.00    -0.354 N 
ATOM     21  C   UNL A   1      39.440  33.453  34.153  1.00  0.00     0.074 A 
ATOM     22  C   UNL A   1      38.423  34.480  34.065  1.00  0.00     0.031 C 
ATOM     23  C   UNL A   1      38.433  29.953  28.847  1.00  0.00     0.029 A 
ATOM     24  C   UNL A   1      39.463  29.754  29.856  1.00  0.00     0.049 A 
ATOM     25  H   UNL A   1      39.779  30.856  31.596  1.00  0.00     0.167 HD
ATOM     26  C   UNL A   1      40.336  33.338  35.163  1.00  0.00     0.037 A 
ATOM     27  C   UNL A   1      40.408  28.800  29.807  1.00  0.00     0.037 A 
ATOM     28  C   UNL A   1      41.348  32.312  35.231  1.00  0.00     0.049 A 
ATOM     29  C   UNL A   1      41.423  28.739  30.909  1.00  0.00     0.074 A 
ATOM     30  C   UNL A   1      42.287  32.093  36.226  1.00  0.00     0.029 A 
ATOM     31  N   UNL A   1      41.564  31.343  34.261  1.00  0.00    -0.354 N 
ATOM     32  N   UNL A   1      41.518  29.481  31.985  1.00  0.00    -0.248 NA
ATOM     33  C   UNL A   1      42.461  27.710  30.791  1.00  0.00     0.031 C 
ATOM     34  C   UNL A   1      43.113  31.040  35.825  1.00  0.00     0.029 A 
ATOM     35  C   UNL A   1      42.643  30.547  34.619  1.00  0.00     0.049 A 
ATOM     36  H   UNL A   1      41.031  31.236  33.440  1.00  0.00     0.167 HD
ATOM     37  C   UNL A   1      42.613  28.993  32.684  1.00  0.00     0.074 A 
ATOM     38  C   UNL A   1      43.128  27.874  31.922  1.00  0.00     0.031 C 
ATOM     39  C   UNL A   1      43.144  29.434  33.852  1.00  0.00     0.037 A 
BRANCH  26  40
ATOM     40  C   UNL A   1      40.286  34.360  36.265  1.00  0.00     0.057 A 
ATOM     41  C   UNL A   1      41.037  35.542  36.218  1.00  0.00     0.134 A 
ATOM     42  C   UNL A   1      39.434  34.182  37.362  1.00  0.00     0.134 A 
ATOM     43  F   UNL A   1      41.881  35.773  35.201  1.00  0.00    -0.206 F 
ATOM     44  C   UNL A   1      40.958  36.499  37.233  1.00  0.00     0.040 A 
ATOM     45  C   UNL A   1      39.322  35.145  38.367  1.00  0.00     0.040 A 
ATOM     46  F   UNL A   1      38.679  33.079  37.468  1.00  0.00    -0.206 F 
ATOM     47  C   UNL A   1      40.092  36.306  38.307  1.00  0.00     0.006 A 
ENDBRANCH  26  40
BRANCH  27  48
ATOM     48  C   UNL A   1      40.456  27.854  28.662  1.00  0.00     0.057 A 
ATOM     49  C   UNL A   1      41.184  28.150  27.505  1.00  0.00     0.134 A 
ATOM     50  C   UNL A   1      39.762  26.637  28.692  1.00  0.00     0.134 A 
ATOM     51  F   UNL A   1      41.862  29.304  27.410  1.00  0.00    -0.206 F 
ATOM     52  C   UNL A   1      41.196  27.287  26.409  1.00  0.00     0.040 A 
ATOM     53  C   UNL A   1      39.796  25.747  27.620  1.00  0.00     0.040 A 
ATOM     54  F   UNL A   1      39.055  26.286  29.777  1.00  0.00    -0.206 F 
ATOM     55  C   UNL A   1      40.504  26.078  26.466  1.00  0.00     0.006 A 
ENDBRANCH  27  48
BRANCH  39  56
ATOM     56  C   UNL A   1      44.318  28.671  34.394  1.00  0.00     0.057 A 
ATOM     57  C   UNL A   1      45.641  29.032  34.108  1.00  0.00     0.134 A 
ATOM     58  C   UNL A   1      44.119  27.565  35.232  1.00  0.00     0.134 A 
ATOM     59  F   UNL A   1      45.903  30.070  33.299  1.00  0.00    -0.206 F 
ATOM     60  C   UNL A   1      46.721  28.301  34.604  1.00  0.00     0.040 A 
ATOM     61  C   UNL A   1      45.191  26.849  35.766  1.00  0.00     0.040 A 
ATOM     62  F   UNL A   1      42.878  27.168  35.555  1.00  0.00    -0.206 F 
ATOM     63  C   UNL A   1      46.497  27.211  35.442  1.00  0.00     0.006 A 
ENDBRANCH  39  56
ENDBRANCH  13  14
ENDBRANCH   6   8
ENDBRANCH   3   4
ENDBRANCH   2   3
ENDBRANCH   1   2
BRANCH   1  64
ATOM     64  C   UNL A   1      32.239  29.737  26.967  1.00  0.00     0.002 C 
BRANCH  64  65
ATOM     65  C   UNL A   1      31.617  28.155  27.427  1.00  0.00     0.021 C 
BRANCH  65  66
ATOM     66  C   UNL A   1      31.714  26.181  26.456  1.00  0.00     0.116 C 
BRANCH  66  67
ATOM     67  N   UNL A   1      30.855  24.843  26.665  1.00  0.00    -0.351 N 
ATOM     68  C   UNL A   1      31.138  23.559  26.250  1.00  0.00     0.272 C 
ATOM     69  H   UNL A   1      30.009  24.954  27.156  1.00  0.00     0.163 HD
ATOM     70  O   UNL A   1      30.320  22.652  26.319  1.00  0.00    -0.267 OA
BRANCH  68  71
ATOM     71  C   UNL A   1      32.508  23.328  25.773  1.00  0.00     0.159 A 
ATOM     72  N   UNL A   1      33.433  23.392  26.792  1.00  0.00    -0.247 NA
ATOM     73  C   UNL A   1      32.858  23.267  24.432  1.00  0.00     0.159 A 
ATOM     74  C   UNL A   1      34.723  23.357  26.423  1.00  0.00     0.132 A 
ATOM     75  N   UNL A   1      34.187  23.246  24.083  1.00  0.00    -0.247 NA
ATOM     76  C   UNL A   1      35.091  23.284  25.094  1.00  0.00     0.132 A 
BRANCH  73  77
ATOM     77  C   UNL A   1      31.918  23.110  23.277  1.00  0.00     0.277 C 
ATOM     78  O   UNL A   1      31.734  21.963  22.855  1.00  0.00    -0.267 OA
ATOM     79  N   UNL A   1      31.204  24.129  22.684  1.00  0.00    -0.303 N 
ATOM     80  H   UNL A   1      30.493  23.831  22.072  1.00  0.00     0.172 HD
BRANCH  79  81
ATOM     81  C   UNL A   1      31.319  25.489  22.807  1.00  0.00     0.164 A 
ATOM     82  N   UNL A   1      32.483  26.065  22.452  1.00  0.00    -0.155 NA
ATOM     83  C   UNL A   1      30.316  26.419  23.145  1.00  0.00     0.063 A 
ATOM     84  N   UNL A   1      32.241  27.359  22.082  1.00  0.00    -0.259 N 
ATOM     85  C   UNL A   1      30.978  27.805  22.350  1.00  0.00     0.157 A 
ATOM     86  C   UNL A   1      28.662  26.521  23.799  1.00  0.00     0.017 A 
ATOM     87  H   UNL A   1      32.925  27.926  21.656  1.00  0.00     0.192 HD
ATOM     88  N   UNL A   1      30.048  29.233  21.969  1.00  0.00    -0.237 NA
ATOM     89  C   UNL A   1      27.658  27.957  23.513  1.00  0.00     0.021 A 
ATOM     90  C   UNL A   1      28.385  29.293  22.638  1.00  0.00     0.113 A 
ENDBRANCH  79  81
ENDBRANCH  73  77
ENDBRANCH  68  71
ENDBRANCH  66  67
ENDBRANCH  65  66
ENDBRANCH  64  65
ENDBRANCH   1  64
TORSDOF 15
ENDMDL
MODEL 2
REMARK VINA RESULT:     -13.6      0.555      6.138
REMARK SMILES O=C(NCCCCCCNC(=O)c1nccnc1C(=O)Nc1n[nH]c2ncccc12)c1ccc(-c2c3nc(c(-c4c(F)cccc4F)c4ccc([nH]4)c(-c4c(F)cccc4F)c4nc(c(-c5c(F)cccc5F)c5ccc2[nH]5)C=C4)C=C3)cc1
REMARK SMILES IDX 6 1 5 2 4 3 3 4 1 5 2 6 31 8 32 9 84 10 33 11 83 12 34 13
REMARK SMILES IDX 35 14 36 15 77 16 37 17 82 18 76 19 78 20 38 21 81 22 75 23
REMARK SMILES IDX 74 24 39 26 65 27 48 28 64 29 49 30 52 31 63 32 79 33 50 34
REMARK SMILES IDX 51 35 62 37 80 38 53 39 40 40 41 41 46 42 42 43 43 44 45 45
REMARK SMILES IDX 47 46 44 47 66 48 67 49 72 50 68 51 69 52 71 53 73 54 70 55
REMARK SMILES IDX 54 56 55 57 60 58 56 59 57 60 59 61 61 62 58 63 7 64 8 65
REMARK SMILES IDX 9 66 10 67 11 68 12 70 13 71 14 72 18 73 15 74 17 75 16 76
REMARK SMILES IDX 19 77 20 78 21 79 22 81 23 82 30 83 24 84 25 85 29 86 26 88
REMARK SMILES IDX 28 89 27 90
REMARK H PARENT 3 7 78 25 52 36 10 69 21 80 24 87
REMARK Flexibility Score: inf
ROOT
ATOM      1  C   UNL A   1      31.459  30.743  26.070  1.00  0.00     0.002 C 
ENDROOT
BRANCH   1   2
ATOM      2  C   UNL A   1      31.402  32.201  26.509  1.00  0.00     0.021 C 
BRANCH   2   3
ATOM      3  C   UNL A   1      32.642  32.660  27.244  1.00  0.00     0.116 C 
BRANCH   3   4
ATOM      4  N   UNL A   1      32.525  34.058  27.626  1.00  0.00    -0.352 N 
ATOM      5  O   UNL A   1      32.670  35.771  29.091  1.00  0.00    -0.269 OA
ATOM      6  C   UNL A   1      33.119  34.706  28.683  1.00  0.00     0.251 C 
ATOM      7  H   UNL A   1      31.945  34.611  27.054  1.00  0.00     0.163 HD
BRANCH   6   8
ATOM      8  C   UNL A   1      34.307  34.103  29.324  1.00  0.00     0.039 A 
ATOM      9  C   UNL A   1      34.143  33.196  30.371  1.00  0.00     0.014 A 
ATOM     10  C   UNL A   1      35.589  34.417  28.865  1.00  0.00     0.014 A 
ATOM     11  C   UNL A   1      35.246  32.738  31.070  1.00  0.00     0.010 A 
ATOM     12  C   UNL A   1      36.702  33.831  29.475  1.00  0.00     0.010 A 
ATOM     13  C   UNL A   1      36.537  32.994  30.590  1.00  0.00    -0.014 A 
BRANCH  13  14
ATOM     14  C   UNL A   1      37.671  32.252  31.194  1.00  0.00     0.031 A 
ATOM     15  C   UNL A   1      38.384  31.161  30.454  1.00  0.00     0.074 A 
ATOM     16  C   UNL A   1      38.065  32.609  32.435  1.00  0.00     0.049 A 
ATOM     17  N   UNL A   1      39.392  30.427  30.850  1.00  0.00    -0.248 NA
ATOM     18  C   UNL A   1      37.902  30.841  29.102  1.00  0.00     0.031 C 
ATOM     19  C   UNL A   1      37.435  33.652  33.252  1.00  0.00     0.029 A 
ATOM     20  N   UNL A   1      39.093  32.156  33.219  1.00  0.00    -0.354 N 
ATOM     21  C   UNL A   1      39.657  29.549  29.809  1.00  0.00     0.074 A 
ATOM     22  C   UNL A   1      38.683  29.820  28.773  1.00  0.00     0.031 C 
ATOM     23  C   UNL A   1      38.122  33.799  34.391  1.00  0.00     0.029 A 
ATOM     24  C   UNL A   1      39.178  32.799  34.430  1.00  0.00     0.049 A 
ATOM     25  H   UNL A   1      39.710  31.441  32.942  1.00  0.00     0.167 HD
ATOM     26  C   UNL A   1      40.629  28.608  29.729  1.00  0.00     0.037 A 
ATOM     27  C   UNL A   1      39.991  32.585  35.479  1.00  0.00     0.037 A 
ATOM     28  C   UNL A   1      41.587  28.346  30.775  1.00  0.00     0.049 A 
ATOM     29  C   UNL A   1      41.015  31.494  35.381  1.00  0.00     0.074 A 
ATOM     30  C   UNL A   1      42.627  27.431  30.781  1.00  0.00     0.029 A 
ATOM     31  N   UNL A   1      41.614  28.986  32.007  1.00  0.00    -0.354 N 
ATOM     32  N   UNL A   1      41.282  30.700  34.373  1.00  0.00    -0.248 NA
ATOM     33  C   UNL A   1      41.851  31.268  36.566  1.00  0.00     0.031 C 
ATOM     34  C   UNL A   1      43.238  27.469  32.037  1.00  0.00     0.029 A 
ATOM     35  C   UNL A   1      42.632  28.462  32.791  1.00  0.00     0.049 A 
ATOM     36  H   UNL A   1      41.002  29.705  32.283  1.00  0.00     0.167 HD
ATOM     37  C   UNL A   1      42.332  29.896  34.793  1.00  0.00     0.074 A 
ATOM     38  C   UNL A   1      42.669  30.320  36.137  1.00  0.00     0.031 C 
ATOM     39  C   UNL A   1      42.958  28.896  34.126  1.00  0.00     0.037 A 
BRANCH  26  40
ATOM     40  C   UNL A   1      40.692  27.769  28.483  1.00  0.00     0.057 A 
ATOM     41  C   UNL A   1      41.454  28.147  27.369  1.00  0.00     0.134 A 
ATOM     42  C   UNL A   1      40.024  26.540  28.417  1.00  0.00     0.134 A 
ATOM     43  F   UNL A   1      42.113  29.315  27.359  1.00  0.00    -0.206 F 
ATOM     44  C   UNL A   1      41.530  27.343  26.229  1.00  0.00     0.040 A 
ATOM     45  C   UNL A   1      40.117  25.713  27.296  1.00  0.00     0.040 A 
ATOM     46  F   UNL A   1      39.283  26.110  29.450  1.00  0.00    -0.206 F 
ATOM     47  C   UNL A   1      40.867  26.118  26.194  1.00  0.00     0.006 A 
ENDBRANCH  26  40
BRANCH  27  48
ATOM     48  C   UNL A   1      39.846  33.397  36.714  1.00  0.00     0.057 A 
ATOM     49  C   UNL A   1      38.934  33.041  37.714  1.00  0.00     0.134 A 
ATOM     50  C   UNL A   1      40.605  34.556  36.919  1.00  0.00     0.134 A 
ATOM     51  F   UNL A   1      38.169  31.948  37.573  1.00  0.00    -0.206 F 
ATOM     52  C   UNL A   1      38.760  33.824  38.856  1.00  0.00     0.040 A 
ATOM     53  C   UNL A   1      40.469  35.327  38.073  1.00  0.00     0.040 A 
ATOM     54  F   UNL A   1      41.508  34.946  36.007  1.00  0.00    -0.206 F 
ATOM     55  C   UNL A   1      39.532  34.969  39.040  1.00  0.00     0.006 A 
ENDBRANCH  27  48
BRANCH  39  56
ATOM     56  C   UNL A   1      44.103  28.224  34.829  1.00  0.00     0.057 A 
ATOM     57  C   UNL A   1      43.932  27.061  35.591  1.00  0.00     0.134 A 
ATOM     58  C   UNL A   1      45.401  28.743  34.727  1.00  0.00     0.134 A 
ATOM     59  F   UNL A   1      42.714  26.520  35.745  1.00  0.00    -0.206 F 
ATOM     60  C   UNL A   1      45.003  26.459  36.254  1.00  0.00     0.040 A 
ATOM     61  C   UNL A   1      46.486  28.129  35.353  1.00  0.00     0.040 A 
ATOM     62  F   UNL A   1      45.638  29.849  34.006  1.00  0.00    -0.206 F 
ATOM     63  C   UNL A   1      46.286  26.989  36.129  1.00  0.00     0.006 A 
ENDBRANCH  39  56
ENDBRANCH  13  14
ENDBRANCH   6   8
ENDBRANCH   3   4
ENDBRANCH   2   3
ENDBRANCH   1   2
BRANCH   1  64
ATOM     64  C   UNL A   1      32.264  29.766  26.958  1.00  0.00     0.002 C 
BRANCH  64  65
ATOM     65  C   UNL A   1      31.660  28.186  27.447  1.00  0.00     0.021 C 
BRANCH  65  66
ATOM     66  C   UNL A   1      31.751  26.202  26.496  1.00  0.00     0.116 C 
BRANCH  66  67
ATOM     67  N   UNL A   1      30.892  24.866  26.723  1.00  0.00    -0.351 N 
ATOM     68  C   UNL A   1      31.175  23.577  26.326  1.00  0.00     0.272 C 
ATOM     69  H   UNL A   1      30.047  24.984  27.213  1.00  0.00     0.163 HD
ATOM     70  O   UNL A   1      30.357  22.670  26.407  1.00  0.00    -0.267 OA
BRANCH  68  71
ATOM     71  C   UNL A   1      32.545  23.339  25.850  1.00  0.00     0.159 A 
ATOM     72  N   UNL A   1      33.469  23.405  26.870  1.00  0.00    -0.247 NA
ATOM     73  C   UNL A   1      32.896  23.272  24.510  1.00  0.00     0.159 A 
ATOM     74  C   UNL A   1      34.759  23.366  26.502  1.00  0.00     0.132 A 
ATOM     75  N   UNL A   1      34.224  23.245  24.162  1.00  0.00    -0.247 NA
ATOM     76  C   UNL A   1      35.128  23.285  25.174  1.00  0.00     0.132 A 
BRANCH  73  77
ATOM     77  C   UNL A   1      31.956  23.111  23.355  1.00  0.00     0.277 C 
ATOM     78  O   UNL A   1      31.762  21.962  22.944  1.00  0.00    -0.267 OA
ATOM     79  N   UNL A   1      31.253  24.131  22.751  1.00  0.00    -0.303 N 
ATOM     80  H   UNL A   1      30.540  23.834  22.140  1.00  0.00     0.172 HD
BRANCH  79  81
ATOM     81  C   UNL A   1      31.380  25.492  22.861  1.00  0.00     0.164 A 
ATOM     82  N   UNL A   1      32.553  26.052  22.511  1.00  0.00    -0.155 NA
ATOM     83  C   UNL A   1      30.383  26.435  23.178  1.00  0.00     0.063 A 
ATOM     84  N   UNL A   1      32.328  27.345  22.126  1.00  0.00    -0.259 N 
ATOM     85  C   UNL A   1      31.067  27.806  22.375  1.00  0.00     0.157 A 
ATOM     86  C   UNL A   1      28.724  26.561  23.814  1.00  0.00     0.017 A 
ATOM     87  H   UNL A   1      33.022  27.900  21.700  1.00  0.00     0.192 HD
ATOM     88  N   UNL A   1      30.156  29.239  21.970  1.00  0.00    -0.237 NA
ATOM     89  C   UNL A   1      27.737  28.003  23.503  1.00  0.00     0.021 A 
ATOM     90  C   UNL A   1      28.486  29.323  22.621  1.00  0.00     0.113 A 
ENDBRANCH  79  81
ENDBRANCH  73  77
ENDBRANCH  68  71
ENDBRANCH  66  67
ENDBRANCH  65  66
ENDBRANCH  64  65
ENDBRANCH   1  64
TORSDOF 15
ENDMDL
MODEL 3
REMARK VINA RESULT:     -13.4      1.411      6.751
REMARK SMILES O=C(NCCCCCCNC(=O)c1nccnc1C(=O)Nc1n[nH]c2ncccc12)c1ccc(-c2c3nc(c(-c4c(F)cccc4F)c4ccc([nH]4)c(-c4c(F)cccc4F)c4nc(c(-c5c(F)cccc5F)c5ccc2[nH]5)C=C4)C=C3)cc1
REMARK SMILES IDX 6 1 5 2 4 3 3 4 1 5 2 6 31 8 32 9 84 10 33 11 83 12 34 13
REMARK SMILES IDX 35 14 36 15 77 16 37 17 82 18 76 19 78 20 38 21 81 22 75 23
REMARK SMILES IDX 74 24 39 26 65 27 48 28 64 29 49 30 52 31 63 32 79 33 50 34
REMARK SMILES IDX 51 35 62 37 80 38 53 39 40 40 41 41 46 42 42 43 43 44 45 45
REMARK SMILES IDX 47 46 44 47 66 48 67 49 72 50 68 51 69 52 71 53 73 54 70 55
REMARK SMILES IDX 54 56 55 57 60 58 56 59 57 60 59 61 61 62 58 63 7 64 8 65
REMARK SMILES IDX 9 66 10 67 11 68 12 70 13 71 14 72 18 73 15 74 17 75 16 76
REMARK SMILES IDX 19 77 20 78 21 79 22 81 23 82 30 83 24 84 25 85 29 86 26 88
REMARK SMILES IDX 28 89 27 90
REMARK H PARENT 3 7 78 25 52 36 10 69 21 80 24 87
REMARK Flexibility Score: inf
ROOT
ATOM      1  C   UNL A   1      31.574  30.766  26.196  1.00  0.00     0.002 C 
ENDROOT
BRANCH   1   2
ATOM      2  C   UNL A   1      31.417  32.156  26.800  1.00  0.00     0.021 C 
BRANCH   2   3
ATOM      3  C   UNL A   1      32.724  32.778  27.237  1.00  0.00     0.116 C 
BRANCH   3   4
ATOM      4  N   UNL A   1      32.538  34.177  27.583  1.00  0.00    -0.352 N 
ATOM      5  O   UNL A   1      32.552  35.924  29.015  1.00  0.00    -0.269 OA
ATOM      6  C   UNL A   1      33.059  34.870  28.650  1.00  0.00     0.251 C 
ATOM      7  H   UNL A   1      31.964  34.696  26.974  1.00  0.00     0.163 HD
BRANCH   6   8
ATOM      8  C   UNL A   1      34.239  34.326  29.355  1.00  0.00     0.039 A 
ATOM      9  C   UNL A   1      34.063  33.520  30.480  1.00  0.00     0.014 A 
ATOM     10  C   UNL A   1      35.526  34.594  28.883  1.00  0.00     0.014 A 
ATOM     11  C   UNL A   1      35.158  33.125  31.229  1.00  0.00     0.010 A 
ATOM     12  C   UNL A   1      36.632  34.065  29.555  1.00  0.00     0.010 A 
ATOM     13  C   UNL A   1      36.455  33.335  30.741  1.00  0.00    -0.014 A 
BRANCH  13  14
ATOM     14  C   UNL A   1      37.581  32.650  31.421  1.00  0.00     0.031 A 
ATOM     15  C   UNL A   1      38.254  31.452  30.821  1.00  0.00     0.074 A 
ATOM     16  C   UNL A   1      38.004  33.155  32.598  1.00  0.00     0.049 A 
ATOM     17  N   UNL A   1      39.252  30.751  31.297  1.00  0.00    -0.248 NA
ATOM     18  C   UNL A   1      37.742  30.970  29.530  1.00  0.00     0.031 C 
ATOM     19  C   UNL A   1      37.412  34.313  33.280  1.00  0.00     0.029 A 
ATOM     20  N   UNL A   1      39.033  32.784  33.421  1.00  0.00    -0.354 N 
ATOM     21  C   UNL A   1      39.478  29.738  30.377  1.00  0.00     0.074 A 
ATOM     22  C   UNL A   1      38.493  29.895  29.327  1.00  0.00     0.031 C 
ATOM     23  C   UNL A   1      38.122  34.590  34.380  1.00  0.00     0.029 A 
ATOM     24  C   UNL A   1      39.154  33.577  34.537  1.00  0.00     0.049 A 
ATOM     25  H   UNL A   1      39.628  32.023  33.233  1.00  0.00     0.167 HD
ATOM     26  C   UNL A   1      40.426  28.770  30.409  1.00  0.00     0.037 A 
ATOM     27  C   UNL A   1      39.980  33.482  35.593  1.00  0.00     0.037 A 
ATOM     28  C   UNL A   1      41.395  28.623  31.467  1.00  0.00     0.049 A 
ATOM     29  C   UNL A   1      40.976  32.362  35.626  1.00  0.00     0.074 A 
ATOM     30  C   UNL A   1      42.413  27.691  31.578  1.00  0.00     0.029 A 
ATOM     31  N   UNL A   1      41.458  29.418  32.603  1.00  0.00    -0.354 N 
ATOM     32  N   UNL A   1      41.207  31.436  34.727  1.00  0.00    -0.248 NA
ATOM     33  C   UNL A   1      41.825  32.272  36.818  1.00  0.00     0.031 C 
ATOM     34  C   UNL A   1      43.046  27.878  32.811  1.00  0.00     0.029 A 
ATOM     35  C   UNL A   1      42.476  28.975  33.435  1.00  0.00     0.049 A 
ATOM     36  H   UNL A   1      40.868  30.183  32.791  1.00  0.00     0.167 HD
ATOM     37  C   UNL A   1      42.244  30.667  35.235  1.00  0.00     0.074 A 
ATOM     38  C   UNL A   1      42.614  31.255  36.506  1.00  0.00     0.031 C 
ATOM     39  C   UNL A   1      42.836  29.572  34.697  1.00  0.00     0.037 A 
BRANCH  26  40
ATOM     40  C   UNL A   1      40.449  27.773  29.283  1.00  0.00     0.057 A 
ATOM     41  C   UNL A   1      39.580  26.674  29.244  1.00  0.00     0.134 A 
ATOM     42  C   UNL A   1      41.315  27.947  28.195  1.00  0.00     0.134 A 
ATOM     43  F   UNL A   1      38.730  26.441  30.255  1.00  0.00    -0.206 F 
ATOM     44  C   UNL A   1      39.589  25.773  28.176  1.00  0.00     0.040 A 
ATOM     45  C   UNL A   1      41.312  27.071  27.108  1.00  0.00     0.040 A 
ATOM     46  F   UNL A   1      42.167  28.983  28.161  1.00  0.00    -0.206 F 
ATOM     47  C   UNL A   1      40.451  25.976  27.100  1.00  0.00     0.006 A 
ENDBRANCH  26  40
BRANCH  27  48
ATOM     48  C   UNL A   1      39.874  34.453  36.713  1.00  0.00     0.057 A 
ATOM     49  C   UNL A   1      40.560  35.672  36.685  1.00  0.00     0.134 A 
ATOM     50  C   UNL A   1      39.096  34.178  37.845  1.00  0.00     0.134 A 
ATOM     51  F   UNL A   1      41.331  35.989  35.633  1.00  0.00    -0.206 F 
ATOM     52  C   UNL A   1      40.501  36.567  37.752  1.00  0.00     0.040 A 
ATOM     53  C   UNL A   1      38.997  35.081  38.903  1.00  0.00     0.040 A 
ATOM     54  F   UNL A   1      38.402  33.033  37.930  1.00  0.00    -0.206 F 
ATOM     55  C   UNL A   1      39.714  36.275  38.864  1.00  0.00     0.006 A 
ENDBRANCH  27  48
BRANCH  39  56
ATOM     56  C   UNL A   1      43.976  28.969  35.467  1.00  0.00     0.057 A 
ATOM     57  C   UNL A   1      45.303  29.371  35.272  1.00  0.00     0.134 A 
ATOM     58  C   UNL A   1      43.736  27.981  36.431  1.00  0.00     0.134 A 
ATOM     59  F   UNL A   1      45.606  30.301  34.353  1.00  0.00    -0.206 F 
ATOM     60  C   UNL A   1      46.354  28.787  35.982  1.00  0.00     0.040 A 
ATOM     61  C   UNL A   1      44.773  27.417  37.174  1.00  0.00     0.040 A 
ATOM     62  F   UNL A   1      42.487  27.555  36.676  1.00  0.00    -0.206 F 
ATOM     63  C   UNL A   1      46.089  27.813  36.942  1.00  0.00     0.006 A 
ENDBRANCH  39  56
ENDBRANCH  13  14
ENDBRANCH   6   8
ENDBRANCH   3   4
ENDBRANCH   2   3
ENDBRANCH   1   2
BRANCH   1  64
ATOM     64  C   UNL A   1      32.114  29.649  27.119  1.00  0.00     0.002 C 
BRANCH  64  65
ATOM     65  C   UNL A   1      31.971  27.934  26.745  1.00  0.00     0.021 C 
BRANCH  65  66
ATOM     66  C   UNL A   1      30.611  26.810  25.426  1.00  0.00     0.116 C 
BRANCH  66  67
ATOM     67  N   UNL A   1      29.827  27.229  24.091  1.00  0.00    -0.351 N 
ATOM     68  C   UNL A   1      30.319  27.827  22.951  1.00  0.00     0.272 C 
ATOM     69  H   UNL A   1      28.863  27.032  24.086  1.00  0.00     0.163 HD
ATOM     70  O   UNL A   1      29.588  28.256  22.067  1.00  0.00    -0.267 OA
BRANCH  68  71
ATOM     71  C   UNL A   1      31.782  27.869  22.829  1.00  0.00     0.159 A 
ATOM     72  N   UNL A   1      32.327  28.960  23.470  1.00  0.00    -0.247 NA
ATOM     73  C   UNL A   1      32.511  27.037  21.993  1.00  0.00     0.159 A 
ATOM     74  C   UNL A   1      33.638  29.169  23.271  1.00  0.00     0.132 A 
ATOM     75  N   UNL A   1      33.849  27.281  21.798  1.00  0.00    -0.247 NA
ATOM     76  C   UNL A   1      34.384  28.344  22.453  1.00  0.00     0.132 A 
BRANCH  73  77
ATOM     77  C   UNL A   1      32.014  25.788  21.332  1.00  0.00     0.277 C 
ATOM     78  O   UNL A   1      31.839  25.830  20.109  1.00  0.00    -0.267 OA
ATOM     79  N   UNL A   1      31.789  24.585  21.967  1.00  0.00    -0.303 N 
ATOM     80  H   UNL A   1      31.651  23.820  21.362  1.00  0.00     0.172 HD
BRANCH  79  81
ATOM     81  C   UNL A   1      31.726  24.276  23.301  1.00  0.00     0.164 A 
ATOM     82  N   UNL A   1      30.553  23.843  23.800  1.00  0.00    -0.155 NA
ATOM     83  C   UNL A   1      32.782  24.225  24.231  1.00  0.00     0.063 A 
ATOM     84  N   UNL A   1      30.800  23.063  24.896  1.00  0.00    -0.259 N 
ATOM     85  C   UNL A   1      32.095  23.081  25.332  1.00  0.00     0.157 A 
ATOM     86  C   UNL A   1      34.489  24.688  24.441  1.00  0.00     0.017 A 
ATOM     87  H   UNL A   1      30.099  22.530  25.337  1.00  0.00     0.192 HD
ATOM     88  N   UNL A   1      33.030  22.198  26.512  1.00  0.00    -0.237 NA
ATOM     89  C   UNL A   1      35.507  23.888  25.655  1.00  0.00     0.021 A 
ATOM     90  C   UNL A   1      34.747  22.688  26.686  1.00  0.00     0.113 A 
ENDBRANCH  79  81
ENDBRANCH  73  77
ENDBRANCH  68  71
ENDBRANCH  66  67
ENDBRANCH  65  66
ENDBRANCH  64  65
ENDBRANCH   1  64
TORSDOF 15
ENDMDL
