MODEL 1
REMARK VINA RESULT:     -12.0      0.000      0.000
REMARK SMILES Cc1nn(C)c(C)c1C[C@@H](C)C(=O)N[C@@H](C(=O)NCCCCCCNC(=O)c1ccc(-c2c3nc(c(-c4c(F)cccc4F)c4ccc([nH]4)c(-c4c(F)cccc4F)c4nc(c(-c5c(F)cccc5F)c5ccc2[nH]5)C=C4)C=C3)cc1)c1ccccc1Cl
REMARK SMILES IDX 20 1 19 2 18 3 16 4 17 5 15 7 14 8 12 9 13 10 10 12 11 13
REMARK SMILES IDX 9 14 8 15 1 16 2 17 3 18 4 19 6 20 5 21 7 22 82 23 83 24
REMARK SMILES IDX 87 25 84 26 86 27 88 28 85 29 21 30 22 31 23 32 24 33 25 34
REMARK SMILES IDX 26 35 27 37 28 38 29 39 81 40 30 41 80 42 31 43 32 44 33 45
REMARK SMILES IDX 74 46 34 47 79 48 73 49 75 50 35 51 78 52 72 53 71 54 36 56
REMARK SMILES IDX 62 57 45 58 61 59 46 60 49 61 60 62 76 63 47 64 48 65 59 67
REMARK SMILES IDX 77 68 50 69 37 70 38 71 43 72 39 73 40 74 42 75 44 76 41 77
REMARK SMILES IDX 63 78 64 79 69 80 65 81 66 82 68 83 70 84 67 85 51 86 52 87
REMARK SMILES IDX 57 88 53 89 54 90 56 91 58 92 55 93
REMARK H PARENT 18 6 14 11 25 36 75 55 49 66
REMARK Flexibility Score: inf
ROOT
ATOM      1  C   UNL A   1      31.732  28.460  26.343  1.00  0.00     0.021 C 
ENDROOT
BRANCH   1   2
ATOM      2  C   UNL A   1      33.042  27.805  25.929  1.00  0.00     0.116 C 
BRANCH   2   3
ATOM      3  N   UNL A   1      33.646  28.381  24.750  1.00  0.00    -0.354 N 
ATOM      4  C   UNL A   1      33.258  28.346  23.439  1.00  0.00     0.247 C 
ATOM      5  O   UNL A   1      33.764  29.214  22.716  1.00  0.00    -0.272 OA
ATOM      6  H   UNL A   1      34.476  28.884  24.919  1.00  0.00     0.163 HD
BRANCH   4   7
ATOM      7  C   UNL A   1      32.114  27.407  22.905  1.00  0.00     0.203 C 
BRANCH   7   8
ATOM      8  N   UNL A   1      32.365  26.764  21.612  1.00  0.00    -0.340 N 
ATOM      9  C   UNL A   1      32.819  25.535  21.252  1.00  0.00     0.224 C 
ATOM     10  O   UNL A   1      33.056  25.360  20.052  1.00  0.00    -0.275 OA
ATOM     11  H   UNL A   1      32.161  27.344  20.843  1.00  0.00     0.164 HD
BRANCH   9  12
ATOM     12  C   UNL A   1      33.051  24.392  22.243  1.00  0.00     0.080 C 
ATOM     13  C   UNL A   1      31.701  23.846  22.687  1.00  0.00     0.018 C 
BRANCH  12  14
ATOM     14  C   UNL A   1      34.075  24.755  23.329  1.00  0.00     0.052 C 
BRANCH  14  15
ATOM     15  C   UNL A   1      34.433  23.710  24.337  1.00  0.00    -0.003 A 
ATOM     16  C   UNL A   1      36.713  22.802  23.371  1.00  0.00     0.069 C 
ATOM     17  C   UNL A   1      35.578  22.857  24.329  1.00  0.00     0.063 A 
ATOM     18  N   UNL A   1      35.615  22.068  25.406  1.00  0.00    -0.178 NA
ATOM     19  N   UNL A   1      34.541  22.428  26.123  1.00  0.00    -0.272 N 
ATOM     20  C   UNL A   1      33.852  23.479  25.577  1.00  0.00     0.038 A 
ATOM     21  C   UNL A   1      34.287  21.742  27.368  1.00  0.00     0.174 C 
ATOM     22  C   UNL A   1      32.747  24.170  26.291  1.00  0.00     0.066 C 
ENDBRANCH  14  15
ENDBRANCH  12  14
ENDBRANCH   9  12
ENDBRANCH   7   8
BRANCH   7  23
ATOM     23  C   UNL A   1      30.771  28.135  22.871  1.00  0.00     0.002 A 
ATOM     24  C   UNL A   1      30.691  29.381  22.216  1.00  0.00     0.008 A 
ATOM     25  C   UNL A   1      29.597  27.607  23.434  1.00  0.00     0.046 A 
ATOM     26  C   UNL A   1      29.486  30.080  22.137  1.00  0.00     0.000 A 
ATOM     27  C   UNL A   1      28.389  28.307  23.344  1.00  0.00     0.021 A 
ATOM     28  Cl  UNL A   1      29.578  26.092  24.265  1.00  0.00    -0.084 Cl
ATOM     29  C   UNL A   1      28.333  29.542  22.699  1.00  0.00     0.002 A 
ENDBRANCH   7  23
ENDBRANCH   4   7
ENDBRANCH   2   3
ENDBRANCH   1   2
BRANCH   1  30
ATOM     30  C   UNL A   1      31.844  29.924  26.765  1.00  0.00     0.002 C 
BRANCH  30  31
ATOM     31  C   UNL A   1      31.124  30.938  25.867  1.00  0.00     0.002 C 
BRANCH  31  32
ATOM     32  C   UNL A   1      31.144  32.397  26.334  1.00  0.00     0.021 C 
BRANCH  32  33
ATOM     33  C   UNL A   1      32.390  32.837  27.098  1.00  0.00     0.116 C 
BRANCH  33  34
ATOM     34  N   UNL A   1      32.292  34.195  27.600  1.00  0.00    -0.352 N 
ATOM     35  C   UNL A   1      33.046  34.850  28.535  1.00  0.00     0.251 C 
ATOM     36  H   UNL A   1      31.567  34.730  27.204  1.00  0.00     0.163 HD
ATOM     37  O   UNL A   1      32.702  35.974  28.905  1.00  0.00    -0.269 OA
BRANCH  35  38
ATOM     38  C   UNL A   1      34.256  34.232  29.122  1.00  0.00     0.039 A 
ATOM     39  C   UNL A   1      35.490  34.487  28.513  1.00  0.00     0.014 A 
ATOM     40  C   UNL A   1      34.191  33.357  30.210  1.00  0.00     0.014 A 
ATOM     41  C   UNL A   1      36.652  33.889  29.004  1.00  0.00     0.010 A 
ATOM     42  C   UNL A   1      35.360  32.812  30.743  1.00  0.00     0.010 A 
ATOM     43  C   UNL A   1      36.598  33.054  30.131  1.00  0.00    -0.014 A 
BRANCH  43  44
ATOM     44  C   UNL A   1      37.827  32.393  30.638  1.00  0.00     0.031 A 
ATOM     45  C   UNL A   1      38.504  32.905  31.881  1.00  0.00     0.074 A 
ATOM     46  C   UNL A   1      38.343  31.340  29.976  1.00  0.00     0.049 A 
ATOM     47  N   UNL A   1      39.576  32.456  32.485  1.00  0.00    -0.248 NA
ATOM     48  C   UNL A   1      37.910  34.091  32.518  1.00  0.00     0.031 C 
ATOM     49  C   UNL A   1      37.806  30.773  28.739  1.00  0.00     0.029 A 
ATOM     50  N   UNL A   1      39.434  30.557  30.257  1.00  0.00    -0.354 N 
ATOM     51  C   UNL A   1      39.789  33.308  33.561  1.00  0.00     0.074 A 
ATOM     52  C   UNL A   1      38.770  34.332  33.496  1.00  0.00     0.031 C 
ATOM     53  C   UNL A   1      38.548  29.711  28.385  1.00  0.00     0.029 A 
ATOM     54  C   UNL A   1      39.624  29.537  29.355  1.00  0.00     0.049 A 
ATOM     55  H   UNL A   1      40.024  30.710  31.029  1.00  0.00     0.167 HD
ATOM     56  C   UNL A   1      40.730  33.231  34.533  1.00  0.00     0.037 A 
ATOM     57  C   UNL A   1      40.555  28.565  29.325  1.00  0.00     0.037 A 
ATOM     58  C   UNL A   1      41.729  32.198  34.613  1.00  0.00     0.049 A 
ATOM     59  C   UNL A   1      41.582  28.492  30.420  1.00  0.00     0.074 A 
ATOM     60  C   UNL A   1      42.704  32.011  35.578  1.00  0.00     0.029 A 
ATOM     61  N   UNL A   1      41.878  31.174  33.690  1.00  0.00    -0.354 N 
ATOM     62  N   UNL A   1      41.735  29.272  31.463  1.00  0.00    -0.248 NA
ATOM     63  C   UNL A   1      42.555  27.394  30.342  1.00  0.00     0.031 C 
ATOM     64  C   UNL A   1      43.461  30.888  35.223  1.00  0.00     0.029 A 
ATOM     65  C   UNL A   1      42.932  30.354  34.059  1.00  0.00     0.049 A 
ATOM     66  H   UNL A   1      41.316  31.047  32.892  1.00  0.00     0.167 HD
ATOM     67  C   UNL A   1      42.798  28.740  32.182  1.00  0.00     0.074 A 
ATOM     68  C   UNL A   1      43.244  27.565  31.460  1.00  0.00     0.031 C 
ATOM     69  C   UNL A   1      43.352  29.181  33.337  1.00  0.00     0.037 A 
BRANCH  56  70
ATOM     70  C   UNL A   1      40.711  34.295  35.592  1.00  0.00     0.057 A 
ATOM     71  C   UNL A   1      39.940  34.163  36.755  1.00  0.00     0.134 A 
ATOM     72  C   UNL A   1      41.478  35.459  35.455  1.00  0.00     0.134 A 
ATOM     73  F   UNL A   1      39.171  33.079  36.941  1.00  0.00    -0.206 F 
ATOM     74  C   UNL A   1      39.906  35.163  37.728  1.00  0.00     0.040 A 
ATOM     75  C   UNL A   1      41.474  36.454  36.434  1.00  0.00     0.040 A 
ATOM     76  F   UNL A   1      42.244  35.647  34.370  1.00  0.00    -0.206 F 
ATOM     77  C   UNL A   1      40.679  36.312  37.571  1.00  0.00     0.006 A 
ENDBRANCH  56  70
BRANCH  57  78
ATOM     78  C   UNL A   1      40.527  27.545  28.247  1.00  0.00     0.057 A 
ATOM     79  C   UNL A   1      39.830  26.343  28.415  1.00  0.00     0.134 A 
ATOM     80  C   UNL A   1      41.196  27.741  27.034  1.00  0.00     0.134 A 
ATOM     81  F   UNL A   1      39.185  26.092  29.564  1.00  0.00    -0.206 F 
ATOM     82  C   UNL A   1      39.815  25.362  27.423  1.00  0.00     0.040 A 
ATOM     83  C   UNL A   1      41.170  26.778  26.024  1.00  0.00     0.040 A 
ATOM     84  F   UNL A   1      41.875  28.875  26.811  1.00  0.00    -0.206 F 
ATOM     85  C   UNL A   1      40.484  25.582  26.220  1.00  0.00     0.006 A 
ENDBRANCH  57  78
BRANCH  69  86
ATOM     86  C   UNL A   1      44.470  28.363  33.915  1.00  0.00     0.057 A 
ATOM     87  C   UNL A   1      44.230  27.279  34.768  1.00  0.00     0.134 A 
ATOM     88  C   UNL A   1      45.801  28.654  33.595  1.00  0.00     0.134 A 
ATOM     89  F   UNL A   1      42.976  26.956  35.123  1.00  0.00    -0.206 F 
ATOM     90  C   UNL A   1      45.278  26.530  35.306  1.00  0.00     0.040 A 
ATOM     91  C   UNL A   1      46.856  27.898  34.107  1.00  0.00     0.040 A 
ATOM     92  F   UNL A   1      46.099  29.675  32.777  1.00  0.00    -0.206 F 
ATOM     93  C   UNL A   1      46.596  26.836  34.972  1.00  0.00     0.006 A 
ENDBRANCH  69  86
ENDBRANCH  43  44
ENDBRANCH  35  38
ENDBRANCH  33  34
ENDBRANCH  32  33
ENDBRANCH  31  32
ENDBRANCH  30  31
ENDBRANCH   1  30
TORSDOF 18
ENDMDL
MODEL 2
REMARK VINA RESULT:     -11.9      4.077      9.361
REMARK SMILES Cc1nn(C)c(C)c1C[C@@H](C)C(=O)N[C@@H](C(=O)NCCCCCCNC(=O)c1ccc(-c2c3nc(c(-c4c(F)cccc4F)c4ccc([nH]4)c(-c4c(F)cccc4F)c4nc(c(-c5c(F)cccc5F)c5ccc2[nH]5)C=C4)C=C3)cc1)c1ccccc1Cl
REMARK SMILES IDX 20 1 19 2 18 3 16 4 17 5 15 7 14 8 12 9 13 10 10 12 11 13
REMARK SMILES IDX 9 14 8 15 1 16 2 17 3 18 4 19 6 20 5 21 7 22 82 23 83 24
REMARK SMILES IDX 87 25 84 26 86 27 88 28 85 29 21 30 22 31 23 32 24 33 25 34
REMARK SMILES IDX 26 35 27 37 28 38 29 39 81 40 30 41 80 42 31 43 32 44 33 45
REMARK SMILES IDX 74 46 34 47 79 48 73 49 75 50 35 51 78 52 72 53 71 54 36 56
REMARK SMILES IDX 62 57 45 58 61 59 46 60 49 61 60 62 76 63 47 64 48 65 59 67
REMARK SMILES IDX 77 68 50 69 37 70 38 71 43 72 39 73 40 74 42 75 44 76 41 77
REMARK SMILES IDX 63 78 64 79 69 80 65 81 66 82 68 83 70 84 67 85 51 86 52 87
REMARK SMILES IDX 57 88 53 89 54 90 56 91 58 92 55 93
REMARK H PARENT 18 6 14 11 25 36 75 55 49 66
REMARK Flexibility Score: inf
ROOT
ATOM      1  C   UNL A   1      37.053  22.607  24.399  1.00  0.00     0.021 C 
ENDROOT
BRANCH   1   2
ATOM      2  C   UNL A   1      35.599  22.207  24.610  1.00  0.00     0.116 C 
BRANCH   2   3
ATOM      3  N   UNL A   1      35.187  22.179  25.994  1.00  0.00    -0.354 N 
ATOM      4  C   UNL A   1      33.971  21.913  26.561  1.00  0.00     0.247 C 
ATOM      5  O   UNL A   1      34.001  21.615  27.761  1.00  0.00    -0.272 OA
ATOM      6  H   UNL A   1      35.903  22.387  26.638  1.00  0.00     0.163 HD
BRANCH   4   7
ATOM      7  C   UNL A   1      32.640  21.800  25.727  1.00  0.00     0.203 C 
BRANCH   7   8
ATOM      8  N   UNL A   1      31.396  21.980  26.481  1.00  0.00    -0.340 N 
ATOM      9  C   UNL A   1      30.598  23.053  26.724  1.00  0.00     0.224 C 
ATOM     10  O   UNL A   1      29.680  22.889  27.535  1.00  0.00    -0.275 OA
ATOM     11  H   UNL A   1      31.070  21.150  26.897  1.00  0.00     0.164 HD
BRANCH   9  12
ATOM     12  C   UNL A   1      30.786  24.419  26.061  1.00  0.00     0.080 C 
ATOM     13  C   UNL A   1      30.567  24.272  24.561  1.00  0.00     0.018 C 
BRANCH  12  14
ATOM     14  C   UNL A   1      32.061  25.132  26.536  1.00  0.00     0.052 C 
BRANCH  14  15
ATOM     15  C   UNL A   1      32.470  26.387  25.834  1.00  0.00    -0.003 A 
ATOM     16  C   UNL A   1      31.656  28.233  27.533  1.00  0.00     0.069 C 
ATOM     17  C   UNL A   1      32.269  27.730  26.276  1.00  0.00     0.063 A 
ATOM     18  N   UNL A   1      32.799  28.615  25.428  1.00  0.00    -0.178 NA
ATOM     19  N   UNL A   1      33.372  27.865  24.475  1.00  0.00    -0.272 N 
ATOM     20  C   UNL A   1      33.291  26.520  24.722  1.00  0.00     0.038 A 
ATOM     21  C   UNL A   1      34.037  28.536  23.383  1.00  0.00     0.174 C 
ATOM     22  C   UNL A   1      34.019  25.512  23.908  1.00  0.00     0.066 C 
ENDBRANCH  14  15
ENDBRANCH  12  14
ENDBRANCH   9  12
ENDBRANCH   7   8
BRANCH   7  23
ATOM     23  C   UNL A   1      32.588  20.490  24.943  1.00  0.00     0.002 A 
ATOM     24  C   UNL A   1      32.733  19.274  25.643  1.00  0.00     0.008 A 
ATOM     25  C   UNL A   1      32.367  20.432  23.557  1.00  0.00     0.046 A 
ATOM     26  C   UNL A   1      32.673  18.047  24.981  1.00  0.00     0.000 A 
ATOM     27  C   UNL A   1      32.299  19.199  22.899  1.00  0.00     0.021 A 
ATOM     28  Cl  UNL A   1      32.181  21.857  22.597  1.00  0.00    -0.084 Cl
ATOM     29  C   UNL A   1      32.454  18.009  23.608  1.00  0.00     0.002 A 
ENDBRANCH   7  23
ENDBRANCH   4   7
ENDBRANCH   2   3
ENDBRANCH   1   2
BRANCH   1  30
ATOM     30  C   UNL A   1      37.811  22.990  25.669  1.00  0.00     0.002 C 
BRANCH  30  31
ATOM     31  C   UNL A   1      38.901  22.011  26.120  1.00  0.00     0.002 C 
BRANCH  31  32
ATOM     32  C   UNL A   1      39.002  20.696  25.340  1.00  0.00     0.021 C 
BRANCH  32  33
ATOM     33  C   UNL A   1      39.425  19.472  26.148  1.00  0.00     0.116 C 
BRANCH  33  34
ATOM     34  N   UNL A   1      40.740  18.981  25.777  1.00  0.00    -0.352 N 
ATOM     35  C   UNL A   1      41.962  19.594  25.833  1.00  0.00     0.251 C 
ATOM     36  H   UNL A   1      40.754  18.060  25.429  1.00  0.00     0.163 HD
ATOM     37  O   UNL A   1      42.941  19.030  25.342  1.00  0.00    -0.269 OA
BRANCH  35  38
ATOM     38  C   UNL A   1      42.130  20.926  26.458  1.00  0.00     0.039 A 
ATOM     39  C   UNL A   1      42.476  22.003  25.634  1.00  0.00     0.014 A 
ATOM     40  C   UNL A   1      42.023  21.118  27.838  1.00  0.00     0.014 A 
ATOM     41  C   UNL A   1      42.690  23.267  26.186  1.00  0.00     0.010 A 
ATOM     42  C   UNL A   1      42.171  22.395  28.382  1.00  0.00     0.010 A 
ATOM     43  C   UNL A   1      42.529  23.476  27.564  1.00  0.00    -0.014 A 
BRANCH  43  44
ATOM     44  C   UNL A   1      42.784  24.813  28.159  1.00  0.00     0.031 A 
ATOM     45  C   UNL A   1      44.178  25.206  28.568  1.00  0.00     0.074 A 
ATOM     46  C   UNL A   1      41.762  25.670  28.343  1.00  0.00     0.049 A 
ATOM     47  N   UNL A   1      44.602  26.328  29.093  1.00  0.00    -0.248 NA
ATOM     48  C   UNL A   1      45.231  24.195  28.384  1.00  0.00     0.031 C 
ATOM     49  C   UNL A   1      40.360  25.396  28.025  1.00  0.00     0.029 A 
ATOM     50  N   UNL A   1      41.749  26.950  28.838  1.00  0.00    -0.354 N 
ATOM     51  C   UNL A   1      45.963  26.154  29.310  1.00  0.00     0.074 A 
ATOM     52  C   UNL A   1      46.284  24.801  28.913  1.00  0.00     0.031 C 
ATOM     53  C   UNL A   1      39.627  26.487  28.301  1.00  0.00     0.029 A 
ATOM     54  C   UNL A   1      40.501  27.526  28.835  1.00  0.00     0.049 A 
ATOM     55  H   UNL A   1      42.555  27.410  29.164  1.00  0.00     0.167 HD
ATOM     56  C   UNL A   1      46.871  27.048  29.771  1.00  0.00     0.037 A 
ATOM     57  C   UNL A   1      40.113  28.760  29.209  1.00  0.00     0.037 A 
ATOM     58  C   UNL A   1      46.558  28.402  30.142  1.00  0.00     0.049 A 
ATOM     59  C   UNL A   1      41.140  29.738  29.707  1.00  0.00     0.074 A 
ATOM     60  C   UNL A   1      47.412  29.397  30.587  1.00  0.00     0.029 A 
ATOM     61  N   UNL A   1      45.286  28.954  30.109  1.00  0.00    -0.354 N 
ATOM     62  N   UNL A   1      42.433  29.578  29.852  1.00  0.00    -0.248 NA
ATOM     63  C   UNL A   1      40.654  31.074  30.077  1.00  0.00     0.031 C 
ATOM     64  C   UNL A   1      46.652  30.543  30.849  1.00  0.00     0.029 A 
ATOM     65  C   UNL A   1      45.331  30.272  30.530  1.00  0.00     0.049 A 
ATOM     66  H   UNL A   1      44.472  28.478  29.827  1.00  0.00     0.167 HD
ATOM     67  C   UNL A   1      42.919  30.800  30.297  1.00  0.00     0.074 A 
ATOM     68  C   UNL A   1      41.783  31.694  30.388  1.00  0.00     0.031 C 
ATOM     69  C   UNL A   1      44.192  31.152  30.600  1.00  0.00     0.037 A 
BRANCH  56  70
ATOM     70  C   UNL A   1      48.293  26.581  29.889  1.00  0.00     0.057 A 
ATOM     71  C   UNL A   1      49.228  26.803  28.869  1.00  0.00     0.134 A 
ATOM     72  C   UNL A   1      48.738  25.913  31.037  1.00  0.00     0.134 A 
ATOM     73  F   UNL A   1      48.864  27.424  27.736  1.00  0.00    -0.206 F 
ATOM     74  C   UNL A   1      50.544  26.349  28.971  1.00  0.00     0.040 A 
ATOM     75  C   UNL A   1      50.058  25.479  31.163  1.00  0.00     0.040 A 
ATOM     76  F   UNL A   1      47.897  25.674  32.055  1.00  0.00    -0.206 F 
ATOM     77  C   UNL A   1      50.964  25.688  30.124  1.00  0.00     0.006 A 
ENDBRANCH  56  70
BRANCH  57  78
ATOM     78  C   UNL A   1      38.690  29.160  29.077  1.00  0.00     0.057 A 
ATOM     79  C   UNL A   1      37.827  29.117  30.179  1.00  0.00     0.134 A 
ATOM     80  C   UNL A   1      38.158  29.586  27.855  1.00  0.00     0.134 A 
ATOM     81  F   UNL A   1      38.277  28.700  31.372  1.00  0.00    -0.206 F 
ATOM     82  C   UNL A   1      36.481  29.465  30.067  1.00  0.00     0.040 A 
ATOM     83  C   UNL A   1      36.818  29.959  27.734  1.00  0.00     0.040 A 
ATOM     84  F   UNL A   1      38.936  29.655  26.766  1.00  0.00    -0.206 F 
ATOM     85  C   UNL A   1      35.974  29.892  28.841  1.00  0.00     0.006 A 
ENDBRANCH  57  78
BRANCH  69  86
ATOM     86  C   UNL A   1      44.428  32.576  31.010  1.00  0.00     0.057 A 
ATOM     87  C   UNL A   1      44.707  33.580  30.075  1.00  0.00     0.134 A 
ATOM     88  C   UNL A   1      44.355  32.947  32.358  1.00  0.00     0.134 A 
ATOM     89  F   UNL A   1      44.803  33.287  28.769  1.00  0.00    -0.206 F 
ATOM     90  C   UNL A   1      44.933  34.900  30.470  1.00  0.00     0.040 A 
ATOM     91  C   UNL A   1      44.555  34.267  32.763  1.00  0.00     0.040 A 
ATOM     92  F   UNL A   1      44.085  32.034  33.304  1.00  0.00    -0.206 F 
ATOM     93  C   UNL A   1      44.852  35.247  31.818  1.00  0.00     0.006 A 
ENDBRANCH  69  86
ENDBRANCH  43  44
ENDBRANCH  35  38
ENDBRANCH  33  34
ENDBRANCH  32  33
ENDBRANCH  31  32
ENDBRANCH  30  31
ENDBRANCH   1  30
TORSDOF 18
ENDMDL
MODEL 3
REMARK VINA RESULT:     -11.9      4.070      9.371
REMARK SMILES Cc1nn(C)c(C)c1C[C@@H](C)C(=O)N[C@@H](C(=O)NCCCCCCNC(=O)c1ccc(-c2c3nc(c(-c4c(F)cccc4F)c4ccc([nH]4)c(-c4c(F)cccc4F)c4nc(c(-c5c(F)cccc5F)c5ccc2[nH]5)C=C4)C=C3)cc1)c1ccccc1Cl
REMARK SMILES IDX 20 1 19 2 18 3 16 4 17 5 15 7 14 8 12 9 13 10 10 12 11 13
REMARK SMILES IDX 9 14 8 15 1 16 2 17 3 18 4 19 6 20 5 21 7 22 82 23 83 24
REMARK SMILES IDX 87 25 84 26 86 27 88 28 85 29 21 30 22 31 23 32 24 33 25 34
REMARK SMILES IDX 26 35 27 37 28 38 29 39 81 40 30 41 80 42 31 43 32 44 33 45
REMARK SMILES IDX 74 46 34 47 79 48 73 49 75 50 35 51 78 52 72 53 71 54 36 56
REMARK SMILES IDX 62 57 45 58 61 59 46 60 49 61 60 62 76 63 47 64 48 65 59 67
REMARK SMILES IDX 77 68 50 69 37 70 38 71 43 72 39 73 40 74 42 75 44 76 41 77
REMARK SMILES IDX 63 78 64 79 69 80 65 81 66 82 68 83 70 84 67 85 51 86 52 87
REMARK SMILES IDX 57 88 53 89 54 90 56 91 58 92 55 93
REMARK H PARENT 18 6 14 11 25 36 75 55 49 66
REMARK Flexibility Score: inf
ROOT
ATOM      1  C   UNL A   1      36.992  22.492  24.487  1.00  0.00     0.021 C 
ENDROOT
BRANCH   1   2
ATOM      2  C   UNL A   1      35.823  21.601  24.884  1.00  0.00     0.116 C 
BRANCH   2   3
ATOM      3  N   UNL A   1      35.350  21.811  26.233  1.00  0.00    -0.354 N 
ATOM      4  C   UNL A   1      34.081  21.820  26.745  1.00  0.00     0.247 C 
ATOM      5  O   UNL A   1      34.005  21.670  27.970  1.00  0.00    -0.272 OA
ATOM      6  H   UNL A   1      36.061  21.975  26.895  1.00  0.00     0.163 HD
BRANCH   4   7
ATOM      7  C   UNL A   1      32.791  21.828  25.844  1.00  0.00     0.203 C 
BRANCH   7   8
ATOM      8  N   UNL A   1      31.527  22.091  26.538  1.00  0.00    -0.340 N 
ATOM      9  C   UNL A   1      30.750  23.197  26.676  1.00  0.00     0.224 C 
ATOM     10  O   UNL A   1      29.801  23.114  27.464  1.00  0.00    -0.275 OA
ATOM     11  H   UNL A   1      31.166  21.301  27.001  1.00  0.00     0.164 HD
BRANCH   9  12
ATOM     12  C   UNL A   1      30.995  24.507  25.924  1.00  0.00     0.080 C 
ATOM     13  C   UNL A   1      30.594  24.320  24.468  1.00  0.00     0.018 C 
BRANCH  12  14
ATOM     14  C   UNL A   1      32.381  25.102  26.220  1.00  0.00     0.052 C 
BRANCH  14  15
ATOM     15  C   UNL A   1      32.765  26.369  25.525  1.00  0.00    -0.003 A 
ATOM     16  C   UNL A   1      32.351  28.157  27.420  1.00  0.00     0.069 C 
ATOM     17  C   UNL A   1      32.729  27.693  26.059  1.00  0.00     0.063 A 
ATOM     18  N   UNL A   1      33.185  28.593  25.183  1.00  0.00    -0.178 NA
ATOM     19  N   UNL A   1      33.551  27.867  24.117  1.00  0.00    -0.272 N 
ATOM     20  C   UNL A   1      33.415  26.517  24.307  1.00  0.00     0.038 A 
ATOM     21  C   UNL A   1      34.088  28.560  22.969  1.00  0.00     0.174 C 
ATOM     22  C   UNL A   1      33.937  25.516  23.341  1.00  0.00     0.066 C 
ENDBRANCH  14  15
ENDBRANCH  12  14
ENDBRANCH   9  12
ENDBRANCH   7   8
BRANCH   7  23
ATOM     23  C   UNL A   1      32.677  20.540  25.029  1.00  0.00     0.002 A 
ATOM     24  C   UNL A   1      32.752  19.303  25.701  1.00  0.00     0.008 A 
ATOM     25  C   UNL A   1      32.467  20.525  23.640  1.00  0.00     0.046 A 
ATOM     26  C   UNL A   1      32.634  18.096  25.010  1.00  0.00     0.000 A 
ATOM     27  C   UNL A   1      32.341  19.313  22.952  1.00  0.00     0.021 A 
ATOM     28  Cl  UNL A   1      32.365  21.980  22.712  1.00  0.00    -0.084 Cl
ATOM     29  C   UNL A   1      32.426  18.101  23.635  1.00  0.00     0.002 A 
ENDBRANCH   7  23
ENDBRANCH   4   7
ENDBRANCH   2   3
ENDBRANCH   1   2
BRANCH   1  30
ATOM     30  C   UNL A   1      37.866  22.971  25.646  1.00  0.00     0.002 C 
BRANCH  30  31
ATOM     31  C   UNL A   1      38.918  21.975  26.147  1.00  0.00     0.002 C 
BRANCH  31  32
ATOM     32  C   UNL A   1      39.084  20.689  25.330  1.00  0.00     0.021 C 
BRANCH  32  33
ATOM     33  C   UNL A   1      39.493  19.446  26.117  1.00  0.00     0.116 C 
BRANCH  33  34
ATOM     34  N   UNL A   1      40.812  18.961  25.756  1.00  0.00    -0.352 N 
ATOM     35  C   UNL A   1      42.031  19.580  25.818  1.00  0.00     0.251 C 
ATOM     36  H   UNL A   1      40.833  18.039  25.411  1.00  0.00     0.163 HD
ATOM     37  O   UNL A   1      43.015  19.018  25.334  1.00  0.00    -0.269 OA
BRANCH  35  38
ATOM     38  C   UNL A   1      42.189  20.914  26.439  1.00  0.00     0.039 A 
ATOM     39  C   UNL A   1      42.539  21.989  25.615  1.00  0.00     0.014 A 
ATOM     40  C   UNL A   1      42.068  21.111  27.817  1.00  0.00     0.014 A 
ATOM     41  C   UNL A   1      42.744  23.256  26.163  1.00  0.00     0.010 A 
ATOM     42  C   UNL A   1      42.207  22.391  28.358  1.00  0.00     0.010 A 
ATOM     43  C   UNL A   1      42.569  23.470  27.539  1.00  0.00    -0.014 A 
BRANCH  43  44
ATOM     44  C   UNL A   1      42.814  24.810  28.131  1.00  0.00     0.031 A 
ATOM     45  C   UNL A   1      44.207  25.217  28.532  1.00  0.00     0.074 A 
ATOM     46  C   UNL A   1      41.785  25.656  28.321  1.00  0.00     0.049 A 
ATOM     47  N   UNL A   1      44.623  26.344  29.053  1.00  0.00    -0.248 NA
ATOM     48  C   UNL A   1      45.269  24.216  28.342  1.00  0.00     0.031 C 
ATOM     49  C   UNL A   1      40.384  25.368  28.013  1.00  0.00     0.029 A 
ATOM     50  N   UNL A   1      41.762  26.936  28.815  1.00  0.00    -0.354 N 
ATOM     51  C   UNL A   1      45.987  26.184  29.261  1.00  0.00     0.074 A 
ATOM     52  C   UNL A   1      46.319  24.834  28.864  1.00  0.00     0.031 C 
ATOM     53  C   UNL A   1      39.642  26.451  28.293  1.00  0.00     0.029 A 
ATOM     54  C   UNL A   1      40.509  27.500  28.820  1.00  0.00     0.049 A 
ATOM     55  H   UNL A   1      42.565  27.405  29.136  1.00  0.00     0.167 HD
ATOM     56  C   UNL A   1      46.889  27.087  29.717  1.00  0.00     0.037 A 
ATOM     57  C   UNL A   1      40.110  28.730  29.196  1.00  0.00     0.037 A 
ATOM     58  C   UNL A   1      46.564  28.438  30.089  1.00  0.00     0.049 A 
ATOM     59  C   UNL A   1      41.130  29.719  29.686  1.00  0.00     0.074 A 
ATOM     60  C   UNL A   1      47.411  29.442  30.528  1.00  0.00     0.029 A 
ATOM     61  N   UNL A   1      45.286  28.977  30.063  1.00  0.00    -0.354 N 
ATOM     62  N   UNL A   1      42.425  29.572  29.824  1.00  0.00    -0.248 NA
ATOM     63  C   UNL A   1      40.633  31.051  30.059  1.00  0.00     0.031 C 
ATOM     64  C   UNL A   1      46.640  30.580  30.793  1.00  0.00     0.029 A 
ATOM     65  C   UNL A   1      45.320  30.296  30.483  1.00  0.00     0.049 A 
ATOM     66  H   UNL A   1      44.476  28.493  29.786  1.00  0.00     0.167 HD
ATOM     67  C   UNL A   1      42.902  30.799  30.264  1.00  0.00     0.074 A 
ATOM     68  C   UNL A   1      41.757  31.682  30.362  1.00  0.00     0.031 C 
ATOM     69  C   UNL A   1      44.174  31.165  30.559  1.00  0.00     0.037 A 
BRANCH  56  70
ATOM     70  C   UNL A   1      48.316  26.635  29.826  1.00  0.00     0.057 A 
ATOM     71  C   UNL A   1      48.798  25.987  30.972  1.00  0.00     0.134 A 
ATOM     72  C   UNL A   1      49.217  26.838  28.773  1.00  0.00     0.134 A 
ATOM     73  F   UNL A   1      47.990  25.774  32.023  1.00  0.00    -0.206 F 
ATOM     74  C   UNL A   1      50.130  25.586  31.080  1.00  0.00     0.040 A 
ATOM     75  C   UNL A   1      50.545  26.417  28.858  1.00  0.00     0.040 A 
ATOM     76  F   UNL A   1      48.821  27.445  27.644  1.00  0.00    -0.206 F 
ATOM     77  C   UNL A   1      51.008  25.798  30.018  1.00  0.00     0.006 A 
ENDBRANCH  56  70
BRANCH  57  78
ATOM     78  C   UNL A   1      38.682  29.116  29.072  1.00  0.00     0.057 A 
ATOM     79  C   UNL A   1      38.161  29.551  27.848  1.00  0.00     0.134 A 
ATOM     80  C   UNL A   1      37.811  29.067  30.165  1.00  0.00     0.134 A 
ATOM     81  F   UNL A   1      38.953  29.635  26.768  1.00  0.00    -0.206 F 
ATOM     82  C   UNL A   1      36.827  29.942  27.719  1.00  0.00     0.040 A 
ATOM     83  C   UNL A   1      36.470  29.434  30.045  1.00  0.00     0.040 A 
ATOM     84  F   UNL A   1      38.250  28.653  31.362  1.00  0.00    -0.206 F 
ATOM     85  C   UNL A   1      35.977  29.880  28.821  1.00  0.00     0.006 A 
ENDBRANCH  57  78
BRANCH  69  86
ATOM     86  C   UNL A   1      44.398  32.591  30.967  1.00  0.00     0.057 A 
ATOM     87  C   UNL A   1      44.656  33.598  30.029  1.00  0.00     0.134 A 
ATOM     88  C   UNL A   1      44.334  32.962  32.316  1.00  0.00     0.134 A 
ATOM     89  F   UNL A   1      44.741  33.305  28.722  1.00  0.00    -0.206 F 
ATOM     90  C   UNL A   1      44.871  34.921  30.421  1.00  0.00     0.040 A 
ATOM     91  C   UNL A   1      44.523  34.284  32.719  1.00  0.00     0.040 A 
ATOM     92  F   UNL A   1      44.084  32.046  33.264  1.00  0.00    -0.206 F 
ATOM     93  C   UNL A   1      44.799  35.267  31.770  1.00  0.00     0.006 A 
ENDBRANCH  69  86
ENDBRANCH  43  44
ENDBRANCH  35  38
ENDBRANCH  33  34
ENDBRANCH  32  33
ENDBRANCH  31  32
ENDBRANCH  30  31
ENDBRANCH   1  30
TORSDOF 18
ENDMDL
