MODEL 1
REMARK VINA RESULT:     -11.3      0.000      0.000
REMARK SMILES Cc1cc(Cl)cc2c1O[C@H](C(F)(F)F)C(C(=O)NCCCCCCNC(=O)c1ccc(-c3c4nc(c(-c5c(F)cccc5F)c5ccc([nH]5)c(-c5c(F)cccc5F)c5nc(c(-c6c(F)cccc6F)c6ccc3[nH]6)C=C5)C=C4)cc1)=C2
REMARK SMILES IDX 22 1 21 2 20 3 19 4 18 5 16 6 17 7 15 9 1 10 2 11 3 12 8 13
REMARK SMILES IDX 4 14 7 15 9 16 5 17 6 18 82 19 10 20 11 21 12 22 13 23 14 24
REMARK SMILES IDX 23 25 24 26 25 27 26 28 27 30 28 31 29 32 81 33 30 34 80 35
REMARK SMILES IDX 31 36 32 37 33 38 74 39 34 40 79 41 73 42 75 43 35 44 78 45
REMARK SMILES IDX 72 46 71 47 36 49 62 50 45 51 61 52 46 53 49 54 60 55 76 56
REMARK SMILES IDX 47 57 48 58 59 60 77 61 50 62 37 63 38 64 43 65 39 66 40 67
REMARK SMILES IDX 42 68 44 69 41 70 63 71 64 72 69 73 65 74 66 75 68 76 70 77
REMARK SMILES IDX 67 78 51 79 52 80 57 81 53 82 54 83 56 84 58 85 55 86
REMARK H PARENT 18 8 25 29 75 48 49 59
REMARK Flexibility Score: inf
ROOT
ATOM      1  C   UNL A   1      31.874  30.068  26.878  1.00  0.00     0.002 C 
ENDROOT
BRANCH   1   2
ATOM      2  C   UNL A   1      33.346  29.797  27.216  1.00  0.00     0.002 C 
BRANCH   2   3
ATOM      3  C   UNL A   1      34.127  29.001  26.167  1.00  0.00     0.021 C 
BRANCH   3   4
ATOM      4  C   UNL A   1      33.824  27.506  26.174  1.00  0.00     0.116 C 
BRANCH   4   5
ATOM      5  N   UNL A   1      33.867  26.941  24.838  1.00  0.00    -0.352 N 
ATOM      6  C   UNL A   1      33.035  26.842  23.776  1.00  0.00     0.251 C 
ATOM      7  O   UNL A   1      33.513  26.270  22.790  1.00  0.00    -0.270 OA
ATOM      8  H   UNL A   1      34.736  26.514  24.656  1.00  0.00     0.163 HD
BRANCH   6   9
ATOM      9  C   UNL A   1      31.635  27.359  23.719  1.00  0.00     0.067 C 
ATOM     10  C   UNL A   1      26.558  28.091  23.419  1.00  0.00     0.048 C 
ATOM     11  C   UNL A   1      27.765  28.985  23.366  1.00  0.00    -0.007 A 
ATOM     12  C   UNL A   1      27.617  30.373  23.262  1.00  0.00     0.027 A 
ATOM     13  C   UNL A   1      29.058  28.447  23.446  1.00  0.00     0.131 A 
ATOM     14  C   UNL A   1      28.744  31.196  23.222  1.00  0.00     0.042 A 
ATOM     15  C   UNL A   1      30.187  29.270  23.403  1.00  0.00     0.019 A 
ATOM     16  O   UNL A   1      29.154  27.088  23.518  1.00  0.00    -0.475 OA
ATOM     17  Cl  UNL A   1      28.546  32.900  23.082  1.00  0.00    -0.084 Cl
ATOM     18  C   UNL A   1      30.026  30.653  23.289  1.00  0.00     0.032 A 
ATOM     19  C   UNL A   1      31.515  28.671  23.445  1.00  0.00     0.025 C 
ATOM     20  C   UNL A   1      30.411  26.530  23.983  1.00  0.00     0.314 C 
BRANCH  20  21
ATOM     21  C   UNL A   1      30.258  26.136  25.463  1.00  0.00     0.429 C 
ATOM     22  F   UNL A   1      28.966  25.822  25.737  1.00  0.00    -0.167 F 
ATOM     23  F   UNL A   1      30.990  25.047  25.793  1.00  0.00    -0.167 F 
ATOM     24  F   UNL A   1      30.621  27.128  26.306  1.00  0.00    -0.167 F 
ENDBRANCH  20  21
ENDBRANCH   6   9
ENDBRANCH   4   5
ENDBRANCH   3   4
ENDBRANCH   2   3
ENDBRANCH   1   2
BRANCH   1  25
ATOM     25  C   UNL A   1      31.457  31.541  26.884  1.00  0.00     0.021 C 
BRANCH  25  26
ATOM     26  C   UNL A   1      32.605  32.526  26.700  1.00  0.00     0.116 C 
BRANCH  26  27
ATOM     27  N   UNL A   1      32.344  33.795  27.358  1.00  0.00    -0.352 N 
ATOM     28  C   UNL A   1      33.011  34.382  28.402  1.00  0.00     0.251 C 
ATOM     29  H   UNL A   1      31.582  34.307  27.003  1.00  0.00     0.163 HD
ATOM     30  O   UNL A   1      32.543  35.364  28.967  1.00  0.00    -0.269 OA
BRANCH  28  31
ATOM     31  C   UNL A   1      34.295  33.812  28.857  1.00  0.00     0.039 A 
ATOM     32  C   UNL A   1      34.290  32.884  29.900  1.00  0.00     0.014 A 
ATOM     33  C   UNL A   1      35.500  34.200  28.259  1.00  0.00     0.014 A 
ATOM     34  C   UNL A   1      35.491  32.312  30.317  1.00  0.00     0.010 A 
ATOM     35  C   UNL A   1      36.686  33.574  28.627  1.00  0.00     0.010 A 
ATOM     36  C   UNL A   1      36.696  32.638  29.670  1.00  0.00    -0.014 A 
BRANCH  36  37
ATOM     37  C   UNL A   1      37.976  32.034  30.114  1.00  0.00     0.031 A 
ATOM     38  C   UNL A   1      38.769  32.687  31.210  1.00  0.00     0.074 A 
ATOM     39  C   UNL A   1      38.423  30.908  29.526  1.00  0.00     0.049 A 
ATOM     40  N   UNL A   1      39.892  32.297  31.757  1.00  0.00    -0.248 NA
ATOM     41  C   UNL A   1      38.247  33.952  31.751  1.00  0.00     0.031 C 
ATOM     42  C   UNL A   1      37.761  30.210  28.423  1.00  0.00     0.029 A 
ATOM     43  N   UNL A   1      39.536  30.147  29.782  1.00  0.00    -0.354 N 
ATOM     44  C   UNL A   1      40.203  33.263  32.706  1.00  0.00     0.074 A 
ATOM     45  C   UNL A   1      39.194  34.293  32.613  1.00  0.00     0.031 C 
ATOM     46  C   UNL A   1      38.455  29.100  28.127  1.00  0.00     0.029 A 
ATOM     47  C   UNL A   1      39.623  29.021  29.000  1.00  0.00     0.049 A 
ATOM     48  H   UNL A   1      40.207  30.386  30.460  1.00  0.00     0.167 HD
ATOM     49  C   UNL A   1      41.217  33.270  33.601  1.00  0.00     0.037 A 
ATOM     50  C   UNL A   1      40.537  28.031  28.998  1.00  0.00     0.037 A 
ATOM     51  C   UNL A   1      42.199  32.228  33.714  1.00  0.00     0.049 A 
ATOM     52  C   UNL A   1      41.673  28.080  29.982  1.00  0.00     0.074 A 
ATOM     53  C   UNL A   1      43.228  32.112  34.631  1.00  0.00     0.029 A 
ATOM     54  N   UNL A   1      42.272  31.122  32.882  1.00  0.00    -0.354 N 
ATOM     55  N   UNL A   1      41.911  28.960  30.923  1.00  0.00    -0.248 NA
ATOM     56  C   UNL A   1      42.670  27.001  29.903  1.00  0.00     0.031 C 
ATOM     57  C   UNL A   1      43.949  30.953  34.331  1.00  0.00     0.029 A 
ATOM     58  C   UNL A   1      43.348  30.332  33.247  1.00  0.00     0.049 A 
ATOM     59  H   UNL A   1      41.653  30.928  32.142  1.00  0.00     0.167 HD
ATOM     60  C   UNL A   1      43.072  28.536  31.557  1.00  0.00     0.074 A 
ATOM     61  C   UNL A   1      43.482  27.311  30.905  1.00  0.00     0.031 C 
ATOM     62  C   UNL A   1      43.738  29.114  32.585  1.00  0.00     0.037 A 
BRANCH  49  63
ATOM     63  C   UNL A   1      41.294  34.425  34.553  1.00  0.00     0.057 A 
ATOM     64  C   UNL A   1      40.711  34.361  35.826  1.00  0.00     0.134 A 
ATOM     65  C   UNL A   1      42.000  35.588  34.221  1.00  0.00     0.134 A 
ATOM     66  F   UNL A   1      40.011  33.279  36.200  1.00  0.00    -0.206 F 
ATOM     67  C   UNL A   1      40.812  35.420  36.729  1.00  0.00     0.040 A 
ATOM     68  C   UNL A   1      42.129  36.644  35.124  1.00  0.00     0.040 A 
ATOM     69  F   UNL A   1      42.585  35.710  33.021  1.00  0.00    -0.206 F 
ATOM     70  C   UNL A   1      41.530  36.563  36.381  1.00  0.00     0.006 A 
ENDBRANCH  49  63
BRANCH  50  71
ATOM     71  C   UNL A   1      40.390  26.888  28.063  1.00  0.00     0.057 A 
ATOM     72  C   UNL A   1      41.032  26.892  26.820  1.00  0.00     0.134 A 
ATOM     73  C   UNL A   1      39.617  25.767  28.388  1.00  0.00     0.134 A 
ATOM     74  F   UNL A   1      41.772  27.945  26.445  1.00  0.00    -0.206 F 
ATOM     75  C   UNL A   1      40.904  25.825  25.927  1.00  0.00     0.040 A 
ATOM     76  C   UNL A   1      39.497  24.685  27.514  1.00  0.00     0.040 A 
ATOM     77  F   UNL A   1      38.981  25.701  29.567  1.00  0.00    -0.206 F 
ATOM     78  C   UNL A   1      40.138  24.715  26.277  1.00  0.00     0.006 A 
ENDBRANCH  50  71
BRANCH  62  79
ATOM     79  C   UNL A   1      44.985  28.442  33.073  1.00  0.00     0.057 A 
ATOM     80  C   UNL A   1      46.247  28.821  32.599  1.00  0.00     0.134 A 
ATOM     81  C   UNL A   1      44.933  27.493  34.103  1.00  0.00     0.134 A 
ATOM     82  F   UNL A   1      46.359  29.718  31.608  1.00  0.00    -0.206 F 
ATOM     83  C   UNL A   1      47.415  28.282  33.136  1.00  0.00     0.040 A 
ATOM     84  C   UNL A   1      46.096  26.963  34.661  1.00  0.00     0.040 A 
ATOM     85  F   UNL A   1      43.755  27.099  34.606  1.00  0.00    -0.206 F 
ATOM     86  C   UNL A   1      47.342  27.360  34.179  1.00  0.00     0.006 A 
ENDBRANCH  62  79
ENDBRANCH  36  37
ENDBRANCH  28  31
ENDBRANCH  26  27
ENDBRANCH  25  26
ENDBRANCH   1  25
TORSDOF 14
ENDMDL
MODEL 2
REMARK VINA RESULT:     -11.3      5.152      9.583
REMARK SMILES Cc1cc(Cl)cc2c1O[C@H](C(F)(F)F)C(C(=O)NCCCCCCNC(=O)c1ccc(-c3c4nc(c(-c5c(F)cccc5F)c5ccc([nH]5)c(-c5c(F)cccc5F)c5nc(c(-c6c(F)cccc6F)c6ccc3[nH]6)C=C5)C=C4)cc1)=C2
REMARK SMILES IDX 22 1 21 2 20 3 19 4 18 5 16 6 17 7 15 9 1 10 2 11 3 12 8 13
REMARK SMILES IDX 4 14 7 15 9 16 5 17 6 18 82 19 10 20 11 21 12 22 13 23 14 24
REMARK SMILES IDX 23 25 24 26 25 27 26 28 27 30 28 31 29 32 81 33 30 34 80 35
REMARK SMILES IDX 31 36 32 37 33 38 74 39 34 40 79 41 73 42 75 43 35 44 78 45
REMARK SMILES IDX 72 46 71 47 36 49 62 50 45 51 61 52 46 53 49 54 60 55 76 56
REMARK SMILES IDX 47 57 48 58 59 60 77 61 50 62 37 63 38 64 43 65 39 66 40 67
REMARK SMILES IDX 42 68 44 69 41 70 63 71 64 72 69 73 65 74 66 75 68 76 70 77
REMARK SMILES IDX 67 78 51 79 52 80 57 81 53 82 54 83 56 84 58 85 55 86
REMARK H PARENT 18 8 25 29 75 48 49 59
REMARK Flexibility Score: inf
ROOT
ATOM      1  C   UNL A   1      36.992  21.122  24.517  1.00  0.00     0.002 C 
ENDROOT
BRANCH   1   2
ATOM      2  C   UNL A   1      37.432  22.476  25.088  1.00  0.00     0.002 C 
BRANCH   2   3
ATOM      3  C   UNL A   1      36.475  23.104  26.106  1.00  0.00     0.021 C 
BRANCH   3   4
ATOM      4  C   UNL A   1      35.520  24.130  25.505  1.00  0.00     0.116 C 
BRANCH   4   5
ATOM      5  N   UNL A   1      34.193  24.037  26.085  1.00  0.00    -0.352 N 
ATOM      6  C   UNL A   1      33.125  23.213  25.991  1.00  0.00     0.251 C 
ATOM      7  O   UNL A   1      32.169  23.513  26.715  1.00  0.00    -0.270 OA
ATOM      8  H   UNL A   1      34.026  24.773  26.719  1.00  0.00     0.163 HD
BRANCH   6   9
ATOM      9  C   UNL A   1      33.030  22.013  25.106  1.00  0.00     0.067 C 
ATOM     10  C   UNL A   1      31.938  18.463  21.556  1.00  0.00     0.048 C 
ATOM     11  C   UNL A   1      32.733  18.481  22.831  1.00  0.00    -0.007 A 
ATOM     12  C   UNL A   1      33.436  17.343  23.245  1.00  0.00     0.027 A 
ATOM     13  C   UNL A   1      32.806  19.643  23.613  1.00  0.00     0.131 A 
ATOM     14  C   UNL A   1      34.179  17.371  24.427  1.00  0.00     0.042 A 
ATOM     15  C   UNL A   1      33.548  19.672  24.798  1.00  0.00     0.019 A 
ATOM     16  O   UNL A   1      32.083  20.717  23.185  1.00  0.00    -0.475 OA
ATOM     17  Cl  UNL A   1      35.029  15.962  24.930  1.00  0.00    -0.084 Cl
ATOM     18  C   UNL A   1      34.237  18.527  25.205  1.00  0.00     0.032 A 
ATOM     19  C   UNL A   1      33.565  20.884  25.605  1.00  0.00     0.025 C 
ATOM     20  C   UNL A   1      32.430  22.018  23.729  1.00  0.00     0.314 C 
BRANCH  20  21
ATOM     21  C   UNL A   1      33.290  22.770  22.699  1.00  0.00     0.429 C 
ATOM     22  F   UNL A   1      32.928  22.423  21.438  1.00  0.00    -0.167 F 
ATOM     23  F   UNL A   1      33.146  24.113  22.778  1.00  0.00    -0.167 F 
ATOM     24  F   UNL A   1      34.610  22.505  22.830  1.00  0.00    -0.167 F 
ENDBRANCH  20  21
ENDBRANCH   6   9
ENDBRANCH   4   5
ENDBRANCH   3   4
ENDBRANCH   2   3
ENDBRANCH   1   2
BRANCH   1  25
ATOM     25  C   UNL A   1      37.992  19.976  24.696  1.00  0.00     0.021 C 
BRANCH  25  26
ATOM     26  C   UNL A   1      38.860  20.080  25.943  1.00  0.00     0.116 C 
BRANCH  26  27
ATOM     27  N   UNL A   1      40.034  19.227  25.863  1.00  0.00    -0.352 N 
ATOM     28  C   UNL A   1      41.354  19.551  26.043  1.00  0.00     0.251 C 
ATOM     29  H   UNL A   1      39.855  18.283  25.650  1.00  0.00     0.163 HD
ATOM     30  O   UNL A   1      42.237  18.753  25.746  1.00  0.00    -0.269 OA
BRANCH  28  31
ATOM     31  C   UNL A   1      41.710  20.878  26.583  1.00  0.00     0.039 A 
ATOM     32  C   UNL A   1      42.064  21.895  25.696  1.00  0.00     0.014 A 
ATOM     33  C   UNL A   1      41.700  21.113  27.963  1.00  0.00     0.014 A 
ATOM     34  C   UNL A   1      42.369  23.163  26.189  1.00  0.00     0.010 A 
ATOM     35  C   UNL A   1      41.933  22.395  28.447  1.00  0.00     0.010 A 
ATOM     36  C   UNL A   1      42.287  23.427  27.567  1.00  0.00    -0.014 A 
BRANCH  36  37
ATOM     37  C   UNL A   1      42.615  24.774  28.096  1.00  0.00     0.031 A 
ATOM     38  C   UNL A   1      44.048  25.148  28.350  1.00  0.00     0.074 A 
ATOM     39  C   UNL A   1      41.625  25.651  28.352  1.00  0.00     0.049 A 
ATOM     40  N   UNL A   1      44.538  26.283  28.780  1.00  0.00    -0.248 NA
ATOM     41  C   UNL A   1      45.062  24.109  28.112  1.00  0.00     0.031 C 
ATOM     42  C   UNL A   1      40.196  25.385  28.185  1.00  0.00     0.029 A 
ATOM     43  N   UNL A   1      41.673  26.948  28.797  1.00  0.00    -0.354 N 
ATOM     44  C   UNL A   1      45.912  26.093  28.855  1.00  0.00     0.074 A 
ATOM     45  C   UNL A   1      46.174  24.717  28.499  1.00  0.00     0.031 C 
ATOM     46  C   UNL A   1      39.506  26.498  28.479  1.00  0.00     0.029 A 
ATOM     47  C   UNL A   1      40.439  27.547  28.880  1.00  0.00     0.049 A 
ATOM     48  H   UNL A   1      42.512  27.406  29.034  1.00  0.00     0.167 HD
ATOM     49  C   UNL A   1      46.873  26.996  29.156  1.00  0.00     0.037 A 
ATOM     50  C   UNL A   1      40.103  28.804  29.229  1.00  0.00     0.037 A 
ATOM     51  C   UNL A   1      46.613  28.372  29.478  1.00  0.00     0.049 A 
ATOM     52  C   UNL A   1      41.188  29.779  29.590  1.00  0.00     0.074 A 
ATOM     53  C   UNL A   1      47.522  29.382  29.735  1.00  0.00     0.029 A 
ATOM     54  N   UNL A   1      45.348  28.930  29.584  1.00  0.00    -0.354 N 
ATOM     55  N   UNL A   1      42.488  29.607  29.584  1.00  0.00    -0.248 NA
ATOM     56  C   UNL A   1      40.763  31.123  30.012  1.00  0.00     0.031 C 
ATOM     57  C   UNL A   1      46.807  30.545  30.035  1.00  0.00     0.029 A 
ATOM     58  C   UNL A   1      45.453  30.265  29.932  1.00  0.00     0.049 A 
ATOM     59  H   UNL A   1      44.503  28.448  29.436  1.00  0.00     0.167 HD
ATOM     60  C   UNL A   1      43.035  30.820  29.984  1.00  0.00     0.074 A 
ATOM     61  C   UNL A   1      41.928  31.725  30.211  1.00  0.00     0.031 C 
ATOM     62  C   UNL A   1      44.337  31.149  30.151  1.00  0.00     0.037 A 
BRANCH  49  63
ATOM     63  C   UNL A   1      48.297  26.534  29.118  1.00  0.00     0.057 A 
ATOM     64  C   UNL A   1      48.913  25.972  30.244  1.00  0.00     0.134 A 
ATOM     65  C   UNL A   1      49.045  26.599  27.936  1.00  0.00     0.134 A 
ATOM     66  F   UNL A   1      48.254  25.892  31.410  1.00  0.00    -0.206 F 
ATOM     67  C   UNL A   1      50.228  25.506  30.201  1.00  0.00     0.040 A 
ATOM     68  C   UNL A   1      50.353  26.115  27.874  1.00  0.00     0.040 A 
ATOM     69  F   UNL A   1      48.513  27.121  26.821  1.00  0.00    -0.206 F 
ATOM     70  C   UNL A   1      50.949  25.571  29.010  1.00  0.00     0.006 A 
ENDBRANCH  49  63
BRANCH  50  71
ATOM     71  C   UNL A   1      38.680  29.222  29.208  1.00  0.00     0.057 A 
ATOM     72  C   UNL A   1      38.086  29.686  28.029  1.00  0.00     0.134 A 
ATOM     73  C   UNL A   1      37.879  29.163  30.355  1.00  0.00     0.134 A 
ATOM     74  F   UNL A   1      38.807  29.781  26.902  1.00  0.00    -0.206 F 
ATOM     75  C   UNL A   1      36.748  30.084  27.991  1.00  0.00     0.040 A 
ATOM     76  C   UNL A   1      36.534  29.539  30.326  1.00  0.00     0.040 A 
ATOM     77  F   UNL A   1      38.388  28.723  31.514  1.00  0.00    -0.206 F 
ATOM     78  C   UNL A   1      35.967  30.006  29.142  1.00  0.00     0.006 A 
ENDBRANCH  50  71
BRANCH  62  79
ATOM     79  C   UNL A   1      44.651  32.542  30.606  1.00  0.00     0.057 A 
ATOM     80  C   UNL A   1      44.848  32.835  31.961  1.00  0.00     0.134 A 
ATOM     81  C   UNL A   1      44.870  33.568  29.678  1.00  0.00     0.134 A 
ATOM     82  F   UNL A   1      44.645  31.895  32.896  1.00  0.00    -0.206 F 
ATOM     83  C   UNL A   1      45.256  34.102  32.377  1.00  0.00     0.040 A 
ATOM     84  C   UNL A   1      45.298  34.833  30.081  1.00  0.00     0.040 A 
ATOM     85  F   UNL A   1      44.710  33.345  28.366  1.00  0.00    -0.206 F 
ATOM     86  C   UNL A   1      45.494  35.101  31.435  1.00  0.00     0.006 A 
ENDBRANCH  62  79
ENDBRANCH  36  37
ENDBRANCH  28  31
ENDBRANCH  26  27
ENDBRANCH  25  26
ENDBRANCH   1  25
TORSDOF 14
ENDMDL
MODEL 3
REMARK VINA RESULT:     -11.2      4.052      8.801
REMARK SMILES Cc1cc(Cl)cc2c1O[C@H](C(F)(F)F)C(C(=O)NCCCCCCNC(=O)c1ccc(-c3c4nc(c(-c5c(F)cccc5F)c5ccc([nH]5)c(-c5c(F)cccc5F)c5nc(c(-c6c(F)cccc6F)c6ccc3[nH]6)C=C5)C=C4)cc1)=C2
REMARK SMILES IDX 22 1 21 2 20 3 19 4 18 5 16 6 17 7 15 9 1 10 2 11 3 12 8 13
REMARK SMILES IDX 4 14 7 15 9 16 5 17 6 18 82 19 10 20 11 21 12 22 13 23 14 24
REMARK SMILES IDX 23 25 24 26 25 27 26 28 27 30 28 31 29 32 81 33 30 34 80 35
REMARK SMILES IDX 31 36 32 37 33 38 74 39 34 40 79 41 73 42 75 43 35 44 78 45
REMARK SMILES IDX 72 46 71 47 36 49 62 50 45 51 61 52 46 53 49 54 60 55 76 56
REMARK SMILES IDX 47 57 48 58 59 60 77 61 50 62 37 63 38 64 43 65 39 66 40 67
REMARK SMILES IDX 42 68 44 69 41 70 63 71 64 72 69 73 65 74 66 75 68 76 70 77
REMARK SMILES IDX 67 78 51 79 52 80 57 81 53 82 54 83 56 84 58 85 55 86
REMARK H PARENT 18 8 25 29 75 48 49 59
REMARK Flexibility Score: inf
ROOT
ATOM      1  C   UNL A   1      36.027  20.661  24.979  1.00  0.00     0.002 C 
ENDROOT
BRANCH   1   2
ATOM      2  C   UNL A   1      34.643  19.996  24.977  1.00  0.00     0.002 C 
BRANCH   2   3
ATOM      3  C   UNL A   1      33.604  20.636  25.903  1.00  0.00     0.021 C 
BRANCH   3   4
ATOM      4  C   UNL A   1      32.476  21.351  25.165  1.00  0.00     0.116 C 
BRANCH   4   5
ATOM      5  N   UNL A   1      31.554  21.993  26.083  1.00  0.00    -0.352 N 
ATOM      6  C   UNL A   1      31.175  23.255  26.387  1.00  0.00     0.251 C 
ATOM      7  O   UNL A   1      30.303  23.342  27.259  1.00  0.00    -0.270 OA
ATOM      8  H   UNL A   1      31.074  21.331  26.632  1.00  0.00     0.163 HD
BRANCH   6   9
ATOM      9  C   UNL A   1      31.718  24.498  25.763  1.00  0.00     0.067 C 
ATOM     10  C   UNL A   1      33.883  28.107  22.816  1.00  0.00     0.048 C 
ATOM     11  C   UNL A   1      33.379  28.053  24.230  1.00  0.00    -0.007 A 
ATOM     12  C   UNL A   1      33.397  29.198  25.035  1.00  0.00     0.027 A 
ATOM     13  C   UNL A   1      32.859  26.863  24.759  1.00  0.00     0.131 A 
ATOM     14  C   UNL A   1      32.919  29.140  26.345  1.00  0.00     0.042 A 
ATOM     15  C   UNL A   1      32.382  26.803  26.072  1.00  0.00     0.019 A 
ATOM     16  O   UNL A   1      32.887  25.767  23.948  1.00  0.00    -0.475 OA
ATOM     17  Cl  UNL A   1      32.958  30.553  27.327  1.00  0.00    -0.084 Cl
ATOM     18  C   UNL A   1      32.414  27.951  26.868  1.00  0.00     0.032 A 
ATOM     19  C   UNL A   1      31.888  25.538  26.600  1.00  0.00     0.025 C 
ATOM     20  C   UNL A   1      32.029  24.650  24.301  1.00  0.00     0.314 C 
BRANCH  20  21
ATOM     21  C   UNL A   1      30.769  24.698  23.419  1.00  0.00     0.429 C 
ATOM     22  F   UNL A   1      31.052  25.272  22.222  1.00  0.00    -0.167 F 
ATOM     23  F   UNL A   1      30.277  23.468  23.142  1.00  0.00    -0.167 F 
ATOM     24  F   UNL A   1      29.766  25.409  23.982  1.00  0.00    -0.167 F 
ENDBRANCH  20  21
ENDBRANCH   6   9
ENDBRANCH   4   5
ENDBRANCH   3   4
ENDBRANCH   2   3
ENDBRANCH   1   2
BRANCH   1  25
ATOM     25  C   UNL A   1      37.219  19.701  24.962  1.00  0.00     0.021 C 
BRANCH  25  26
ATOM     26  C   UNL A   1      38.552  20.339  25.333  1.00  0.00     0.116 C 
BRANCH  26  27
ATOM     27  N   UNL A   1      39.585  19.345  25.568  1.00  0.00    -0.352 N 
ATOM     28  C   UNL A   1      40.864  19.518  26.030  1.00  0.00     0.251 C 
ATOM     29  H   UNL A   1      39.330  18.415  25.371  1.00  0.00     0.163 HD
ATOM     30  O   UNL A   1      41.672  18.596  25.986  1.00  0.00    -0.269 OA
BRANCH  28  31
ATOM     31  C   UNL A   1      41.272  20.831  26.567  1.00  0.00     0.039 A 
ATOM     32  C   UNL A   1      41.790  21.787  25.691  1.00  0.00     0.014 A 
ATOM     33  C   UNL A   1      41.151  21.113  27.932  1.00  0.00     0.014 A 
ATOM     34  C   UNL A   1      42.147  23.044  26.178  1.00  0.00     0.010 A 
ATOM     35  C   UNL A   1      41.438  22.390  28.403  1.00  0.00     0.010 A 
ATOM     36  C   UNL A   1      41.955  23.361  27.534  1.00  0.00    -0.014 A 
BRANCH  36  37
ATOM     37  C   UNL A   1      42.338  24.695  28.056  1.00  0.00     0.031 A 
ATOM     38  C   UNL A   1      43.787  25.023  28.281  1.00  0.00     0.074 A 
ATOM     39  C   UNL A   1      41.383  25.604  28.333  1.00  0.00     0.049 A 
ATOM     40  N   UNL A   1      44.323  26.140  28.701  1.00  0.00    -0.248 NA
ATOM     41  C   UNL A   1      44.762  23.951  28.021  1.00  0.00     0.031 C 
ATOM     42  C   UNL A   1      39.942  25.385  28.195  1.00  0.00     0.029 A 
ATOM     43  N   UNL A   1      41.483  26.899  28.777  1.00  0.00    -0.354 N 
ATOM     44  C   UNL A   1      45.691  25.906  28.747  1.00  0.00     0.074 A 
ATOM     45  C   UNL A   1      45.901  24.523  28.385  1.00  0.00     0.031 C 
ATOM     46  C   UNL A   1      39.295  26.520  28.505  1.00  0.00     0.029 A 
ATOM     47  C   UNL A   1      40.271  27.537  28.886  1.00  0.00     0.049 A 
ATOM     48  H   UNL A   1      42.340  27.328  28.997  1.00  0.00     0.167 HD
ATOM     49  C   UNL A   1      46.687  26.777  29.029  1.00  0.00     0.037 A 
ATOM     50  C   UNL A   1      39.983  28.804  29.242  1.00  0.00     0.037 A 
ATOM     51  C   UNL A   1      46.479  28.160  29.356  1.00  0.00     0.049 A 
ATOM     52  C   UNL A   1      41.107  29.743  29.582  1.00  0.00     0.074 A 
ATOM     53  C   UNL A   1      47.426  29.140  29.594  1.00  0.00     0.029 A 
ATOM     54  N   UNL A   1      45.236  28.759  29.489  1.00  0.00    -0.354 N 
ATOM     55  N   UNL A   1      42.399  29.529  29.548  1.00  0.00    -0.248 NA
ATOM     56  C   UNL A   1      40.735  31.100  30.013  1.00  0.00     0.031 C 
ATOM     57  C   UNL A   1      46.755  30.324  29.910  1.00  0.00     0.029 A 
ATOM     58  C   UNL A   1      45.391  30.089  29.835  1.00  0.00     0.049 A 
ATOM     59  H   UNL A   1      44.372  28.305  29.358  1.00  0.00     0.167 HD
ATOM     60  C   UNL A   1      42.994  30.723  29.937  1.00  0.00     0.074 A 
ATOM     61  C   UNL A   1      41.923  31.663  30.187  1.00  0.00     0.031 C 
ATOM     62  C   UNL A   1      44.310  31.009  30.077  1.00  0.00     0.037 A 
BRANCH  49  63
ATOM     63  C   UNL A   1      48.095  26.268  28.961  1.00  0.00     0.057 A 
ATOM     64  C   UNL A   1      48.727  25.717  30.083  1.00  0.00     0.134 A 
ATOM     65  C   UNL A   1      48.808  26.277  27.755  1.00  0.00     0.134 A 
ATOM     66  F   UNL A   1      48.102  25.689  31.270  1.00  0.00    -0.206 F 
ATOM     67  C   UNL A   1      50.025  25.208  30.014  1.00  0.00     0.040 A 
ATOM     68  C   UNL A   1      50.097  25.751  27.668  1.00  0.00     0.040 A 
ATOM     69  F   UNL A   1      48.258  26.787  26.643  1.00  0.00    -0.206 F 
ATOM     70  C   UNL A   1      50.711  25.218  28.801  1.00  0.00     0.006 A 
ENDBRANCH  49  63
BRANCH  50  71
ATOM     71  C   UNL A   1      38.574  29.269  29.251  1.00  0.00     0.057 A 
ATOM     72  C   UNL A   1      37.822  29.254  30.431  1.00  0.00     0.134 A 
ATOM     73  C   UNL A   1      37.949  29.746  28.092  1.00  0.00     0.134 A 
ATOM     74  F   UNL A   1      38.361  28.794  31.569  1.00  0.00    -0.206 F 
ATOM     75  C   UNL A   1      36.495  29.688  30.459  1.00  0.00     0.040 A 
ATOM     76  C   UNL A   1      36.629  30.201  28.110  1.00  0.00     0.040 A 
ATOM     77  F   UNL A   1      38.619  29.790  26.932  1.00  0.00    -0.206 F 
ATOM     78  C   UNL A   1      35.897  30.168  29.295  1.00  0.00     0.006 A 
ENDBRANCH  50  71
BRANCH  62  79
ATOM     79  C   UNL A   1      44.679  32.391  30.526  1.00  0.00     0.057 A 
ATOM     80  C   UNL A   1      44.858  32.689  31.883  1.00  0.00     0.134 A 
ATOM     81  C   UNL A   1      44.967  33.395  29.594  1.00  0.00     0.134 A 
ATOM     82  F   UNL A   1      44.589  31.770  32.822  1.00  0.00    -0.206 F 
ATOM     83  C   UNL A   1      45.315  33.940  32.296  1.00  0.00     0.040 A 
ATOM     84  C   UNL A   1      45.445  34.643  29.995  1.00  0.00     0.040 A 
ATOM     85  F   UNL A   1      44.826  33.166  28.280  1.00  0.00    -0.206 F 
ATOM     86  C   UNL A   1      45.622  34.916  31.350  1.00  0.00     0.006 A 
ENDBRANCH  62  79
ENDBRANCH  36  37
ENDBRANCH  28  31
ENDBRANCH  26  27
ENDBRANCH  25  26
ENDBRANCH   1  25
TORSDOF 14
ENDMDL
