MODEL 1
REMARK VINA RESULT:     -12.2      0.000      0.000
REMARK SMILES O=C(NCCCCCCNC(=O)[C@H]1Cc2c([nH]c3ccccc23)[C@@H](c2ccc(OC(F)(F)F)cc2)[NH2+]1)c1ccc(-c2c3nc(c(-c4c(F)cccc4F)c4ccc([nH]4)c(-c4c(F)cccc4F)c4nc(c(-c5c(F)cccc5F)c5ccc2[nH]5)C=C4)C=C3)cc1
REMARK SMILES IDX 7 1 6 2 5 3 4 4 3 5 1 6 2 7 37 9 38 10 90 11 39 12 89 13
REMARK SMILES IDX 40 14 41 15 42 16 83 17 43 18 88 19 82 20 84 21 44 22 87 23
REMARK SMILES IDX 81 24 80 25 45 27 71 28 54 29 70 30 55 31 58 32 69 33 85 34
REMARK SMILES IDX 56 35 57 36 68 38 86 39 59 40 46 41 47 42 52 43 48 44 49 45
REMARK SMILES IDX 51 46 53 47 50 48 72 49 73 50 78 51 74 52 75 53 77 54 79 55
REMARK SMILES IDX 76 56 60 57 61 58 66 59 62 60 63 61 65 62 67 63 64 64 8 65
REMARK SMILES IDX 9 66 10 67 11 68 12 70 13 71 14 72 36 73 15 74 24 75 16 78
REMARK SMILES IDX 23 79 17 80 18 81 22 82 19 84 21 85 20 86 25 87 26 88 35 89
REMARK SMILES IDX 27 90 34 91 28 92 29 93 30 94 31 95 32 96 33 97
REMARK H PARENT 3 8 84 26 58 37 10 69 36 76 36 77 17 83
REMARK Flexibility Score: inf
ROOT
ATOM      1  C   UNL A   1      34.749  21.064  25.582  1.00  0.00     0.002 C 
ENDROOT
BRANCH   1   2
ATOM      2  C   UNL A   1      35.914  20.251  25.005  1.00  0.00     0.002 C 
BRANCH   2   3
ATOM      3  C   UNL A   1      37.151  21.062  24.612  1.00  0.00     0.021 C 
BRANCH   3   4
ATOM      4  C   UNL A   1      38.181  21.213  25.723  1.00  0.00     0.116 C 
BRANCH   4   5
ATOM      5  N   UNL A   1      39.118  20.103  25.746  1.00  0.00    -0.352 N 
ATOM      6  O   UNL A   1      41.156  19.134  25.764  1.00  0.00    -0.269 OA
ATOM      7  C   UNL A   1      40.467  20.125  25.991  1.00  0.00     0.251 C 
ATOM      8  H   UNL A   1      38.734  19.217  25.559  1.00  0.00     0.163 HD
BRANCH   7   9
ATOM      9  C   UNL A   1      41.086  21.352  26.528  1.00  0.00     0.039 A 
ATOM     10  C   UNL A   1      41.522  22.357  25.660  1.00  0.00     0.014 A 
ATOM     11  C   UNL A   1      41.206  21.511  27.911  1.00  0.00     0.014 A 
ATOM     12  C   UNL A   1      42.174  23.473  26.169  1.00  0.00     0.010 A 
ATOM     13  C   UNL A   1      41.783  22.674  28.425  1.00  0.00     0.010 A 
ATOM     14  C   UNL A   1      42.276  23.660  27.556  1.00  0.00    -0.014 A 
BRANCH  14  15
ATOM     15  C   UNL A   1      42.788  24.953  28.070  1.00  0.00     0.031 A 
ATOM     16  C   UNL A   1      44.250  25.287  28.039  1.00  0.00     0.074 A 
ATOM     17  C   UNL A   1      41.893  25.833  28.562  1.00  0.00     0.049 A 
ATOM     18  N   UNL A   1      44.850  26.375  28.451  1.00  0.00    -0.248 NA
ATOM     19  C   UNL A   1      45.159  24.274  27.482  1.00  0.00     0.031 C 
ATOM     20  C   UNL A   1      40.448  25.600  28.658  1.00  0.00     0.029 A 
ATOM     21  N   UNL A   1      42.057  27.098  29.062  1.00  0.00    -0.354 N 
ATOM     22  C   UNL A   1      46.205  26.174  28.222  1.00  0.00     0.074 A 
ATOM     23  C   UNL A   1      46.343  24.851  27.649  1.00  0.00     0.031 C 
ATOM     24  C   UNL A   1      39.856  26.697  29.147  1.00  0.00     0.029 A 
ATOM     25  C   UNL A   1      40.880  27.684  29.464  1.00  0.00     0.049 A 
ATOM     26  H   UNL A   1      42.932  27.545  29.129  1.00  0.00     0.167 HD
ATOM     27  C   UNL A   1      47.232  27.021  28.467  1.00  0.00     0.037 A 
ATOM     28  C   UNL A   1      40.653  28.873  30.048  1.00  0.00     0.037 A 
ATOM     29  C   UNL A   1      47.079  28.342  29.025  1.00  0.00     0.049 A 
ATOM     30  C   UNL A   1      41.818  29.774  30.329  1.00  0.00     0.074 A 
ATOM     31  C   UNL A   1      48.054  29.295  29.262  1.00  0.00     0.029 A 
ATOM     32  N   UNL A   1      45.875  28.891  29.440  1.00  0.00    -0.354 N 
ATOM     33  N   UNL A   1      43.087  29.591  30.057  1.00  0.00    -0.248 NA
ATOM     34  C   UNL A   1      41.521  31.045  31.001  1.00  0.00     0.031 C 
ATOM     35  C   UNL A   1      47.449  30.400  29.867  1.00  0.00     0.029 A 
ATOM     36  C   UNL A   1      46.089  30.158  29.960  1.00  0.00     0.049 A 
ATOM     37  H   UNL A   1      44.998  28.448  29.375  1.00  0.00     0.167 HD
ATOM     38  C   UNL A   1      43.738  30.728  30.511  1.00  0.00     0.074 A 
ATOM     39  C   UNL A   1      42.720  31.607  31.050  1.00  0.00     0.031 C 
ATOM     40  C   UNL A   1      45.062  31.017  30.491  1.00  0.00     0.037 A 
BRANCH  27  41
ATOM     41  C   UNL A   1      48.624  26.554  28.151  1.00  0.00     0.057 A 
ATOM     42  C   UNL A   1      49.226  26.804  26.912  1.00  0.00     0.134 A 
ATOM     43  C   UNL A   1      49.402  25.927  29.134  1.00  0.00     0.134 A 
ATOM     44  F   UNL A   1      48.533  27.393  25.927  1.00  0.00    -0.206 F 
ATOM     45  C   UNL A   1      50.550  26.441  26.659  1.00  0.00     0.040 A 
ATOM     46  C   UNL A   1      50.733  25.579  28.899  1.00  0.00     0.040 A 
ATOM     47  F   UNL A   1      48.889  25.666  30.346  1.00  0.00    -0.206 F 
ATOM     48  C   UNL A   1      51.311  25.836  27.658  1.00  0.00     0.006 A 
ENDBRANCH  27  41
BRANCH  28  49
ATOM     49  C   UNL A   1      39.272  29.261  30.433  1.00  0.00     0.057 A 
ATOM     50  C   UNL A   1      38.464  30.017  29.576  1.00  0.00     0.134 A 
ATOM     51  C   UNL A   1      38.734  28.898  31.674  1.00  0.00     0.134 A 
ATOM     52  F   UNL A   1      38.929  30.408  28.380  1.00  0.00    -0.206 F 
ATOM     53  C   UNL A   1      37.181  30.417  29.948  1.00  0.00     0.040 A 
ATOM     54  C   UNL A   1      37.441  29.264  32.046  1.00  0.00     0.040 A 
ATOM     55  F   UNL A   1      39.454  28.166  32.537  1.00  0.00    -0.206 F 
ATOM     56  C   UNL A   1      36.664  30.037  31.185  1.00  0.00     0.006 A 
ENDBRANCH  28  49
BRANCH  40  57
ATOM     57  C   UNL A   1      45.473  32.349  31.047  1.00  0.00     0.057 A 
ATOM     58  C   UNL A   1      45.833  32.507  32.390  1.00  0.00     0.134 A 
ATOM     59  C   UNL A   1      45.523  33.480  30.223  1.00  0.00     0.134 A 
ATOM     60  F   UNL A   1      45.788  31.464  33.234  1.00  0.00    -0.206 F 
ATOM     61  C   UNL A   1      46.204  33.750  32.903  1.00  0.00     0.040 A 
ATOM     62  C   UNL A   1      45.920  34.723  30.717  1.00  0.00     0.040 A 
ATOM     63  F   UNL A   1      45.196  33.394  28.925  1.00  0.00    -0.206 F 
ATOM     64  C   UNL A   1      46.253  34.862  32.063  1.00  0.00     0.006 A 
ENDBRANCH  40  57
ENDBRANCH  14  15
ENDBRANCH   7   9
ENDBRANCH   4   5
ENDBRANCH   3   4
ENDBRANCH   2   3
ENDBRANCH   1   2
BRANCH   1  65
ATOM     65  C   UNL A   1      34.463  22.384  24.868  1.00  0.00     0.021 C 
BRANCH  65  66
ATOM     66  C   UNL A   1      34.410  23.589  25.798  1.00  0.00     0.116 C 
BRANCH  66  67
ATOM     67  N   UNL A   1      33.130  23.694  26.471  1.00  0.00    -0.351 N 
ATOM     68  C   UNL A   1      32.073  24.541  26.391  1.00  0.00     0.278 C 
ATOM     69  H   UNL A   1      32.997  22.987  27.144  1.00  0.00     0.163 HD
ATOM     70  O   UNL A   1      31.136  24.291  27.168  1.00  0.00    -0.268 OA
BRANCH  68  71
ATOM     71  C   UNL A   1      31.922  25.736  25.415  1.00  0.00     0.277 C 
ATOM     72  C   UNL A   1      30.505  26.239  25.163  1.00  0.00     0.114 C 
ATOM     73  N   UNL A   1      32.777  26.834  25.944  1.00  0.00    -0.325 N 
ATOM     74  C   UNL A   1      30.512  27.473  24.359  1.00  0.00    -0.006 A 
ATOM     75  C   UNL A   1      32.908  28.029  25.082  1.00  0.00     0.262 C 
ATOM     76  H   UNL A   1      33.712  26.454  26.097  1.00  0.00     0.347 HD
ATOM     77  H   UNL A   1      32.315  27.157  26.794  1.00  0.00     0.347 HD
ATOM     78  C   UNL A   1      31.622  28.285  24.335  1.00  0.00     0.083 A 
ATOM     79  C   UNL A   1      29.459  28.107  23.671  1.00  0.00     0.003 A 
ATOM     80  N   UNL A   1      31.314  29.357  23.534  1.00  0.00    -0.353 N 
ATOM     81  C   UNL A   1      29.974  29.307  23.181  1.00  0.00     0.046 A 
ATOM     82  C   UNL A   1      28.101  27.795  23.468  1.00  0.00     0.010 A 
ATOM     83  H   UNL A   1      31.947  30.057  23.253  1.00  0.00     0.166 HD
ATOM     84  C   UNL A   1      29.170  30.227  22.497  1.00  0.00     0.026 A 
ATOM     85  C   UNL A   1      27.287  28.708  22.797  1.00  0.00     0.001 A 
ATOM     86  C   UNL A   1      27.816  29.907  22.324  1.00  0.00     0.002 A 
BRANCH  75  87
ATOM     87  C   UNL A   1      33.356  29.171  25.996  1.00  0.00     0.016 A 
ATOM     88  C   UNL A   1      32.537  30.269  26.301  1.00  0.00     0.014 A 
ATOM     89  C   UNL A   1      34.581  29.063  26.677  1.00  0.00     0.014 A 
ATOM     90  C   UNL A   1      32.946  31.235  27.225  1.00  0.00     0.047 A 
ATOM     91  C   UNL A   1      34.974  30.014  27.629  1.00  0.00     0.047 A 
ATOM     92  C   UNL A   1      34.157  31.107  27.906  1.00  0.00     0.129 A 
BRANCH  92  93
ATOM     93  O   UNL A   1      34.406  32.105  28.804  1.00  0.00    -0.406 OA
BRANCH  93  94
ATOM     94  C   UNL A   1      35.203  33.193  28.373  1.00  0.00     0.573 C 
ATOM     95  F   UNL A   1      36.274  32.770  27.670  1.00  0.00    -0.132 F 
ATOM     96  F   UNL A   1      34.485  34.059  27.625  1.00  0.00    -0.132 F 
ATOM     97  F   UNL A   1      35.651  33.856  29.462  1.00  0.00    -0.132 F 
ENDBRANCH  93  94
ENDBRANCH  92  93
ENDBRANCH  75  87
ENDBRANCH  68  71
ENDBRANCH  66  67
ENDBRANCH  65  66
ENDBRANCH   1  65
TORSDOF 16
ENDMDL
MODEL 2
REMARK VINA RESULT:     -11.4      4.961      8.135
REMARK SMILES O=C(NCCCCCCNC(=O)[C@H]1Cc2c([nH]c3ccccc23)[C@@H](c2ccc(OC(F)(F)F)cc2)[NH2+]1)c1ccc(-c2c3nc(c(-c4c(F)cccc4F)c4ccc([nH]4)c(-c4c(F)cccc4F)c4nc(c(-c5c(F)cccc5F)c5ccc2[nH]5)C=C4)C=C3)cc1
REMARK SMILES IDX 7 1 6 2 5 3 4 4 3 5 1 6 2 7 37 9 38 10 90 11 39 12 89 13
REMARK SMILES IDX 40 14 41 15 42 16 83 17 43 18 88 19 82 20 84 21 44 22 87 23
REMARK SMILES IDX 81 24 80 25 45 27 71 28 54 29 70 30 55 31 58 32 69 33 85 34
REMARK SMILES IDX 56 35 57 36 68 38 86 39 59 40 46 41 47 42 52 43 48 44 49 45
REMARK SMILES IDX 51 46 53 47 50 48 72 49 73 50 78 51 74 52 75 53 77 54 79 55
REMARK SMILES IDX 76 56 60 57 61 58 66 59 62 60 63 61 65 62 67 63 64 64 8 65
REMARK SMILES IDX 9 66 10 67 11 68 12 70 13 71 14 72 36 73 15 74 24 75 16 78
REMARK SMILES IDX 23 79 17 80 18 81 22 82 19 84 21 85 20 86 25 87 26 88 35 89
REMARK SMILES IDX 27 90 34 91 28 92 29 93 30 94 31 95 32 96 33 97
REMARK H PARENT 3 8 84 26 58 37 10 69 36 76 36 77 17 83
REMARK Flexibility Score: inf
ROOT
ATOM      1  C   UNL A   1      41.335  24.666  27.218  1.00  0.00     0.002 C 
ENDROOT
BRANCH   1   2
ATOM      2  C   UNL A   1      41.839  25.155  25.854  1.00  0.00     0.002 C 
BRANCH   2   3
ATOM      3  C   UNL A   1      42.981  24.338  25.245  1.00  0.00     0.021 C 
BRANCH   3   4
ATOM      4  C   UNL A   1      43.363  23.100  26.043  1.00  0.00     0.116 C 
BRANCH   4   5
ATOM      5  N   UNL A   1      44.795  23.029  26.278  1.00  0.00    -0.352 N 
ATOM      6  O   UNL A   1      46.800  23.778  26.992  1.00  0.00    -0.269 OA
ATOM      7  C   UNL A   1      45.576  23.835  27.064  1.00  0.00     0.251 C 
ATOM      8  H   UNL A   1      45.268  22.304  25.809  1.00  0.00     0.163 HD
BRANCH   7   9
ATOM      9  C   UNL A   1      44.932  24.779  27.999  1.00  0.00     0.039 A 
ATOM     10  C   UNL A   1      44.279  24.303  29.139  1.00  0.00     0.014 A 
ATOM     11  C   UNL A   1      45.007  26.151  27.748  1.00  0.00     0.014 A 
ATOM     12  C   UNL A   1      43.611  25.191  29.972  1.00  0.00     0.010 A 
ATOM     13  C   UNL A   1      44.408  27.049  28.634  1.00  0.00     0.010 A 
ATOM     14  C   UNL A   1      43.701  26.573  29.749  1.00  0.00    -0.014 A 
BRANCH  14  15
ATOM     15  C   UNL A   1      43.153  27.502  30.767  1.00  0.00     0.031 A 
ATOM     16  C   UNL A   1      43.829  27.703  32.091  1.00  0.00     0.074 A 
ATOM     17  C   UNL A   1      42.026  28.176  30.462  1.00  0.00     0.049 A 
ATOM     18  N   UNL A   1      43.471  28.478  33.083  1.00  0.00    -0.248 NA
ATOM     19  C   UNL A   1      45.056  26.933  32.343  1.00  0.00     0.031 C 
ATOM     20  C   UNL A   1      41.276  28.039  29.209  1.00  0.00     0.029 A 
ATOM     21  N   UNL A   1      41.318  29.112  31.169  1.00  0.00    -0.354 N 
ATOM     22  C   UNL A   1      44.415  28.281  34.082  1.00  0.00     0.074 A 
ATOM     23  C   UNL A   1      45.355  27.297  33.585  1.00  0.00     0.031 C 
ATOM     24  C   UNL A   1      40.240  28.888  29.220  1.00  0.00     0.029 A 
ATOM     25  C   UNL A   1      40.210  29.577  30.504  1.00  0.00     0.049 A 
ATOM     26  H   UNL A   1      41.578  29.422  32.066  1.00  0.00     0.167 HD
ATOM     27  C   UNL A   1      44.487  28.871  35.298  1.00  0.00     0.037 A 
ATOM     28  C   UNL A   1      39.257  30.441  30.894  1.00  0.00     0.037 A 
ATOM     29  C   UNL A   1      43.553  29.861  35.775  1.00  0.00     0.049 A 
ATOM     30  C   UNL A   1      39.354  31.056  32.258  1.00  0.00     0.074 A 
ATOM     31  C   UNL A   1      43.571  30.555  36.972  1.00  0.00     0.029 A 
ATOM     32  N   UNL A   1      42.430  30.288  35.083  1.00  0.00    -0.354 N 
ATOM     33  N   UNL A   1      40.282  30.899  33.169  1.00  0.00    -0.248 NA
ATOM     34  C   UNL A   1      38.269  31.965  32.650  1.00  0.00     0.031 C 
ATOM     35  C   UNL A   1      42.433  31.365  37.027  1.00  0.00     0.029 A 
ATOM     36  C   UNL A   1      41.732  31.215  35.842  1.00  0.00     0.049 A 
ATOM     37  H   UNL A   1      42.167  29.981  34.185  1.00  0.00     0.167 HD
ATOM     38  C   UNL A   1      39.903  31.698  34.236  1.00  0.00     0.074 A 
ATOM     39  C   UNL A   1      38.675  32.361  33.848  1.00  0.00     0.031 C 
ATOM     40  C   UNL A   1      40.512  31.864  35.436  1.00  0.00     0.037 A 
BRANCH  27  41
ATOM     41  C   UNL A   1      45.601  28.463  36.217  1.00  0.00     0.057 A 
ATOM     42  C   UNL A   1      45.473  27.391  37.108  1.00  0.00     0.134 A 
ATOM     43  C   UNL A   1      46.850  29.096  36.144  1.00  0.00     0.134 A 
ATOM     44  F   UNL A   1      44.302  26.747  37.232  1.00  0.00    -0.206 F 
ATOM     45  C   UNL A   1      46.544  26.966  37.898  1.00  0.00     0.040 A 
ATOM     46  C   UNL A   1      47.933  28.667  36.912  1.00  0.00     0.040 A 
ATOM     47  F   UNL A   1      47.043  30.126  35.305  1.00  0.00    -0.206 F 
ATOM     48  C   UNL A   1      47.781  27.598  37.792  1.00  0.00     0.006 A 
ENDBRANCH  27  41
BRANCH  28  49
ATOM     49  C   UNL A   1      38.117  30.749  29.993  1.00  0.00     0.057 A 
ATOM     50  C   UNL A   1      37.069  29.840  29.809  1.00  0.00     0.134 A 
ATOM     51  C   UNL A   1      38.057  31.956  29.283  1.00  0.00     0.134 A 
ATOM     52  F   UNL A   1      37.078  28.662  30.450  1.00  0.00    -0.206 F 
ATOM     53  C   UNL A   1      36.016  30.109  28.935  1.00  0.00     0.040 A 
ATOM     54  C   UNL A   1      36.994  32.250  28.430  1.00  0.00     0.040 A 
ATOM     55  F   UNL A   1      39.025  32.873  29.422  1.00  0.00    -0.206 F 
ATOM     56  C   UNL A   1      35.974  31.319  28.245  1.00  0.00     0.006 A 
ENDBRANCH  28  49
BRANCH  40  57
ATOM     57  C   UNL A   1      39.867  32.819  36.396  1.00  0.00     0.057 A 
ATOM     58  C   UNL A   1      40.254  34.163  36.469  1.00  0.00     0.134 A 
ATOM     59  C   UNL A   1      38.839  32.393  37.245  1.00  0.00     0.134 A 
ATOM     60  F   UNL A   1      41.246  34.629  35.694  1.00  0.00    -0.206 F 
ATOM     61  C   UNL A   1      39.658  35.044  37.371  1.00  0.00     0.040 A 
ATOM     62  C   UNL A   1      38.215  33.271  38.132  1.00  0.00     0.040 A 
ATOM     63  F   UNL A   1      38.418  31.119  37.219  1.00  0.00    -0.206 F 
ATOM     64  C   UNL A   1      38.630  34.599  38.202  1.00  0.00     0.006 A 
ENDBRANCH  40  57
ENDBRANCH  14  15
ENDBRANCH   7   9
ENDBRANCH   4   5
ENDBRANCH   3   4
ENDBRANCH   2   3
ENDBRANCH   1   2
BRANCH   1  65
ATOM     65  C   UNL A   1      40.100  25.390  27.750  1.00  0.00     0.021 C 
BRANCH  65  66
ATOM     66  C   UNL A   1      38.802  24.976  27.068  1.00  0.00     0.116 C 
BRANCH  66  67
ATOM     67  N   UNL A   1      38.928  23.693  26.405  1.00  0.00    -0.351 N 
ATOM     68  C   UNL A   1      38.058  22.824  25.829  1.00  0.00     0.278 C 
ATOM     69  H   UNL A   1      39.859  23.378  26.362  1.00  0.00     0.163 HD
ATOM     70  O   UNL A   1      38.573  21.795  25.359  1.00  0.00    -0.268 OA
BRANCH  68  71
ATOM     71  C   UNL A   1      36.527  23.017  25.678  1.00  0.00     0.277 C 
ATOM     72  C   UNL A   1      36.053  23.802  24.461  1.00  0.00     0.114 C 
ATOM     73  N   UNL A   1      35.919  21.659  25.691  1.00  0.00    -0.325 N 
ATOM     74  C   UNL A   1      34.585  23.771  24.343  1.00  0.00    -0.006 A 
ATOM     75  C   UNL A   1      34.440  21.609  25.714  1.00  0.00     0.262 C 
ATOM     76  H   UNL A   1      36.261  21.172  26.520  1.00  0.00     0.347 HD
ATOM     77  H   UNL A   1      36.195  21.227  24.809  1.00  0.00     0.347 HD
ATOM     78  C   UNL A   1      33.861  22.755  24.922  1.00  0.00     0.083 A 
ATOM     79  C   UNL A   1      33.726  24.567  23.561  1.00  0.00     0.003 A 
ATOM     80  N   UNL A   1      32.541  22.983  24.615  1.00  0.00    -0.353 N 
ATOM     81  C   UNL A   1      32.445  24.039  23.722  1.00  0.00     0.046 A 
ATOM     82  C   UNL A   1      33.929  25.653  22.689  1.00  0.00     0.010 A 
ATOM     83  H   UNL A   1      31.779  22.473  24.973  1.00  0.00     0.166 HD
ATOM     84  C   UNL A   1      31.345  24.555  23.025  1.00  0.00     0.026 A 
ATOM     85  C   UNL A   1      32.844  26.169  21.982  1.00  0.00     0.001 A 
ATOM     86  C   UNL A   1      31.573  25.624  22.146  1.00  0.00     0.002 A 
BRANCH  75  87
ATOM     87  C   UNL A   1      34.049  20.219  25.209  1.00  0.00     0.016 A 
ATOM     88  C   UNL A   1      34.993  19.252  24.830  1.00  0.00     0.014 A 
ATOM     89  C   UNL A   1      32.699  19.829  25.253  1.00  0.00     0.014 A 
ATOM     90  C   UNL A   1      34.595  17.959  24.478  1.00  0.00     0.047 A 
ATOM     91  C   UNL A   1      32.305  18.522  24.933  1.00  0.00     0.047 A 
ATOM     92  C   UNL A   1      33.254  17.581  24.541  1.00  0.00     0.129 A 
BRANCH  92  93
ATOM     93  O   UNL A   1      33.020  16.279  24.204  1.00  0.00    -0.406 OA
BRANCH  93  94
ATOM     94  C   UNL A   1      32.991  15.324  25.249  1.00  0.00     0.573 C 
ATOM     95  F   UNL A   1      34.208  14.774  25.447  1.00  0.00    -0.132 F 
ATOM     96  F   UNL A   1      32.551  15.875  26.401  1.00  0.00    -0.132 F 
ATOM     97  F   UNL A   1      32.135  14.336  24.907  1.00  0.00    -0.132 F 
ENDBRANCH  93  94
ENDBRANCH  92  93
ENDBRANCH  75  87
ENDBRANCH  68  71
ENDBRANCH  66  67
ENDBRANCH  65  66
ENDBRANCH   1  65
TORSDOF 16
ENDMDL
MODEL 3
REMARK VINA RESULT:     -11.4      5.443     11.783
REMARK SMILES O=C(NCCCCCCNC(=O)[C@H]1Cc2c([nH]c3ccccc23)[C@@H](c2ccc(OC(F)(F)F)cc2)[NH2+]1)c1ccc(-c2c3nc(c(-c4c(F)cccc4F)c4ccc([nH]4)c(-c4c(F)cccc4F)c4nc(c(-c5c(F)cccc5F)c5ccc2[nH]5)C=C4)C=C3)cc1
REMARK SMILES IDX 7 1 6 2 5 3 4 4 3 5 1 6 2 7 37 9 38 10 90 11 39 12 89 13
REMARK SMILES IDX 40 14 41 15 42 16 83 17 43 18 88 19 82 20 84 21 44 22 87 23
REMARK SMILES IDX 81 24 80 25 45 27 71 28 54 29 70 30 55 31 58 32 69 33 85 34
REMARK SMILES IDX 56 35 57 36 68 38 86 39 59 40 46 41 47 42 52 43 48 44 49 45
REMARK SMILES IDX 51 46 53 47 50 48 72 49 73 50 78 51 74 52 75 53 77 54 79 55
REMARK SMILES IDX 76 56 60 57 61 58 66 59 62 60 63 61 65 62 67 63 64 64 8 65
REMARK SMILES IDX 9 66 10 67 11 68 12 70 13 71 14 72 36 73 15 74 24 75 16 78
REMARK SMILES IDX 23 79 17 80 18 81 22 82 19 84 21 85 20 86 25 87 26 88 35 89
REMARK SMILES IDX 27 90 34 91 28 92 29 93 30 94 31 95 32 96 33 97
REMARK H PARENT 3 8 84 26 58 37 10 69 36 76 36 77 17 83
REMARK Flexibility Score: inf
ROOT
ATOM      1  C   UNL A   1      47.947  27.368  31.289  1.00  0.00     0.002 C 
ENDROOT
BRANCH   1   2
ATOM      2  C   UNL A   1      48.565  26.128  31.949  1.00  0.00     0.002 C 
BRANCH   2   3
ATOM      3  C   UNL A   1      48.969  26.297  33.415  1.00  0.00     0.021 C 
BRANCH   3   4
ATOM      4  C   UNL A   1      47.976  25.714  34.411  1.00  0.00     0.116 C 
BRANCH   4   5
ATOM      5  N   UNL A   1      48.109  26.320  35.724  1.00  0.00    -0.352 N 
ATOM      6  O   UNL A   1      47.818  27.921  37.288  1.00  0.00    -0.269 OA
ATOM      7  C   UNL A   1      47.442  27.401  36.242  1.00  0.00     0.251 C 
ATOM      8  H   UNL A   1      48.766  25.900  36.323  1.00  0.00     0.163 HD
BRANCH   7   9
ATOM      9  C   UNL A   1      46.268  27.938  35.527  1.00  0.00     0.039 A 
ATOM     10  C   UNL A   1      44.977  27.623  35.961  1.00  0.00     0.014 A 
ATOM     11  C   UNL A   1      46.458  28.784  34.432  1.00  0.00     0.014 A 
ATOM     12  C   UNL A   1      43.878  28.069  35.238  1.00  0.00     0.010 A 
ATOM     13  C   UNL A   1      45.351  29.303  33.759  1.00  0.00     0.010 A 
ATOM     14  C   UNL A   1      44.053  28.943  34.154  1.00  0.00    -0.014 A 
BRANCH  14  15
ATOM     15  C   UNL A   1      42.859  29.565  33.533  1.00  0.00     0.031 A 
ATOM     16  C   UNL A   1      42.275  29.040  32.255  1.00  0.00     0.074 A 
ATOM     17  C   UNL A   1      42.300  30.619  34.162  1.00  0.00     0.049 A 
ATOM     18  N   UNL A   1      41.236  29.477  31.589  1.00  0.00    -0.248 NA
ATOM     19  C   UNL A   1      42.942  27.885  31.636  1.00  0.00     0.031 C 
ATOM     20  C   UNL A   1      42.800  31.222  35.401  1.00  0.00     0.029 A 
ATOM     21  N   UNL A   1      41.190  31.363  33.858  1.00  0.00    -0.354 N 
ATOM     22  C   UNL A   1      41.132  28.666  30.468  1.00  0.00     0.074 A 
ATOM     23  C   UNL A   1      42.225  27.718  30.531  1.00  0.00     0.031 C 
ATOM     24  C   UNL A   1      41.981  32.215  35.771  1.00  0.00     0.029 A 
ATOM     25  C   UNL A   1      40.939  32.365  34.763  1.00  0.00     0.049 A 
ATOM     26  H   UNL A   1      40.627  31.196  33.067  1.00  0.00     0.167 HD
ATOM     27  C   UNL A   1      40.205  28.711  29.482  1.00  0.00     0.037 A 
ATOM     28  C   UNL A   1      39.992  33.318  34.768  1.00  0.00     0.037 A 
ATOM     29  C   UNL A   1      39.112  29.651  29.440  1.00  0.00     0.049 A 
ATOM     30  C   UNL A   1      38.998  33.355  33.647  1.00  0.00     0.074 A 
ATOM     31  C   UNL A   1      38.091  29.742  28.509  1.00  0.00     0.029 A 
ATOM     32  N   UNL A   1      38.904  30.665  30.362  1.00  0.00    -0.354 N 
ATOM     33  N   UNL A   1      38.881  32.547  32.621  1.00  0.00    -0.248 NA
ATOM     34  C   UNL A   1      38.006  34.437  33.679  1.00  0.00     0.031 C 
ATOM     35  C   UNL A   1      37.295  30.843  28.839  1.00  0.00     0.029 A 
ATOM     36  C   UNL A   1      37.788  31.406  30.004  1.00  0.00     0.049 A 
ATOM     37  H   UNL A   1      39.464  30.835  31.153  1.00  0.00     0.167 HD
ATOM     38  C   UNL A   1      37.796  33.013  31.895  1.00  0.00     0.074 A 
ATOM     39  C   UNL A   1      37.272  34.157  32.612  1.00  0.00     0.031 C 
ATOM     40  C   UNL A   1      37.282  32.542  30.732  1.00  0.00     0.037 A 
BRANCH  27  41
ATOM     41  C   UNL A   1      40.326  27.730  28.352  1.00  0.00     0.057 A 
ATOM     42  C   UNL A   1      41.067  28.015  27.200  1.00  0.00     0.134 A 
ATOM     43  C   UNL A   1      39.767  26.449  28.462  1.00  0.00     0.134 A 
ATOM     44  F   UNL A   1      41.621  29.225  27.030  1.00  0.00    -0.206 F 
ATOM     45  C   UNL A   1      41.244  27.063  26.192  1.00  0.00     0.040 A 
ATOM     46  C   UNL A   1      39.954  25.483  27.472  1.00  0.00     0.040 A 
ATOM     47  F   UNL A   1      39.051  26.108  29.544  1.00  0.00    -0.206 F 
ATOM     48  C   UNL A   1      40.696  25.790  26.333  1.00  0.00     0.006 A 
ENDBRANCH  27  41
BRANCH  28  49
ATOM     49  C   UNL A   1      39.960  34.331  35.854  1.00  0.00     0.057 A 
ATOM     50  C   UNL A   1      39.227  34.117  37.026  1.00  0.00     0.134 A 
ATOM     51  C   UNL A   1      40.653  35.543  35.738  1.00  0.00     0.134 A 
ATOM     52  F   UNL A   1      38.530  32.983  37.190  1.00  0.00    -0.206 F 
ATOM     53  C   UNL A   1      39.162  35.082  38.032  1.00  0.00     0.040 A 
ATOM     54  C   UNL A   1      40.623  36.503  36.749  1.00  0.00     0.040 A 
ATOM     55  F   UNL A   1      41.382  35.805  34.644  1.00  0.00    -0.206 F 
ATOM     56  C   UNL A   1      39.866  36.277  37.897  1.00  0.00     0.006 A 
ENDBRANCH  28  49
BRANCH  40  57
ATOM     57  C   UNL A   1      36.079  33.252  30.186  1.00  0.00     0.057 A 
ATOM     58  C   UNL A   1      34.809  33.092  30.753  1.00  0.00     0.134 A 
ATOM     59  C   UNL A   1      36.197  34.116  29.091  1.00  0.00     0.134 A 
ATOM     60  F   UNL A   1      34.628  32.264  31.794  1.00  0.00    -0.206 F 
ATOM     61  C   UNL A   1      33.693  33.747  30.234  1.00  0.00     0.040 A 
ATOM     62  C   UNL A   1      35.093  34.799  28.580  1.00  0.00     0.040 A 
ATOM     63  F   UNL A   1      37.388  34.317  28.506  1.00  0.00    -0.206 F 
ATOM     64  C   UNL A   1      33.835  34.609  29.147  1.00  0.00     0.006 A 
ENDBRANCH  40  57
ENDBRANCH  14  15
ENDBRANCH   7   9
ENDBRANCH   4   5
ENDBRANCH   3   4
ENDBRANCH   2   3
ENDBRANCH   1   2
BRANCH   1  65
ATOM     65  C   UNL A   1      48.708  27.904  30.078  1.00  0.00     0.021 C 
BRANCH  65  66
ATOM     66  C   UNL A   1      47.999  27.665  28.751  1.00  0.00     0.116 C 
BRANCH  66  67
ATOM     67  N   UNL A   1      48.375  26.396  28.160  1.00  0.00    -0.351 N 
ATOM     68  C   UNL A   1      47.717  25.248  27.857  1.00  0.00     0.278 C 
ATOM     69  H   UNL A   1      49.330  26.355  27.924  1.00  0.00     0.163 HD
ATOM     70  O   UNL A   1      48.416  24.356  27.349  1.00  0.00    -0.268 OA
BRANCH  68  71
ATOM     71  C   UNL A   1      46.202  24.977  28.051  1.00  0.00     0.277 C 
ATOM     72  C   UNL A   1      45.654  23.691  27.443  1.00  0.00     0.114 C 
ATOM     73  N   UNL A   1      45.943  25.012  29.516  1.00  0.00    -0.325 N 
ATOM     74  C   UNL A   1      44.253  23.469  27.838  1.00  0.00    -0.006 A 
ATOM     75  C   UNL A   1      44.524  24.929  29.927  1.00  0.00     0.262 C 
ATOM     76  H   UNL A   1      46.323  25.886  29.879  1.00  0.00     0.347 HD
ATOM     77  H   UNL A   1      46.388  24.175  29.893  1.00  0.00     0.347 HD
ATOM     78  C   UNL A   1      43.751  24.042  28.982  1.00  0.00     0.083 A 
ATOM     79  C   UNL A   1      43.293  22.588  27.301  1.00  0.00     0.003 A 
ATOM     80  N   UNL A   1      42.446  23.629  29.096  1.00  0.00    -0.353 N 
ATOM     81  C   UNL A   1      42.170  22.681  28.123  1.00  0.00     0.046 A 
ATOM     82  C   UNL A   1      43.299  21.681  26.225  1.00  0.00     0.010 A 
ATOM     83  H   UNL A   1      41.803  23.955  29.766  1.00  0.00     0.166 HD
ATOM     84  C   UNL A   1      41.039  21.881  27.914  1.00  0.00     0.026 A 
ATOM     85  C   UNL A   1      42.183  20.871  26.012  1.00  0.00     0.001 A 
ATOM     86  C   UNL A   1      41.073  20.969  26.849  1.00  0.00     0.002 A 
BRANCH  75  87
ATOM     87  C   UNL A   1      44.525  24.466  31.385  1.00  0.00     0.016 A 
ATOM     88  C   UNL A   1      44.863  25.312  32.453  1.00  0.00     0.014 A 
ATOM     89  C   UNL A   1      44.034  23.186  31.697  1.00  0.00     0.014 A 
ATOM     90  C   UNL A   1      44.747  24.878  33.777  1.00  0.00     0.047 A 
ATOM     91  C   UNL A   1      43.885  22.766  33.027  1.00  0.00     0.047 A 
ATOM     92  C   UNL A   1      44.244  23.611  34.073  1.00  0.00     0.129 A 
BRANCH  92  93
ATOM     93  O   UNL A   1      44.153  23.341  35.409  1.00  0.00    -0.406 OA
BRANCH  93  94
ATOM     94  C   UNL A   1      45.189  22.577  35.997  1.00  0.00     0.573 C 
ATOM     95  F   UNL A   1      45.317  22.851  37.312  1.00  0.00    -0.132 F 
ATOM     96  F   UNL A   1      44.976  21.254  35.830  1.00  0.00    -0.132 F 
ATOM     97  F   UNL A   1      46.354  22.891  35.388  1.00  0.00    -0.132 F 
ENDBRANCH  93  94
ENDBRANCH  92  93
ENDBRANCH  75  87
ENDBRANCH  68  71
ENDBRANCH  66  67
ENDBRANCH  65  66
ENDBRANCH   1  65
TORSDOF 16
ENDMDL
