MODEL 1
REMARK VINA RESULT:     -13.2      0.000      0.000
REMARK SMILES COc1ccc(C2=NN(C(=O)CCC(=O)NCCCCCCNC(=O)c3ccc(-c4c5nc(c(-c6c(F)cccc6F)c6ccc([nH]6)c(-c6c(F)cccc6F)c6nc(c(-c7c(F)cccc7F)c7ccc4[nH]7)C=C6)C=C5)cc3)[C@H](c3ccc(Cl)cc3Cl)C2)cc1
REMARK SMILES IDX 18 1 17 2 16 3 14 4 15 5 13 7 12 8 10 9 11 10 9 11 7 12 8 13
REMARK SMILES IDX 89 14 80 15 6 16 3 17 4 18 91 19 5 20 90 21 2 22 1 23 81 24
REMARK SMILES IDX 82 25 87 26 83 27 86 28 88 29 84 30 85 31 19 32 20 33 21 34
REMARK SMILES IDX 22 35 23 36 24 37 25 39 26 40 27 41 79 42 28 43 78 44 29 45
REMARK SMILES IDX 30 46 31 47 72 48 32 49 77 50 71 51 73 52 33 53 76 54 70 55
REMARK SMILES IDX 69 56 34 58 60 59 43 60 59 61 44 62 47 63 58 64 74 65 45 66
REMARK SMILES IDX 46 67 57 69 75 70 48 71 35 72 36 73 41 74 37 75 38 76 40 77
REMARK SMILES IDX 42 78 39 79 61 80 62 81 67 82 63 83 64 84 66 85 68 86 65 87
REMARK SMILES IDX 49 88 50 89 55 90 51 91 52 92 54 93 56 94 53 95
REMARK H PARENT 16 6 23 38 73 57 47 68
REMARK Flexibility Score: inf
ROOT
ATOM      1  C   UNL A   1      43.017  19.605  25.274  1.00  0.00     0.021 C 
ENDROOT
BRANCH   1   2
ATOM      2  C   UNL A   1      41.196  20.460  26.252  1.00  0.00     0.116 C 
BRANCH   2   3
ATOM      3  N   UNL A   1      40.645  21.943  26.431  1.00  0.00    -0.356 N 
ATOM      4  C   UNL A   1      39.472  22.631  26.320  1.00  0.00     0.220 C 
ATOM      5  O   UNL A   1      39.526  23.796  26.743  1.00  0.00    -0.275 OA
ATOM      6  H   UNL A   1      41.372  22.548  26.705  1.00  0.00     0.163 HD
BRANCH   4   7
ATOM      7  C   UNL A   1      38.123  22.122  25.803  1.00  0.00     0.110 C 
BRANCH   7   8
ATOM      8  C   UNL A   1      36.807  22.697  26.293  1.00  0.00     0.112 C 
BRANCH   8   9
ATOM      9  C   UNL A   1      36.172  23.302  25.102  1.00  0.00     0.243 C 
ATOM     10  O   UNL A   1      36.790  23.551  24.076  1.00  0.00    -0.273 OA
BRANCH   9  11
ATOM     11  N   UNL A   1      34.865  23.617  25.375  1.00  0.00    -0.225 N 
ATOM     12  C   UNL A   1      32.825  25.719  25.661  1.00  0.00     0.071 C 
ATOM     13  N   UNL A   1      34.378  25.492  25.480  1.00  0.00    -0.174 NA
ATOM     14  C   UNL A   1      31.879  24.036  26.017  1.00  0.00     0.091 C 
ATOM     15  C   UNL A   1      33.199  22.597  25.714  1.00  0.00     0.149 C 
BRANCH  12  16
ATOM     16  C   UNL A   1      31.998  26.852  25.030  1.00  0.00    -0.002 A 
ATOM     17  C   UNL A   1      30.759  28.941  23.507  1.00  0.00     0.118 A 
ATOM     18  C   UNL A   1      30.813  27.648  23.012  1.00  0.00     0.047 A 
ATOM     19  C   UNL A   1      31.269  29.174  24.788  1.00  0.00     0.047 A 
ATOM     20  C   UNL A   1      31.402  26.623  23.766  1.00  0.00     0.014 A 
ATOM     21  C   UNL A   1      31.903  28.141  25.543  1.00  0.00     0.014 A 
BRANCH  17  22
ATOM     22  O   UNL A   1      30.199  29.838  22.641  1.00  0.00    -0.497 OA
ATOM     23  C   UNL A   1      28.849  29.656  22.234  1.00  0.00     0.278 C 
ENDBRANCH  17  22
ENDBRANCH  12  16
BRANCH  15  24
ATOM     24  C   UNL A   1      32.620  21.396  24.883  1.00  0.00    -0.004 A 
ATOM     25  C   UNL A   1      32.763  20.079  25.383  1.00  0.00     0.009 A 
ATOM     26  C   UNL A   1      32.366  21.489  23.487  1.00  0.00     0.047 A 
ATOM     27  C   UNL A   1      32.686  18.948  24.557  1.00  0.00     0.021 A 
ATOM     28  C   UNL A   1      32.192  20.349  22.681  1.00  0.00     0.041 A 
ATOM     29  Cl  UNL A   1      32.508  22.948  22.568  1.00  0.00    -0.084 Cl
ATOM     30  C   UNL A   1      32.385  19.085  23.212  1.00  0.00     0.042 A 
ATOM     31  Cl  UNL A   1      32.339  17.706  22.189  1.00  0.00    -0.084 Cl
ENDBRANCH  15  24
ENDBRANCH   9  11
ENDBRANCH   8   9
ENDBRANCH   7   8
ENDBRANCH   4   7
ENDBRANCH   2   3
ENDBRANCH   1   2
BRANCH   1  32
ATOM     32  C   UNL A   1      44.774  20.197  25.642  1.00  0.00     0.002 C 
BRANCH  32  33
ATOM     33  C   UNL A   1      45.519  21.363  24.803  1.00  0.00     0.002 C 
BRANCH  33  34
ATOM     34  C   UNL A   1      44.772  22.217  23.806  1.00  0.00     0.021 C 
BRANCH  34  35
ATOM     35  C   UNL A   1      44.025  23.343  24.457  1.00  0.00     0.116 C 
BRANCH  35  36
ATOM     36  N   UNL A   1      44.940  24.179  25.236  1.00  0.00    -0.352 N 
ATOM     37  C   UNL A   1      44.929  25.549  25.184  1.00  0.00     0.251 C 
ATOM     38  H   UNL A   1      45.596  23.737  25.824  1.00  0.00     0.163 HD
ATOM     39  O   UNL A   1      45.876  26.199  24.764  1.00  0.00    -0.269 OA
BRANCH  37  40
ATOM     40  C   UNL A   1      43.666  26.178  25.609  1.00  0.00     0.039 A 
ATOM     41  C   UNL A   1      42.706  25.418  26.269  1.00  0.00     0.014 A 
ATOM     42  C   UNL A   1      43.626  27.569  25.610  1.00  0.00     0.014 A 
ATOM     43  C   UNL A   1      41.868  26.071  27.155  1.00  0.00     0.010 A 
ATOM     44  C   UNL A   1      43.026  28.156  26.686  1.00  0.00     0.010 A 
ATOM     45  C   UNL A   1      42.156  27.406  27.476  1.00  0.00    -0.014 A 
BRANCH  45  46
ATOM     46  C   UNL A   1      41.663  28.004  28.721  1.00  0.00     0.031 A 
ATOM     47  C   UNL A   1      42.406  27.754  29.992  1.00  0.00     0.074 A 
ATOM     48  C   UNL A   1      40.494  28.672  28.674  1.00  0.00     0.049 A 
ATOM     49  N   UNL A   1      42.154  28.215  31.184  1.00  0.00    -0.248 NA
ATOM     50  C   UNL A   1      43.552  26.822  29.941  1.00  0.00     0.031 C 
ATOM     51  C   UNL A   1      39.634  28.807  27.487  1.00  0.00     0.029 A 
ATOM     52  N   UNL A   1      39.834  29.387  29.632  1.00  0.00    -0.354 N 
ATOM     53  C   UNL A   1      43.102  27.630  32.008  1.00  0.00     0.074 A 
ATOM     54  C   UNL A   1      43.859  26.694  31.219  1.00  0.00     0.031 C 
ATOM     55  C   UNL A   1      38.625  29.645  27.762  1.00  0.00     0.029 A 
ATOM     56  C   UNL A   1      38.729  30.052  29.154  1.00  0.00     0.049 A 
ATOM     57  H   UNL A   1      40.121  29.423  30.573  1.00  0.00     0.167 HD
ATOM     58  C   UNL A   1      43.348  27.905  33.306  1.00  0.00     0.037 A 
ATOM     59  C   UNL A   1      37.911  30.911  29.784  1.00  0.00     0.037 A 
ATOM     60  C   UNL A   1      42.577  28.860  34.047  1.00  0.00     0.049 A 
ATOM     61  C   UNL A   1      38.227  31.223  31.218  1.00  0.00     0.074 A 
ATOM     62  C   UNL A   1      42.746  29.282  35.348  1.00  0.00     0.029 A 
ATOM     63  N   UNL A   1      41.475  29.536  33.535  1.00  0.00    -0.354 N 
ATOM     64  N   UNL A   1      39.205  30.762  31.966  1.00  0.00    -0.248 NA
ATOM     65  C   UNL A   1      37.343  32.174  31.895  1.00  0.00     0.031 C 
ATOM     66  C   UNL A   1      41.705  30.167  35.646  1.00  0.00     0.029 A 
ATOM     67  C   UNL A   1      40.931  30.352  34.508  1.00  0.00     0.049 A 
ATOM     68  H   UNL A   1      41.134  29.448  32.617  1.00  0.00     0.167 HD
ATOM     69  C   UNL A   1      39.063  31.378  33.200  1.00  0.00     0.074 A 
ATOM     70  C   UNL A   1      37.927  32.273  33.080  1.00  0.00     0.031 C 
ATOM     71  C   UNL A   1      39.792  31.219  34.334  1.00  0.00     0.037 A 
BRANCH  58  72
ATOM     72  C   UNL A   1      44.477  27.169  33.962  1.00  0.00     0.057 A 
ATOM     73  C   UNL A   1      45.790  27.662  33.960  1.00  0.00     0.134 A 
ATOM     74  C   UNL A   1      44.254  25.937  34.586  1.00  0.00     0.134 A 
ATOM     75  F   UNL A   1      46.082  28.821  33.349  1.00  0.00    -0.206 F 
ATOM     76  C   UNL A   1      46.843  26.945  34.532  1.00  0.00     0.040 A 
ATOM     77  C   UNL A   1      45.292  25.227  35.190  1.00  0.00     0.040 A 
ATOM     78  F   UNL A   1      43.025  25.397  34.609  1.00  0.00    -0.206 F 
ATOM     79  C   UNL A   1      46.591  25.728  35.158  1.00  0.00     0.006 A 
ENDBRANCH  58  72
BRANCH  59  80
ATOM     80  C   UNL A   1      36.769  31.539  29.070  1.00  0.00     0.057 A 
ATOM     81  C   UNL A   1      36.808  32.878  28.661  1.00  0.00     0.134 A 
ATOM     82  C   UNL A   1      35.605  30.817  28.778  1.00  0.00     0.134 A 
ATOM     83  F   UNL A   1      37.892  33.629  28.908  1.00  0.00    -0.206 F 
ATOM     84  C   UNL A   1      35.722  33.483  28.024  1.00  0.00     0.040 A 
ATOM     85  C   UNL A   1      34.525  31.399  28.113  1.00  0.00     0.040 A 
ATOM     86  F   UNL A   1      35.507  29.524  29.121  1.00  0.00    -0.206 F 
ATOM     87  C   UNL A   1      34.576  32.742  27.746  1.00  0.00     0.006 A 
ENDBRANCH  59  80
BRANCH  71  88
ATOM     88  C   UNL A   1      39.380  32.052  35.508  1.00  0.00     0.057 A 
ATOM     89  C   UNL A   1      39.855  33.356  35.692  1.00  0.00     0.134 A 
ATOM     90  C   UNL A   1      38.476  31.547  36.450  1.00  0.00     0.134 A 
ATOM     91  F   UNL A   1      40.732  33.890  34.828  1.00  0.00    -0.206 F 
ATOM     92  C   UNL A   1      39.477  34.115  36.799  1.00  0.00     0.040 A 
ATOM     93  C   UNL A   1      38.058  32.311  37.537  1.00  0.00     0.040 A 
ATOM     94  F   UNL A   1      37.971  30.310  36.319  1.00  0.00    -0.206 F 
ATOM     95  C   UNL A   1      38.571  33.595  37.720  1.00  0.00     0.006 A 
ENDBRANCH  71  88
ENDBRANCH  45  46
ENDBRANCH  37  40
ENDBRANCH  35  36
ENDBRANCH  34  35
ENDBRANCH  33  34
ENDBRANCH  32  33
ENDBRANCH   1  32
TORSDOF 19
ENDMDL
MODEL 2
REMARK VINA RESULT:     -13.2      2.838      9.331
REMARK SMILES COc1ccc(C2=NN(C(=O)CCC(=O)NCCCCCCNC(=O)c3ccc(-c4c5nc(c(-c6c(F)cccc6F)c6ccc([nH]6)c(-c6c(F)cccc6F)c6nc(c(-c7c(F)cccc7F)c7ccc4[nH]7)C=C6)C=C5)cc3)[C@H](c3ccc(Cl)cc3Cl)C2)cc1
REMARK SMILES IDX 18 1 17 2 16 3 14 4 15 5 13 7 12 8 10 9 11 10 9 11 7 12 8 13
REMARK SMILES IDX 89 14 80 15 6 16 3 17 4 18 91 19 5 20 90 21 2 22 1 23 81 24
REMARK SMILES IDX 82 25 87 26 83 27 86 28 88 29 84 30 85 31 19 32 20 33 21 34
REMARK SMILES IDX 22 35 23 36 24 37 25 39 26 40 27 41 79 42 28 43 78 44 29 45
REMARK SMILES IDX 30 46 31 47 72 48 32 49 77 50 71 51 73 52 33 53 76 54 70 55
REMARK SMILES IDX 69 56 34 58 60 59 43 60 59 61 44 62 47 63 58 64 74 65 45 66
REMARK SMILES IDX 46 67 57 69 75 70 48 71 35 72 36 73 41 74 37 75 38 76 40 77
REMARK SMILES IDX 42 78 39 79 61 80 62 81 67 82 63 83 64 84 66 85 68 86 65 87
REMARK SMILES IDX 49 88 50 89 55 90 51 91 52 92 54 93 56 94 53 95
REMARK H PARENT 16 6 23 38 73 57 47 68
REMARK Flexibility Score: inf
ROOT
ATOM      1  C   UNL A   1      33.503  30.972  27.298  1.00  0.00     0.021 C 
ENDROOT
BRANCH   1   2
ATOM      2  C   UNL A   1      32.323  29.104  26.949  1.00  0.00     0.116 C 
BRANCH   2   3
ATOM      3  N   UNL A   1      31.708  28.426  25.645  1.00  0.00    -0.356 N 
ATOM      4  C   UNL A   1      31.078  27.274  25.278  1.00  0.00     0.220 C 
ATOM      5  O   UNL A   1      30.630  27.288  24.121  1.00  0.00    -0.275 OA
ATOM      6  H   UNL A   1      31.815  29.021  24.868  1.00  0.00     0.163 HD
BRANCH   4   7
ATOM      7  C   UNL A   1      30.819  26.026  26.128  1.00  0.00     0.110 C 
BRANCH   7   8
ATOM      8  C   UNL A   1      30.855  24.629  25.535  1.00  0.00     0.112 C 
BRANCH   8   9
ATOM      9  C   UNL A   1      31.752  23.850  26.414  1.00  0.00     0.243 C 
ATOM     10  O   UNL A   1      31.594  23.775  27.625  1.00  0.00    -0.273 OA
BRANCH   9  11
ATOM     11  N   UNL A   1      32.800  23.344  25.688  1.00  0.00    -0.225 N 
ATOM     12  C   UNL A   1      35.681  23.431  25.090  1.00  0.00     0.071 C 
ATOM     13  N   UNL A   1      34.535  24.191  25.870  1.00  0.00    -0.174 NA
ATOM     14  C   UNL A   1      34.960  22.018  23.933  1.00  0.00     0.091 C 
ATOM     15  C   UNL A   1      33.048  21.856  24.400  1.00  0.00     0.149 C 
BRANCH  12  16
ATOM     16  C   UNL A   1      37.133  23.257  25.564  1.00  0.00    -0.002 A 
ATOM     17  C   UNL A   1      39.678  22.590  26.705  1.00  0.00     0.118 A 
ATOM     18  C   UNL A   1      39.004  21.679  25.907  1.00  0.00     0.047 A 
ATOM     19  C   UNL A   1      39.107  23.854  26.879  1.00  0.00     0.047 A 
ATOM     20  C   UNL A   1      37.769  22.013  25.333  1.00  0.00     0.014 A 
ATOM     21  C   UNL A   1      37.832  24.186  26.329  1.00  0.00     0.014 A 
BRANCH  17  22
ATOM     22  O   UNL A   1      40.842  22.106  27.230  1.00  0.00    -0.497 OA
ATOM     23  C   UNL A   1      41.863  21.653  26.349  1.00  0.00     0.278 C 
ENDBRANCH  17  22
ENDBRANCH  12  16
BRANCH  15  24
ATOM     24  C   UNL A   1      32.574  20.366  24.549  1.00  0.00    -0.004 A 
ATOM     25  C   UNL A   1      32.899  19.653  25.727  1.00  0.00     0.009 A 
ATOM     26  C   UNL A   1      32.237  19.559  23.427  1.00  0.00     0.047 A 
ATOM     27  C   UNL A   1      32.915  18.250  25.778  1.00  0.00     0.021 A 
ATOM     28  C   UNL A   1      32.158  18.157  23.510  1.00  0.00     0.041 A 
ATOM     29  Cl  UNL A   1      32.155  20.143  21.800  1.00  0.00    -0.084 Cl
ATOM     30  C   UNL A   1      32.529  17.508  24.675  1.00  0.00     0.042 A 
ATOM     31  Cl  UNL A   1      32.594  15.791  24.720  1.00  0.00    -0.084 Cl
ENDBRANCH  15  24
ENDBRANCH   9  11
ENDBRANCH   8   9
ENDBRANCH   7   8
ENDBRANCH   4   7
ENDBRANCH   2   3
ENDBRANCH   1   2
BRANCH   1  32
ATOM     32  C   UNL A   1      35.209  30.991  28.113  1.00  0.00     0.002 C 
BRANCH  32  33
ATOM     33  C   UNL A   1      36.208  32.262  28.067  1.00  0.00     0.002 C 
BRANCH  33  34
ATOM     34  C   UNL A   1      35.956  33.493  28.906  1.00  0.00     0.021 C 
BRANCH  34  35
ATOM     35  C   UNL A   1      34.585  33.505  29.515  1.00  0.00     0.116 C 
BRANCH  35  36
ATOM     36  N   UNL A   1      34.192  34.873  29.857  1.00  0.00    -0.352 N 
ATOM     37  C   UNL A   1      33.458  35.183  30.973  1.00  0.00     0.251 C 
ATOM     38  H   UNL A   1      34.466  35.605  29.258  1.00  0.00     0.163 HD
ATOM     39  O   UNL A   1      32.337  35.669  30.910  1.00  0.00    -0.269 OA
BRANCH  37  40
ATOM     40  C   UNL A   1      34.091  34.826  32.255  1.00  0.00     0.039 A 
ATOM     41  C   UNL A   1      33.837  33.583  32.825  1.00  0.00     0.014 A 
ATOM     42  C   UNL A   1      35.154  35.620  32.675  1.00  0.00     0.014 A 
ATOM     43  C   UNL A   1      34.821  33.030  33.625  1.00  0.00     0.010 A 
ATOM     44  C   UNL A   1      36.230  34.964  33.197  1.00  0.00     0.010 A 
ATOM     45  C   UNL A   1      36.075  33.658  33.659  1.00  0.00    -0.014 A 
BRANCH  45  46
ATOM     46  C   UNL A   1      37.278  32.915  34.050  1.00  0.00     0.031 A 
ATOM     47  C   UNL A   1      37.839  31.895  33.115  1.00  0.00     0.074 A 
ATOM     48  C   UNL A   1      37.763  33.119  35.291  1.00  0.00     0.049 A 
ATOM     49  N   UNL A   1      38.905  31.161  33.260  1.00  0.00    -0.248 NA
ATOM     50  C   UNL A   1      37.082  31.614  31.878  1.00  0.00     0.031 C 
ATOM     51  C   UNL A   1      37.156  33.985  36.314  1.00  0.00     0.029 A 
ATOM     52  N   UNL A   1      38.888  32.642  35.900  1.00  0.00    -0.354 N 
ATOM     53  C   UNL A   1      38.939  30.343  32.141  1.00  0.00     0.074 A 
ATOM     54  C   UNL A   1      37.736  30.577  31.386  1.00  0.00     0.031 C 
ATOM     55  C   UNL A   1      37.971  34.059  37.376  1.00  0.00     0.029 A 
ATOM     56  C   UNL A   1      39.119  33.200  37.135  1.00  0.00     0.049 A 
ATOM     57  H   UNL A   1      39.476  31.965  35.495  1.00  0.00     0.167 HD
ATOM     58  C   UNL A   1      39.928  29.511  31.758  1.00  0.00     0.037 A 
ATOM     59  C   UNL A   1      40.165  33.038  37.963  1.00  0.00     0.037 A 
ATOM     60  C   UNL A   1      41.118  29.324  32.537  1.00  0.00     0.049 A 
ATOM     61  C   UNL A   1      41.267  32.131  37.497  1.00  0.00     0.074 A 
ATOM     62  C   UNL A   1      42.227  28.559  32.247  1.00  0.00     0.029 A 
ATOM     63  N   UNL A   1      41.339  29.916  33.775  1.00  0.00    -0.354 N 
ATOM     64  N   UNL A   1      41.356  31.451  36.376  1.00  0.00    -0.248 NA
ATOM     65  C   UNL A   1      42.413  31.972  38.395  1.00  0.00     0.031 C 
ATOM     66  C   UNL A   1      43.093  28.635  33.342  1.00  0.00     0.029 A 
ATOM     67  C   UNL A   1      42.557  29.506  34.281  1.00  0.00     0.049 A 
ATOM     68  H   UNL A   1      40.720  30.535  34.224  1.00  0.00     0.167 HD
ATOM     69  C   UNL A   1      42.575  30.792  36.426  1.00  0.00     0.074 A 
ATOM     70  C   UNL A   1      43.202  31.191  37.673  1.00  0.00     0.031 C 
ATOM     71  C   UNL A   1      43.128  29.931  35.535  1.00  0.00     0.037 A 
BRANCH  58  72
ATOM     72  C   UNL A   1      39.745  28.774  30.465  1.00  0.00     0.057 A 
ATOM     73  C   UNL A   1      40.231  29.273  29.247  1.00  0.00     0.134 A 
ATOM     74  C   UNL A   1      39.051  27.560  30.433  1.00  0.00     0.134 A 
ATOM     75  F   UNL A   1      40.875  30.449  29.200  1.00  0.00    -0.206 F 
ATOM     76  C   UNL A   1      40.013  28.602  28.043  1.00  0.00     0.040 A 
ATOM     77  C   UNL A   1      38.855  26.864  29.239  1.00  0.00     0.040 A 
ATOM     78  F   UNL A   1      38.543  27.035  31.558  1.00  0.00    -0.206 F 
ATOM     79  C   UNL A   1      39.330  27.389  28.039  1.00  0.00     0.006 A 
ENDBRANCH  58  72
BRANCH  59  80
ATOM     80  C   UNL A   1      40.227  33.757  39.262  1.00  0.00     0.057 A 
ATOM     81  C   UNL A   1      39.591  33.257  40.407  1.00  0.00     0.134 A 
ATOM     82  C   UNL A   1      40.920  34.966  39.395  1.00  0.00     0.134 A 
ATOM     83  F   UNL A   1      38.909  32.104  40.352  1.00  0.00    -0.206 F 
ATOM     84  C   UNL A   1      39.613  33.950  41.620  1.00  0.00     0.040 A 
ATOM     85  C   UNL A   1      40.978  35.653  40.608  1.00  0.00     0.040 A 
ATOM     86  F   UNL A   1      41.569  35.493  38.346  1.00  0.00    -0.206 F 
ATOM     87  C   UNL A   1      40.311  35.151  41.724  1.00  0.00     0.006 A 
ENDBRANCH  59  80
BRANCH  71  88
ATOM     88  C   UNL A   1      44.482  29.395  35.886  1.00  0.00     0.057 A 
ATOM     89  C   UNL A   1      45.658  30.075  35.545  1.00  0.00     0.134 A 
ATOM     90  C   UNL A   1      44.604  28.196  36.597  1.00  0.00     0.134 A 
ATOM     91  F   UNL A   1      45.604  31.224  34.855  1.00  0.00    -0.206 F 
ATOM     92  C   UNL A   1      46.912  29.557  35.863  1.00  0.00     0.040 A 
ATOM     93  C   UNL A   1      45.851  27.689  36.957  1.00  0.00     0.040 A 
ATOM     94  F   UNL A   1      43.514  27.506  36.967  1.00  0.00    -0.206 F 
ATOM     95  C   UNL A   1      47.010  28.365  36.577  1.00  0.00     0.006 A 
ENDBRANCH  71  88
ENDBRANCH  45  46
ENDBRANCH  37  40
ENDBRANCH  35  36
ENDBRANCH  34  35
ENDBRANCH  33  34
ENDBRANCH  32  33
ENDBRANCH   1  32
TORSDOF 19
ENDMDL
MODEL 3
REMARK VINA RESULT:     -12.5      4.353      8.016
REMARK SMILES COc1ccc(C2=NN(C(=O)CCC(=O)NCCCCCCNC(=O)c3ccc(-c4c5nc(c(-c6c(F)cccc6F)c6ccc([nH]6)c(-c6c(F)cccc6F)c6nc(c(-c7c(F)cccc7F)c7ccc4[nH]7)C=C6)C=C5)cc3)[C@H](c3ccc(Cl)cc3Cl)C2)cc1
REMARK SMILES IDX 18 1 17 2 16 3 14 4 15 5 13 7 12 8 10 9 11 10 9 11 7 12 8 13
REMARK SMILES IDX 89 14 80 15 6 16 3 17 4 18 91 19 5 20 90 21 2 22 1 23 81 24
REMARK SMILES IDX 82 25 87 26 83 27 86 28 88 29 84 30 85 31 19 32 20 33 21 34
REMARK SMILES IDX 22 35 23 36 24 37 25 39 26 40 27 41 79 42 28 43 78 44 29 45
REMARK SMILES IDX 30 46 31 47 72 48 32 49 77 50 71 51 73 52 33 53 76 54 70 55
REMARK SMILES IDX 69 56 34 58 60 59 43 60 59 61 44 62 47 63 58 64 74 65 45 66
REMARK SMILES IDX 46 67 57 69 75 70 48 71 35 72 36 73 41 74 37 75 38 76 40 77
REMARK SMILES IDX 42 78 39 79 61 80 62 81 67 82 63 83 64 84 66 85 68 86 65 87
REMARK SMILES IDX 49 88 50 89 55 90 51 91 52 92 54 93 56 94 53 95
REMARK H PARENT 16 6 23 38 73 57 47 68
REMARK Flexibility Score: inf
ROOT
ATOM      1  C   UNL A   1      37.925  23.921  26.126  1.00  0.00     0.021 C 
ENDROOT
BRANCH   1   2
ATOM      2  C   UNL A   1      36.880  22.978  24.387  1.00  0.00     0.116 C 
BRANCH   2   3
ATOM      3  N   UNL A   1      35.616  23.396  23.513  1.00  0.00    -0.356 N 
ATOM      4  C   UNL A   1      34.650  24.357  23.486  1.00  0.00     0.220 C 
ATOM      5  O   UNL A   1      33.952  24.345  22.460  1.00  0.00    -0.275 OA
ATOM      6  H   UNL A   1      35.497  22.769  22.763  1.00  0.00     0.163 HD
BRANCH   4   7
ATOM      7  C   UNL A   1      34.376  25.452  24.521  1.00  0.00     0.110 C 
BRANCH   7   8
ATOM      8  C   UNL A   1      33.649  26.734  24.161  1.00  0.00     0.112 C 
BRANCH   8   9
ATOM      9  C   UNL A   1      32.423  26.739  24.988  1.00  0.00     0.243 C 
ATOM     10  O   UNL A   1      31.685  25.768  25.087  1.00  0.00    -0.273 OA
BRANCH   9  11
ATOM     11  N   UNL A   1      32.213  27.990  25.510  1.00  0.00    -0.225 N 
ATOM     12  C   UNL A   1      33.177  30.141  27.273  1.00  0.00     0.071 C 
ATOM     13  N   UNL A   1      33.448  28.641  26.857  1.00  0.00    -0.174 NA
ATOM     14  C   UNL A   1      31.494  30.814  26.518  1.00  0.00     0.091 C 
ATOM     15  C   UNL A   1      30.885  29.438  25.238  1.00  0.00     0.149 C 
BRANCH  12  16
ATOM     16  C   UNL A   1      34.247  31.192  27.610  1.00  0.00    -0.002 A 
ATOM     17  C   UNL A   1      36.341  32.884  28.599  1.00  0.00     0.118 A 
ATOM     18  C   UNL A   1      36.621  31.597  28.168  1.00  0.00     0.047 A 
ATOM     19  C   UNL A   1      35.025  33.343  28.476  1.00  0.00     0.047 A 
ATOM     20  C   UNL A   1      35.600  30.777  27.666  1.00  0.00     0.014 A 
ATOM     21  C   UNL A   1      33.976  32.499  28.002  1.00  0.00     0.014 A 
BRANCH  17  22
ATOM     22  O   UNL A   1      37.425  33.543  29.104  1.00  0.00    -0.497 OA
ATOM     23  C   UNL A   1      38.056  33.041  30.275  1.00  0.00     0.278 C 
ENDBRANCH  17  22
ENDBRANCH  12  16
BRANCH  15  24
ATOM     24  C   UNL A   1      30.386  30.042  23.876  1.00  0.00    -0.004 A 
ATOM     25  C   UNL A   1      29.805  31.332  23.865  1.00  0.00     0.009 A 
ATOM     26  C   UNL A   1      30.074  29.228  22.752  1.00  0.00     0.047 A 
ATOM     27  C   UNL A   1      28.959  31.768  22.833  1.00  0.00     0.021 A 
ATOM     28  C   UNL A   1      29.307  29.705  21.674  1.00  0.00     0.041 A 
ATOM     29  Cl  UNL A   1      30.344  27.520  22.683  1.00  0.00    -0.084 Cl
ATOM     30  C   UNL A   1      28.726  30.960  21.733  1.00  0.00     0.042 A 
ATOM     31  Cl  UNL A   1      27.653  31.472  20.493  1.00  0.00    -0.084 Cl
ENDBRANCH  15  24
ENDBRANCH   9  11
ENDBRANCH   8   9
ENDBRANCH   7   8
ENDBRANCH   4   7
ENDBRANCH   2   3
ENDBRANCH   1   2
BRANCH   1  32
ATOM     32  C   UNL A   1      39.517  23.237  26.882  1.00  0.00     0.002 C 
BRANCH  32  33
ATOM     33  C   UNL A   1      40.313  21.960  26.287  1.00  0.00     0.002 C 
BRANCH  33  34
ATOM     34  C   UNL A   1      40.782  20.837  27.180  1.00  0.00     0.021 C 
BRANCH  34  35
ATOM     35  C   UNL A   1      42.227  20.969  27.561  1.00  0.00     0.116 C 
BRANCH  35  36
ATOM     36  N   UNL A   1      43.029  19.949  26.882  1.00  0.00    -0.352 N 
ATOM     37  C   UNL A   1      43.365  20.024  25.556  1.00  0.00     0.251 C 
ATOM     38  H   UNL A   1      43.341  19.173  27.403  1.00  0.00     0.163 HD
ATOM     39  O   UNL A   1      42.979  19.205  24.732  1.00  0.00    -0.269 OA
BRANCH  37  40
ATOM     40  C   UNL A   1      44.171  21.199  25.181  1.00  0.00     0.039 A 
ATOM     41  C   UNL A   1      43.589  22.223  24.440  1.00  0.00     0.014 A 
ATOM     42  C   UNL A   1      45.378  21.374  25.850  1.00  0.00     0.014 A 
ATOM     43  C   UNL A   1      44.093  23.501  24.605  1.00  0.00     0.010 A 
ATOM     44  C   UNL A   1      45.671  22.647  26.245  1.00  0.00     0.010 A 
ATOM     45  C   UNL A   1      45.018  23.718  25.637  1.00  0.00    -0.014 A 
BRANCH  45  46
ATOM     46  C   UNL A   1      45.219  25.059  26.198  1.00  0.00     0.031 A 
ATOM     47  C   UNL A   1      46.568  25.692  26.103  1.00  0.00     0.074 A 
ATOM     48  C   UNL A   1      44.191  25.617  26.868  1.00  0.00     0.049 A 
ATOM     49  N   UNL A   1      46.939  26.875  26.505  1.00  0.00    -0.248 NA
ATOM     50  C   UNL A   1      47.664  24.881  25.536  1.00  0.00     0.031 C 
ATOM     51  C   UNL A   1      42.896  24.971  27.138  1.00  0.00     0.029 A 
ATOM     52  N   UNL A   1      44.054  26.857  27.422  1.00  0.00    -0.354 N 
ATOM     53  C   UNL A   1      48.297  26.939  26.238  1.00  0.00     0.074 A 
ATOM     54  C   UNL A   1      48.716  25.649  25.755  1.00  0.00     0.031 C 
ATOM     55  C   UNL A   1      42.067  25.858  27.706  1.00  0.00     0.029 A 
ATOM     56  C   UNL A   1      42.788  27.106  27.898  1.00  0.00     0.049 A 
ATOM     57  H   UNL A   1      44.789  27.509  27.476  1.00  0.00     0.167 HD
ATOM     58  C   UNL A   1      49.107  28.013  26.338  1.00  0.00     0.037 A 
ATOM     59  C   UNL A   1      42.277  28.237  28.414  1.00  0.00     0.037 A 
ATOM     60  C   UNL A   1      48.639  29.285  26.809  1.00  0.00     0.049 A 
ATOM     61  C   UNL A   1      43.191  29.426  28.484  1.00  0.00     0.074 A 
ATOM     62  C   UNL A   1      49.328  30.474  26.910  1.00  0.00     0.029 A 
ATOM     63  N   UNL A   1      47.347  29.518  27.267  1.00  0.00    -0.354 N 
ATOM     64  N   UNL A   1      44.448  29.522  28.114  1.00  0.00    -0.248 NA
ATOM     65  C   UNL A   1      42.624  30.660  29.030  1.00  0.00     0.031 C 
ATOM     66  C   UNL A   1      48.472  31.413  27.492  1.00  0.00     0.029 A 
ATOM     67  C   UNL A   1      47.226  30.829  27.684  1.00  0.00     0.049 A 
ATOM     68  H   UNL A   1      46.625  28.849  27.289  1.00  0.00     0.167 HD
ATOM     69  C   UNL A   1      44.821  30.833  28.368  1.00  0.00     0.074 A 
ATOM     70  C   UNL A   1      43.640  31.498  28.887  1.00  0.00     0.031 C 
ATOM     71  C   UNL A   1      46.025  31.436  28.201  1.00  0.00     0.037 A 
BRANCH  58  72
ATOM     72  C   UNL A   1      50.539  27.835  25.932  1.00  0.00     0.057 A 
ATOM     73  C   UNL A   1      50.937  27.828  24.586  1.00  0.00     0.134 A 
ATOM     74  C   UNL A   1      51.532  27.644  26.898  1.00  0.00     0.134 A 
ATOM     75  F   UNL A   1      50.030  27.971  23.607  1.00  0.00    -0.206 F 
ATOM     76  C   UNL A   1      52.266  27.614  24.217  1.00  0.00     0.040 A 
ATOM     77  C   UNL A   1      52.869  27.461  26.542  1.00  0.00     0.040 A 
ATOM     78  F   UNL A   1      51.219  27.621  28.202  1.00  0.00    -0.206 F 
ATOM     79  C   UNL A   1      53.237  27.439  25.199  1.00  0.00     0.006 A 
ENDBRANCH  58  72
BRANCH  59  80
ATOM     80  C   UNL A   1      40.861  28.298  28.859  1.00  0.00     0.057 A 
ATOM     81  C   UNL A   1      39.820  28.557  27.958  1.00  0.00     0.134 A 
ATOM     82  C   UNL A   1      40.508  28.103  30.201  1.00  0.00     0.134 A 
ATOM     83  F   UNL A   1      40.085  28.755  26.658  1.00  0.00    -0.206 F 
ATOM     84  C   UNL A   1      38.491  28.655  28.379  1.00  0.00     0.040 A 
ATOM     85  C   UNL A   1      39.182  28.165  30.630  1.00  0.00     0.040 A 
ATOM     86  F   UNL A   1      41.451  27.830  31.115  1.00  0.00    -0.206 F 
ATOM     87  C   UNL A   1      38.169  28.456  29.719  1.00  0.00     0.006 A 
ENDBRANCH  59  80
BRANCH  71  88
ATOM     88  C   UNL A   1      46.094  32.887  28.567  1.00  0.00     0.057 A 
ATOM     89  C   UNL A   1      46.523  33.310  29.832  1.00  0.00     0.134 A 
ATOM     90  C   UNL A   1      45.752  33.869  27.631  1.00  0.00     0.134 A 
ATOM     91  F   UNL A   1      46.854  32.415  30.774  1.00  0.00    -0.206 F 
ATOM     92  C   UNL A   1      46.566  34.663  30.165  1.00  0.00     0.040 A 
ATOM     93  C   UNL A   1      45.831  35.225  27.939  1.00  0.00     0.040 A 
ATOM     94  F   UNL A   1      45.350  33.527  26.397  1.00  0.00    -0.206 F 
ATOM     95  C   UNL A   1      46.227  35.624  29.215  1.00  0.00     0.006 A 
ENDBRANCH  71  88
ENDBRANCH  45  46
ENDBRANCH  37  40
ENDBRANCH  35  36
ENDBRANCH  34  35
ENDBRANCH  33  34
ENDBRANCH  32  33
ENDBRANCH   1  32
TORSDOF 19
ENDMDL
