MODEL 1
REMARK VINA RESULT:     -11.6      0.000      0.000
REMARK SMILES C=Cc1cncc(-c2ccc([C@@H](C)C(=O)NCCCCCCNC(=O)c3ccc(-c4c5nc(c(-c6c(F)cccc6F)c6ccc([nH]6)c(-c6c(F)cccc6F)c6nc(c(-c7c(F)cccc7F)c7ccc4[nH]7)C=C6)C=C5)cc3)cc2)c1
REMARK SMILES IDX 19 1 18 2 17 3 16 4 14 5 15 6 12 8 13 9 11 10 8 11 9 12
REMARK SMILES IDX 81 13 10 14 80 15 7 16 3 17 4 18 82 19 5 20 6 21 2 22 1 23
REMARK SMILES IDX 20 24 21 25 22 26 23 27 24 28 25 30 26 31 27 32 79 33 28 34
REMARK SMILES IDX 78 35 29 36 30 37 31 38 72 39 32 40 77 41 71 42 73 43 33 44
REMARK SMILES IDX 76 45 70 46 69 47 34 49 60 50 43 51 59 52 44 53 47 54 58 55
REMARK SMILES IDX 74 56 45 57 46 58 57 60 75 61 48 62 35 63 36 64 41 65 37 66
REMARK SMILES IDX 38 67 40 68 42 69 39 70 61 71 62 72 67 73 63 74 64 75 66 76
REMARK SMILES IDX 68 77 65 78 49 79 50 80 55 81 51 82 52 83 54 84 56 85 53 86
REMARK H PARENT 16 7 23 29 73 48 47 59
REMARK Flexibility Score: inf
ROOT
ATOM      1  C   UNL A   1      35.528  22.674  24.732  1.00  0.00     0.002 C 
ENDROOT
BRANCH   1   2
ATOM      2  C   UNL A   1      35.133  23.726  25.774  1.00  0.00     0.021 C 
BRANCH   2   3
ATOM      3  C   UNL A   1      34.480  24.972  25.173  1.00  0.00     0.116 C 
BRANCH   3   4
ATOM      4  N   UNL A   1      33.507  25.551  26.073  1.00  0.00    -0.356 N 
ATOM      5  C   UNL A   1      32.158  25.698  25.974  1.00  0.00     0.227 C 
ATOM      6  O   UNL A   1      31.610  26.340  26.878  1.00  0.00    -0.274 OA
ATOM      7  H   UNL A   1      33.891  25.902  26.909  1.00  0.00     0.163 HD
BRANCH   5   8
ATOM      8  C   UNL A   1      31.313  25.100  24.839  1.00  0.00     0.105 C 
ATOM      9  C   UNL A   1      29.840  25.509  24.886  1.00  0.00     0.023 C 
BRANCH   8  10
ATOM     10  C   UNL A   1      31.586  23.626  24.579  1.00  0.00    -0.036 A 
ATOM     11  C   UNL A   1      32.262  20.898  24.046  1.00  0.00    -0.017 A 
ATOM     12  C   UNL A   1      31.873  21.327  25.324  1.00  0.00     0.009 A 
ATOM     13  C   UNL A   1      32.274  21.864  23.029  1.00  0.00     0.009 A 
ATOM     14  C   UNL A   1      31.505  22.652  25.576  1.00  0.00     0.005 A 
ATOM     15  C   UNL A   1      31.961  23.206  23.294  1.00  0.00     0.005 A 
BRANCH  11  16
ATOM     16  C   UNL A   1      32.635  19.489  23.807  1.00  0.00     0.001 A 
ATOM     17  C   UNL A   1      33.525  17.337  24.539  1.00  0.00    -0.007 A 
ATOM     18  C   UNL A   1      33.235  16.847  23.269  1.00  0.00     0.119 A 
ATOM     19  C   UNL A   1      33.221  18.681  24.795  1.00  0.00     0.020 A 
ATOM     20  N   UNL A   1      32.677  17.578  22.280  1.00  0.00    -0.263 NA
ATOM     21  C   UNL A   1      32.401  18.870  22.574  1.00  0.00     0.119 A 
BRANCH  17  22
ATOM     22  C   UNL A   1      34.170  16.462  25.521  1.00  0.00     0.002 C 
ATOM     23  C   UNL A   1      35.297  15.777  25.289  1.00  0.00     0.009 C 
ENDBRANCH  17  22
ENDBRANCH  11  16
ENDBRANCH   8  10
ENDBRANCH   5   8
ENDBRANCH   3   4
ENDBRANCH   2   3
ENDBRANCH   1   2
BRANCH   1  24
ATOM     24  C   UNL A   1      35.776  21.268  25.294  1.00  0.00     0.002 C 
BRANCH  24  25
ATOM     25  C   UNL A   1      37.041  20.571  24.784  1.00  0.00     0.021 C 
BRANCH  25  26
ATOM     26  C   UNL A   1      38.321  20.975  25.510  1.00  0.00     0.116 C 
BRANCH  26  27
ATOM     27  N   UNL A   1      39.268  19.871  25.586  1.00  0.00    -0.352 N 
ATOM     28  C   UNL A   1      40.602  19.885  25.910  1.00  0.00     0.251 C 
ATOM     29  H   UNL A   1      38.897  18.985  25.373  1.00  0.00     0.163 HD
ATOM     30  O   UNL A   1      41.307  18.908  25.685  1.00  0.00    -0.269 OA
BRANCH  28  31
ATOM     31  C   UNL A   1      41.191  21.094  26.524  1.00  0.00     0.039 A 
ATOM     32  C   UNL A   1      41.839  22.025  25.709  1.00  0.00     0.014 A 
ATOM     33  C   UNL A   1      41.102  21.302  27.903  1.00  0.00     0.014 A 
ATOM     34  C   UNL A   1      42.332  23.205  26.269  1.00  0.00     0.010 A 
ATOM     35  C   UNL A   1      41.532  22.507  28.447  1.00  0.00     0.010 A 
ATOM     36  C   UNL A   1      42.143  23.475  27.634  1.00  0.00    -0.014 A 
BRANCH  36  37
ATOM     37  C   UNL A   1      42.544  24.772  28.231  1.00  0.00     0.031 A 
ATOM     38  C   UNL A   1      41.529  25.861  28.432  1.00  0.00     0.074 A 
ATOM     39  C   UNL A   1      43.844  24.998  28.510  1.00  0.00     0.049 A 
ATOM     40  N   UNL A   1      41.708  27.093  28.835  1.00  0.00    -0.248 NA
ATOM     41  C   UNL A   1      40.132  25.529  28.115  1.00  0.00     0.031 C 
ATOM     42  C   UNL A   1      44.929  24.032  28.323  1.00  0.00     0.029 A 
ATOM     43  N   UNL A   1      44.475  26.116  28.993  1.00  0.00    -0.354 N 
ATOM     44  C   UNL A   1      40.452  27.685  28.808  1.00  0.00     0.074 A 
ATOM     45  C   UNL A   1      39.527  26.693  28.304  1.00  0.00     0.031 C 
ATOM     46  C   UNL A   1      46.088  24.594  28.700  1.00  0.00     0.029 A 
ATOM     47  C   UNL A   1      45.837  25.972  29.109  1.00  0.00     0.049 A 
ATOM     48  H   UNL A   1      43.998  26.942  29.233  1.00  0.00     0.167 HD
ATOM     49  C   UNL A   1      40.100  28.936  29.190  1.00  0.00     0.037 A 
ATOM     50  C   UNL A   1      46.781  26.857  29.482  1.00  0.00     0.037 A 
ATOM     51  C   UNL A   1      41.023  29.914  29.705  1.00  0.00     0.049 A 
ATOM     52  C   UNL A   1      46.368  28.253  29.861  1.00  0.00     0.074 A 
ATOM     53  C   UNL A   1      40.754  31.187  30.177  1.00  0.00     0.029 A 
ATOM     54  N   UNL A   1      42.393  29.731  29.806  1.00  0.00    -0.354 N 
ATOM     55  N   UNL A   1      45.166  28.777  29.901  1.00  0.00    -0.248 NA
ATOM     56  C   UNL A   1      47.441  29.182  30.241  1.00  0.00     0.031 C 
ATOM     57  C   UNL A   1      41.968  31.793  30.514  1.00  0.00     0.029 A 
ATOM     58  C   UNL A   1      42.988  30.880  30.301  1.00  0.00     0.049 A 
ATOM     59  H   UNL A   1      42.873  28.906  29.563  1.00  0.00     0.167 HD
ATOM     60  C   UNL A   1      45.337  30.085  30.332  1.00  0.00     0.074 A 
ATOM     61  C   UNL A   1      46.755  30.272  30.557  1.00  0.00     0.031 C 
ATOM     62  C   UNL A   1      44.402  31.049  30.522  1.00  0.00     0.037 A 
BRANCH  49  63
ATOM     63  C   UNL A   1      38.654  29.320  29.066  1.00  0.00     0.057 A 
ATOM     64  C   UNL A   1      38.094  29.702  27.840  1.00  0.00     0.134 A 
ATOM     65  C   UNL A   1      37.801  29.260  30.175  1.00  0.00     0.134 A 
ATOM     66  F   UNL A   1      38.859  29.789  26.740  1.00  0.00    -0.206 F 
ATOM     67  C   UNL A   1      36.743  30.035  27.726  1.00  0.00     0.040 A 
ATOM     68  C   UNL A   1      36.442  29.563  30.067  1.00  0.00     0.040 A 
ATOM     69  F   UNL A   1      38.269  28.894  31.377  1.00  0.00    -0.206 F 
ATOM     70  C   UNL A   1      35.911  29.958  28.841  1.00  0.00     0.006 A 
ENDBRANCH  49  63
BRANCH  50  71
ATOM     71  C   UNL A   1      48.210  26.454  29.517  1.00  0.00     0.057 A 
ATOM     72  C   UNL A   1      48.762  25.854  30.654  1.00  0.00     0.134 A 
ATOM     73  C   UNL A   1      49.059  26.669  28.424  1.00  0.00     0.134 A 
ATOM     74  F   UNL A   1      48.005  25.640  31.739  1.00  0.00    -0.206 F 
ATOM     75  C   UNL A   1      50.112  25.501  30.712  1.00  0.00     0.040 A 
ATOM     76  C   UNL A   1      50.404  26.296  28.458  1.00  0.00     0.040 A 
ATOM     77  F   UNL A   1      48.589  27.233  27.301  1.00  0.00    -0.206 F 
ATOM     78  C   UNL A   1      50.936  25.717  29.609  1.00  0.00     0.006 A 
ENDBRANCH  50  71
BRANCH  62  79
ATOM     79  C   UNL A   1      44.877  32.384  31.014  1.00  0.00     0.057 A 
ATOM     80  C   UNL A   1      45.203  33.421  30.132  1.00  0.00     0.134 A 
ATOM     81  C   UNL A   1      44.953  32.654  32.387  1.00  0.00     0.134 A 
ATOM     82  F   UNL A   1      45.166  33.223  28.805  1.00  0.00    -0.206 F 
ATOM     83  C   UNL A   1      45.602  34.675  30.598  1.00  0.00     0.040 A 
ATOM     84  C   UNL A   1      45.323  33.910  32.864  1.00  0.00     0.040 A 
ATOM     85  F   UNL A   1      44.645  31.705  33.285  1.00  0.00    -0.206 F 
ATOM     86  C   UNL A   1      45.652  34.925  31.967  1.00  0.00     0.006 A 
ENDBRANCH  62  79
ENDBRANCH  36  37
ENDBRANCH  28  31
ENDBRANCH  26  27
ENDBRANCH  25  26
ENDBRANCH  24  25
ENDBRANCH   1  24
TORSDOF 16
ENDMDL
MODEL 2
REMARK VINA RESULT:     -11.4      0.469      6.211
REMARK SMILES C=Cc1cncc(-c2ccc([C@@H](C)C(=O)NCCCCCCNC(=O)c3ccc(-c4c5nc(c(-c6c(F)cccc6F)c6ccc([nH]6)c(-c6c(F)cccc6F)c6nc(c(-c7c(F)cccc7F)c7ccc4[nH]7)C=C6)C=C5)cc3)cc2)c1
REMARK SMILES IDX 19 1 18 2 17 3 16 4 14 5 15 6 12 8 13 9 11 10 8 11 9 12
REMARK SMILES IDX 81 13 10 14 80 15 7 16 3 17 4 18 82 19 5 20 6 21 2 22 1 23
REMARK SMILES IDX 20 24 21 25 22 26 23 27 24 28 25 30 26 31 27 32 79 33 28 34
REMARK SMILES IDX 78 35 29 36 30 37 31 38 72 39 32 40 77 41 71 42 73 43 33 44
REMARK SMILES IDX 76 45 70 46 69 47 34 49 60 50 43 51 59 52 44 53 47 54 58 55
REMARK SMILES IDX 74 56 45 57 46 58 57 60 75 61 48 62 35 63 36 64 41 65 37 66
REMARK SMILES IDX 38 67 40 68 42 69 39 70 61 71 62 72 67 73 63 74 64 75 66 76
REMARK SMILES IDX 68 77 65 78 49 79 50 80 55 81 51 82 52 83 54 84 56 85 53 86
REMARK H PARENT 16 7 23 29 73 48 47 59
REMARK Flexibility Score: inf
ROOT
ATOM      1  C   UNL A   1      35.775  22.615  24.904  1.00  0.00     0.002 C 
ENDROOT
BRANCH   1   2
ATOM      2  C   UNL A   1      35.326  23.687  25.904  1.00  0.00     0.021 C 
BRANCH   2   3
ATOM      3  C   UNL A   1      34.670  24.903  25.247  1.00  0.00     0.116 C 
BRANCH   3   4
ATOM      4  N   UNL A   1      33.640  25.472  26.089  1.00  0.00    -0.356 N 
ATOM      5  C   UNL A   1      32.300  25.618  25.905  1.00  0.00     0.227 C 
ATOM      6  O   UNL A   1      31.693  26.251  26.777  1.00  0.00    -0.274 OA
ATOM      7  H   UNL A   1      33.968  25.815  26.951  1.00  0.00     0.163 HD
BRANCH   5   8
ATOM      8  C   UNL A   1      31.530  25.031  24.711  1.00  0.00     0.105 C 
ATOM      9  C   UNL A   1      30.071  25.482  24.636  1.00  0.00     0.023 C 
BRANCH   8  10
ATOM     10  C   UNL A   1      31.780  23.546  24.489  1.00  0.00    -0.036 A 
ATOM     11  C   UNL A   1      32.410  20.795  24.026  1.00  0.00    -0.017 A 
ATOM     12  C   UNL A   1      32.037  21.264  25.294  1.00  0.00     0.009 A 
ATOM     13  C   UNL A   1      32.429  21.733  22.982  1.00  0.00     0.009 A 
ATOM     14  C   UNL A   1      31.692  22.601  25.513  1.00  0.00     0.005 A 
ATOM     15  C   UNL A   1      32.138  23.086  23.213  1.00  0.00     0.005 A 
BRANCH  11  16
ATOM     16  C   UNL A   1      32.760  19.375  23.821  1.00  0.00     0.001 A 
ATOM     17  C   UNL A   1      33.691  17.249  24.582  1.00  0.00    -0.007 A 
ATOM     18  C   UNL A   1      33.311  16.708  23.358  1.00  0.00     0.119 A 
ATOM     19  C   UNL A   1      33.411  18.605  24.800  1.00  0.00     0.020 A 
ATOM     20  N   UNL A   1      32.688  17.400  22.379  1.00  0.00    -0.263 NA
ATOM     21  C   UNL A   1      32.438  18.705  22.636  1.00  0.00     0.119 A 
BRANCH  17  22
ATOM     22  C   UNL A   1      34.400  16.413  25.553  1.00  0.00     0.002 C 
ATOM     23  C   UNL A   1      35.489  15.689  25.266  1.00  0.00     0.009 C 
ENDBRANCH  17  22
ENDBRANCH  11  16
ENDBRANCH   8  10
ENDBRANCH   5   8
ENDBRANCH   3   4
ENDBRANCH   2   3
ENDBRANCH   1   2
BRANCH   1  24
ATOM     24  C   UNL A   1      35.824  21.188  25.466  1.00  0.00     0.002 C 
BRANCH  24  25
ATOM     25  C   UNL A   1      36.999  20.333  24.983  1.00  0.00     0.021 C 
BRANCH  25  26
ATOM     26  C   UNL A   1      38.372  20.851  25.404  1.00  0.00     0.116 C 
BRANCH  26  27
ATOM     27  N   UNL A   1      39.320  19.764  25.600  1.00  0.00    -0.352 N 
ATOM     28  C   UNL A   1      40.636  19.812  25.991  1.00  0.00     0.251 C 
ATOM     29  H   UNL A   1      38.967  18.862  25.427  1.00  0.00     0.163 HD
ATOM     30  O   UNL A   1      41.358  18.829  25.866  1.00  0.00    -0.269 OA
BRANCH  28  31
ATOM     31  C   UNL A   1      41.184  21.063  26.554  1.00  0.00     0.039 A 
ATOM     32  C   UNL A   1      41.830  21.966  25.707  1.00  0.00     0.014 A 
ATOM     33  C   UNL A   1      41.061  21.338  27.919  1.00  0.00     0.014 A 
ATOM     34  C   UNL A   1      42.284  23.185  26.215  1.00  0.00     0.010 A 
ATOM     35  C   UNL A   1      41.453  22.579  28.409  1.00  0.00     0.010 A 
ATOM     36  C   UNL A   1      42.059  23.518  27.560  1.00  0.00    -0.014 A 
BRANCH  36  37
ATOM     37  C   UNL A   1      42.419  24.853  28.098  1.00  0.00     0.031 A 
ATOM     38  C   UNL A   1      43.822  25.133  28.557  1.00  0.00     0.074 A 
ATOM     39  C   UNL A   1      41.457  25.785  28.253  1.00  0.00     0.049 A 
ATOM     40  N   UNL A   1      44.300  26.195  29.153  1.00  0.00    -0.248 NA
ATOM     41  C   UNL A   1      44.813  24.068  28.340  1.00  0.00     0.031 C 
ATOM     42  C   UNL A   1      40.051  25.619  27.881  1.00  0.00     0.029 A 
ATOM     43  N   UNL A   1      41.513  27.050  28.782  1.00  0.00    -0.354 N 
ATOM     44  C   UNL A   1      45.641  25.923  29.392  1.00  0.00     0.074 A 
ATOM     45  C   UNL A   1      45.890  24.578  28.921  1.00  0.00     0.031 C 
ATOM     46  C   UNL A   1      39.381  26.743  28.179  1.00  0.00     0.029 A 
ATOM     47  C   UNL A   1      40.297  27.690  28.806  1.00  0.00     0.049 A 
ATOM     48  H   UNL A   1      42.344  27.460  29.113  1.00  0.00     0.167 HD
ATOM     49  C   UNL A   1      46.582  26.731  29.935  1.00  0.00     0.037 A 
ATOM     50  C   UNL A   1      39.953  28.895  29.298  1.00  0.00     0.037 A 
ATOM     51  C   UNL A   1      46.332  28.074  30.388  1.00  0.00     0.049 A 
ATOM     52  C   UNL A   1      41.010  29.756  29.935  1.00  0.00     0.074 A 
ATOM     53  C   UNL A   1      47.233  28.994  30.896  1.00  0.00     0.029 A 
ATOM     54  N   UNL A   1      45.088  28.686  30.397  1.00  0.00    -0.354 N 
ATOM     55  N   UNL A   1      42.290  29.514  30.088  1.00  0.00    -0.248 NA
ATOM     56  C   UNL A   1      40.575  31.053  30.473  1.00  0.00     0.031 C 
ATOM     57  C   UNL A   1      46.525  30.143  31.262  1.00  0.00     0.029 A 
ATOM     58  C   UNL A   1      45.191  29.959  30.934  1.00  0.00     0.049 A 
ATOM     59  H   UNL A   1      44.254  28.276  30.070  1.00  0.00     0.167 HD
ATOM     60  C   UNL A   1      42.816  30.635  30.716  1.00  0.00     0.074 A 
ATOM     61  C   UNL A   1      41.721  31.565  30.901  1.00  0.00     0.031 C 
ATOM     62  C   UNL A   1      44.092  30.873  31.108  1.00  0.00     0.037 A 
BRANCH  49  63
ATOM     63  C   UNL A   1      47.974  26.183  30.071  1.00  0.00     0.057 A 
ATOM     64  C   UNL A   1      48.885  26.209  29.007  1.00  0.00     0.134 A 
ATOM     65  C   UNL A   1      48.424  25.669  31.293  1.00  0.00     0.134 A 
ATOM     66  F   UNL A   1      48.514  26.681  27.806  1.00  0.00    -0.206 F 
ATOM     67  C   UNL A   1      50.184  25.720  29.146  1.00  0.00     0.040 A 
ATOM     68  C   UNL A   1      49.730  25.203  31.452  1.00  0.00     0.040 A 
ATOM     69  F   UNL A   1      47.607  25.622  32.356  1.00  0.00    -0.206 F 
ATOM     70  C   UNL A   1      50.613  25.222  30.374  1.00  0.00     0.006 A 
ENDBRANCH  49  63
BRANCH  50  71
ATOM     71  C   UNL A   1      38.547  29.364  29.210  1.00  0.00     0.057 A 
ATOM     72  C   UNL A   1      38.019  29.838  28.005  1.00  0.00     0.134 A 
ATOM     73  C   UNL A   1      37.703  29.362  30.328  1.00  0.00     0.134 A 
ATOM     74  F   UNL A   1      38.783  29.883  26.905  1.00  0.00    -0.206 F 
ATOM     75  C   UNL A   1      36.708  30.312  27.916  1.00  0.00     0.040 A 
ATOM     76  C   UNL A   1      36.382  29.809  30.248  1.00  0.00     0.040 A 
ATOM     77  F   UNL A   1      38.145  28.913  31.512  1.00  0.00    -0.206 F 
ATOM     78  C   UNL A   1      35.884  30.293  29.040  1.00  0.00     0.006 A 
ENDBRANCH  50  71
BRANCH  62  79
ATOM     79  C   UNL A   1      44.379  32.195  31.756  1.00  0.00     0.057 A 
ATOM     80  C   UNL A   1      44.331  32.359  33.146  1.00  0.00     0.134 A 
ATOM     81  C   UNL A   1      44.765  33.300  30.987  1.00  0.00     0.134 A 
ATOM     82  F   UNL A   1      43.954  31.345  33.939  1.00  0.00    -0.206 F 
ATOM     83  C   UNL A   1      44.643  33.581  33.746  1.00  0.00     0.040 A 
ATOM     84  C   UNL A   1      45.106  34.517  31.576  1.00  0.00     0.040 A 
ATOM     85  F   UNL A   1      44.839  33.206  29.650  1.00  0.00    -0.206 F 
ATOM     86  C   UNL A   1      45.042  34.660  32.961  1.00  0.00     0.006 A 
ENDBRANCH  62  79
ENDBRANCH  36  37
ENDBRANCH  28  31
ENDBRANCH  26  27
ENDBRANCH  25  26
ENDBRANCH  24  25
ENDBRANCH   1  24
TORSDOF 16
ENDMDL
MODEL 3
REMARK VINA RESULT:     -11.2      1.903      2.575
REMARK SMILES C=Cc1cncc(-c2ccc([C@@H](C)C(=O)NCCCCCCNC(=O)c3ccc(-c4c5nc(c(-c6c(F)cccc6F)c6ccc([nH]6)c(-c6c(F)cccc6F)c6nc(c(-c7c(F)cccc7F)c7ccc4[nH]7)C=C6)C=C5)cc3)cc2)c1
REMARK SMILES IDX 19 1 18 2 17 3 16 4 14 5 15 6 12 8 13 9 11 10 8 11 9 12
REMARK SMILES IDX 81 13 10 14 80 15 7 16 3 17 4 18 82 19 5 20 6 21 2 22 1 23
REMARK SMILES IDX 20 24 21 25 22 26 23 27 24 28 25 30 26 31 27 32 79 33 28 34
REMARK SMILES IDX 78 35 29 36 30 37 31 38 72 39 32 40 77 41 71 42 73 43 33 44
REMARK SMILES IDX 76 45 70 46 69 47 34 49 60 50 43 51 59 52 44 53 47 54 58 55
REMARK SMILES IDX 74 56 45 57 46 58 57 60 75 61 48 62 35 63 36 64 41 65 37 66
REMARK SMILES IDX 38 67 40 68 42 69 39 70 61 71 62 72 67 73 63 74 64 75 66 76
REMARK SMILES IDX 68 77 65 78 49 79 50 80 55 81 51 82 52 83 54 84 56 85 53 86
REMARK H PARENT 16 7 23 29 73 48 47 59
REMARK Flexibility Score: inf
ROOT
ATOM      1  C   UNL A   1      35.649  23.086  24.877  1.00  0.00     0.002 C 
ENDROOT
BRANCH   1   2
ATOM      2  C   UNL A   1      35.384  24.284  25.795  1.00  0.00     0.021 C 
BRANCH   2   3
ATOM      3  C   UNL A   1      34.496  25.358  25.162  1.00  0.00     0.116 C 
BRANCH   3   4
ATOM      4  N   UNL A   1      33.452  25.787  26.067  1.00  0.00    -0.356 N 
ATOM      5  C   UNL A   1      32.100  25.846  25.926  1.00  0.00     0.227 C 
ATOM      6  O   UNL A   1      31.475  26.369  26.857  1.00  0.00    -0.274 OA
ATOM      7  H   UNL A   1      33.780  26.091  26.944  1.00  0.00     0.163 HD
BRANCH   5   8
ATOM      8  C   UNL A   1      31.341  25.291  24.711  1.00  0.00     0.105 C 
ATOM      9  C   UNL A   1      29.897  25.787  24.607  1.00  0.00     0.023 C 
BRANCH   8  10
ATOM     10  C   UNL A   1      31.550  23.801  24.484  1.00  0.00    -0.036 A 
ATOM     11  C   UNL A   1      32.110  21.035  24.018  1.00  0.00    -0.017 A 
ATOM     12  C   UNL A   1      31.695  21.503  25.273  1.00  0.00     0.009 A 
ATOM     13  C   UNL A   1      32.208  21.982  22.988  1.00  0.00     0.009 A 
ATOM     14  C   UNL A   1      31.384  22.849  25.492  1.00  0.00     0.005 A 
ATOM     15  C   UNL A   1      31.952  23.342  23.220  1.00  0.00     0.005 A 
BRANCH  11  16
ATOM     16  C   UNL A   1      32.422  19.606  23.814  1.00  0.00     0.001 A 
ATOM     17  C   UNL A   1      32.902  17.360  24.643  1.00  0.00    -0.007 A 
ATOM     18  C   UNL A   1      32.936  16.937  23.318  1.00  0.00     0.119 A 
ATOM     19  C   UNL A   1      32.647  18.718  24.879  1.00  0.00     0.020 A 
ATOM     20  N   UNL A   1      32.731  17.745  22.255  1.00  0.00    -0.263 NA
ATOM     21  C   UNL A   1      32.488  19.048  22.532  1.00  0.00     0.119 A 
BRANCH  17  22
ATOM     22  C   UNL A   1      33.182  16.402  25.716  1.00  0.00     0.002 C 
ATOM     23  C   UNL A   1      32.948  15.087  25.626  1.00  0.00     0.009 C 
ENDBRANCH  17  22
ENDBRANCH  11  16
ENDBRANCH   8  10
ENDBRANCH   5   8
ENDBRANCH   3   4
ENDBRANCH   2   3
ENDBRANCH   1   2
BRANCH   1  24
ATOM     24  C   UNL A   1      35.295  21.720  25.478  1.00  0.00     0.002 C 
BRANCH  24  25
ATOM     25  C   UNL A   1      36.179  20.554  25.025  1.00  0.00     0.021 C 
BRANCH  25  26
ATOM     26  C   UNL A   1      37.649  20.915  24.830  1.00  0.00     0.116 C 
BRANCH  26  27
ATOM     27  N   UNL A   1      38.529  19.843  25.274  1.00  0.00    -0.352 N 
ATOM     28  C   UNL A   1      39.777  19.917  25.843  1.00  0.00     0.251 C 
ATOM     29  H   UNL A   1      38.179  18.933  25.147  1.00  0.00     0.163 HD
ATOM     30  O   UNL A   1      40.481  18.917  25.927  1.00  0.00    -0.269 OA
BRANCH  28  31
ATOM     31  C   UNL A   1      40.275  21.214  26.346  1.00  0.00     0.039 A 
ATOM     32  C   UNL A   1      41.495  21.259  27.024  1.00  0.00     0.014 A 
ATOM     33  C   UNL A   1      39.534  22.382  26.146  1.00  0.00     0.014 A 
ATOM     34  C   UNL A   1      42.010  22.490  27.436  1.00  0.00     0.010 A 
ATOM     35  C   UNL A   1      40.079  23.612  26.496  1.00  0.00     0.010 A 
ATOM     36  C   UNL A   1      41.327  23.679  27.135  1.00  0.00    -0.014 A 
BRANCH  36  37
ATOM     37  C   UNL A   1      41.908  25.008  27.449  1.00  0.00     0.031 A 
ATOM     38  C   UNL A   1      41.106  26.026  28.207  1.00  0.00     0.074 A 
ATOM     39  C   UNL A   1      43.130  25.324  26.974  1.00  0.00     0.049 A 
ATOM     40  N   UNL A   1      41.399  27.272  28.481  1.00  0.00    -0.248 NA
ATOM     41  C   UNL A   1      39.789  25.596  28.702  1.00  0.00     0.031 C 
ATOM     42  C   UNL A   1      43.990  24.433  26.193  1.00  0.00     0.029 A 
ATOM     43  N   UNL A   1      43.851  26.488  27.062  1.00  0.00    -0.354 N 
ATOM     44  C   UNL A   1      40.302  27.777  29.167  1.00  0.00     0.074 A 
ATOM     45  C   UNL A   1      39.317  26.718  29.227  1.00  0.00     0.031 C 
ATOM     46  C   UNL A   1      45.127  25.077  25.886  1.00  0.00     0.029 A 
ATOM     47  C   UNL A   1      45.057  26.439  26.405  1.00  0.00     0.049 A 
ATOM     48  H   UNL A   1      43.534  27.282  27.549  1.00  0.00     0.167 HD
ATOM     49  C   UNL A   1      40.141  29.005  29.715  1.00  0.00     0.037 A 
ATOM     50  C   UNL A   1      45.992  27.390  26.223  1.00  0.00     0.037 A 
ATOM     51  C   UNL A   1      41.131  30.048  29.665  1.00  0.00     0.049 A 
ATOM     52  C   UNL A   1      45.770  28.758  26.806  1.00  0.00     0.074 A 
ATOM     53  C   UNL A   1      41.087  31.305  30.244  1.00  0.00     0.029 A 
ATOM     54  N   UNL A   1      42.339  29.961  28.990  1.00  0.00    -0.354 N 
ATOM     55  N   UNL A   1      44.759  29.199  27.516  1.00  0.00    -0.248 NA
ATOM     56  C   UNL A   1      46.814  29.763  26.560  1.00  0.00     0.031 C 
ATOM     57  C   UNL A   1      42.245  31.997  29.875  1.00  0.00     0.029 A 
ATOM     58  C   UNL A   1      43.034  31.153  29.109  1.00  0.00     0.049 A 
ATOM     59  H   UNL A   1      42.656  29.167  28.500  1.00  0.00     0.167 HD
ATOM     60  C   UNL A   1      45.055  30.521  27.820  1.00  0.00     0.074 A 
ATOM     61  C   UNL A   1      46.348  30.807  27.232  1.00  0.00     0.031 C 
ATOM     62  C   UNL A   1      44.321  31.420  28.520  1.00  0.00     0.037 A 
BRANCH  49  63
ATOM     63  C   UNL A   1      38.845  29.287  30.418  1.00  0.00     0.057 A 
ATOM     64  C   UNL A   1      38.675  29.034  31.785  1.00  0.00     0.134 A 
ATOM     65  C   UNL A   1      37.770  29.865  29.730  1.00  0.00     0.134 A 
ATOM     66  F   UNL A   1      39.663  28.473  32.501  1.00  0.00    -0.206 F 
ATOM     67  C   UNL A   1      37.476  29.321  32.438  1.00  0.00     0.040 A 
ATOM     68  C   UNL A   1      36.575  30.182  30.379  1.00  0.00     0.040 A 
ATOM     69  F   UNL A   1      37.867  30.142  28.422  1.00  0.00    -0.206 F 
ATOM     70  C   UNL A   1      36.423  29.905  31.736  1.00  0.00     0.006 A 
ENDBRANCH  49  63
BRANCH  50  71
ATOM     71  C   UNL A   1      47.226  27.087  25.454  1.00  0.00     0.057 A 
ATOM     72  C   UNL A   1      48.305  26.427  26.053  1.00  0.00     0.134 A 
ATOM     73  C   UNL A   1      47.362  27.457  24.110  1.00  0.00     0.134 A 
ATOM     74  F   UNL A   1      48.243  26.064  27.342  1.00  0.00    -0.206 F 
ATOM     75  C   UNL A   1      49.483  26.165  25.352  1.00  0.00     0.040 A 
ATOM     76  C   UNL A   1      48.524  27.177  23.389  1.00  0.00     0.040 A 
ATOM     77  F   UNL A   1      46.362  28.085  23.475  1.00  0.00    -0.206 F 
ATOM     78  C   UNL A   1      49.593  26.536  24.012  1.00  0.00     0.006 A 
ENDBRANCH  50  71
BRANCH  62  79
ATOM     79  C   UNL A   1      44.904  32.790  28.709  1.00  0.00     0.057 A 
ATOM     80  C   UNL A   1      45.776  33.080  29.765  1.00  0.00     0.134 A 
ATOM     81  C   UNL A   1      44.635  33.814  27.791  1.00  0.00     0.134 A 
ATOM     82  F   UNL A   1      46.063  32.148  30.687  1.00  0.00    -0.206 F 
ATOM     83  C   UNL A   1      46.351  34.344  29.909  1.00  0.00     0.040 A 
ATOM     84  C   UNL A   1      45.224  35.072  27.909  1.00  0.00     0.040 A 
ATOM     85  F   UNL A   1      43.814  33.598  26.752  1.00  0.00    -0.206 F 
ATOM     86  C   UNL A   1      46.083  35.341  28.973  1.00  0.00     0.006 A 
ENDBRANCH  62  79
ENDBRANCH  36  37
ENDBRANCH  28  31
ENDBRANCH  26  27
ENDBRANCH  25  26
ENDBRANCH  24  25
ENDBRANCH   1  24
TORSDOF 16
ENDMDL
