MODEL 1
REMARK VINA RESULT:     -11.4      0.000      0.000
REMARK SMILES O=C(NCCCCCCNC(=O)[C@H]1CSCN1C(=O)Nc1ccc(F)cc1F)c1ccc(-c2c3nc(c(-c4c(F)cccc4F)c4ccc([nH]4)c(-c4c(F)cccc4F)c4nc(c(-c5c(F)cccc5F)c5ccc2[nH]5)C=C4)C=C3)cc1
REMARK SMILES IDX 6 1 5 2 4 3 3 4 1 5 2 6 29 8 30 9 82 10 31 11 81 12 32 13
REMARK SMILES IDX 33 14 34 15 75 16 35 17 80 18 74 19 76 20 36 21 79 22 73 23
REMARK SMILES IDX 72 24 37 26 63 27 46 28 62 29 47 30 50 31 61 32 77 33 48 34
REMARK SMILES IDX 49 35 60 37 78 38 51 39 38 40 39 41 44 42 40 43 41 44 43 45
REMARK SMILES IDX 45 46 42 47 64 48 65 49 70 50 66 51 67 52 69 53 71 54 68 55
REMARK SMILES IDX 52 56 53 57 58 58 54 59 55 60 57 61 59 62 56 63 7 64 8 65
REMARK SMILES IDX 9 66 10 67 11 68 12 70 13 71 14 72 17 73 15 74 16 75 18 76
REMARK SMILES IDX 19 77 20 78 21 80 22 81 27 82 23 83 26 84 28 85 24 86 25 87
REMARK H PARENT 3 7 76 25 50 36 10 69 20 79
REMARK Flexibility Score: inf
ROOT
ATOM      1  C   UNL A   1      37.506  20.880  24.576  1.00  0.00     0.002 C 
ENDROOT
BRANCH   1   2
ATOM      2  C   UNL A   1      38.276  19.605  24.920  1.00  0.00     0.021 C 
BRANCH   2   3
ATOM      3  C   UNL A   1      39.234  19.759  26.092  1.00  0.00     0.116 C 
BRANCH   3   4
ATOM      4  N   UNL A   1      40.470  19.022  25.883  1.00  0.00    -0.352 N 
ATOM      5  O   UNL A   1      42.685  18.776  25.527  1.00  0.00    -0.269 OA
ATOM      6  C   UNL A   1      41.765  19.475  25.930  1.00  0.00     0.251 C 
ATOM      7  H   UNL A   1      40.362  18.065  25.679  1.00  0.00     0.163 HD
BRANCH   6   8
ATOM      8  C   UNL A   1      42.038  20.827  26.463  1.00  0.00     0.039 A 
ATOM      9  C   UNL A   1      42.032  21.056  27.840  1.00  0.00     0.014 A 
ATOM     10  C   UNL A   1      42.312  21.869  25.573  1.00  0.00     0.014 A 
ATOM     11  C   UNL A   1      42.173  22.349  28.325  1.00  0.00     0.010 A 
ATOM     12  C   UNL A   1      42.546  23.154  26.069  1.00  0.00     0.010 A 
ATOM     13  C   UNL A   1      42.461  23.406  27.447  1.00  0.00    -0.014 A 
BRANCH  13  14
ATOM     14  C   UNL A   1      42.770  24.746  28.003  1.00  0.00     0.031 A 
ATOM     15  C   UNL A   1      41.692  25.764  28.232  1.00  0.00     0.074 A 
ATOM     16  C   UNL A   1      44.051  25.027  28.310  1.00  0.00     0.049 A 
ATOM     17  N   UNL A   1      41.802  26.984  28.695  1.00  0.00    -0.248 NA
ATOM     18  C   UNL A   1      40.314  25.372  27.896  1.00  0.00     0.031 C 
ATOM     19  C   UNL A   1      45.180  24.112  28.120  1.00  0.00     0.029 A 
ATOM     20  N   UNL A   1      44.623  26.149  28.850  1.00  0.00    -0.354 N 
ATOM     21  C   UNL A   1      40.517  27.509  28.693  1.00  0.00     0.074 A 
ATOM     22  C   UNL A   1      39.644  26.486  28.160  1.00  0.00     0.031 C 
ATOM     23  C   UNL A   1      46.299  24.692  28.576  1.00  0.00     0.029 A 
ATOM     24  C   UNL A   1      45.981  26.044  29.020  1.00  0.00     0.049 A 
ATOM     25  H   UNL A   1      44.108  26.953  29.095  1.00  0.00     0.167 HD
ATOM     26  C   UNL A   1      40.109  28.733  29.107  1.00  0.00     0.037 A 
ATOM     27  C   UNL A   1      46.883  26.943  29.456  1.00  0.00     0.037 A 
ATOM     28  C   UNL A   1      40.991  29.739  29.647  1.00  0.00     0.049 A 
ATOM     29  C   UNL A   1      46.407  28.305  29.864  1.00  0.00     0.074 A 
ATOM     30  C   UNL A   1      40.666  30.995  30.130  1.00  0.00     0.029 A 
ATOM     31  N   UNL A   1      42.366  29.608  29.767  1.00  0.00    -0.354 N 
ATOM     32  N   UNL A   1      45.184  28.776  29.892  1.00  0.00    -0.248 NA
ATOM     33  C   UNL A   1      47.433  29.265  30.294  1.00  0.00     0.031 C 
ATOM     34  C   UNL A   1      41.849  31.645  30.488  1.00  0.00     0.029 A 
ATOM     35  C   UNL A   1      42.908  30.773  30.286  1.00  0.00     0.049 A 
ATOM     36  H   UNL A   1      42.882  28.806  29.520  1.00  0.00     0.167 HD
ATOM     37  C   UNL A   1      45.290  30.080  30.353  1.00  0.00     0.074 A 
ATOM     38  C   UNL A   1      46.694  30.319  30.614  1.00  0.00     0.031 C 
ATOM     39  C   UNL A   1      44.309  30.996  30.540  1.00  0.00     0.037 A 
BRANCH  26  40
ATOM     40  C   UNL A   1      38.651  29.071  28.991  1.00  0.00     0.057 A 
ATOM     41  C   UNL A   1      38.131  29.579  27.793  1.00  0.00     0.134 A 
ATOM     42  C   UNL A   1      37.781  28.981  30.085  1.00  0.00     0.134 A 
ATOM     43  F   UNL A   1      38.911  29.700  26.708  1.00  0.00    -0.206 F 
ATOM     44  C   UNL A   1      36.804  30.001  27.693  1.00  0.00     0.040 A 
ATOM     45  C   UNL A   1      36.445  29.378  29.989  1.00  0.00     0.040 A 
ATOM     46  F   UNL A   1      38.212  28.496  31.259  1.00  0.00    -0.206 F 
ATOM     47  C   UNL A   1      35.956  29.900  28.793  1.00  0.00     0.006 A 
ENDBRANCH  26  40
BRANCH  27  48
ATOM     48  C   UNL A   1      48.318  26.570  29.515  1.00  0.00     0.057 A 
ATOM     49  C   UNL A   1      49.162  26.743  28.409  1.00  0.00     0.134 A 
ATOM     50  C   UNL A   1      48.871  25.996  30.664  1.00  0.00     0.134 A 
ATOM     51  F   UNL A   1      48.690  27.278  27.274  1.00  0.00    -0.206 F 
ATOM     52  C   UNL A   1      50.495  26.336  28.435  1.00  0.00     0.040 A 
ATOM     53  C   UNL A   1      50.211  25.611  30.715  1.00  0.00     0.040 A 
ATOM     54  F   UNL A   1      48.118  25.818  31.759  1.00  0.00    -0.206 F 
ATOM     55  C   UNL A   1      51.025  25.772  29.594  1.00  0.00     0.006 A 
ENDBRANCH  27  48
BRANCH  39  56
ATOM     56  C   UNL A   1      44.713  32.342  31.066  1.00  0.00     0.057 A 
ATOM     57  C   UNL A   1      44.763  32.583  32.445  1.00  0.00     0.134 A 
ATOM     58  C   UNL A   1      44.979  33.417  30.210  1.00  0.00     0.134 A 
ATOM     59  F   UNL A   1      44.511  31.597  33.319  1.00  0.00    -0.206 F 
ATOM     60  C   UNL A   1      45.046  33.851  32.954  1.00  0.00     0.040 A 
ATOM     61  C   UNL A   1      45.289  34.683  30.707  1.00  0.00     0.040 A 
ATOM     62  F   UNL A   1      44.960  33.248  28.879  1.00  0.00    -0.206 F 
ATOM     63  C   UNL A   1      45.312  34.905  32.083  1.00  0.00     0.006 A 
ENDBRANCH  39  56
ENDBRANCH  13  14
ENDBRANCH   6   8
ENDBRANCH   3   4
ENDBRANCH   2   3
ENDBRANCH   1   2
BRANCH   1  64
ATOM     64  C   UNL A   1      37.822  22.082  25.474  1.00  0.00     0.002 C 
BRANCH  64  65
ATOM     65  C   UNL A   1      37.022  23.351  25.154  1.00  0.00     0.021 C 
BRANCH  65  66
ATOM     66  C   UNL A   1      36.046  23.748  26.260  1.00  0.00     0.116 C 
BRANCH  66  67
ATOM     67  N   UNL A   1      35.309  22.595  26.749  1.00  0.00    -0.354 N 
ATOM     68  C   UNL A   1      34.011  22.231  26.494  1.00  0.00     0.243 C 
ATOM     69  H   UNL A   1      35.809  21.993  27.346  1.00  0.00     0.163 HD
ATOM     70  O   UNL A   1      33.536  21.266  27.093  1.00  0.00    -0.273 OA
BRANCH  68  71
ATOM     71  C   UNL A   1      33.272  22.957  25.360  1.00  0.00     0.187 C 
ATOM     72  C   UNL A   1      33.585  22.162  24.087  1.00  0.00     0.106 C 
ATOM     73  N   UNL A   1      31.824  23.124  25.487  1.00  0.00    -0.302 N 
ATOM     74  S   UNL A   1      32.148  22.327  23.008  1.00  0.00    -0.138 SA
ATOM     75  C   UNL A   1      31.249  23.359  24.177  1.00  0.00     0.192 C 
BRANCH  73  76
ATOM     76  C   UNL A   1      31.378  23.740  26.636  1.00  0.00     0.323 C 
ATOM     77  O   UNL A   1      30.804  23.101  27.523  1.00  0.00    -0.248 OA
ATOM     78  N   UNL A   1      31.674  25.037  26.904  1.00  0.00    -0.305 N 
ATOM     79  H   UNL A   1      31.570  25.280  27.852  1.00  0.00     0.171 HD
BRANCH  78  80
ATOM     80  C   UNL A   1      32.100  26.094  26.093  1.00  0.00     0.079 A 
ATOM     81  C   UNL A   1      33.438  26.480  25.977  1.00  0.00     0.032 A 
ATOM     82  C   UNL A   1      31.109  26.834  25.437  1.00  0.00     0.149 A 
ATOM     83  C   UNL A   1      33.749  27.686  25.345  1.00  0.00     0.041 A 
ATOM     84  C   UNL A   1      31.409  28.037  24.816  1.00  0.00     0.080 A 
ATOM     85  F   UNL A   1      29.828  26.439  25.509  1.00  0.00    -0.205 F 
ATOM     86  C   UNL A   1      32.730  28.467  24.803  1.00  0.00     0.126 A 
ATOM     87  F   UNL A   1      33.025  29.663  24.278  1.00  0.00    -0.207 F 
ENDBRANCH  78  80
ENDBRANCH  73  76
ENDBRANCH  68  71
ENDBRANCH  66  67
ENDBRANCH  65  66
ENDBRANCH  64  65
ENDBRANCH   1  64
TORSDOF 15
ENDMDL
MODEL 2
REMARK VINA RESULT:     -11.3      1.117      6.203
REMARK SMILES O=C(NCCCCCCNC(=O)[C@H]1CSCN1C(=O)Nc1ccc(F)cc1F)c1ccc(-c2c3nc(c(-c4c(F)cccc4F)c4ccc([nH]4)c(-c4c(F)cccc4F)c4nc(c(-c5c(F)cccc5F)c5ccc2[nH]5)C=C4)C=C3)cc1
REMARK SMILES IDX 6 1 5 2 4 3 3 4 1 5 2 6 29 8 30 9 82 10 31 11 81 12 32 13
REMARK SMILES IDX 33 14 34 15 75 16 35 17 80 18 74 19 76 20 36 21 79 22 73 23
REMARK SMILES IDX 72 24 37 26 63 27 46 28 62 29 47 30 50 31 61 32 77 33 48 34
REMARK SMILES IDX 49 35 60 37 78 38 51 39 38 40 39 41 44 42 40 43 41 44 43 45
REMARK SMILES IDX 45 46 42 47 64 48 65 49 70 50 66 51 67 52 69 53 71 54 68 55
REMARK SMILES IDX 52 56 53 57 58 58 54 59 55 60 57 61 59 62 56 63 7 64 8 65
REMARK SMILES IDX 9 66 10 67 11 68 12 70 13 71 14 72 17 73 15 74 16 75 18 76
REMARK SMILES IDX 19 77 20 78 21 80 22 81 27 82 23 83 26 84 28 85 24 86 25 87
REMARK H PARENT 3 7 76 25 50 36 10 69 20 79
REMARK Flexibility Score: inf
ROOT
ATOM      1  C   UNL A   1      37.404  20.905  24.599  1.00  0.00     0.002 C 
ENDROOT
BRANCH   1   2
ATOM      2  C   UNL A   1      38.233  19.670  24.952  1.00  0.00     0.021 C 
BRANCH   2   3
ATOM      3  C   UNL A   1      39.212  19.889  26.097  1.00  0.00     0.116 C 
BRANCH   3   4
ATOM      4  N   UNL A   1      40.355  18.993  26.012  1.00  0.00    -0.352 N 
ATOM      5  O   UNL A   1      42.529  18.450  25.751  1.00  0.00    -0.269 OA
ATOM      6  C   UNL A   1      41.693  19.295  26.040  1.00  0.00     0.251 C 
ATOM      7  H   UNL A   1      40.137  18.038  25.923  1.00  0.00     0.163 HD
BRANCH   6   8
ATOM      8  C   UNL A   1      42.118  20.662  26.412  1.00  0.00     0.039 A 
ATOM      9  C   UNL A   1      42.380  21.612  25.423  1.00  0.00     0.014 A 
ATOM     10  C   UNL A   1      42.243  20.994  27.763  1.00  0.00     0.014 A 
ATOM     11  C   UNL A   1      42.890  22.854  25.777  1.00  0.00     0.010 A 
ATOM     12  C   UNL A   1      42.668  22.276  28.121  1.00  0.00     0.010 A 
ATOM     13  C   UNL A   1      43.011  23.209  27.130  1.00  0.00    -0.014 A 
BRANCH  13  14
ATOM     14  C   UNL A   1      43.401  24.596  27.483  1.00  0.00     0.031 A 
ATOM     15  C   UNL A   1      44.831  25.044  27.424  1.00  0.00     0.074 A 
ATOM     16  C   UNL A   1      42.431  25.454  27.853  1.00  0.00     0.049 A 
ATOM     17  N   UNL A   1      45.335  26.217  27.716  1.00  0.00    -0.248 NA
ATOM     18  C   UNL A   1      45.828  24.055  26.986  1.00  0.00     0.031 C 
ATOM     19  C   UNL A   1      41.007  25.121  27.952  1.00  0.00     0.029 A 
ATOM     20  N   UNL A   1      42.485  26.778  28.204  1.00  0.00    -0.354 N 
ATOM     21  C   UNL A   1      46.704  26.104  27.513  1.00  0.00     0.074 A 
ATOM     22  C   UNL A   1      46.958  24.742  27.096  1.00  0.00     0.031 C 
ATOM     23  C   UNL A   1      40.320  26.218  28.296  1.00  0.00     0.029 A 
ATOM     24  C   UNL A   1      41.259  27.313  28.514  1.00  0.00     0.049 A 
ATOM     25  H   UNL A   1      43.322  27.296  28.230  1.00  0.00     0.167 HD
ATOM     26  C   UNL A   1      47.655  27.058  27.657  1.00  0.00     0.037 A 
ATOM     27  C   UNL A   1      40.923  28.539  28.955  1.00  0.00     0.037 A 
ATOM     28  C   UNL A   1      47.385  28.414  28.064  1.00  0.00     0.049 A 
ATOM     29  C   UNL A   1      42.005  29.560  29.149  1.00  0.00     0.074 A 
ATOM     30  C   UNL A   1      48.278  29.464  28.200  1.00  0.00     0.029 A 
ATOM     31  N   UNL A   1      46.135  28.907  28.406  1.00  0.00    -0.354 N 
ATOM     32  N   UNL A   1      43.291  29.450  28.917  1.00  0.00    -0.248 NA
ATOM     33  C   UNL A   1      41.594  30.870  29.671  1.00  0.00     0.031 C 
ATOM     34  C   UNL A   1      47.579  30.574  28.680  1.00  0.00     0.029 A 
ATOM     35  C   UNL A   1      46.238  30.236  28.785  1.00  0.00     0.049 A 
ATOM     36  H   UNL A   1      45.297  28.390  28.383  1.00  0.00     0.167 HD
ATOM     37  C   UNL A   1      43.841  30.678  29.253  1.00  0.00     0.074 A 
ATOM     38  C   UNL A   1      42.748  31.525  29.682  1.00  0.00     0.031 C 
ATOM     39  C   UNL A   1      45.139  31.065  29.210  1.00  0.00     0.037 A 
BRANCH  26  40
ATOM     40  C   UNL A   1      49.084  26.680  27.385  1.00  0.00     0.057 A 
ATOM     41  C   UNL A   1      49.624  26.818  26.100  1.00  0.00     0.134 A 
ATOM     42  C   UNL A   1      49.895  26.098  28.367  1.00  0.00     0.134 A 
ATOM     43  F   UNL A   1      48.899  27.360  25.109  1.00  0.00    -0.206 F 
ATOM     44  C   UNL A   1      50.913  26.374  25.797  1.00  0.00     0.040 A 
ATOM     45  C   UNL A   1      51.194  25.673  28.082  1.00  0.00     0.040 A 
ATOM     46  F   UNL A   1      49.442  25.944  29.621  1.00  0.00    -0.206 F 
ATOM     47  C   UNL A   1      51.703  25.801  26.790  1.00  0.00     0.006 A 
ENDBRANCH  26  40
BRANCH  27  48
ATOM     48  C   UNL A   1      39.501  28.848  29.246  1.00  0.00     0.057 A 
ATOM     49  C   UNL A   1      38.955  28.640  30.519  1.00  0.00     0.134 A 
ATOM     50  C   UNL A   1      38.645  29.322  28.247  1.00  0.00     0.134 A 
ATOM     51  F   UNL A   1      39.722  28.176  31.517  1.00  0.00    -0.206 F 
ATOM     52  C   UNL A   1      37.605  28.866  30.783  1.00  0.00     0.040 A 
ATOM     53  C   UNL A   1      37.297  29.582  28.504  1.00  0.00     0.040 A 
ATOM     54  F   UNL A   1      39.111  29.555  27.012  1.00  0.00    -0.206 F 
ATOM     55  C   UNL A   1      36.773  29.344  29.773  1.00  0.00     0.006 A 
ENDBRANCH  27  48
BRANCH  39  56
ATOM     56  C   UNL A   1      45.453  32.474  29.624  1.00  0.00     0.057 A 
ATOM     57  C   UNL A   1      45.682  32.787  30.971  1.00  0.00     0.134 A 
ATOM     58  C   UNL A   1      45.455  33.528  28.704  1.00  0.00     0.134 A 
ATOM     59  F   UNL A   1      45.686  31.823  31.904  1.00  0.00    -0.206 F 
ATOM     60  C   UNL A   1      45.883  34.102  31.388  1.00  0.00     0.040 A 
ATOM     61  C   UNL A   1      45.682  34.845  29.106  1.00  0.00     0.040 A 
ATOM     62  F   UNL A   1      45.256  33.292  27.398  1.00  0.00    -0.206 F 
ATOM     63  C   UNL A   1      45.886  35.136  30.454  1.00  0.00     0.006 A 
ENDBRANCH  39  56
ENDBRANCH  13  14
ENDBRANCH   6   8
ENDBRANCH   3   4
ENDBRANCH   2   3
ENDBRANCH   1   2
BRANCH   1  64
ATOM     64  C   UNL A   1      37.795  22.178  25.358  1.00  0.00     0.002 C 
BRANCH  64  65
ATOM     65  C   UNL A   1      36.988  23.426  24.978  1.00  0.00     0.021 C 
BRANCH  65  66
ATOM     66  C   UNL A   1      36.050  23.902  26.085  1.00  0.00     0.116 C 
BRANCH  66  67
ATOM     67  N   UNL A   1      35.349  22.786  26.696  1.00  0.00    -0.354 N 
ATOM     68  C   UNL A   1      34.048  22.387  26.525  1.00  0.00     0.243 C 
ATOM     69  H   UNL A   1      35.881  22.240  27.320  1.00  0.00     0.163 HD
ATOM     70  O   UNL A   1      33.611  21.469  27.220  1.00  0.00    -0.273 OA
BRANCH  68  71
ATOM     71  C   UNL A   1      33.255  23.008  25.366  1.00  0.00     0.187 C 
ATOM     72  C   UNL A   1      33.577  22.149  24.137  1.00  0.00     0.106 C 
ATOM     73  N   UNL A   1      31.803  23.120  25.515  1.00  0.00    -0.302 N 
ATOM     74  S   UNL A   1      32.112  22.184  23.084  1.00  0.00    -0.138 SA
ATOM     75  C   UNL A   1      31.192  23.247  24.207  1.00  0.00     0.192 C 
BRANCH  73  76
ATOM     76  C   UNL A   1      31.354  23.787  26.634  1.00  0.00     0.323 C 
ATOM     77  O   UNL A   1      30.777  23.188  27.547  1.00  0.00    -0.248 OA
ATOM     78  N   UNL A   1      31.649  25.094  26.845  1.00  0.00    -0.305 N 
ATOM     79  H   UNL A   1      31.541  25.380  27.781  1.00  0.00     0.171 HD
BRANCH  78  80
ATOM     80  C   UNL A   1      32.076  26.114  25.988  1.00  0.00     0.079 A 
ATOM     81  C   UNL A   1      33.410  26.515  25.880  1.00  0.00     0.032 A 
ATOM     82  C   UNL A   1      31.089  26.803  25.273  1.00  0.00     0.149 A 
ATOM     83  C   UNL A   1      33.718  27.690  25.191  1.00  0.00     0.041 A 
ATOM     84  C   UNL A   1      31.385  27.977  24.597  1.00  0.00     0.080 A 
ATOM     85  F   UNL A   1      29.813  26.393  25.340  1.00  0.00    -0.205 F 
ATOM     86  C   UNL A   1      32.699  28.426  24.588  1.00  0.00     0.126 A 
ATOM     87  F   UNL A   1      32.988  29.597  24.007  1.00  0.00    -0.207 F 
ENDBRANCH  78  80
ENDBRANCH  73  76
ENDBRANCH  68  71
ENDBRANCH  66  67
ENDBRANCH  65  66
ENDBRANCH  64  65
ENDBRANCH   1  64
TORSDOF 15
ENDMDL
MODEL 3
REMARK VINA RESULT:     -11.2      4.538      8.906
REMARK SMILES O=C(NCCCCCCNC(=O)[C@H]1CSCN1C(=O)Nc1ccc(F)cc1F)c1ccc(-c2c3nc(c(-c4c(F)cccc4F)c4ccc([nH]4)c(-c4c(F)cccc4F)c4nc(c(-c5c(F)cccc5F)c5ccc2[nH]5)C=C4)C=C3)cc1
REMARK SMILES IDX 6 1 5 2 4 3 3 4 1 5 2 6 29 8 30 9 82 10 31 11 81 12 32 13
REMARK SMILES IDX 33 14 34 15 75 16 35 17 80 18 74 19 76 20 36 21 79 22 73 23
REMARK SMILES IDX 72 24 37 26 63 27 46 28 62 29 47 30 50 31 61 32 77 33 48 34
REMARK SMILES IDX 49 35 60 37 78 38 51 39 38 40 39 41 44 42 40 43 41 44 43 45
REMARK SMILES IDX 45 46 42 47 64 48 65 49 70 50 66 51 67 52 69 53 71 54 68 55
REMARK SMILES IDX 52 56 53 57 58 58 54 59 55 60 57 61 59 62 56 63 7 64 8 65
REMARK SMILES IDX 9 66 10 67 11 68 12 70 13 71 14 72 17 73 15 74 16 75 18 76
REMARK SMILES IDX 19 77 20 78 21 80 22 81 27 82 23 83 26 84 28 85 24 86 25 87
REMARK H PARENT 3 7 76 25 50 36 10 69 20 79
REMARK Flexibility Score: inf
ROOT
ATOM      1  C   UNL A   1      31.717  30.623  26.833  1.00  0.00     0.002 C 
ENDROOT
BRANCH   1   2
ATOM      2  C   UNL A   1      31.461  32.129  26.881  1.00  0.00     0.021 C 
BRANCH   2   3
ATOM      3  C   UNL A   1      32.729  32.971  26.900  1.00  0.00     0.116 C 
BRANCH   3   4
ATOM      4  N   UNL A   1      32.525  34.243  27.573  1.00  0.00    -0.352 N 
ATOM      5  O   UNL A   1      32.679  35.722  29.271  1.00  0.00    -0.269 OA
ATOM      6  C   UNL A   1      33.110  34.718  28.721  1.00  0.00     0.251 C 
ATOM      7  H   UNL A   1      31.877  34.848  27.146  1.00  0.00     0.163 HD
BRANCH   6   8
ATOM      8  C   UNL A   1      34.264  33.994  29.296  1.00  0.00     0.039 A 
ATOM      9  C   UNL A   1      35.568  34.403  29.006  1.00  0.00     0.014 A 
ATOM     10  C   UNL A   1      34.035  32.905  30.139  1.00  0.00     0.014 A 
ATOM     11  C   UNL A   1      36.643  33.648  29.454  1.00  0.00     0.010 A 
ATOM     12  C   UNL A   1      35.121  32.201  30.666  1.00  0.00     0.010 A 
ATOM     13  C   UNL A   1      36.432  32.557  30.313  1.00  0.00    -0.014 A 
BRANCH  13  14
ATOM     14  C   UNL A   1      37.603  31.869  30.909  1.00  0.00     0.031 A 
ATOM     15  C   UNL A   1      38.085  32.201  32.290  1.00  0.00     0.074 A 
ATOM     16  C   UNL A   1      38.223  30.922  30.179  1.00  0.00     0.049 A 
ATOM     17  N   UNL A   1      39.102  31.701  32.946  1.00  0.00    -0.248 NA
ATOM     18  C   UNL A   1      37.339  33.228  33.034  1.00  0.00     0.031 C 
ATOM     19  C   UNL A   1      37.841  30.524  28.821  1.00  0.00     0.029 A 
ATOM     20  N   UNL A   1      39.293  30.117  30.470  1.00  0.00    -0.354 N 
ATOM     21  C   UNL A   1      39.128  32.359  34.168  1.00  0.00     0.074 A 
ATOM     22  C   UNL A   1      38.040  33.314  34.157  1.00  0.00     0.031 C 
ATOM     23  C   UNL A   1      38.635  29.524  28.415  1.00  0.00     0.029 A 
ATOM     24  C   UNL A   1      39.628  29.261  29.450  1.00  0.00     0.049 A 
ATOM     25  H   UNL A   1      39.775  30.148  31.329  1.00  0.00     0.167 HD
ATOM     26  C   UNL A   1      39.981  32.173  35.204  1.00  0.00     0.037 A 
ATOM     27  C   UNL A   1      40.639  28.379  29.341  1.00  0.00     0.037 A 
ATOM     28  C   UNL A   1      41.055  31.211  35.204  1.00  0.00     0.049 A 
ATOM     29  C   UNL A   1      41.595  28.229  30.487  1.00  0.00     0.074 A 
ATOM     30  C   UNL A   1      41.948  30.921  36.221  1.00  0.00     0.029 A 
ATOM     31  N   UNL A   1      41.385  30.389  34.137  1.00  0.00    -0.354 N 
ATOM     32  N   UNL A   1      41.585  28.831  31.651  1.00  0.00    -0.248 NA
ATOM     33  C   UNL A   1      42.706  27.285  30.304  1.00  0.00     0.031 C 
ATOM     34  C   UNL A   1      42.854  29.968  35.750  1.00  0.00     0.029 A 
ATOM     35  C   UNL A   1      42.489  29.616  34.460  1.00  0.00     0.049 A 
ATOM     36  H   UNL A   1      40.907  30.359  33.276  1.00  0.00     0.167 HD
ATOM     37  C   UNL A   1      42.677  28.331  32.345  1.00  0.00     0.074 A 
ATOM     38  C   UNL A   1      43.314  27.360  31.480  1.00  0.00     0.031 C 
ATOM     39  C   UNL A   1      43.112  28.654  33.587  1.00  0.00     0.037 A 
BRANCH  26  40
ATOM     40  C   UNL A   1      39.807  33.027  36.427  1.00  0.00     0.057 A 
ATOM     41  C   UNL A   1      38.865  32.685  37.406  1.00  0.00     0.134 A 
ATOM     42  C   UNL A   1      40.503  34.231  36.594  1.00  0.00     0.134 A 
ATOM     43  F   UNL A   1      38.156  31.550  37.304  1.00  0.00    -0.206 F 
ATOM     44  C   UNL A   1      38.608  33.518  38.497  1.00  0.00     0.040 A 
ATOM     45  C   UNL A   1      40.272  35.060  37.695  1.00  0.00     0.040 A 
ATOM     46  F   UNL A   1      41.425  34.615  35.699  1.00  0.00    -0.206 F 
ATOM     47  C   UNL A   1      39.314  34.709  38.645  1.00  0.00     0.006 A 
ENDBRANCH  26  40
BRANCH  27  48
ATOM     48  C   UNL A   1      40.788  27.588  28.094  1.00  0.00     0.057 A 
ATOM     49  C   UNL A   1      40.206  26.321  27.960  1.00  0.00     0.134 A 
ATOM     50  C   UNL A   1      41.551  28.064  27.023  1.00  0.00     0.134 A 
ATOM     51  F   UNL A   1      39.473  25.803  28.957  1.00  0.00    -0.206 F 
ATOM     52  C   UNL A   1      40.397  25.544  26.818  1.00  0.00     0.040 A 
ATOM     53  C   UNL A   1      41.725  27.311  25.860  1.00  0.00     0.040 A 
ATOM     54  F   UNL A   1      42.121  29.276  27.084  1.00  0.00    -0.206 F 
ATOM     55  C   UNL A   1      41.155  26.042  25.761  1.00  0.00     0.006 A 
ENDBRANCH  27  48
BRANCH  39  56
ATOM     56  C   UNL A   1      44.330  27.940  34.099  1.00  0.00     0.057 A 
ATOM     57  C   UNL A   1      44.208  26.726  34.788  1.00  0.00     0.134 A 
ATOM     58  C   UNL A   1      45.611  28.490  33.975  1.00  0.00     0.134 A 
ATOM     59  F   UNL A   1      43.007  26.150  34.948  1.00  0.00    -0.206 F 
ATOM     60  C   UNL A   1      45.316  26.094  35.351  1.00  0.00     0.040 A 
ATOM     61  C   UNL A   1      46.731  27.852  34.511  1.00  0.00     0.040 A 
ATOM     62  F   UNL A   1      45.796  29.642  33.314  1.00  0.00    -0.206 F 
ATOM     63  C   UNL A   1      46.583  26.656  35.211  1.00  0.00     0.006 A 
ENDBRANCH  39  56
ENDBRANCH  13  14
ENDBRANCH   6   8
ENDBRANCH   3   4
ENDBRANCH   2   3
ENDBRANCH   1   2
BRANCH   1  64
ATOM     64  C   UNL A   1      33.156  30.205  27.159  1.00  0.00     0.002 C 
BRANCH  64  65
ATOM     65  C   UNL A   1      33.381  28.691  27.246  1.00  0.00     0.021 C 
BRANCH  65  66
ATOM     66  C   UNL A   1      34.257  28.142  26.121  1.00  0.00     0.116 C 
BRANCH  66  67
ATOM     67  N   UNL A   1      33.941  28.777  24.852  1.00  0.00    -0.354 N 
ATOM     68  C   UNL A   1      33.161  28.309  23.826  1.00  0.00     0.243 C 
ATOM     69  H   UNL A   1      34.342  29.664  24.710  1.00  0.00     0.163 HD
ATOM     70  O   UNL A   1      33.102  28.957  22.781  1.00  0.00    -0.273 OA
BRANCH  68  71
ATOM     71  C   UNL A   1      32.285  27.077  24.095  1.00  0.00     0.187 C 
ATOM     72  C   UNL A   1      30.925  27.626  24.543  1.00  0.00     0.106 C 
ATOM     73  N   UNL A   1      32.088  26.126  23.000  1.00  0.00    -0.302 N 
ATOM     74  S   UNL A   1      29.682  26.440  23.995  1.00  0.00    -0.138 SA
ATOM     75  C   UNL A   1      30.896  25.341  23.251  1.00  0.00     0.192 C 
BRANCH  73  76
ATOM     76  C   UNL A   1      33.231  25.614  22.424  1.00  0.00     0.323 C 
ATOM     77  O   UNL A   1      33.640  26.030  21.335  1.00  0.00    -0.248 OA
ATOM     78  N   UNL A   1      34.028  24.739  23.088  1.00  0.00    -0.305 N 
ATOM     79  H   UNL A   1      34.938  24.674  22.719  1.00  0.00     0.171 HD
BRANCH  78  80
ATOM     80  C   UNL A   1      33.805  23.914  24.195  1.00  0.00     0.079 A 
ATOM     81  C   UNL A   1      34.093  24.298  25.507  1.00  0.00     0.032 A 
ATOM     82  C   UNL A   1      33.342  22.617  23.941  1.00  0.00     0.149 A 
ATOM     83  C   UNL A   1      34.070  23.337  26.521  1.00  0.00     0.041 A 
ATOM     84  C   UNL A   1      33.327  21.656  24.940  1.00  0.00     0.080 A 
ATOM     85  F   UNL A   1      33.021  22.260  22.687  1.00  0.00    -0.205 F 
ATOM     86  C   UNL A   1      33.722  22.021  26.220  1.00  0.00     0.126 A 
ATOM     87  F   UNL A   1      33.788  21.088  27.177  1.00  0.00    -0.207 F 
ENDBRANCH  78  80
ENDBRANCH  73  76
ENDBRANCH  68  71
ENDBRANCH  66  67
ENDBRANCH  65  66
ENDBRANCH  64  65
ENDBRANCH   1  64
TORSDOF 15
ENDMDL
