MODEL 1
REMARK VINA RESULT:     -11.9      0.000      0.000
REMARK SMILES O=C(NCCCCCCNC(=O)c1cc(S(=O)(=O)Nc2ccc(F)c(C(F)(F)F)c2)c[nH]1)c1ccc(-c2c3nc(c(-c4c(F)cccc4F)c4ccc([nH]4)c(-c4c(F)cccc4F)c4nc(c(-c5c(F)cccc5F)c5ccc2[nH]5)C=C4)C=C3)cc1
REMARK SMILES IDX 7 1 6 2 5 3 4 4 3 5 1 6 2 7 33 9 34 10 86 11 35 12 85 13
REMARK SMILES IDX 36 14 37 15 38 16 79 17 39 18 84 19 78 20 80 21 40 22 83 23
REMARK SMILES IDX 77 24 76 25 41 27 67 28 50 29 66 30 51 31 54 32 65 33 81 34
REMARK SMILES IDX 52 35 53 36 64 38 82 39 55 40 42 41 43 42 48 43 44 44 45 45
REMARK SMILES IDX 47 46 49 47 46 48 68 49 69 50 74 51 70 52 71 53 73 54 75 55
REMARK SMILES IDX 72 56 56 57 57 58 62 59 58 60 59 61 61 62 63 63 60 64 8 65
REMARK SMILES IDX 9 66 10 67 11 68 12 70 13 71 14 72 32 73 15 74 31 75 16 77
REMARK SMILES IDX 17 78 18 79 19 80 20 82 21 83 30 84 22 85 25 86 23 87 24 88
REMARK SMILES IDX 26 89 27 90 28 91 29 92
REMARK H PARENT 3 8 80 26 54 37 10 69 32 76 19 81
REMARK Flexibility Score: inf
ROOT
ATOM      1  C   UNL A   1      33.495  28.456  24.441  1.00  0.00     0.002 C 
ENDROOT
BRANCH   1   2
ATOM      2  C   UNL A   1      32.671  28.011  25.653  1.00  0.00     0.002 C 
BRANCH   2   3
ATOM      3  C   UNL A   1      33.315  28.268  27.018  1.00  0.00     0.021 C 
BRANCH   3   4
ATOM      4  C   UNL A   1      34.784  28.694  26.967  1.00  0.00     0.116 C 
BRANCH   4   5
ATOM      5  N   UNL A   1      35.081  29.970  27.585  1.00  0.00    -0.352 N 
ATOM      6  O   UNL A   1      36.230  31.640  28.541  1.00  0.00    -0.269 OA
ATOM      7  C   UNL A   1      36.240  30.497  28.089  1.00  0.00     0.251 C 
ATOM      8  H   UNL A   1      34.304  30.571  27.655  1.00  0.00     0.163 HD
BRANCH   7   9
ATOM      9  C   UNL A   1      37.488  29.704  28.163  1.00  0.00     0.039 A 
ATOM     10  C   UNL A   1      38.445  29.709  27.146  1.00  0.00     0.014 A 
ATOM     11  C   UNL A   1      37.711  28.959  29.331  1.00  0.00     0.014 A 
ATOM     12  C   UNL A   1      39.575  28.911  27.251  1.00  0.00     0.010 A 
ATOM     13  C   UNL A   1      38.869  28.194  29.465  1.00  0.00     0.010 A 
ATOM     14  C   UNL A   1      39.800  28.177  28.420  1.00  0.00    -0.014 A 
BRANCH  14  15
ATOM     15  C   UNL A   1      41.147  27.587  28.585  1.00  0.00     0.031 A 
ATOM     16  C   UNL A   1      41.177  26.104  28.197  1.00  0.00     0.074 A 
ATOM     17  C   UNL A   1      42.116  28.380  29.123  1.00  0.00     0.049 A 
ATOM     18  N   UNL A   1      41.944  25.147  28.623  1.00  0.00    -0.248 NA
ATOM     19  C   UNL A   1      40.146  25.594  27.252  1.00  0.00     0.031 C 
ATOM     20  C   UNL A   1      41.924  29.802  29.452  1.00  0.00     0.029 A 
ATOM     21  N   UNL A   1      43.425  28.172  29.512  1.00  0.00    -0.354 N 
ATOM     22  C   UNL A   1      41.618  23.992  27.886  1.00  0.00     0.074 A 
ATOM     23  C   UNL A   1      40.431  24.297  27.145  1.00  0.00     0.031 C 
ATOM     24  C   UNL A   1      43.026  30.303  30.044  1.00  0.00     0.029 A 
ATOM     25  C   UNL A   1      44.044  29.275  30.153  1.00  0.00     0.049 A 
ATOM     26  H   UNL A   1      43.894  27.321  29.353  1.00  0.00     0.167 HD
ATOM     27  C   UNL A   1      42.406  22.882  27.830  1.00  0.00     0.037 A 
ATOM     28  C   UNL A   1      45.266  29.349  30.768  1.00  0.00     0.037 A 
ATOM     29  C   UNL A   1      43.562  23.036  28.644  1.00  0.00     0.049 A 
ATOM     30  C   UNL A   1      45.928  28.055  30.515  1.00  0.00     0.074 A 
ATOM     31  C   UNL A   1      43.776  22.954  29.993  1.00  0.00     0.029 A 
ATOM     32  N   UNL A   1      44.667  23.595  28.053  1.00  0.00    -0.354 N 
ATOM     33  N   UNL A   1      46.414  27.676  29.369  1.00  0.00    -0.248 NA
ATOM     34  C   UNL A   1      46.006  27.076  31.606  1.00  0.00     0.031 C 
ATOM     35  C   UNL A   1      44.869  23.816  30.231  1.00  0.00     0.029 A 
ATOM     36  C   UNL A   1      45.328  24.325  29.012  1.00  0.00     0.049 A 
ATOM     37  H   UNL A   1      44.937  23.493  27.111  1.00  0.00     0.167 HD
ATOM     38  C   UNL A   1      46.548  26.317  29.534  1.00  0.00     0.074 A 
ATOM     39  C   UNL A   1      46.592  26.075  30.957  1.00  0.00     0.031 C 
ATOM     40  C   UNL A   1      46.089  25.475  28.574  1.00  0.00     0.037 A 
BRANCH  27  41
ATOM     41  C   UNL A   1      42.351  21.685  26.930  1.00  0.00     0.057 A 
ATOM     42  C   UNL A   1      43.204  21.500  25.836  1.00  0.00     0.134 A 
ATOM     43  C   UNL A   1      41.644  20.540  27.361  1.00  0.00     0.134 A 
ATOM     44  F   UNL A   1      43.956  22.504  25.363  1.00  0.00    -0.206 F 
ATOM     45  C   UNL A   1      43.384  20.242  25.243  1.00  0.00     0.040 A 
ATOM     46  C   UNL A   1      41.847  19.275  26.805  1.00  0.00     0.040 A 
ATOM     47  F   UNL A   1      40.777  20.611  28.385  1.00  0.00    -0.206 F 
ATOM     48  C   UNL A   1      42.734  19.120  25.749  1.00  0.00     0.006 A 
ENDBRANCH  27  41
BRANCH  28  49
ATOM     49  C   UNL A   1      46.007  30.328  31.659  1.00  0.00     0.057 A 
ATOM     50  C   UNL A   1      47.212  30.938  31.208  1.00  0.00     0.134 A 
ATOM     51  C   UNL A   1      45.675  30.671  32.973  1.00  0.00     0.134 A 
ATOM     52  F   UNL A   1      47.621  30.848  29.936  1.00  0.00    -0.206 F 
ATOM     53  C   UNL A   1      48.077  31.675  32.027  1.00  0.00     0.040 A 
ATOM     54  C   UNL A   1      46.518  31.443  33.800  1.00  0.00     0.040 A 
ATOM     55  F   UNL A   1      44.520  30.304  33.530  1.00  0.00    -0.206 F 
ATOM     56  C   UNL A   1      47.740  31.914  33.342  1.00  0.00     0.006 A 
ENDBRANCH  28  49
BRANCH  40  57
ATOM     57  C   UNL A   1      46.048  26.093  27.193  1.00  0.00     0.057 A 
ATOM     58  C   UNL A   1      44.881  26.600  26.605  1.00  0.00     0.134 A 
ATOM     59  C   UNL A   1      47.229  26.298  26.474  1.00  0.00     0.134 A 
ATOM     60  F   UNL A   1      43.706  26.481  27.218  1.00  0.00    -0.206 F 
ATOM     61  C   UNL A   1      44.872  27.260  25.372  1.00  0.00     0.040 A 
ATOM     62  C   UNL A   1      47.245  26.969  25.243  1.00  0.00     0.040 A 
ATOM     63  F   UNL A   1      48.399  25.853  26.959  1.00  0.00    -0.206 F 
ATOM     64  C   UNL A   1      46.063  27.453  24.687  1.00  0.00     0.006 A 
ENDBRANCH  40  57
ENDBRANCH  14  15
ENDBRANCH   7   9
ENDBRANCH   4   5
ENDBRANCH   3   4
ENDBRANCH   2   3
ENDBRANCH   1   2
BRANCH   1  65
ATOM     65  C   UNL A   1      32.686  28.900  23.220  1.00  0.00     0.021 C 
BRANCH  65  66
ATOM     66  C   UNL A   1      31.644  27.897  22.746  1.00  0.00     0.116 C 
BRANCH  66  67
ATOM     67  N   UNL A   1      32.174  27.037  21.710  1.00  0.00    -0.351 N 
ATOM     68  C   UNL A   1      32.555  25.724  21.779  1.00  0.00     0.267 C 
ATOM     69  H   UNL A   1      32.275  27.457  20.825  1.00  0.00     0.163 HD
ATOM     70  O   UNL A   1      33.278  25.283  20.887  1.00  0.00    -0.268 OA
BRANCH  68  71
ATOM     71  C   UNL A   1      32.086  24.884  22.859  1.00  0.00     0.105 A 
ATOM     72  C   UNL A   1      32.507  24.739  24.171  1.00  0.00     0.055 A 
ATOM     73  N   UNL A   1      30.962  24.092  22.729  1.00  0.00    -0.356 N 
ATOM     74  C   UNL A   1      31.569  23.945  24.867  1.00  0.00     0.106 A 
ATOM     75  C   UNL A   1      30.654  23.507  23.929  1.00  0.00     0.105 A 
ATOM     76  H   UNL A   1      30.456  23.966  21.895  1.00  0.00     0.166 HD
BRANCH  74  77
ATOM     77  S   UNL A   1      31.538  23.581  26.559  1.00  0.00     0.263 S 
ATOM     78  O   UNL A   1      32.117  24.766  27.169  1.00  0.00    -0.201 OA
ATOM     79  O   UNL A   1      30.169  23.204  26.798  1.00  0.00    -0.201 OA
BRANCH  77  80
ATOM     80  N   UNL A   1      32.461  22.261  27.057  1.00  0.00    -0.280 N 
ATOM     81  H   UNL A   1      32.220  21.814  27.901  1.00  0.00     0.180 HD
BRANCH  80  82
ATOM     82  C   UNL A   1      33.565  21.761  26.324  1.00  0.00     0.050 A 
ATOM     83  C   UNL A   1      33.508  20.560  25.619  1.00  0.00     0.030 A 
ATOM     84  C   UNL A   1      34.752  22.503  26.339  1.00  0.00     0.043 A 
ATOM     85  C   UNL A   1      34.662  20.067  25.002  1.00  0.00     0.042 A 
ATOM     86  C   UNL A   1      35.914  22.021  25.709  1.00  0.00     0.093 A 
ATOM     87  C   UNL A   1      35.851  20.794  25.057  1.00  0.00     0.135 A 
ATOM     88  F   UNL A   1      36.941  20.280  24.474  1.00  0.00    -0.206 F 
BRANCH  86  89
ATOM     89  C   UNL A   1      37.179  22.828  25.740  1.00  0.00     0.419 C 
ATOM     90  F   UNL A   1      38.235  22.107  26.206  1.00  0.00    -0.166 F 
ATOM     91  F   UNL A   1      37.540  23.242  24.490  1.00  0.00    -0.166 F 
ATOM     92  F   UNL A   1      37.125  23.959  26.489  1.00  0.00    -0.166 F 
ENDBRANCH  86  89
ENDBRANCH  80  82
ENDBRANCH  77  80
ENDBRANCH  74  77
ENDBRANCH  68  71
ENDBRANCH  66  67
ENDBRANCH  65  66
ENDBRANCH   1  65
TORSDOF 17
ENDMDL
MODEL 2
REMARK VINA RESULT:     -11.7      2.913      7.369
REMARK SMILES O=C(NCCCCCCNC(=O)c1cc(S(=O)(=O)Nc2ccc(F)c(C(F)(F)F)c2)c[nH]1)c1ccc(-c2c3nc(c(-c4c(F)cccc4F)c4ccc([nH]4)c(-c4c(F)cccc4F)c4nc(c(-c5c(F)cccc5F)c5ccc2[nH]5)C=C4)C=C3)cc1
REMARK SMILES IDX 7 1 6 2 5 3 4 4 3 5 1 6 2 7 33 9 34 10 86 11 35 12 85 13
REMARK SMILES IDX 36 14 37 15 38 16 79 17 39 18 84 19 78 20 80 21 40 22 83 23
REMARK SMILES IDX 77 24 76 25 41 27 67 28 50 29 66 30 51 31 54 32 65 33 81 34
REMARK SMILES IDX 52 35 53 36 64 38 82 39 55 40 42 41 43 42 48 43 44 44 45 45
REMARK SMILES IDX 47 46 49 47 46 48 68 49 69 50 74 51 70 52 71 53 73 54 75 55
REMARK SMILES IDX 72 56 56 57 57 58 62 59 58 60 59 61 61 62 63 63 60 64 8 65
REMARK SMILES IDX 9 66 10 67 11 68 12 70 13 71 14 72 32 73 15 74 31 75 16 77
REMARK SMILES IDX 17 78 18 79 19 80 20 82 21 83 30 84 22 85 25 86 23 87 24 88
REMARK SMILES IDX 26 89 27 90 28 91 29 92
REMARK H PARENT 3 8 80 26 54 37 10 69 32 76 19 81
REMARK Flexibility Score: inf
ROOT
ATOM      1  C   UNL A   1      34.837  21.380  25.926  1.00  0.00     0.002 C 
ENDROOT
BRANCH   1   2
ATOM      2  C   UNL A   1      35.985  21.434  24.914  1.00  0.00     0.002 C 
BRANCH   2   3
ATOM      3  C   UNL A   1      37.007  20.299  25.014  1.00  0.00     0.021 C 
BRANCH   3   4
ATOM      4  C   UNL A   1      38.393  20.722  25.505  1.00  0.00     0.116 C 
BRANCH   4   5
ATOM      5  N   UNL A   1      39.377  19.660  25.569  1.00  0.00    -0.352 N 
ATOM      6  O   UNL A   1      41.301  18.582  25.969  1.00  0.00    -0.269 OA
ATOM      7  C   UNL A   1      40.681  19.643  25.988  1.00  0.00     0.251 C 
ATOM      8  H   UNL A   1      39.046  18.788  25.253  1.00  0.00     0.163 HD
BRANCH   7   9
ATOM      9  C   UNL A   1      41.382  20.879  26.402  1.00  0.00     0.039 A 
ATOM     10  C   UNL A   1      41.820  21.840  25.487  1.00  0.00     0.014 A 
ATOM     11  C   UNL A   1      41.564  21.089  27.777  1.00  0.00     0.014 A 
ATOM     12  C   UNL A   1      42.511  22.957  25.929  1.00  0.00     0.010 A 
ATOM     13  C   UNL A   1      42.213  22.236  28.232  1.00  0.00     0.010 A 
ATOM     14  C   UNL A   1      42.682  23.169  27.301  1.00  0.00    -0.014 A 
BRANCH  14  15
ATOM     15  C   UNL A   1      43.163  24.507  27.712  1.00  0.00     0.031 A 
ATOM     16  C   UNL A   1      42.009  25.493  27.927  1.00  0.00     0.074 A 
ATOM     17  C   UNL A   1      44.511  24.701  27.754  1.00  0.00     0.049 A 
ATOM     18  N   UNL A   1      41.985  26.786  27.808  1.00  0.00    -0.248 NA
ATOM     19  C   UNL A   1      40.659  24.951  28.244  1.00  0.00     0.031 C 
ATOM     20  C   UNL A   1      45.502  23.639  27.512  1.00  0.00     0.029 A 
ATOM     21  N   UNL A   1      45.320  25.796  27.987  1.00  0.00    -0.354 N 
ATOM     22  C   UNL A   1      40.702  27.217  28.200  1.00  0.00     0.074 A 
ATOM     23  C   UNL A   1      39.898  26.041  28.344  1.00  0.00     0.031 C 
ATOM     24  C   UNL A   1      46.751  24.142  27.539  1.00  0.00     0.029 A 
ATOM     25  C   UNL A   1      46.707  25.568  27.808  1.00  0.00     0.049 A 
ATOM     26  H   UNL A   1      44.959  26.671  28.259  1.00  0.00     0.167 HD
ATOM     27  C   UNL A   1      40.398  28.509  28.502  1.00  0.00     0.037 A 
ATOM     28  C   UNL A   1      47.745  26.462  27.828  1.00  0.00     0.037 A 
ATOM     29  C   UNL A   1      41.528  29.355  28.324  1.00  0.00     0.049 A 
ATOM     30  C   UNL A   1      47.161  27.756  28.230  1.00  0.00     0.074 A 
ATOM     31  C   UNL A   1      42.129  29.896  27.220  1.00  0.00     0.029 A 
ATOM     32  N   UNL A   1      42.359  29.517  29.405  1.00  0.00    -0.354 N 
ATOM     33  N   UNL A   1      46.750  28.050  29.429  1.00  0.00    -0.248 NA
ATOM     34  C   UNL A   1      46.959  28.788  27.206  1.00  0.00     0.031 C 
ATOM     35  C   UNL A   1      43.483  30.045  27.590  1.00  0.00     0.029 A 
ATOM     36  C   UNL A   1      43.639  29.665  28.927  1.00  0.00     0.049 A 
ATOM     37  H   UNL A   1      42.086  29.525  30.351  1.00  0.00     0.167 HD
ATOM     38  C   UNL A   1      45.960  29.155  29.213  1.00  0.00     0.074 A 
ATOM     39  C   UNL A   1      46.375  29.721  27.951  1.00  0.00     0.031 C 
ATOM     40  C   UNL A   1      44.726  29.219  29.772  1.00  0.00     0.037 A 
BRANCH  27  41
ATOM     41  C   UNL A   1      39.189  29.105  29.159  1.00  0.00     0.057 A 
ATOM     42  C   UNL A   1      38.093  29.609  28.450  1.00  0.00     0.134 A 
ATOM     43  C   UNL A   1      38.979  28.872  30.537  1.00  0.00     0.134 A 
ATOM     44  F   UNL A   1      38.161  29.831  27.130  1.00  0.00    -0.206 F 
ATOM     45  C   UNL A   1      36.849  29.816  29.062  1.00  0.00     0.040 A 
ATOM     46  C   UNL A   1      37.733  29.036  31.147  1.00  0.00     0.040 A 
ATOM     47  F   UNL A   1      39.971  28.415  31.318  1.00  0.00    -0.206 F 
ATOM     48  C   UNL A   1      36.656  29.496  30.403  1.00  0.00     0.006 A 
ENDBRANCH  27  41
BRANCH  28  49
ATOM     49  C   UNL A   1      49.220  26.466  27.472  1.00  0.00     0.057 A 
ATOM     50  C   UNL A   1      49.645  26.080  26.169  1.00  0.00     0.134 A 
ATOM     51  C   UNL A   1      50.283  26.747  28.336  1.00  0.00     0.134 A 
ATOM     52  F   UNL A   1      48.778  25.909  25.161  1.00  0.00    -0.206 F 
ATOM     53  C   UNL A   1      50.978  25.841  25.812  1.00  0.00     0.040 A 
ATOM     54  C   UNL A   1      51.633  26.547  27.980  1.00  0.00     0.040 A 
ATOM     55  F   UNL A   1      50.088  27.248  29.557  1.00  0.00    -0.206 F 
ATOM     56  C   UNL A   1      51.983  26.056  26.730  1.00  0.00     0.006 A 
ENDBRANCH  28  49
BRANCH  40  57
ATOM     57  C   UNL A   1      44.587  28.395  31.035  1.00  0.00     0.057 A 
ATOM     58  C   UNL A   1      44.006  27.120  31.070  1.00  0.00     0.134 A 
ATOM     59  C   UNL A   1      45.159  28.835  32.232  1.00  0.00     0.134 A 
ATOM     60  F   UNL A   1      43.456  26.596  29.978  1.00  0.00    -0.206 F 
ATOM     61  C   UNL A   1      43.975  26.326  32.221  1.00  0.00     0.040 A 
ATOM     62  C   UNL A   1      45.152  28.050  33.394  1.00  0.00     0.040 A 
ATOM     63  F   UNL A   1      45.746  30.041  32.297  1.00  0.00    -0.206 F 
ATOM     64  C   UNL A   1      44.558  26.790  33.391  1.00  0.00     0.006 A 
ENDBRANCH  40  57
ENDBRANCH  14  15
ENDBRANCH   7   9
ENDBRANCH   4   5
ENDBRANCH   3   4
ENDBRANCH   2   3
ENDBRANCH   1   2
BRANCH   1  65
ATOM     65  C   UNL A   1      33.681  20.445  25.562  1.00  0.00     0.021 C 
BRANCH  65  66
ATOM     66  C   UNL A   1      32.407  21.150  25.116  1.00  0.00     0.116 C 
BRANCH  66  67
ATOM     67  N   UNL A   1      31.802  21.885  26.206  1.00  0.00    -0.351 N 
ATOM     68  C   UNL A   1      31.539  23.224  26.312  1.00  0.00     0.267 C 
ATOM     69  H   UNL A   1      31.541  21.343  26.985  1.00  0.00     0.163 HD
ATOM     70  O   UNL A   1      31.332  23.686  27.434  1.00  0.00    -0.268 OA
BRANCH  68  71
ATOM     71  C   UNL A   1      31.478  24.053  25.129  1.00  0.00     0.105 A 
ATOM     72  C   UNL A   1      32.441  24.798  24.468  1.00  0.00     0.055 A 
ATOM     73  N   UNL A   1      30.335  24.141  24.360  1.00  0.00    -0.356 N 
ATOM     74  C   UNL A   1      31.909  25.246  23.238  1.00  0.00     0.106 A 
ATOM     75  C   UNL A   1      30.579  24.873  23.229  1.00  0.00     0.105 A 
ATOM     76  H   UNL A   1      29.468  23.735  24.592  1.00  0.00     0.166 HD
BRANCH  74  77
ATOM     77  S   UNL A   1      32.735  26.087  21.971  1.00  0.00     0.263 S 
ATOM     78  O   UNL A   1      34.068  25.508  21.995  1.00  0.00    -0.201 OA
ATOM     79  O   UNL A   1      31.865  25.924  20.836  1.00  0.00    -0.201 OA
BRANCH  77  80
ATOM     80  N   UNL A   1      32.910  27.752  22.168  1.00  0.00    -0.280 N 
ATOM     81  H   UNL A   1      33.336  28.266  21.445  1.00  0.00     0.180 HD
BRANCH  80  82
ATOM     82  C   UNL A   1      32.473  28.450  23.321  1.00  0.00     0.050 A 
ATOM     83  C   UNL A   1      31.201  29.014  23.411  1.00  0.00     0.030 A 
ATOM     84  C   UNL A   1      33.372  28.586  24.385  1.00  0.00     0.043 A 
ATOM     85  C   UNL A   1      30.866  29.781  24.532  1.00  0.00     0.042 A 
ATOM     86  C   UNL A   1      33.038  29.344  25.522  1.00  0.00     0.093 A 
ATOM     87  C   UNL A   1      31.783  29.944  25.570  1.00  0.00     0.135 A 
ATOM     88  F   UNL A   1      31.436  30.704  26.616  1.00  0.00    -0.206 F 
BRANCH  86  89
ATOM     89  C   UNL A   1      34.016  29.483  26.651  1.00  0.00     0.419 C 
ATOM     90  F   UNL A   1      35.206  28.884  26.374  1.00  0.00    -0.166 F 
ATOM     91  F   UNL A   1      34.314  30.793  26.897  1.00  0.00    -0.166 F 
ATOM     92  F   UNL A   1      33.601  28.982  27.842  1.00  0.00    -0.166 F 
ENDBRANCH  86  89
ENDBRANCH  80  82
ENDBRANCH  77  80
ENDBRANCH  74  77
ENDBRANCH  68  71
ENDBRANCH  66  67
ENDBRANCH  65  66
ENDBRANCH   1  65
TORSDOF 17
ENDMDL
MODEL 3
REMARK VINA RESULT:     -11.5      3.994      8.587
REMARK SMILES O=C(NCCCCCCNC(=O)c1cc(S(=O)(=O)Nc2ccc(F)c(C(F)(F)F)c2)c[nH]1)c1ccc(-c2c3nc(c(-c4c(F)cccc4F)c4ccc([nH]4)c(-c4c(F)cccc4F)c4nc(c(-c5c(F)cccc5F)c5ccc2[nH]5)C=C4)C=C3)cc1
REMARK SMILES IDX 7 1 6 2 5 3 4 4 3 5 1 6 2 7 33 9 34 10 86 11 35 12 85 13
REMARK SMILES IDX 36 14 37 15 38 16 79 17 39 18 84 19 78 20 80 21 40 22 83 23
REMARK SMILES IDX 77 24 76 25 41 27 67 28 50 29 66 30 51 31 54 32 65 33 81 34
REMARK SMILES IDX 52 35 53 36 64 38 82 39 55 40 42 41 43 42 48 43 44 44 45 45
REMARK SMILES IDX 47 46 49 47 46 48 68 49 69 50 74 51 70 52 71 53 73 54 75 55
REMARK SMILES IDX 72 56 56 57 57 58 62 59 58 60 59 61 61 62 63 63 60 64 8 65
REMARK SMILES IDX 9 66 10 67 11 68 12 70 13 71 14 72 32 73 15 74 31 75 16 77
REMARK SMILES IDX 17 78 18 79 19 80 20 82 21 83 30 84 22 85 25 86 23 87 24 88
REMARK SMILES IDX 26 89 27 90 28 91 29 92
REMARK H PARENT 3 8 80 26 54 37 10 69 32 76 19 81
REMARK Flexibility Score: inf
ROOT
ATOM      1  C   UNL A   1      34.710  21.338  24.990  1.00  0.00     0.002 C 
ENDROOT
BRANCH   1   2
ATOM      2  C   UNL A   1      35.969  21.701  25.784  1.00  0.00     0.002 C 
BRANCH   2   3
ATOM      3  C   UNL A   1      36.039  23.146  26.283  1.00  0.00     0.021 C 
BRANCH   3   4
ATOM      4  C   UNL A   1      37.314  23.899  25.899  1.00  0.00     0.116 C 
BRANCH   4   5
ATOM      5  N   UNL A   1      38.554  23.255  26.285  1.00  0.00    -0.352 N 
ATOM      6  O   UNL A   1      40.554  22.920  27.239  1.00  0.00    -0.269 OA
ATOM      7  C   UNL A   1      39.620  23.690  27.026  1.00  0.00     0.251 C 
ATOM      8  H   UNL A   1      38.646  22.332  25.954  1.00  0.00     0.163 HD
BRANCH   7   9
ATOM      9  C   UNL A   1      39.707  25.082  27.523  1.00  0.00     0.039 A 
ATOM     10  C   UNL A   1      39.430  25.428  28.847  1.00  0.00     0.014 A 
ATOM     11  C   UNL A   1      40.128  26.066  26.616  1.00  0.00     0.014 A 
ATOM     12  C   UNL A   1      39.485  26.756  29.244  1.00  0.00     0.010 A 
ATOM     13  C   UNL A   1      40.235  27.395  27.021  1.00  0.00     0.010 A 
ATOM     14  C   UNL A   1      39.914  27.734  28.341  1.00  0.00    -0.014 A 
BRANCH  14  15
ATOM     15  C   UNL A   1      40.227  29.066  28.903  1.00  0.00     0.031 A 
ATOM     16  C   UNL A   1      38.962  29.842  29.285  1.00  0.00     0.074 A 
ATOM     17  C   UNL A   1      41.536  29.445  28.919  1.00  0.00     0.049 A 
ATOM     18  N   UNL A   1      38.753  31.123  29.333  1.00  0.00    -0.248 NA
ATOM     19  C   UNL A   1      37.719  29.077  29.579  1.00  0.00     0.031 C 
ATOM     20  C   UNL A   1      42.649  28.575  28.507  1.00  0.00     0.029 A 
ATOM     21  N   UNL A   1      42.197  30.609  29.261  1.00  0.00    -0.354 N 
ATOM     22  C   UNL A   1      37.447  31.314  29.825  1.00  0.00     0.074 A 
ATOM     23  C   UNL A   1      36.822  30.026  29.846  1.00  0.00     0.031 C 
ATOM     24  C   UNL A   1      43.817  29.245  28.552  1.00  0.00     0.029 A 
ATOM     25  C   UNL A   1      43.592  30.606  29.003  1.00  0.00     0.049 A 
ATOM     26  H   UNL A   1      41.735  31.383  29.657  1.00  0.00     0.167 HD
ATOM     27  C   UNL A   1      36.984  32.503  30.302  1.00  0.00     0.037 A 
ATOM     28  C   UNL A   1      44.496  31.631  29.099  1.00  0.00     0.037 A 
ATOM     29  C   UNL A   1      37.975  33.517  30.192  1.00  0.00     0.049 A 
ATOM     30  C   UNL A   1      43.761  32.768  29.685  1.00  0.00     0.074 A 
ATOM     31  C   UNL A   1      38.434  34.270  29.145  1.00  0.00     0.029 A 
ATOM     32  N   UNL A   1      38.834  33.664  31.253  1.00  0.00    -0.354 N 
ATOM     33  N   UNL A   1      43.380  32.852  30.926  1.00  0.00    -0.248 NA
ATOM     34  C   UNL A   1      43.363  33.878  28.810  1.00  0.00     0.031 C 
ATOM     35  C   UNL A   1      39.773  34.566  29.481  1.00  0.00     0.029 A 
ATOM     36  C   UNL A   1      40.053  34.052  30.752  1.00  0.00     0.049 A 
ATOM     37  H   UNL A   1      38.615  33.517  32.202  1.00  0.00     0.167 HD
ATOM     38  C   UNL A   1      42.434  33.850  30.884  1.00  0.00     0.074 A 
ATOM     39  C   UNL A   1      42.697  34.619  29.691  1.00  0.00     0.031 C 
ATOM     40  C   UNL A   1      41.235  33.667  31.492  1.00  0.00     0.037 A 
BRANCH  27  41
ATOM     41  C   UNL A   1      35.742  32.834  31.074  1.00  0.00     0.057 A 
ATOM     42  C   UNL A   1      35.532  32.447  32.402  1.00  0.00     0.134 A 
ATOM     43  C   UNL A   1      34.880  33.837  30.578  1.00  0.00     0.134 A 
ATOM     44  F   UNL A   1      36.314  31.534  32.993  1.00  0.00    -0.206 F 
ATOM     45  C   UNL A   1      34.560  33.061  33.205  1.00  0.00     0.040 A 
ATOM     46  C   UNL A   1      33.937  34.483  31.380  1.00  0.00     0.040 A 
ATOM     47  F   UNL A   1      34.976  34.262  29.308  1.00  0.00    -0.206 F 
ATOM     48  C   UNL A   1      33.784  34.104  32.707  1.00  0.00     0.006 A 
ENDBRANCH  27  41
BRANCH  28  49
ATOM     49  C   UNL A   1      45.934  31.890  28.692  1.00  0.00     0.057 A 
ATOM     50  C   UNL A   1      46.270  32.072  27.321  1.00  0.00     0.134 A 
ATOM     51  C   UNL A   1      47.048  31.901  29.538  1.00  0.00     0.134 A 
ATOM     52  F   UNL A   1      45.335  32.234  26.376  1.00  0.00    -0.206 F 
ATOM     53  C   UNL A   1      47.581  32.097  26.827  1.00  0.00     0.040 A 
ATOM     54  C   UNL A   1      48.373  31.962  29.058  1.00  0.00     0.040 A 
ATOM     55  F   UNL A   1      46.928  31.874  30.866  1.00  0.00    -0.206 F 
ATOM     56  C   UNL A   1      48.645  32.021  27.699  1.00  0.00     0.006 A 
ENDBRANCH  28  49
BRANCH  40  57
ATOM     57  C   UNL A   1      41.281  32.685  32.642  1.00  0.00     0.057 A 
ATOM     58  C   UNL A   1      40.868  31.349  32.539  1.00  0.00     0.134 A 
ATOM     59  C   UNL A   1      41.868  33.047  33.859  1.00  0.00     0.134 A 
ATOM     60  F   UNL A   1      40.321  30.894  31.415  1.00  0.00    -0.206 F 
ATOM     61  C   UNL A   1      41.010  30.423  33.578  1.00  0.00     0.040 A 
ATOM     62  C   UNL A   1      42.032  32.131  34.908  1.00  0.00     0.040 A 
ATOM     63  F   UNL A   1      42.301  34.303  34.051  1.00  0.00    -0.206 F 
ATOM     64  C   UNL A   1      41.602  30.814  34.770  1.00  0.00     0.006 A 
ENDBRANCH  40  57
ENDBRANCH  14  15
ENDBRANCH   7   9
ENDBRANCH   4   5
ENDBRANCH   3   4
ENDBRANCH   2   3
ENDBRANCH   1   2
BRANCH   1  65
ATOM     65  C   UNL A   1      33.545  20.787  25.815  1.00  0.00     0.021 C 
BRANCH  65  66
ATOM     66  C   UNL A   1      32.170  20.990  25.194  1.00  0.00     0.116 C 
BRANCH  66  67
ATOM     67  N   UNL A   1      31.343  21.848  26.014  1.00  0.00    -0.351 N 
ATOM     68  C   UNL A   1      31.398  23.206  26.185  1.00  0.00     0.267 C 
ATOM     69  H   UNL A   1      30.636  21.390  26.524  1.00  0.00     0.163 HD
ATOM     70  O   UNL A   1      30.831  23.688  27.164  1.00  0.00    -0.268 OA
BRANCH  68  71
ATOM     71  C   UNL A   1      32.079  24.037  25.218  1.00  0.00     0.105 A 
ATOM     72  C   UNL A   1      31.689  24.533  23.985  1.00  0.00     0.055 A 
ATOM     73  N   UNL A   1      33.319  24.586  25.475  1.00  0.00    -0.356 N 
ATOM     74  C   UNL A   1      32.648  25.474  23.546  1.00  0.00     0.106 A 
ATOM     75  C   UNL A   1      33.679  25.438  24.465  1.00  0.00     0.105 A 
ATOM     76  H   UNL A   1      33.865  24.393  26.271  1.00  0.00     0.166 HD
BRANCH  74  77
ATOM     77  S   UNL A   1      32.572  26.490  22.148  1.00  0.00     0.263 S 
ATOM     78  O   UNL A   1      33.666  26.007  21.321  1.00  0.00    -0.201 OA
ATOM     79  O   UNL A   1      31.201  26.378  21.723  1.00  0.00    -0.201 OA
BRANCH  77  80
ATOM     80  N   UNL A   1      32.830  28.137  22.405  1.00  0.00    -0.280 N 
ATOM     81  H   UNL A   1      33.273  28.657  21.696  1.00  0.00     0.180 HD
BRANCH  80  82
ATOM     82  C   UNL A   1      32.439  28.811  23.588  1.00  0.00     0.050 A 
ATOM     83  C   UNL A   1      31.167  29.359  23.747  1.00  0.00     0.030 A 
ATOM     84  C   UNL A   1      33.386  28.939  24.612  1.00  0.00     0.043 A 
ATOM     85  C   UNL A   1      30.876  30.103  24.895  1.00  0.00     0.042 A 
ATOM     86  C   UNL A   1      33.096  29.675  25.776  1.00  0.00     0.093 A 
ATOM     87  C   UNL A   1      31.839  30.260  25.892  1.00  0.00     0.135 A 
ATOM     88  F   UNL A   1      31.533  30.998  26.966  1.00  0.00    -0.206 F 
BRANCH  86  89
ATOM     89  C   UNL A   1      34.125  29.806  26.860  1.00  0.00     0.419 C 
ATOM     90  F   UNL A   1      33.772  29.129  27.986  1.00  0.00    -0.166 F 
ATOM     91  F   UNL A   1      35.326  29.281  26.478  1.00  0.00    -0.166 F 
ATOM     92  F   UNL A   1      34.399  31.079  27.247  1.00  0.00    -0.166 F 
ENDBRANCH  86  89
ENDBRANCH  80  82
ENDBRANCH  77  80
ENDBRANCH  74  77
ENDBRANCH  68  71
ENDBRANCH  66  67
ENDBRANCH  65  66
ENDBRANCH   1  65
TORSDOF 17
ENDMDL
