MODEL 1
REMARK VINA RESULT:      -8.9      0.000      0.000
REMARK SMILES O=C(CCC(=O)Nc1cc(Cl)cc(Cl)c1)NCCCCCCNC(=O)c1ccc(-c2c3nc(c(-c4c(F)cccc4F)c4ccc([nH]4)c(-c4c(F)cccc4F)c4nc(c(-c5c(F)cccc5F)c5ccc2[nH]5)C=C4)C=C3)cc1
REMARK SMILES IDX 19 1 18 2 17 3 16 4 1 5 2 6 3 8 4 9 5 10 6 11 7 12 8 14 9 15
REMARK SMILES IDX 15 16 10 17 13 18 11 19 12 20 14 21 20 22 21 23 22 24 23 25
REMARK SMILES IDX 24 26 25 28 26 29 27 30 79 31 28 32 78 33 29 34 30 35 31 36
REMARK SMILES IDX 72 37 32 38 77 39 71 40 73 41 33 42 76 43 70 44 69 45 34 47
REMARK SMILES IDX 60 48 43 49 59 50 44 51 47 52 58 53 74 54 45 55 46 56 57 58
REMARK SMILES IDX 75 59 48 60 35 61 36 62 41 63 37 64 38 65 40 66 42 67 39 68
REMARK SMILES IDX 61 69 62 70 67 71 63 72 64 73 66 74 68 75 65 76 49 77 50 78
REMARK SMILES IDX 55 79 51 80 52 81 54 82 56 83 53 84
REMARK H PARENT 16 7 7 13 23 27 73 46 47 57
REMARK Flexibility Score: inf
ROOT
ATOM      1  C   UNL A   1      34.755  34.354  34.093  1.00  0.00     0.002 C 
ENDROOT
BRANCH   1   2
ATOM      2  C   UNL A   1      35.946  33.389  34.094  1.00  0.00     0.021 C 
BRANCH   2   3
ATOM      3  C   UNL A   1      37.052  33.728  35.086  1.00  0.00     0.116 C 
BRANCH   3   4
ATOM      4  N   UNL A   1      38.087  32.718  35.157  1.00  0.00    -0.356 N 
ATOM      5  O   UNL A   1      37.349  31.716  37.091  1.00  0.00    -0.275 OA
ATOM      6  C   UNL A   1      38.093  31.732  36.116  1.00  0.00     0.220 C 
ATOM      7  H   UNL A   1      38.815  32.738  34.494  1.00  0.00     0.163 HD
BRANCH   6   8
ATOM      8  C   UNL A   1      39.033  30.587  35.814  1.00  0.00     0.110 C 
BRANCH   8   9
ATOM      9  C   UNL A   1      39.851  30.839  34.548  1.00  0.00     0.110 C 
BRANCH   9  10
ATOM     10  C   UNL A   1      39.832  29.657  33.613  1.00  0.00     0.224 C 
ATOM     11  O   UNL A   1      38.949  29.592  32.749  1.00  0.00    -0.275 OA
ATOM     12  N   UNL A   1      40.700  28.612  33.667  1.00  0.00    -0.326 N 
ATOM     13  H   UNL A   1      40.660  28.058  32.854  1.00  0.00     0.169 HD
BRANCH  12  14
ATOM     14  C   UNL A   1      41.641  28.121  34.594  1.00  0.00     0.044 A 
ATOM     15  C   UNL A   1      42.564  28.879  35.312  1.00  0.00     0.046 A 
ATOM     16  C   UNL A   1      41.540  26.751  34.892  1.00  0.00     0.046 A 
ATOM     17  C   UNL A   1      43.311  28.299  36.346  1.00  0.00     0.044 A 
ATOM     18  C   UNL A   1      42.297  26.181  35.918  1.00  0.00     0.044 A 
ATOM     19  Cl  UNL A   1      44.379  29.281  37.274  1.00  0.00    -0.084 Cl
ATOM     20  C   UNL A   1      43.178  26.954  36.661  1.00  0.00     0.041 A 
ATOM     21  Cl  UNL A   1      42.101  24.514  36.294  1.00  0.00    -0.084 Cl
ENDBRANCH  12  14
ENDBRANCH   9  10
ENDBRANCH   8   9
ENDBRANCH   6   8
ENDBRANCH   3   4
ENDBRANCH   2   3
ENDBRANCH   1   2
BRANCH   1  22
ATOM     22  C   UNL A   1      34.776  35.446  33.018  1.00  0.00     0.002 C 
BRANCH  22  23
ATOM     23  C   UNL A   1      33.460  35.674  32.271  1.00  0.00     0.021 C 
BRANCH  23  24
ATOM     24  C   UNL A   1      33.573  36.421  30.944  1.00  0.00     0.116 C 
BRANCH  24  25
ATOM     25  N   UNL A   1      32.815  35.804  29.867  1.00  0.00    -0.352 N 
ATOM     26  C   UNL A   1      33.134  34.725  29.081  1.00  0.00     0.251 C 
ATOM     27  H   UNL A   1      31.945  36.221  29.674  1.00  0.00     0.163 HD
ATOM     28  O   UNL A   1      32.399  34.403  28.150  1.00  0.00    -0.269 OA
BRANCH  26  29
ATOM     29  C   UNL A   1      34.383  33.971  29.323  1.00  0.00     0.039 A 
ATOM     30  C   UNL A   1      35.519  34.300  28.578  1.00  0.00     0.014 A 
ATOM     31  C   UNL A   1      34.442  32.953  30.279  1.00  0.00     0.014 A 
ATOM     32  C   UNL A   1      36.731  33.658  28.842  1.00  0.00     0.010 A 
ATOM     33  C   UNL A   1      35.666  32.366  30.590  1.00  0.00     0.010 A 
ATOM     34  C   UNL A   1      36.824  32.715  29.878  1.00  0.00    -0.014 A 
BRANCH  34  35
ATOM     35  C   UNL A   1      38.124  32.093  30.238  1.00  0.00     0.031 A 
ATOM     36  C   UNL A   1      39.077  32.803  31.157  1.00  0.00     0.074 A 
ATOM     37  C   UNL A   1      38.473  30.914  29.686  1.00  0.00     0.049 A 
ATOM     38  N   UNL A   1      40.282  32.453  31.531  1.00  0.00    -0.248 NA
ATOM     39  C   UNL A   1      38.627  34.088  31.713  1.00  0.00     0.031 C 
ATOM     40  C   UNL A   1      37.655  30.143  28.748  1.00  0.00     0.029 A 
ATOM     41  N   UNL A   1      39.611  30.161  29.826  1.00  0.00    -0.354 N 
ATOM     42  C   UNL A   1      40.736  33.475  32.355  1.00  0.00     0.074 A 
ATOM     43  C   UNL A   1      39.700  34.485  32.382  1.00  0.00     0.031 C 
ATOM     44  C   UNL A   1      38.305  29.016  28.420  1.00  0.00     0.029 A 
ATOM     45  C   UNL A   1      39.602  29.003  29.088  1.00  0.00     0.049 A 
ATOM     46  H   UNL A   1      40.365  30.427  30.403  1.00  0.00     0.167 HD
ATOM     47  C   UNL A   1      41.897  33.554  33.046  1.00  0.00     0.037 A 
ATOM     48  C   UNL A   1      40.537  28.042  28.957  1.00  0.00     0.037 A 
ATOM     49  C   UNL A   1      42.921  32.542  33.029  1.00  0.00     0.049 A 
ATOM     50  C   UNL A   1      41.831  28.167  29.713  1.00  0.00     0.074 A 
ATOM     51  C   UNL A   1      44.115  32.510  33.728  1.00  0.00     0.029 A 
ATOM     52  N   UNL A   1      42.873  31.382  32.269  1.00  0.00    -0.354 N 
ATOM     53  N   UNL A   1      42.221  29.113  30.532  1.00  0.00    -0.248 NA
ATOM     54  C   UNL A   1      42.811  27.088  29.529  1.00  0.00     0.031 C 
ATOM     55  C   UNL A   1      44.810  31.354  33.357  1.00  0.00     0.029 A 
ATOM     56  C   UNL A   1      44.025  30.638  32.467  1.00  0.00     0.049 A 
ATOM     57  H   UNL A   1      42.130  31.125  31.677  1.00  0.00     0.167 HD
ATOM     58  C   UNL A   1      43.478  28.729  30.985  1.00  0.00     0.074 A 
ATOM     59  C   UNL A   1      43.777  27.458  30.358  1.00  0.00     0.031 C 
ATOM     60  C   UNL A   1      44.307  29.371  31.843  1.00  0.00     0.037 A 
BRANCH  47  61
ATOM     61  C   UNL A   1      42.120  34.779  33.886  1.00  0.00     0.057 A 
ATOM     62  C   UNL A   1      41.750  34.825  35.238  1.00  0.00     0.134 A 
ATOM     63  C   UNL A   1      42.741  35.913  33.350  1.00  0.00     0.134 A 
ATOM     64  F   UNL A   1      41.140  33.776  35.811  1.00  0.00    -0.206 F 
ATOM     65  C   UNL A   1      41.964  35.963  36.016  1.00  0.00     0.040 A 
ATOM     66  C   UNL A   1      42.988  37.047  34.126  1.00  0.00     0.040 A 
ATOM     67  F   UNL A   1      43.129  35.936  32.065  1.00  0.00    -0.206 F 
ATOM     68  C   UNL A   1      42.592  37.076  35.462  1.00  0.00     0.006 A 
ENDBRANCH  47  61
BRANCH  48  69
ATOM     69  C   UNL A   1      40.275  26.863  28.093  1.00  0.00     0.057 A 
ATOM     70  C   UNL A   1      40.821  26.778  26.807  1.00  0.00     0.134 A 
ATOM     71  C   UNL A   1      39.473  25.799  28.525  1.00  0.00     0.134 A 
ATOM     72  F   UNL A   1      41.582  27.774  26.331  1.00  0.00    -0.206 F 
ATOM     73  C   UNL A   1      40.564  25.689  25.973  1.00  0.00     0.040 A 
ATOM     74  C   UNL A   1      39.229  24.692  27.711  1.00  0.00     0.040 A 
ATOM     75  F   UNL A   1      38.926  25.816  29.749  1.00  0.00    -0.206 F 
ATOM     76  C   UNL A   1      39.769  24.639  26.428  1.00  0.00     0.006 A 
ENDBRANCH  48  69
BRANCH  60  77
ATOM     77  C   UNL A   1      45.601  28.692  32.188  1.00  0.00     0.057 A 
ATOM     78  C   UNL A   1      45.651  27.572  33.029  1.00  0.00     0.134 A 
ATOM     79  C   UNL A   1      46.808  29.143  31.639  1.00  0.00     0.134 A 
ATOM     80  F   UNL A   1      44.532  27.099  33.597  1.00  0.00    -0.206 F 
ATOM     81  C   UNL A   1      46.859  26.939  33.328  1.00  0.00     0.040 A 
ATOM     82  C   UNL A   1      48.018  28.501  31.909  1.00  0.00     0.040 A 
ATOM     83  F   UNL A   1      46.830  30.204  30.819  1.00  0.00    -0.206 F 
ATOM     84  C   UNL A   1      48.046  27.400  32.761  1.00  0.00     0.006 A 
ENDBRANCH  60  77
ENDBRANCH  34  35
ENDBRANCH  26  29
ENDBRANCH  24  25
ENDBRANCH  23  24
ENDBRANCH  22  23
ENDBRANCH   1  22
TORSDOF 16
ENDMDL
MODEL 2
REMARK VINA RESULT:      -8.7      5.299      8.196
REMARK SMILES O=C(CCC(=O)Nc1cc(Cl)cc(Cl)c1)NCCCCCCNC(=O)c1ccc(-c2c3nc(c(-c4c(F)cccc4F)c4ccc([nH]4)c(-c4c(F)cccc4F)c4nc(c(-c5c(F)cccc5F)c5ccc2[nH]5)C=C4)C=C3)cc1
REMARK SMILES IDX 19 1 18 2 17 3 16 4 1 5 2 6 3 8 4 9 5 10 6 11 7 12 8 14 9 15
REMARK SMILES IDX 15 16 10 17 13 18 11 19 12 20 14 21 20 22 21 23 22 24 23 25
REMARK SMILES IDX 24 26 25 28 26 29 27 30 79 31 28 32 78 33 29 34 30 35 31 36
REMARK SMILES IDX 72 37 32 38 77 39 71 40 73 41 33 42 76 43 70 44 69 45 34 47
REMARK SMILES IDX 60 48 43 49 59 50 44 51 47 52 58 53 74 54 45 55 46 56 57 58
REMARK SMILES IDX 75 59 48 60 35 61 36 62 41 63 37 64 38 65 40 66 42 67 39 68
REMARK SMILES IDX 61 69 62 70 67 71 63 72 64 73 66 74 68 75 65 76 49 77 50 78
REMARK SMILES IDX 55 79 51 80 52 81 54 82 56 83 53 84
REMARK H PARENT 16 7 7 13 23 27 73 46 47 57
REMARK Flexibility Score: inf
ROOT
ATOM      1  C   UNL A   1      35.220  32.840  28.042  1.00  0.00     0.002 C 
ENDROOT
BRANCH   1   2
ATOM      2  C   UNL A   1      34.915  31.345  28.199  1.00  0.00     0.021 C 
BRANCH   2   3
ATOM      3  C   UNL A   1      33.681  30.855  27.451  1.00  0.00     0.116 C 
BRANCH   3   4
ATOM      4  N   UNL A   1      33.972  29.813  26.488  1.00  0.00    -0.356 N 
ATOM      5  O   UNL A   1      32.061  28.584  26.843  1.00  0.00    -0.275 OA
ATOM      6  C   UNL A   1      33.081  28.804  26.201  1.00  0.00     0.220 C 
ATOM      7  H   UNL A   1      34.839  29.826  26.022  1.00  0.00     0.163 HD
BRANCH   6   8
ATOM      8  C   UNL A   1      33.409  28.037  24.940  1.00  0.00     0.110 C 
BRANCH   8   9
ATOM      9  C   UNL A   1      33.656  28.968  23.754  1.00  0.00     0.110 C 
BRANCH   9  10
ATOM     10  C   UNL A   1      33.308  28.319  22.438  1.00  0.00     0.224 C 
ATOM     11  O   UNL A   1      34.224  28.003  21.667  1.00  0.00    -0.275 OA
ATOM     12  N   UNL A   1      32.044  28.084  21.999  1.00  0.00    -0.326 N 
ATOM     13  H   UNL A   1      32.029  27.470  21.230  1.00  0.00     0.169 HD
BRANCH  12  14
ATOM     14  C   UNL A   1      30.748  28.500  22.368  1.00  0.00     0.044 A 
ATOM     15  C   UNL A   1      30.139  29.704  22.022  1.00  0.00     0.046 A 
ATOM     16  C   UNL A   1      29.976  27.544  23.049  1.00  0.00     0.046 A 
ATOM     17  C   UNL A   1      28.779  29.917  22.284  1.00  0.00     0.044 A 
ATOM     18  C   UNL A   1      28.623  27.770  23.315  1.00  0.00     0.044 A 
ATOM     19  Cl  UNL A   1      28.033  31.380  21.765  1.00  0.00    -0.084 Cl
ATOM     20  C   UNL A   1      28.012  28.951  22.922  1.00  0.00     0.041 A 
ATOM     21  Cl  UNL A   1      27.695  26.550  24.096  1.00  0.00    -0.084 Cl
ENDBRANCH  12  14
ENDBRANCH   9  10
ENDBRANCH   8   9
ENDBRANCH   6   8
ENDBRANCH   3   4
ENDBRANCH   2   3
ENDBRANCH   1   2
BRANCH   1  22
ATOM     22  C   UNL A   1      34.790  33.740  29.205  1.00  0.00     0.002 C 
BRANCH  22  23
ATOM     23  C   UNL A   1      33.462  34.477  29.024  1.00  0.00     0.021 C 
BRANCH  23  24
ATOM     24  C   UNL A   1      33.442  35.930  29.494  1.00  0.00     0.116 C 
BRANCH  24  25
ATOM     25  N   UNL A   1      32.509  36.172  30.582  1.00  0.00    -0.352 N 
ATOM     26  C   UNL A   1      32.592  35.806  31.902  1.00  0.00     0.251 C 
ATOM     27  H   UNL A   1      31.698  36.673  30.336  1.00  0.00     0.163 HD
ATOM     28  O   UNL A   1      31.651  36.025  32.663  1.00  0.00    -0.269 OA
BRANCH  26  29
ATOM     29  C   UNL A   1      33.796  35.112  32.408  1.00  0.00     0.039 A 
ATOM     30  C   UNL A   1      33.662  33.812  32.901  1.00  0.00     0.014 A 
ATOM     31  C   UNL A   1      35.050  35.730  32.391  1.00  0.00     0.014 A 
ATOM     32  C   UNL A   1      34.795  33.105  33.311  1.00  0.00     0.010 A 
ATOM     33  C   UNL A   1      36.186  35.000  32.732  1.00  0.00     0.010 A 
ATOM     34  C   UNL A   1      36.071  33.679  33.191  1.00  0.00    -0.014 A 
BRANCH  34  35
ATOM     35  C   UNL A   1      37.295  32.908  33.530  1.00  0.00     0.031 A 
ATOM     36  C   UNL A   1      38.046  33.194  34.800  1.00  0.00     0.074 A 
ATOM     37  C   UNL A   1      37.766  31.992  32.661  1.00  0.00     0.049 A 
ATOM     38  N   UNL A   1      39.168  32.676  35.233  1.00  0.00    -0.248 NA
ATOM     39  C   UNL A   1      37.472  34.213  35.692  1.00  0.00     0.031 C 
ATOM     40  C   UNL A   1      37.152  31.649  31.377  1.00  0.00     0.029 A 
ATOM     41  N   UNL A   1      38.874  31.185  32.723  1.00  0.00    -0.354 N 
ATOM     42  C   UNL A   1      39.438  33.311  36.438  1.00  0.00     0.074 A 
ATOM     43  C   UNL A   1      38.393  34.292  36.641  1.00  0.00     0.031 C 
ATOM     44  C   UNL A   1      37.877  30.685  30.786  1.00  0.00     0.029 A 
ATOM     45  C   UNL A   1      39.027  30.371  31.627  1.00  0.00     0.049 A 
ATOM     46  H   UNL A   1      39.501  31.190  33.482  1.00  0.00     0.167 HD
ATOM     47  C   UNL A   1      40.449  33.081  37.309  1.00  0.00     0.037 A 
ATOM     48  C   UNL A   1      39.990  29.479  31.328  1.00  0.00     0.037 A 
ATOM     49  C   UNL A   1      41.480  32.095  37.111  1.00  0.00     0.049 A 
ATOM     50  C   UNL A   1      41.118  29.262  32.298  1.00  0.00     0.074 A 
ATOM     51  C   UNL A   1      42.524  31.758  37.956  1.00  0.00     0.029 A 
ATOM     52  N   UNL A   1      41.598  31.290  35.988  1.00  0.00    -0.354 N 
ATOM     53  N   UNL A   1      41.330  29.830  33.461  1.00  0.00    -0.248 NA
ATOM     54  C   UNL A   1      42.139  28.276  31.917  1.00  0.00     0.031 C 
ATOM     55  C   UNL A   1      43.300  30.781  37.323  1.00  0.00     0.029 A 
ATOM     56  C   UNL A   1      42.710  30.471  36.108  1.00  0.00     0.049 A 
ATOM     57  H   UNL A   1      40.984  31.299  35.219  1.00  0.00     0.167 HD
ATOM     58  C   UNL A   1      42.489  29.250  33.963  1.00  0.00     0.074 A 
ATOM     59  C   UNL A   1      42.925  28.277  32.983  1.00  0.00     0.031 C 
ATOM     60  C   UNL A   1      43.130  29.500  35.130  1.00  0.00     0.037 A 
BRANCH  47  61
ATOM     61  C   UNL A   1      40.486  33.910  38.560  1.00  0.00     0.057 A 
ATOM     62  C   UNL A   1      41.249  35.083  38.646  1.00  0.00     0.134 A 
ATOM     63  C   UNL A   1      39.726  33.553  39.681  1.00  0.00     0.134 A 
ATOM     64  F   UNL A   1      42.009  35.477  37.612  1.00  0.00    -0.206 F 
ATOM     65  C   UNL A   1      41.276  35.854  39.809  1.00  0.00     0.040 A 
ATOM     66  C   UNL A   1      39.722  34.332  40.839  1.00  0.00     0.040 A 
ATOM     67  F   UNL A   1      38.967  32.447  39.666  1.00  0.00    -0.206 F 
ATOM     68  C   UNL A   1      40.505  35.483  40.908  1.00  0.00     0.006 A 
ENDBRANCH  47  61
BRANCH  48  69
ATOM     69  C   UNL A   1      39.919  28.703  30.064  1.00  0.00     0.057 A 
ATOM     70  C   UNL A   1      39.221  27.491  30.002  1.00  0.00     0.134 A 
ATOM     71  C   UNL A   1      40.548  29.145  28.894  1.00  0.00     0.134 A 
ATOM     72  F   UNL A   1      38.614  27.005  31.095  1.00  0.00    -0.206 F 
ATOM     73  C   UNL A   1      39.167  26.736  28.829  1.00  0.00     0.040 A 
ATOM     74  C   UNL A   1      40.480  28.414  27.708  1.00  0.00     0.040 A 
ATOM     75  F   UNL A   1      41.227  30.302  28.886  1.00  0.00    -0.206 F 
ATOM     76  C   UNL A   1      39.794  27.201  27.675  1.00  0.00     0.006 A 
ENDBRANCH  48  69
BRANCH  60  77
ATOM     77  C   UNL A   1      44.352  28.683  35.433  1.00  0.00     0.057 A 
ATOM     78  C   UNL A   1      44.275  27.455  36.105  1.00  0.00     0.134 A 
ATOM     79  C   UNL A   1      45.617  29.112  35.012  1.00  0.00     0.134 A 
ATOM     80  F   UNL A   1      43.096  26.994  36.546  1.00  0.00    -0.206 F 
ATOM     81  C   UNL A   1      45.418  26.695  36.366  1.00  0.00     0.040 A 
ATOM     82  C   UNL A   1      46.762  28.348  35.243  1.00  0.00     0.040 A 
ATOM     83  F   UNL A   1      45.759  30.273  34.357  1.00  0.00    -0.206 F 
ATOM     84  C   UNL A   1      46.664  27.138  35.928  1.00  0.00     0.006 A 
ENDBRANCH  60  77
ENDBRANCH  34  35
ENDBRANCH  26  29
ENDBRANCH  24  25
ENDBRANCH  23  24
ENDBRANCH  22  23
ENDBRANCH   1  22
TORSDOF 16
ENDMDL
MODEL 3
REMARK VINA RESULT:      -8.5      5.982     11.550
REMARK SMILES O=C(CCC(=O)Nc1cc(Cl)cc(Cl)c1)NCCCCCCNC(=O)c1ccc(-c2c3nc(c(-c4c(F)cccc4F)c4ccc([nH]4)c(-c4c(F)cccc4F)c4nc(c(-c5c(F)cccc5F)c5ccc2[nH]5)C=C4)C=C3)cc1
REMARK SMILES IDX 19 1 18 2 17 3 16 4 1 5 2 6 3 8 4 9 5 10 6 11 7 12 8 14 9 15
REMARK SMILES IDX 15 16 10 17 13 18 11 19 12 20 14 21 20 22 21 23 22 24 23 25
REMARK SMILES IDX 24 26 25 28 26 29 27 30 79 31 28 32 78 33 29 34 30 35 31 36
REMARK SMILES IDX 72 37 32 38 77 39 71 40 73 41 33 42 76 43 70 44 69 45 34 47
REMARK SMILES IDX 60 48 43 49 59 50 44 51 47 52 58 53 74 54 45 55 46 56 57 58
REMARK SMILES IDX 75 59 48 60 35 61 36 62 41 63 37 64 38 65 40 66 42 67 39 68
REMARK SMILES IDX 61 69 62 70 67 71 63 72 64 73 66 74 68 75 65 76 49 77 50 78
REMARK SMILES IDX 55 79 51 80 52 81 54 82 56 83 53 84
REMARK H PARENT 16 7 7 13 23 27 73 46 47 57
REMARK Flexibility Score: inf
ROOT
ATOM      1  C   UNL A   1      35.746  21.216  25.019  1.00  0.00     0.002 C 
ENDROOT
BRANCH   1   2
ATOM      2  C   UNL A   1      35.046  19.857  24.902  1.00  0.00     0.021 C 
BRANCH   2   3
ATOM      3  C   UNL A   1      33.539  19.922  24.686  1.00  0.00     0.116 C 
BRANCH   3   4
ATOM      4  N   UNL A   1      32.987  21.245  24.893  1.00  0.00    -0.356 N 
ATOM      5  O   UNL A   1      32.048  21.469  22.806  1.00  0.00    -0.275 OA
ATOM      6  C   UNL A   1      32.203  21.873  23.953  1.00  0.00     0.220 C 
ATOM      7  H   UNL A   1      33.181  21.713  25.738  1.00  0.00     0.163 HD
BRANCH   6   8
ATOM      8  C   UNL A   1      31.443  23.066  24.487  1.00  0.00     0.110 C 
BRANCH   8   9
ATOM      9  C   UNL A   1      31.719  23.301  25.971  1.00  0.00     0.110 C 
BRANCH   9  10
ATOM     10  C   UNL A   1      30.544  23.930  26.676  1.00  0.00     0.224 C 
ATOM     11  O   UNL A   1      29.756  23.201  27.292  1.00  0.00    -0.275 OA
ATOM     12  N   UNL A   1      30.248  25.256  26.658  1.00  0.00    -0.326 N 
ATOM     13  H   UNL A   1      29.580  25.494  27.340  1.00  0.00     0.169 HD
BRANCH  12  14
ATOM     14  C   UNL A   1      30.655  26.377  25.906  1.00  0.00     0.044 A 
ATOM     15  C   UNL A   1      30.231  26.706  24.620  1.00  0.00     0.046 A 
ATOM     16  C   UNL A   1      31.477  27.294  26.582  1.00  0.00     0.046 A 
ATOM     17  C   UNL A   1      30.558  27.946  24.057  1.00  0.00     0.044 A 
ATOM     18  C   UNL A   1      31.805  28.524  26.008  1.00  0.00     0.044 A 
ATOM     19  Cl  UNL A   1      29.945  28.361  22.501  1.00  0.00    -0.084 Cl
ATOM     20  C   UNL A   1      31.337  28.865  24.747  1.00  0.00     0.041 A 
ATOM     21  Cl  UNL A   1      32.762  29.647  26.893  1.00  0.00    -0.084 Cl
ENDBRANCH  12  14
ENDBRANCH   9  10
ENDBRANCH   8   9
ENDBRANCH   6   8
ENDBRANCH   3   4
ENDBRANCH   2   3
ENDBRANCH   1   2
BRANCH   1  22
ATOM     22  C   UNL A   1      37.207  21.262  24.559  1.00  0.00     0.002 C 
BRANCH  22  23
ATOM     23  C   UNL A   1      38.045  20.021  24.871  1.00  0.00     0.021 C 
BRANCH  23  24
ATOM     24  C   UNL A   1      39.095  20.189  25.967  1.00  0.00     0.116 C 
BRANCH  24  25
ATOM     25  N   UNL A   1      40.240  19.307  25.809  1.00  0.00    -0.352 N 
ATOM     26  C   UNL A   1      41.572  19.559  26.026  1.00  0.00     0.251 C 
ATOM     27  H   UNL A   1      40.030  18.396  25.503  1.00  0.00     0.163 HD
ATOM     28  O   UNL A   1      42.413  18.706  25.748  1.00  0.00    -0.269 OA
BRANCH  26  29
ATOM     29  C   UNL A   1      42.005  20.870  26.556  1.00  0.00     0.039 A 
ATOM     30  C   UNL A   1      42.362  21.873  25.652  1.00  0.00     0.014 A 
ATOM     31  C   UNL A   1      42.055  21.115  27.931  1.00  0.00     0.014 A 
ATOM     32  C   UNL A   1      42.699  23.144  26.122  1.00  0.00     0.010 A 
ATOM     33  C   UNL A   1      42.321  22.401  28.395  1.00  0.00     0.010 A 
ATOM     34  C   UNL A   1      42.641  23.430  27.496  1.00  0.00    -0.014 A 
BRANCH  34  35
ATOM     35  C   UNL A   1      42.901  24.800  28.008  1.00  0.00     0.031 A 
ATOM     36  C   UNL A   1      44.290  25.211  28.407  1.00  0.00     0.074 A 
ATOM     37  C   UNL A   1      41.873  25.655  28.170  1.00  0.00     0.049 A 
ATOM     38  N   UNL A   1      44.700  26.336  28.937  1.00  0.00    -0.248 NA
ATOM     39  C   UNL A   1      45.358  24.219  28.206  1.00  0.00     0.031 C 
ATOM     40  C   UNL A   1      40.472  25.365  27.858  1.00  0.00     0.029 A 
ATOM     41  N   UNL A   1      41.845  26.942  28.647  1.00  0.00    -0.354 N 
ATOM     42  C   UNL A   1      46.066  26.184  29.141  1.00  0.00     0.074 A 
ATOM     43  C   UNL A   1      46.406  24.838  28.730  1.00  0.00     0.031 C 
ATOM     44  C   UNL A   1      39.728  26.449  28.125  1.00  0.00     0.029 A 
ATOM     45  C   UNL A   1      40.588  27.496  28.667  1.00  0.00     0.049 A 
ATOM     46  H   UNL A   1      42.650  27.423  28.947  1.00  0.00     0.167 HD
ATOM     47  C   UNL A   1      46.960  27.089  29.603  1.00  0.00     0.037 A 
ATOM     48  C   UNL A   1      40.173  28.708  29.083  1.00  0.00     0.037 A 
ATOM     49  C   UNL A   1      46.622  28.432  29.999  1.00  0.00     0.049 A 
ATOM     50  C   UNL A   1      41.181  29.686  29.620  1.00  0.00     0.074 A 
ATOM     51  C   UNL A   1      47.464  29.438  30.441  1.00  0.00     0.029 A 
ATOM     52  N   UNL A   1      45.338  28.955  30.003  1.00  0.00    -0.354 N 
ATOM     53  N   UNL A   1      42.478  29.547  29.754  1.00  0.00    -0.248 NA
ATOM     54  C   UNL A   1      40.668  30.991  30.059  1.00  0.00     0.031 C 
ATOM     55  C   UNL A   1      46.683  30.555  30.756  1.00  0.00     0.029 A 
ATOM     56  C   UNL A   1      45.361  30.264  30.459  1.00  0.00     0.049 A 
ATOM     57  H   UNL A   1      44.529  28.469  29.722  1.00  0.00     0.167 HD
ATOM     58  C   UNL A   1      42.940  30.755  30.263  1.00  0.00     0.074 A 
ATOM     59  C   UNL A   1      41.785  31.618  30.400  1.00  0.00     0.031 C 
ATOM     60  C   UNL A   1      44.206  31.115  30.584  1.00  0.00     0.037 A 
BRANCH  47  61
ATOM     61  C   UNL A   1      48.395  26.656  29.702  1.00  0.00     0.057 A 
ATOM     62  C   UNL A   1      48.880  25.961  30.819  1.00  0.00     0.134 A 
ATOM     63  C   UNL A   1      49.293  26.906  28.658  1.00  0.00     0.134 A 
ATOM     64  F   UNL A   1      48.074  25.698  31.860  1.00  0.00    -0.206 F 
ATOM     65  C   UNL A   1      50.213  25.555  30.904  1.00  0.00     0.040 A 
ATOM     66  C   UNL A   1      50.621  26.479  28.719  1.00  0.00     0.040 A 
ATOM     67  F   UNL A   1      48.895  27.560  27.557  1.00  0.00    -0.206 F 
ATOM     68  C   UNL A   1      51.086  25.807  29.849  1.00  0.00     0.006 A 
ENDBRANCH  47  61
BRANCH  48  69
ATOM     69  C   UNL A   1      38.738  29.077  28.987  1.00  0.00     0.057 A 
ATOM     70  C   UNL A   1      38.194  29.545  27.785  1.00  0.00     0.134 A 
ATOM     71  C   UNL A   1      37.879  28.977  30.088  1.00  0.00     0.134 A 
ATOM     72  F   UNL A   1      38.971  29.681  26.701  1.00  0.00    -0.206 F 
ATOM     73  C   UNL A   1      36.853  29.921  27.685  1.00  0.00     0.040 A 
ATOM     74  C   UNL A   1      36.530  29.324  29.995  1.00  0.00     0.040 A 
ATOM     75  F   UNL A   1      38.336  28.528  31.266  1.00  0.00    -0.206 F 
ATOM     76  C   UNL A   1      36.016  29.805  28.792  1.00  0.00     0.006 A 
ENDBRANCH  48  69
BRANCH  60  77
ATOM     77  C   UNL A   1      44.418  32.516  31.080  1.00  0.00     0.057 A 
ATOM     78  C   UNL A   1      44.652  33.585  30.205  1.00  0.00     0.134 A 
ATOM     79  C   UNL A   1      44.348  32.804  32.449  1.00  0.00     0.134 A 
ATOM     80  F   UNL A   1      44.743  33.375  28.884  1.00  0.00    -0.206 F 
ATOM     81  C   UNL A   1      44.831  34.887  30.677  1.00  0.00     0.040 A 
ATOM     82  C   UNL A   1      44.497  34.105  32.930  1.00  0.00     0.040 A 
ATOM     83  F   UNL A   1      44.118  31.828  33.340  1.00  0.00    -0.206 F 
ATOM     84  C   UNL A   1      44.745  35.151  32.043  1.00  0.00     0.006 A 
ENDBRANCH  60  77
ENDBRANCH  34  35
ENDBRANCH  26  29
ENDBRANCH  24  25
ENDBRANCH  23  24
ENDBRANCH  22  23
ENDBRANCH   1  22
TORSDOF 16
ENDMDL
