MODEL 1
REMARK VINA RESULT:     -10.8      0.000      0.000
REMARK SMILES Cc1nn(Cc2ccc(C(=O)NCCCCCCNC(=O)c3ccc(-c4c5nc(c(-c6c(F)cccc6F)c6ccc([nH]6)c(-c6c(F)cccc6F)c6nc(c(-c7c(F)cccc7F)c7ccc4[nH]7)C=C6)C=C5)cc3)o2)c(C)c1C
REMARK SMILES IDX 15 1 14 2 13 3 12 4 10 5 11 6 9 8 6 9 7 10 76 11 8 12 5 13
REMARK SMILES IDX 4 14 1 15 2 16 3 17 79 18 77 19 80 20 78 21 16 22 17 23
REMARK SMILES IDX 18 24 19 25 20 26 21 28 22 29 23 30 75 31 24 32 74 33 25 34
REMARK SMILES IDX 26 35 27 36 68 37 28 38 73 39 67 40 69 41 29 42 72 43 66 44
REMARK SMILES IDX 65 45 30 47 56 48 39 49 55 50 40 51 43 52 54 53 70 54 41 55
REMARK SMILES IDX 42 56 53 58 71 59 44 60 31 61 32 62 37 63 33 64 34 65 36 66
REMARK SMILES IDX 38 67 35 68 57 69 58 70 63 71 59 72 60 73 62 74 64 75 61 76
REMARK SMILES IDX 45 77 46 78 51 79 47 80 48 81 50 82 52 83 49 84
REMARK H PARENT 12 7 19 27 69 46 43 57
REMARK Flexibility Score: inf
ROOT
ATOM      1  C   UNL A   1      39.343  22.205  26.863  1.00  0.00     0.002 C 
ENDROOT
BRANCH   1   2
ATOM      2  C   UNL A   1      38.839  23.555  26.336  1.00  0.00     0.021 C 
BRANCH   2   3
ATOM      3  C   UNL A   1      37.424  23.529  25.762  1.00  0.00     0.116 C 
BRANCH   3   4
ATOM      4  N   UNL A   1      37.433  23.242  24.340  1.00  0.00    -0.349 N 
ATOM      5  C   UNL A   1      36.424  23.092  23.420  1.00  0.00     0.286 C 
ATOM      6  O   UNL A   1      36.789  22.815  22.272  1.00  0.00    -0.266 OA
ATOM      7  H   UNL A   1      38.335  23.134  23.963  1.00  0.00     0.163 HD
BRANCH   5   8
ATOM      8  C   UNL A   1      35.025  23.264  23.756  1.00  0.00     0.191 A 
ATOM      9  C   UNL A   1      33.048  24.246  23.882  1.00  0.00     0.126 A 
ATOM     10  C   UNL A   1      32.897  22.997  24.446  1.00  0.00     0.048 A 
ATOM     11  O   UNL A   1      34.334  24.407  23.461  1.00  0.00    -0.454 OA
ATOM     12  C   UNL A   1      34.162  22.371  24.369  1.00  0.00     0.056 A 
BRANCH   9  13
ATOM     13  C   UNL A   1      32.108  25.364  23.610  1.00  0.00     0.219 C 
BRANCH  13  14
ATOM     14  N   UNL A   1      32.164  26.401  24.636  1.00  0.00    -0.262 N 
ATOM     15  C   UNL A   1      33.920  29.176  25.954  1.00  0.00     0.069 C 
ATOM     16  C   UNL A   1      32.994  28.044  25.701  1.00  0.00     0.063 A 
ATOM     17  N   UNL A   1      33.186  27.282  24.620  1.00  0.00    -0.177 NA
ATOM     18  C   UNL A   1      31.875  27.608  26.461  1.00  0.00    -0.007 A 
ATOM     19  C   UNL A   1      31.361  26.538  25.746  1.00  0.00     0.039 A 
ATOM     20  C   UNL A   1      31.362  28.157  27.742  1.00  0.00     0.048 C 
ATOM     21  C   UNL A   1      30.199  25.658  26.033  1.00  0.00     0.066 C 
ENDBRANCH  13  14
ENDBRANCH   9  13
ENDBRANCH   5   8
ENDBRANCH   3   4
ENDBRANCH   2   3
ENDBRANCH   1   2
BRANCH   1  22
ATOM     22  C   UNL A   1      40.846  21.933  26.689  1.00  0.00     0.002 C 
BRANCH  22  23
ATOM     23  C   UNL A   1      41.233  20.570  26.096  1.00  0.00     0.021 C 
BRANCH  23  24
ATOM     24  C   UNL A   1      42.527  20.006  26.656  1.00  0.00     0.116 C 
BRANCH  24  25
ATOM     25  N   UNL A   1      43.602  19.952  25.661  1.00  0.00    -0.352 N 
ATOM     26  C   UNL A   1      44.169  20.997  24.944  1.00  0.00     0.251 C 
ATOM     27  H   UNL A   1      43.972  19.058  25.477  1.00  0.00     0.163 HD
ATOM     28  O   UNL A   1      44.788  20.803  23.915  1.00  0.00    -0.269 OA
BRANCH  26  29
ATOM     29  C   UNL A   1      44.027  22.360  25.486  1.00  0.00     0.039 A 
ATOM     30  C   UNL A   1      43.326  23.377  24.829  1.00  0.00     0.014 A 
ATOM     31  C   UNL A   1      44.623  22.589  26.719  1.00  0.00     0.014 A 
ATOM     32  C   UNL A   1      43.200  24.617  25.458  1.00  0.00     0.010 A 
ATOM     33  C   UNL A   1      44.285  23.697  27.431  1.00  0.00     0.010 A 
ATOM     34  C   UNL A   1      43.690  24.757  26.761  1.00  0.00    -0.014 A 
BRANCH  34  35
ATOM     35  C   UNL A   1      43.585  25.978  27.543  1.00  0.00     0.031 A 
ATOM     36  C   UNL A   1      44.574  27.021  27.163  1.00  0.00     0.074 A 
ATOM     37  C   UNL A   1      42.447  26.219  28.240  1.00  0.00     0.049 A 
ATOM     38  N   UNL A   1      45.515  27.535  27.883  1.00  0.00    -0.248 NA
ATOM     39  C   UNL A   1      44.635  27.422  25.743  1.00  0.00     0.031 C 
ATOM     40  C   UNL A   1      41.253  25.361  28.339  1.00  0.00     0.029 A 
ATOM     41  N   UNL A   1      42.044  27.349  28.878  1.00  0.00    -0.354 N 
ATOM     42  C   UNL A   1      46.122  28.494  27.072  1.00  0.00     0.074 A 
ATOM     43  C   UNL A   1      45.726  28.187  25.727  1.00  0.00     0.031 C 
ATOM     44  C   UNL A   1      40.203  26.084  28.784  1.00  0.00     0.029 A 
ATOM     45  C   UNL A   1      40.674  27.402  29.151  1.00  0.00     0.049 A 
ATOM     46  H   UNL A   1      42.665  28.072  29.128  1.00  0.00     0.167 HD
ATOM     47  C   UNL A   1      46.634  29.642  27.601  1.00  0.00     0.037 A 
ATOM     48  C   UNL A   1      39.990  28.487  29.596  1.00  0.00     0.037 A 
ATOM     49  C   UNL A   1      46.776  29.513  29.032  1.00  0.00     0.049 A 
ATOM     50  C   UNL A   1      40.998  29.447  30.116  1.00  0.00     0.074 A 
ATOM     51  C   UNL A   1      47.478  28.672  29.872  1.00  0.00     0.029 A 
ATOM     52  N   UNL A   1      45.805  30.099  29.808  1.00  0.00    -0.354 N 
ATOM     53  N   UNL A   1      41.740  29.217  31.165  1.00  0.00    -0.248 NA
ATOM     54  C   UNL A   1      41.529  30.422  29.174  1.00  0.00     0.031 C 
ATOM     55  C   UNL A   1      46.597  28.432  30.967  1.00  0.00     0.029 A 
ATOM     56  C   UNL A   1      45.451  29.206  30.784  1.00  0.00     0.049 A 
ATOM     57  H   UNL A   1      45.430  31.001  29.685  1.00  0.00     0.167 HD
ATOM     58  C   UNL A   1      43.002  29.679  30.814  1.00  0.00     0.074 A 
ATOM     59  C   UNL A   1      42.795  30.466  29.598  1.00  0.00     0.031 C 
ATOM     60  C   UNL A   1      44.128  29.132  31.361  1.00  0.00     0.037 A 
BRANCH  47  61
ATOM     61  C   UNL A   1      46.598  31.002  26.931  1.00  0.00     0.057 A 
ATOM     62  C   UNL A   1      47.785  31.761  26.893  1.00  0.00     0.134 A 
ATOM     63  C   UNL A   1      45.431  31.723  26.597  1.00  0.00     0.134 A 
ATOM     64  F   UNL A   1      48.971  31.198  27.167  1.00  0.00    -0.206 F 
ATOM     65  C   UNL A   1      47.794  33.142  26.664  1.00  0.00     0.040 A 
ATOM     66  C   UNL A   1      45.437  33.094  26.317  1.00  0.00     0.040 A 
ATOM     67  F   UNL A   1      44.209  31.186  26.608  1.00  0.00    -0.206 F 
ATOM     68  C   UNL A   1      46.614  33.817  26.391  1.00  0.00     0.006 A 
ENDBRANCH  47  61
BRANCH  48  69
ATOM     69  C   UNL A   1      38.595  28.891  29.297  1.00  0.00     0.057 A 
ATOM     70  C   UNL A   1      37.632  29.018  30.309  1.00  0.00     0.134 A 
ATOM     71  C   UNL A   1      38.241  29.424  28.044  1.00  0.00     0.134 A 
ATOM     72  F   UNL A   1      37.893  28.586  31.551  1.00  0.00    -0.206 F 
ATOM     73  C   UNL A   1      36.397  29.646  30.092  1.00  0.00     0.040 A 
ATOM     74  C   UNL A   1      37.011  30.050  27.812  1.00  0.00     0.040 A 
ATOM     75  F   UNL A   1      39.117  29.433  27.028  1.00  0.00    -0.206 F 
ATOM     76  C   UNL A   1      36.086  30.173  28.841  1.00  0.00     0.006 A 
ENDBRANCH  48  69
BRANCH  60  77
ATOM     77  C   UNL A   1      43.970  28.188  32.522  1.00  0.00     0.057 A 
ATOM     78  C   UNL A   1      43.908  26.791  32.401  1.00  0.00     0.134 A 
ATOM     79  C   UNL A   1      44.098  28.705  33.815  1.00  0.00     0.134 A 
ATOM     80  F   UNL A   1      43.872  26.200  31.201  1.00  0.00    -0.206 F 
ATOM     81  C   UNL A   1      43.957  25.949  33.517  1.00  0.00     0.040 A 
ATOM     82  C   UNL A   1      44.181  27.875  34.935  1.00  0.00     0.040 A 
ATOM     83  F   UNL A   1      44.218  30.028  34.001  1.00  0.00    -0.206 F 
ATOM     84  C   UNL A   1      44.106  26.493  34.789  1.00  0.00     0.006 A 
ENDBRANCH  60  77
ENDBRANCH  34  35
ENDBRANCH  26  29
ENDBRANCH  24  25
ENDBRANCH  23  24
ENDBRANCH  22  23
ENDBRANCH   1  22
TORSDOF 15
ENDMDL
MODEL 2
REMARK VINA RESULT:     -10.7      3.667      8.753
REMARK SMILES Cc1nn(Cc2ccc(C(=O)NCCCCCCNC(=O)c3ccc(-c4c5nc(c(-c6c(F)cccc6F)c6ccc([nH]6)c(-c6c(F)cccc6F)c6nc(c(-c7c(F)cccc7F)c7ccc4[nH]7)C=C6)C=C5)cc3)o2)c(C)c1C
REMARK SMILES IDX 15 1 14 2 13 3 12 4 10 5 11 6 9 8 6 9 7 10 76 11 8 12 5 13
REMARK SMILES IDX 4 14 1 15 2 16 3 17 79 18 77 19 80 20 78 21 16 22 17 23
REMARK SMILES IDX 18 24 19 25 20 26 21 28 22 29 23 30 75 31 24 32 74 33 25 34
REMARK SMILES IDX 26 35 27 36 68 37 28 38 73 39 67 40 69 41 29 42 72 43 66 44
REMARK SMILES IDX 65 45 30 47 56 48 39 49 55 50 40 51 43 52 54 53 70 54 41 55
REMARK SMILES IDX 42 56 53 58 71 59 44 60 31 61 32 62 37 63 33 64 34 65 36 66
REMARK SMILES IDX 38 67 35 68 57 69 58 70 63 71 59 72 60 73 62 74 64 75 61 76
REMARK SMILES IDX 45 77 46 78 51 79 47 80 48 81 50 82 52 83 49 84
REMARK H PARENT 12 7 19 27 69 46 43 57
REMARK Flexibility Score: inf
ROOT
ATOM      1  C   UNL A   1      34.373  31.232  28.199  1.00  0.00     0.002 C 
ENDROOT
BRANCH   1   2
ATOM      2  C   UNL A   1      35.253  30.314  27.339  1.00  0.00     0.021 C 
BRANCH   2   3
ATOM      3  C   UNL A   1      34.555  29.056  26.828  1.00  0.00     0.116 C 
BRANCH   3   4
ATOM      4  N   UNL A   1      33.334  28.790  27.564  1.00  0.00    -0.349 N 
ATOM      5  C   UNL A   1      32.256  27.977  27.308  1.00  0.00     0.286 C 
ATOM      6  O   UNL A   1      31.352  28.013  28.148  1.00  0.00    -0.266 OA
ATOM      7  H   UNL A   1      33.263  29.289  28.409  1.00  0.00     0.163 HD
BRANCH   5   8
ATOM      8  C   UNL A   1      32.184  27.117  26.143  1.00  0.00     0.191 A 
ATOM      9  C   UNL A   1      31.791  26.520  24.051  1.00  0.00     0.126 A 
ATOM     10  C   UNL A   1      32.333  25.417  24.673  1.00  0.00     0.048 A 
ATOM     11  O   UNL A   1      31.704  27.552  24.939  1.00  0.00    -0.454 OA
ATOM     12  C   UNL A   1      32.580  25.797  26.012  1.00  0.00     0.056 A 
BRANCH   9  13
ATOM     13  C   UNL A   1      31.363  26.799  22.656  1.00  0.00     0.219 C 
BRANCH  13  14
ATOM     14  N   UNL A   1      30.240  27.730  22.593  1.00  0.00    -0.262 N 
ATOM     15  C   UNL A   1      29.088  30.922  21.590  1.00  0.00     0.069 C 
ATOM     16  C   UNL A   1      29.256  29.568  22.175  1.00  0.00     0.063 A 
ATOM     17  N   UNL A   1      30.423  28.937  22.020  1.00  0.00    -0.177 NA
ATOM     18  C   UNL A   1      28.330  28.787  22.918  1.00  0.00    -0.007 A 
ATOM     19  C   UNL A   1      29.000  27.602  23.178  1.00  0.00     0.039 A 
ATOM     20  C   UNL A   1      26.952  29.146  23.340  1.00  0.00     0.048 C 
ATOM     21  C   UNL A   1      28.564  26.393  23.924  1.00  0.00     0.066 C 
ENDBRANCH  13  14
ENDBRANCH   9  13
ENDBRANCH   5   8
ENDBRANCH   3   4
ENDBRANCH   2   3
ENDBRANCH   1   2
BRANCH   1  22
ATOM     22  C   UNL A   1      34.811  32.704  28.277  1.00  0.00     0.002 C 
BRANCH  22  23
ATOM     23  C   UNL A   1      33.724  33.724  28.649  1.00  0.00     0.021 C 
BRANCH  23  24
ATOM     24  C   UNL A   1      34.275  35.031  29.193  1.00  0.00     0.116 C 
BRANCH  24  25
ATOM     25  N   UNL A   1      33.825  35.313  30.559  1.00  0.00    -0.352 N 
ATOM     26  C   UNL A   1      34.089  34.600  31.720  1.00  0.00     0.251 C 
ATOM     27  H   UNL A   1      33.262  36.114  30.668  1.00  0.00     0.163 HD
ATOM     28  O   UNL A   1      33.393  34.715  32.712  1.00  0.00    -0.269 OA
BRANCH  26  29
ATOM     29  C   UNL A   1      35.267  33.715  31.731  1.00  0.00     0.039 A 
ATOM     30  C   UNL A   1      35.177  32.321  31.802  1.00  0.00     0.014 A 
ATOM     31  C   UNL A   1      36.502  34.345  31.649  1.00  0.00     0.014 A 
ATOM     32  C   UNL A   1      36.353  31.571  31.745  1.00  0.00     0.010 A 
ATOM     33  C   UNL A   1      37.606  33.616  31.340  1.00  0.00     0.010 A 
ATOM     34  C   UNL A   1      37.560  32.239  31.515  1.00  0.00    -0.014 A 
BRANCH  34  35
ATOM     35  C   UNL A   1      38.848  31.575  31.390  1.00  0.00     0.031 A 
ATOM     36  C   UNL A   1      39.507  31.298  32.694  1.00  0.00     0.074 A 
ATOM     37  C   UNL A   1      39.161  30.956  30.226  1.00  0.00     0.049 A 
ATOM     38  N   UNL A   1      40.633  31.751  33.137  1.00  0.00    -0.248 NA
ATOM     39  C   UNL A   1      38.734  30.553  33.708  1.00  0.00     0.031 C 
ATOM     40  C   UNL A   1      38.347  30.880  29.000  1.00  0.00     0.029 A 
ATOM     41  N   UNL A   1      40.197  30.126  29.937  1.00  0.00    -0.354 N 
ATOM     42  C   UNL A   1      40.812  31.152  34.384  1.00  0.00     0.074 A 
ATOM     43  C   UNL A   1      39.521  30.663  34.778  1.00  0.00     0.031 C 
ATOM     44  C   UNL A   1      38.797  29.880  28.210  1.00  0.00     0.029 A 
ATOM     45  C   UNL A   1      40.015  29.352  28.787  1.00  0.00     0.049 A 
ATOM     46  H   UNL A   1      41.010  30.073  30.491  1.00  0.00     0.167 HD
ATOM     47  C   UNL A   1      42.056  30.826  34.837  1.00  0.00     0.037 A 
ATOM     48  C   UNL A   1      40.798  28.317  28.389  1.00  0.00     0.037 A 
ATOM     49  C   UNL A   1      43.065  31.503  34.057  1.00  0.00     0.049 A 
ATOM     50  C   UNL A   1      42.070  28.423  29.149  1.00  0.00     0.074 A 
ATOM     51  C   UNL A   1      43.375  32.822  33.795  1.00  0.00     0.029 A 
ATOM     52  N   UNL A   1      43.697  30.766  33.085  1.00  0.00    -0.354 N 
ATOM     53  N   UNL A   1      42.920  29.403  29.001  1.00  0.00    -0.248 NA
ATOM     54  C   UNL A   1      42.140  27.721  30.421  1.00  0.00     0.031 C 
ATOM     55  C   UNL A   1      43.762  32.841  32.423  1.00  0.00     0.029 A 
ATOM     56  C   UNL A   1      43.756  31.528  31.950  1.00  0.00     0.049 A 
ATOM     57  H   UNL A   1      44.047  29.851  33.186  1.00  0.00     0.167 HD
ATOM     58  C   UNL A   1      43.328  29.716  30.291  1.00  0.00     0.074 A 
ATOM     59  C   UNL A   1      42.859  28.605  31.119  1.00  0.00     0.031 C 
ATOM     60  C   UNL A   1      43.732  30.981  30.613  1.00  0.00     0.037 A 
BRANCH  47  61
ATOM     61  C   UNL A   1      42.388  29.598  35.664  1.00  0.00     0.057 A 
ATOM     62  C   UNL A   1      43.336  29.726  36.698  1.00  0.00     0.134 A 
ATOM     63  C   UNL A   1      42.069  28.267  35.322  1.00  0.00     0.134 A 
ATOM     64  F   UNL A   1      43.718  30.934  37.138  1.00  0.00    -0.206 F 
ATOM     65  C   UNL A   1      44.000  28.627  37.257  1.00  0.00     0.040 A 
ATOM     66  C   UNL A   1      42.690  27.160  35.911  1.00  0.00     0.040 A 
ATOM     67  F   UNL A   1      41.217  27.944  34.346  1.00  0.00    -0.206 F 
ATOM     68  C   UNL A   1      43.688  27.338  36.851  1.00  0.00     0.006 A 
ENDBRANCH  47  61
BRANCH  48  69
ATOM     69  C   UNL A   1      40.405  27.078  27.675  1.00  0.00     0.057 A 
ATOM     70  C   UNL A   1      40.979  26.724  26.445  1.00  0.00     0.134 A 
ATOM     71  C   UNL A   1      39.653  26.074  28.313  1.00  0.00     0.134 A 
ATOM     72  F   UNL A   1      41.755  27.594  25.783  1.00  0.00    -0.206 F 
ATOM     73  C   UNL A   1      40.824  25.445  25.888  1.00  0.00     0.040 A 
ATOM     74  C   UNL A   1      39.487  24.796  27.766  1.00  0.00     0.040 A 
ATOM     75  F   UNL A   1      39.130  26.276  29.531  1.00  0.00    -0.206 F 
ATOM     76  C   UNL A   1      40.083  24.473  26.554  1.00  0.00     0.006 A 
ENDBRANCH  48  69
BRANCH  60  77
ATOM     77  C   UNL A   1      43.955  31.964  29.496  1.00  0.00     0.057 A 
ATOM     78  C   UNL A   1      43.039  32.963  29.129  1.00  0.00     0.134 A 
ATOM     79  C   UNL A   1      45.226  32.030  28.918  1.00  0.00     0.134 A 
ATOM     80  F   UNL A   1      41.828  33.033  29.693  1.00  0.00    -0.206 F 
ATOM     81  C   UNL A   1      43.371  33.971  28.219  1.00  0.00     0.040 A 
ATOM     82  C   UNL A   1      45.581  33.049  28.033  1.00  0.00     0.040 A 
ATOM     83  F   UNL A   1      46.170  31.140  29.264  1.00  0.00    -0.206 F 
ATOM     84  C   UNL A   1      44.652  34.022  27.677  1.00  0.00     0.006 A 
ENDBRANCH  60  77
ENDBRANCH  34  35
ENDBRANCH  26  29
ENDBRANCH  24  25
ENDBRANCH  23  24
ENDBRANCH  22  23
ENDBRANCH   1  22
TORSDOF 15
ENDMDL
MODEL 3
REMARK VINA RESULT:     -10.5      3.415      8.855
REMARK SMILES Cc1nn(Cc2ccc(C(=O)NCCCCCCNC(=O)c3ccc(-c4c5nc(c(-c6c(F)cccc6F)c6ccc([nH]6)c(-c6c(F)cccc6F)c6nc(c(-c7c(F)cccc7F)c7ccc4[nH]7)C=C6)C=C5)cc3)o2)c(C)c1C
REMARK SMILES IDX 15 1 14 2 13 3 12 4 10 5 11 6 9 8 6 9 7 10 76 11 8 12 5 13
REMARK SMILES IDX 4 14 1 15 2 16 3 17 79 18 77 19 80 20 78 21 16 22 17 23
REMARK SMILES IDX 18 24 19 25 20 26 21 28 22 29 23 30 75 31 24 32 74 33 25 34
REMARK SMILES IDX 26 35 27 36 68 37 28 38 73 39 67 40 69 41 29 42 72 43 66 44
REMARK SMILES IDX 65 45 30 47 56 48 39 49 55 50 40 51 43 52 54 53 70 54 41 55
REMARK SMILES IDX 42 56 53 58 71 59 44 60 31 61 32 62 37 63 33 64 34 65 36 66
REMARK SMILES IDX 38 67 35 68 57 69 58 70 63 71 59 72 60 73 62 74 64 75 61 76
REMARK SMILES IDX 45 77 46 78 51 79 47 80 48 81 50 82 52 83 49 84
REMARK H PARENT 12 7 19 27 69 46 43 57
REMARK Flexibility Score: inf
ROOT
ATOM      1  C   UNL A   1      34.945  32.145  27.819  1.00  0.00     0.002 C 
ENDROOT
BRANCH   1   2
ATOM      2  C   UNL A   1      35.035  30.623  27.653  1.00  0.00     0.021 C 
BRANCH   2   3
ATOM      3  C   UNL A   1      33.716  29.941  27.295  1.00  0.00     0.116 C 
BRANCH   3   4
ATOM      4  N   UNL A   1      33.492  29.936  25.862  1.00  0.00    -0.349 N 
ATOM      5  C   UNL A   1      33.195  28.931  24.974  1.00  0.00     0.286 C 
ATOM      6  O   UNL A   1      33.100  29.276  23.792  1.00  0.00    -0.266 OA
ATOM      7  H   UNL A   1      33.569  30.824  25.446  1.00  0.00     0.163 HD
BRANCH   5   8
ATOM      8  C   UNL A   1      32.987  27.557  25.389  1.00  0.00     0.191 A 
ATOM      9  C   UNL A   1      33.472  25.442  25.808  1.00  0.00     0.126 A 
ATOM     10  C   UNL A   1      32.158  25.620  26.185  1.00  0.00     0.048 A 
ATOM     11  O   UNL A   1      33.976  26.615  25.330  1.00  0.00    -0.454 OA
ATOM     12  C   UNL A   1      31.847  26.971  25.913  1.00  0.00     0.056 A 
BRANCH   9  13
ATOM     13  C   UNL A   1      34.408  24.289  25.878  1.00  0.00     0.219 C 
BRANCH  13  14
ATOM     14  N   UNL A   1      33.844  23.078  25.290  1.00  0.00    -0.262 N 
ATOM     15  C   UNL A   1      32.191  21.619  22.522  1.00  0.00     0.069 C 
ATOM     16  C   UNL A   1      32.817  21.916  23.835  1.00  0.00     0.063 A 
ATOM     17  N   UNL A   1      33.293  23.144  24.061  1.00  0.00    -0.177 NA
ATOM     18  C   UNL A   1      33.002  21.065  24.958  1.00  0.00    -0.007 A 
ATOM     19  C   UNL A   1      33.668  21.850  25.887  1.00  0.00     0.039 A 
ATOM     20  C   UNL A   1      32.576  19.652  25.123  1.00  0.00     0.048 C 
ATOM     21  C   UNL A   1      34.130  21.530  27.262  1.00  0.00     0.066 C 
ENDBRANCH  13  14
ENDBRANCH   9  13
ENDBRANCH   5   8
ENDBRANCH   3   4
ENDBRANCH   2   3
ENDBRANCH   1   2
BRANCH   1  22
ATOM     22  C   UNL A   1      33.641  32.681  28.432  1.00  0.00     0.002 C 
BRANCH  22  23
ATOM     23  C   UNL A   1      33.391  34.191  28.305  1.00  0.00     0.021 C 
BRANCH  23  24
ATOM     24  C   UNL A   1      34.348  35.038  29.125  1.00  0.00     0.116 C 
BRANCH  24  25
ATOM     25  N   UNL A   1      33.871  35.276  30.491  1.00  0.00    -0.352 N 
ATOM     26  C   UNL A   1      34.103  34.520  31.631  1.00  0.00     0.251 C 
ATOM     27  H   UNL A   1      33.313  36.078  30.616  1.00  0.00     0.163 HD
ATOM     28  O   UNL A   1      33.387  34.607  32.611  1.00  0.00    -0.269 OA
BRANCH  26  29
ATOM     29  C   UNL A   1      35.274  33.625  31.636  1.00  0.00     0.039 A 
ATOM     30  C   UNL A   1      35.171  32.229  31.611  1.00  0.00     0.014 A 
ATOM     31  C   UNL A   1      36.515  34.246  31.651  1.00  0.00     0.014 A 
ATOM     32  C   UNL A   1      36.342  31.473  31.556  1.00  0.00     0.010 A 
ATOM     33  C   UNL A   1      37.627  33.527  31.343  1.00  0.00     0.010 A 
ATOM     34  C   UNL A   1      37.564  32.143  31.425  1.00  0.00    -0.014 A 
BRANCH  34  35
ATOM     35  C   UNL A   1      38.851  31.475  31.314  1.00  0.00     0.031 A 
ATOM     36  C   UNL A   1      39.495  31.195  32.625  1.00  0.00     0.074 A 
ATOM     37  C   UNL A   1      39.174  30.856  30.153  1.00  0.00     0.049 A 
ATOM     38  N   UNL A   1      40.617  31.645  33.081  1.00  0.00    -0.248 NA
ATOM     39  C   UNL A   1      38.709  30.452  33.630  1.00  0.00     0.031 C 
ATOM     40  C   UNL A   1      38.374  30.783  28.918  1.00  0.00     0.029 A 
ATOM     41  N   UNL A   1      40.212  30.023  29.875  1.00  0.00    -0.354 N 
ATOM     42  C   UNL A   1      40.780  31.045  34.329  1.00  0.00     0.074 A 
ATOM     43  C   UNL A   1      39.484  30.559  34.709  1.00  0.00     0.031 C 
ATOM     44  C   UNL A   1      38.831  29.783  28.133  1.00  0.00     0.029 A 
ATOM     45  C   UNL A   1      40.041  29.251  28.722  1.00  0.00     0.049 A 
ATOM     46  H   UNL A   1      41.018  29.968  30.438  1.00  0.00     0.167 HD
ATOM     47  C   UNL A   1      42.018  30.716  34.796  1.00  0.00     0.037 A 
ATOM     48  C   UNL A   1      40.825  28.214  28.332  1.00  0.00     0.037 A 
ATOM     49  C   UNL A   1      43.037  31.390  34.028  1.00  0.00     0.049 A 
ATOM     50  C   UNL A   1      42.089  28.316  29.107  1.00  0.00     0.074 A 
ATOM     51  C   UNL A   1      43.354  32.709  33.770  1.00  0.00     0.029 A 
ATOM     52  N   UNL A   1      43.679  30.652  33.062  1.00  0.00    -0.354 N 
ATOM     53  N   UNL A   1      42.943  29.293  28.968  1.00  0.00    -0.248 NA
ATOM     54  C   UNL A   1      42.143  27.613  30.380  1.00  0.00     0.031 C 
ATOM     55  C   UNL A   1      43.757  32.727  32.403  1.00  0.00     0.029 A 
ATOM     56  C   UNL A   1      43.752  31.415  31.928  1.00  0.00     0.049 A 
ATOM     57  H   UNL A   1      44.025  29.736  33.167  1.00  0.00     0.167 HD
ATOM     58  C   UNL A   1      43.337  29.605  30.264  1.00  0.00     0.074 A 
ATOM     59  C   UNL A   1      42.857  28.494  31.086  1.00  0.00     0.031 C 
ATOM     60  C   UNL A   1      43.742  30.868  30.591  1.00  0.00     0.037 A 
BRANCH  47  61
ATOM     61  C   UNL A   1      42.338  29.486  35.625  1.00  0.00     0.057 A 
ATOM     62  C   UNL A   1      43.263  29.614  36.680  1.00  0.00     0.134 A 
ATOM     63  C   UNL A   1      42.032  28.154  35.272  1.00  0.00     0.134 A 
ATOM     64  F   UNL A   1      43.630  30.823  37.133  1.00  0.00    -0.206 F 
ATOM     65  C   UNL A   1      43.919  28.516  37.249  1.00  0.00     0.040 A 
ATOM     66  C   UNL A   1      42.645  27.048  35.871  1.00  0.00     0.040 A 
ATOM     67  F   UNL A   1      41.202  27.832  34.278  1.00  0.00    -0.206 F 
ATOM     68  C   UNL A   1      43.622  27.227  36.833  1.00  0.00     0.006 A 
ENDBRANCH  47  61
BRANCH  48  69
ATOM     69  C   UNL A   1      40.437  26.976  27.613  1.00  0.00     0.057 A 
ATOM     70  C   UNL A   1      41.029  26.618  26.393  1.00  0.00     0.134 A 
ATOM     71  C   UNL A   1      39.669  25.977  28.240  1.00  0.00     0.134 A 
ATOM     72  F   UNL A   1      41.820  27.483  25.743  1.00  0.00    -0.206 F 
ATOM     73  C   UNL A   1      40.875  25.339  25.835  1.00  0.00     0.040 A 
ATOM     74  C   UNL A   1      39.505  24.700  27.692  1.00  0.00     0.040 A 
ATOM     75  F   UNL A   1      39.128  26.183  29.449  1.00  0.00    -0.206 F 
ATOM     76  C   UNL A   1      40.118  24.373  26.490  1.00  0.00     0.006 A 
ENDBRANCH  48  69
BRANCH  60  77
ATOM     77  C   UNL A   1      43.979  31.851  29.477  1.00  0.00     0.057 A 
ATOM     78  C   UNL A   1      43.073  32.857  29.105  1.00  0.00     0.134 A 
ATOM     79  C   UNL A   1      45.255  31.910  28.909  1.00  0.00     0.134 A 
ATOM     80  F   UNL A   1      41.858  32.935  29.660  1.00  0.00    -0.206 F 
ATOM     81  C   UNL A   1      43.418  33.864  28.198  1.00  0.00     0.040 A 
ATOM     82  C   UNL A   1      45.624  32.928  28.028  1.00  0.00     0.040 A 
ATOM     83  F   UNL A   1      46.190  31.013  29.261  1.00  0.00    -0.206 F 
ATOM     84  C   UNL A   1      44.703  33.908  27.666  1.00  0.00     0.006 A 
ENDBRANCH  60  77
ENDBRANCH  34  35
ENDBRANCH  26  29
ENDBRANCH  24  25
ENDBRANCH  23  24
ENDBRANCH  22  23
ENDBRANCH   1  22
TORSDOF 15
ENDMDL
