MODEL 1
REMARK VINA RESULT:     -12.0      0.000      0.000
REMARK SMILES Cc1cc(C)n(C)c(=O)c1C(=O)N1CCC2(CC1)C[NH2+][C@@H](C(=O)NCCCCCCNC(=O)c1ccc(-c3c4nc(c(-c5c(F)cccc5F)c5ccc([nH]5)c(-c5c(F)cccc5F)c5nc(c(-c6c(F)cccc6F)c6ccc3[nH]6)C=C5)C=C4)cc1)C2
REMARK SMILES IDX 28 1 27 2 26 3 25 4 24 5 22 6 23 7 21 9 11 10 12 11 13 12
REMARK SMILES IDX 14 13 18 14 15 15 17 16 16 17 19 18 88 19 20 20 10 23 1 24
REMARK SMILES IDX 2 25 3 26 4 27 8 28 5 29 6 30 9 31 7 32 29 33 30 34 31 35
REMARK SMILES IDX 32 36 33 38 34 39 35 40 87 41 36 42 86 43 37 44 38 45 39 46
REMARK SMILES IDX 80 47 40 48 85 49 79 50 81 51 41 52 84 53 78 54 77 55 42 57
REMARK SMILES IDX 68 58 51 59 67 60 52 61 55 62 66 63 82 64 53 65 54 66 65 68
REMARK SMILES IDX 83 69 56 70 43 71 44 72 49 73 45 74 46 75 48 76 50 77 47 78
REMARK SMILES IDX 69 79 70 80 75 81 71 82 72 83 74 84 76 85 73 86 57 87 58 88
REMARK SMILES IDX 63 89 59 90 60 91 62 92 64 93 61 94
REMARK H PARENT 24 8 20 21 20 22 31 37 81 56 55 67
REMARK Flexibility Score: inf
ROOT
ATOM      1  C   UNL A   1      41.983  21.255  27.711  1.00  0.00     0.002 C 
ENDROOT
BRANCH   1   2
ATOM      2  C   UNL A   1      41.234  22.151  26.720  1.00  0.00     0.002 C 
BRANCH   2   3
ATOM      3  C   UNL A   1      39.946  22.766  27.271  1.00  0.00     0.021 C 
BRANCH   3   4
ATOM      4  C   UNL A   1      39.002  23.275  26.185  1.00  0.00     0.116 C 
BRANCH   4   5
ATOM      5  N   UNL A   1      38.287  22.182  25.556  1.00  0.00    -0.351 N 
ATOM      6  C   UNL A   1      36.945  22.001  25.389  1.00  0.00     0.278 C 
ATOM      7  O   UNL A   1      36.563  20.970  24.828  1.00  0.00    -0.268 OA
ATOM      8  H   UNL A   1      38.854  21.463  25.194  1.00  0.00     0.163 HD
BRANCH   6   9
ATOM      9  C   UNL A   1      35.933  23.033  25.901  1.00  0.00     0.273 C 
ATOM     10  C   UNL A   1      32.140  27.952  23.713  1.00  0.00     0.259 C 
ATOM     11  O   UNL A   1      32.546  29.096  23.935  1.00  0.00    -0.269 OA
ATOM     12  N   UNL A   1      33.020  26.888  23.857  1.00  0.00    -0.338 N 
ATOM     13  C   UNL A   1      34.133  27.064  24.774  1.00  0.00     0.120 C 
ATOM     14  C   UNL A   1      33.127  25.712  23.008  1.00  0.00     0.120 C 
ATOM     15  C   UNL A   1      34.066  25.945  25.795  1.00  0.00     0.034 C 
ATOM     16  C   UNL A   1      33.375  24.417  23.805  1.00  0.00     0.034 C 
ATOM     17  C   UNL A   1      34.170  24.547  25.146  1.00  0.00     0.029 C 
ATOM     18  C   UNL A   1      33.676  23.512  26.191  1.00  0.00     0.268 C 
ATOM     19  C   UNL A   1      35.658  24.176  24.930  1.00  0.00     0.088 C 
ATOM     20  N   UNL A   1      34.619  22.409  26.146  1.00  0.00    -0.336 N 
ATOM     21  H   UNL A   1      34.382  21.767  25.390  1.00  0.00     0.346 HD
ATOM     22  H   UNL A   1      34.611  21.866  27.009  1.00  0.00     0.346 HD
BRANCH  10  23
ATOM     23  C   UNL A   1      30.660  27.739  23.475  1.00  0.00     0.108 A 
ATOM     24  C   UNL A   1      30.233  25.910  25.234  1.00  0.00     0.045 C 
ATOM     25  C   UNL A   1      29.862  26.889  24.166  1.00  0.00    -0.031 A 
ATOM     26  C   UNL A   1      28.421  26.935  24.016  1.00  0.00     0.026 A 
ATOM     27  C   UNL A   1      27.803  27.943  23.392  1.00  0.00     0.018 A 
ATOM     28  C   UNL A   1      29.961  28.761  22.588  1.00  0.00     0.263 A 
ATOM     29  C   UNL A   1      26.300  28.001  23.433  1.00  0.00     0.064 C 
ATOM     30  N   UNL A   1      28.565  28.887  22.720  1.00  0.00    -0.315 N 
ATOM     31  O   UNL A   1      30.600  29.447  21.791  1.00  0.00    -0.268 OA
ATOM     32  C   UNL A   1      27.926  30.022  22.065  1.00  0.00     0.153 C 
ENDBRANCH  10  23
ENDBRANCH   6   9
ENDBRANCH   4   5
ENDBRANCH   3   4
ENDBRANCH   2   3
ENDBRANCH   1   2
BRANCH   1  33
ATOM     33  C   UNL A   1      42.284  19.845  27.196  1.00  0.00     0.021 C 
BRANCH  33  34
ATOM     34  C   UNL A   1      42.044  19.664  25.702  1.00  0.00     0.116 C 
BRANCH  34  35
ATOM     35  N   UNL A   1      43.180  19.037  25.044  1.00  0.00    -0.352 N 
ATOM     36  C   UNL A   1      44.340  19.610  24.584  1.00  0.00     0.251 C 
ATOM     37  H   UNL A   1      43.107  18.065  24.911  1.00  0.00     0.163 HD
ATOM     38  O   UNL A   1      45.102  18.982  23.861  1.00  0.00    -0.269 OA
BRANCH  36  39
ATOM     39  C   UNL A   1      44.649  21.005  24.955  1.00  0.00     0.039 A 
ATOM     40  C   UNL A   1      44.172  22.041  24.150  1.00  0.00     0.014 A 
ATOM     41  C   UNL A   1      45.400  21.283  26.101  1.00  0.00     0.014 A 
ATOM     42  C   UNL A   1      44.396  23.364  24.532  1.00  0.00     0.010 A 
ATOM     43  C   UNL A   1      45.556  22.599  26.520  1.00  0.00     0.010 A 
ATOM     44  C   UNL A   1      45.059  23.652  25.737  1.00  0.00    -0.014 A 
BRANCH  44  45
ATOM     45  C   UNL A   1      45.241  25.049  26.196  1.00  0.00     0.031 A 
ATOM     46  C   UNL A   1      46.591  25.700  26.113  1.00  0.00     0.074 A 
ATOM     47  C   UNL A   1      44.200  25.712  26.733  1.00  0.00     0.049 A 
ATOM     48  N   UNL A   1      46.955  26.896  26.501  1.00  0.00    -0.248 NA
ATOM     49  C   UNL A   1      47.680  24.896  25.537  1.00  0.00     0.031 C 
ATOM     50  C   UNL A   1      42.849  25.172  26.895  1.00  0.00     0.029 A 
ATOM     51  N   UNL A   1      44.114  26.982  27.242  1.00  0.00    -0.354 N 
ATOM     52  C   UNL A   1      48.312  26.986  26.214  1.00  0.00     0.074 A 
ATOM     53  C   UNL A   1      48.720  25.703  25.686  1.00  0.00     0.031 C 
ATOM     54  C   UNL A   1      42.060  26.118  27.428  1.00  0.00     0.029 A 
ATOM     55  C   UNL A   1      42.857  27.314  27.686  1.00  0.00     0.049 A 
ATOM     56  H   UNL A   1      44.881  27.598  27.286  1.00  0.00     0.167 HD
ATOM     57  C   UNL A   1      49.134  28.052  26.351  1.00  0.00     0.037 A 
ATOM     58  C   UNL A   1      42.398  28.453  28.236  1.00  0.00     0.037 A 
ATOM     59  C   UNL A   1      48.720  29.327  26.875  1.00  0.00     0.049 A 
ATOM     60  C   UNL A   1      43.340  29.610  28.423  1.00  0.00     0.074 A 
ATOM     61  C   UNL A   1      49.471  30.479  27.029  1.00  0.00     0.029 A 
ATOM     62  N   UNL A   1      47.444  29.617  27.336  1.00  0.00    -0.354 N 
ATOM     63  N   UNL A   1      44.609  29.699  28.108  1.00  0.00    -0.248 NA
ATOM     64  C   UNL A   1      42.787  30.824  29.039  1.00  0.00     0.031 C 
ATOM     65  C   UNL A   1      48.664  31.447  27.633  1.00  0.00     0.029 A 
ATOM     66  C   UNL A   1      47.393  30.921  27.798  1.00  0.00     0.049 A 
ATOM     67  H   UNL A   1      46.687  28.987  27.334  1.00  0.00     0.167 HD
ATOM     68  C   UNL A   1      45.001  30.983  28.460  1.00  0.00     0.074 A 
ATOM     69  C   UNL A   1      43.831  31.641  29.005  1.00  0.00     0.031 C 
ATOM     70  C   UNL A   1      46.220  31.565  28.339  1.00  0.00     0.037 A 
BRANCH  57  71
ATOM     71  C   UNL A   1      50.563  27.882  25.919  1.00  0.00     0.057 A 
ATOM     72  C   UNL A   1      50.950  28.018  24.579  1.00  0.00     0.134 A 
ATOM     73  C   UNL A   1      51.570  27.613  26.855  1.00  0.00     0.134 A 
ATOM     74  F   UNL A   1      50.034  28.263  23.629  1.00  0.00    -0.206 F 
ATOM     75  C   UNL A   1      52.279  27.865  24.181  1.00  0.00     0.040 A 
ATOM     76  C   UNL A   1      52.908  27.489  26.474  1.00  0.00     0.040 A 
ATOM     77  F   UNL A   1      51.273  27.477  28.157  1.00  0.00    -0.206 F 
ATOM     78  C   UNL A   1      53.264  27.607  25.132  1.00  0.00     0.006 A 
ENDBRANCH  57  71
BRANCH  58  79
ATOM     79  C   UNL A   1      40.962  28.562  28.597  1.00  0.00     0.057 A 
ATOM     80  C   UNL A   1      40.013  28.955  27.646  1.00  0.00     0.134 A 
ATOM     81  C   UNL A   1      40.496  28.226  29.874  1.00  0.00     0.134 A 
ATOM     82  F   UNL A   1      40.399  29.304  26.411  1.00  0.00    -0.206 F 
ATOM     83  C   UNL A   1      38.652  29.010  27.951  1.00  0.00     0.040 A 
ATOM     84  C   UNL A   1      39.136  28.253  30.185  1.00  0.00     0.040 A 
ATOM     85  F   UNL A   1      41.354  27.833  30.827  1.00  0.00    -0.206 F 
ATOM     86  C   UNL A   1      38.210  28.648  29.222  1.00  0.00     0.006 A 
ENDBRANCH  58  79
BRANCH  70  87
ATOM     87  C   UNL A   1      46.357  32.994  28.781  1.00  0.00     0.057 A 
ATOM     88  C   UNL A   1      46.741  33.331  30.084  1.00  0.00     0.134 A 
ATOM     89  C   UNL A   1      46.179  34.042  27.868  1.00  0.00     0.134 A 
ATOM     90  F   UNL A   1      46.919  32.376  31.010  1.00  0.00    -0.206 F 
ATOM     91  C   UNL A   1      46.931  34.660  30.468  1.00  0.00     0.040 A 
ATOM     92  C   UNL A   1      46.394  35.371  28.231  1.00  0.00     0.040 A 
ATOM     93  F   UNL A   1      45.822  33.787  26.600  1.00  0.00    -0.206 F 
ATOM     94  C   UNL A   1      46.769  35.684  29.537  1.00  0.00     0.006 A 
ENDBRANCH  70  87
ENDBRANCH  44  45
ENDBRANCH  36  39
ENDBRANCH  34  35
ENDBRANCH  33  34
ENDBRANCH   1  33
TORSDOF 14
ENDMDL
MODEL 2
REMARK VINA RESULT:     -11.8      0.229      5.920
REMARK SMILES Cc1cc(C)n(C)c(=O)c1C(=O)N1CCC2(CC1)C[NH2+][C@@H](C(=O)NCCCCCCNC(=O)c1ccc(-c3c4nc(c(-c5c(F)cccc5F)c5ccc([nH]5)c(-c5c(F)cccc5F)c5nc(c(-c6c(F)cccc6F)c6ccc3[nH]6)C=C5)C=C4)cc1)C2
REMARK SMILES IDX 28 1 27 2 26 3 25 4 24 5 22 6 23 7 21 9 11 10 12 11 13 12
REMARK SMILES IDX 14 13 18 14 15 15 17 16 16 17 19 18 88 19 20 20 10 23 1 24
REMARK SMILES IDX 2 25 3 26 4 27 8 28 5 29 6 30 9 31 7 32 29 33 30 34 31 35
REMARK SMILES IDX 32 36 33 38 34 39 35 40 87 41 36 42 86 43 37 44 38 45 39 46
REMARK SMILES IDX 80 47 40 48 85 49 79 50 81 51 41 52 84 53 78 54 77 55 42 57
REMARK SMILES IDX 68 58 51 59 67 60 52 61 55 62 66 63 82 64 53 65 54 66 65 68
REMARK SMILES IDX 83 69 56 70 43 71 44 72 49 73 45 74 46 75 48 76 50 77 47 78
REMARK SMILES IDX 69 79 70 80 75 81 71 82 72 83 74 84 76 85 73 86 57 87 58 88
REMARK SMILES IDX 63 89 59 90 60 91 62 92 64 93 61 94
REMARK H PARENT 24 8 20 21 20 22 31 37 81 56 55 67
REMARK Flexibility Score: inf
ROOT
ATOM      1  C   UNL A   1      41.909  21.162  27.654  1.00  0.00     0.002 C 
ENDROOT
BRANCH   1   2
ATOM      2  C   UNL A   1      41.217  22.136  26.696  1.00  0.00     0.002 C 
BRANCH   2   3
ATOM      3  C   UNL A   1      39.939  22.768  27.250  1.00  0.00     0.021 C 
BRANCH   3   4
ATOM      4  C   UNL A   1      38.999  23.291  26.167  1.00  0.00     0.116 C 
BRANCH   4   5
ATOM      5  N   UNL A   1      38.278  22.205  25.529  1.00  0.00    -0.351 N 
ATOM      6  C   UNL A   1      36.935  22.037  25.356  1.00  0.00     0.278 C 
ATOM      7  O   UNL A   1      36.548  21.011  24.788  1.00  0.00    -0.268 OA
ATOM      8  H   UNL A   1      38.841  21.483  25.167  1.00  0.00     0.163 HD
BRANCH   6   9
ATOM      9  C   UNL A   1      35.929  23.074  25.867  1.00  0.00     0.273 C 
ATOM     10  C   UNL A   1      32.088  27.948  23.662  1.00  0.00     0.259 C 
ATOM     11  O   UNL A   1      32.495  29.097  23.859  1.00  0.00    -0.269 OA
ATOM     12  N   UNL A   1      32.973  26.889  23.809  1.00  0.00    -0.338 N 
ATOM     13  C   UNL A   1      34.100  27.082  24.705  1.00  0.00     0.120 C 
ATOM     14  C   UNL A   1      33.069  25.699  22.978  1.00  0.00     0.120 C 
ATOM     15  C   UNL A   1      34.054  25.979  25.745  1.00  0.00     0.034 C 
ATOM     16  C   UNL A   1      33.333  24.418  23.791  1.00  0.00     0.034 C 
ATOM     17  C   UNL A   1      34.150  24.571  25.117  1.00  0.00     0.029 C 
ATOM     18  C   UNL A   1      33.676  23.553  26.187  1.00  0.00     0.268 C 
ATOM     19  C   UNL A   1      35.636  24.200  24.882  1.00  0.00     0.088 C 
ATOM     20  N   UNL A   1      34.621  22.451  26.144  1.00  0.00    -0.336 N 
ATOM     21  H   UNL A   1      34.374  21.796  25.403  1.00  0.00     0.346 HD
ATOM     22  H   UNL A   1      34.628  21.922  27.016  1.00  0.00     0.346 HD
BRANCH  10  23
ATOM     23  C   UNL A   1      30.606  27.728  23.453  1.00  0.00     0.108 A 
ATOM     24  C   UNL A   1      30.225  25.883  25.206  1.00  0.00     0.045 C 
ATOM     25  C   UNL A   1      29.827  26.868  24.152  1.00  0.00    -0.031 A 
ATOM     26  C   UNL A   1      28.382  26.906  24.031  1.00  0.00     0.026 A 
ATOM     27  C   UNL A   1      27.745  27.915  23.428  1.00  0.00     0.018 A 
ATOM     28  C   UNL A   1      29.883  28.752  22.587  1.00  0.00     0.263 A 
ATOM     29  C   UNL A   1      26.244  27.963  23.499  1.00  0.00     0.064 C 
ATOM     30  N   UNL A   1      28.489  28.869  22.748  1.00  0.00    -0.315 N 
ATOM     31  O   UNL A   1      30.501  29.448  21.783  1.00  0.00    -0.268 OA
ATOM     32  C   UNL A   1      27.830  30.004  22.114  1.00  0.00     0.153 C 
ENDBRANCH  10  23
ENDBRANCH   6   9
ENDBRANCH   4   5
ENDBRANCH   3   4
ENDBRANCH   2   3
ENDBRANCH   1   2
BRANCH   1  33
ATOM     33  C   UNL A   1      42.254  19.801  27.044  1.00  0.00     0.021 C 
BRANCH  33  34
ATOM     34  C   UNL A   1      42.151  19.757  25.524  1.00  0.00     0.116 C 
BRANCH  34  35
ATOM     35  N   UNL A   1      43.296  19.088  24.924  1.00  0.00    -0.352 N 
ATOM     36  C   UNL A   1      44.496  19.617  24.519  1.00  0.00     0.251 C 
ATOM     37  H   UNL A   1      43.195  18.118  24.791  1.00  0.00     0.163 HD
ATOM     38  O   UNL A   1      45.269  18.959  23.837  1.00  0.00    -0.269 OA
BRANCH  36  39
ATOM     39  C   UNL A   1      44.836  21.002  24.900  1.00  0.00     0.039 A 
ATOM     40  C   UNL A   1      44.529  22.041  24.019  1.00  0.00     0.014 A 
ATOM     41  C   UNL A   1      45.446  21.270  26.129  1.00  0.00     0.014 A 
ATOM     42  C   UNL A   1      44.779  23.359  24.400  1.00  0.00     0.010 A 
ATOM     43  C   UNL A   1      45.623  22.586  26.538  1.00  0.00     0.010 A 
ATOM     44  C   UNL A   1      45.295  23.643  25.676  1.00  0.00    -0.014 A 
BRANCH  44  45
ATOM     45  C   UNL A   1      45.498  25.040  26.126  1.00  0.00     0.031 A 
ATOM     46  C   UNL A   1      44.343  25.832  26.667  1.00  0.00     0.074 A 
ATOM     47  C   UNL A   1      46.711  25.609  26.001  1.00  0.00     0.049 A 
ATOM     48  N   UNL A   1      44.314  27.077  27.071  1.00  0.00    -0.248 NA
ATOM     49  C   UNL A   1      43.046  25.143  26.746  1.00  0.00     0.031 C 
ATOM     50  C   UNL A   1      47.900  24.948  25.460  1.00  0.00     0.029 A 
ATOM     51  N   UNL A   1      47.146  26.870  26.318  1.00  0.00    -0.354 N 
ATOM     52  C   UNL A   1      43.000  27.317  27.453  1.00  0.00     0.074 A 
ATOM     53  C   UNL A   1      42.249  26.114  27.167  1.00  0.00     0.031 C 
ATOM     54  C   UNL A   1      48.938  25.797  25.520  1.00  0.00     0.029 A 
ATOM     55  C   UNL A   1      48.480  27.073  26.061  1.00  0.00     0.049 A 
ATOM     56  H   UNL A   1      46.558  27.564  26.694  1.00  0.00     0.167 HD
ATOM     57  C   UNL A   1      42.475  28.429  28.019  1.00  0.00     0.037 A 
ATOM     58  C   UNL A   1      49.247  28.164  26.243  1.00  0.00     0.037 A 
ATOM     59  C   UNL A   1      43.229  29.621  28.302  1.00  0.00     0.049 A 
ATOM     60  C   UNL A   1      48.633  29.405  26.828  1.00  0.00     0.074 A 
ATOM     61  C   UNL A   1      42.795  30.792  28.898  1.00  0.00     0.029 A 
ATOM     62  N   UNL A   1      44.573  29.797  28.006  1.00  0.00    -0.354 N 
ATOM     63  N   UNL A   1      47.400  29.606  27.226  1.00  0.00    -0.248 NA
ATOM     64  C   UNL A   1      49.515  30.568  26.993  1.00  0.00     0.031 C 
ATOM     65  C   UNL A   1      43.863  31.695  28.912  1.00  0.00     0.029 A 
ATOM     66  C   UNL A   1      44.979  31.066  28.383  1.00  0.00     0.049 A 
ATOM     67  H   UNL A   1      45.153  29.119  27.589  1.00  0.00     0.167 HD
ATOM     68  C   UNL A   1      47.363  30.906  27.713  1.00  0.00     0.074 A 
ATOM     69  C   UNL A   1      48.701  31.443  27.568  1.00  0.00     0.031 C 
ATOM     70  C   UNL A   1      46.315  31.590  28.234  1.00  0.00     0.037 A 
BRANCH  57  71
ATOM     71  C   UNL A   1      41.015  28.401  28.372  1.00  0.00     0.057 A 
ATOM     72  C   UNL A   1      40.566  27.944  29.618  1.00  0.00     0.134 A 
ATOM     73  C   UNL A   1      40.048  28.866  27.471  1.00  0.00     0.134 A 
ATOM     74  F   UNL A   1      41.438  27.471  30.523  1.00  0.00    -0.206 F 
ATOM     75  C   UNL A   1      39.210  27.923  29.946  1.00  0.00     0.040 A 
ATOM     76  C   UNL A   1      38.691  28.881  27.799  1.00  0.00     0.040 A 
ATOM     77  F   UNL A   1      40.406  29.325  26.262  1.00  0.00    -0.206 F 
ATOM     78  C   UNL A   1      38.268  28.401  29.037  1.00  0.00     0.006 A 
ENDBRANCH  57  71
BRANCH  58  79
ATOM     79  C   UNL A   1      50.693  28.102  25.911  1.00  0.00     0.057 A 
ATOM     80  C   UNL A   1      51.129  28.221  24.586  1.00  0.00     0.134 A 
ATOM     81  C   UNL A   1      51.672  27.978  26.904  1.00  0.00     0.134 A 
ATOM     82  F   UNL A   1      50.239  28.327  23.590  1.00  0.00    -0.206 F 
ATOM     83  C   UNL A   1      52.487  28.221  24.261  1.00  0.00     0.040 A 
ATOM     84  C   UNL A   1      53.033  28.000  26.595  1.00  0.00     0.040 A 
ATOM     85  F   UNL A   1      51.319  27.869  28.193  1.00  0.00    -0.206 F 
ATOM     86  C   UNL A   1      53.443  28.120  25.269  1.00  0.00     0.006 A 
ENDBRANCH  58  79
BRANCH  70  87
ATOM     87  C   UNL A   1      46.567  32.991  28.713  1.00  0.00     0.057 A 
ATOM     88  C   UNL A   1      47.008  33.259  30.014  1.00  0.00     0.134 A 
ATOM     89  C   UNL A   1      46.442  34.077  27.836  1.00  0.00     0.134 A 
ATOM     90  F   UNL A   1      47.139  32.266  30.907  1.00  0.00    -0.206 F 
ATOM     91  C   UNL A   1      47.304  34.559  30.430  1.00  0.00     0.040 A 
ATOM     92  C   UNL A   1      46.763  35.376  28.230  1.00  0.00     0.040 A 
ATOM     93  F   UNL A   1      46.035  33.888  26.571  1.00  0.00    -0.206 F 
ATOM     94  C   UNL A   1      47.193  35.620  29.534  1.00  0.00     0.006 A 
ENDBRANCH  70  87
ENDBRANCH  44  45
ENDBRANCH  36  39
ENDBRANCH  34  35
ENDBRANCH  33  34
ENDBRANCH   1  33
TORSDOF 14
ENDMDL
MODEL 3
REMARK VINA RESULT:     -11.4      4.468      6.758
REMARK SMILES Cc1cc(C)n(C)c(=O)c1C(=O)N1CCC2(CC1)C[NH2+][C@@H](C(=O)NCCCCCCNC(=O)c1ccc(-c3c4nc(c(-c5c(F)cccc5F)c5ccc([nH]5)c(-c5c(F)cccc5F)c5nc(c(-c6c(F)cccc6F)c6ccc3[nH]6)C=C5)C=C4)cc1)C2
REMARK SMILES IDX 28 1 27 2 26 3 25 4 24 5 22 6 23 7 21 9 11 10 12 11 13 12
REMARK SMILES IDX 14 13 18 14 15 15 17 16 16 17 19 18 88 19 20 20 10 23 1 24
REMARK SMILES IDX 2 25 3 26 4 27 8 28 5 29 6 30 9 31 7 32 29 33 30 34 31 35
REMARK SMILES IDX 32 36 33 38 34 39 35 40 87 41 36 42 86 43 37 44 38 45 39 46
REMARK SMILES IDX 80 47 40 48 85 49 79 50 81 51 41 52 84 53 78 54 77 55 42 57
REMARK SMILES IDX 68 58 51 59 67 60 52 61 55 62 66 63 82 64 53 65 54 66 65 68
REMARK SMILES IDX 83 69 56 70 43 71 44 72 49 73 45 74 46 75 48 76 50 77 47 78
REMARK SMILES IDX 69 79 70 80 75 81 71 82 72 83 74 84 76 85 73 86 57 87 58 88
REMARK SMILES IDX 63 89 59 90 60 91 62 92 64 93 61 94
REMARK H PARENT 24 8 20 21 20 22 31 37 81 56 55 67
REMARK Flexibility Score: inf
ROOT
ATOM      1  C   UNL A   1      41.441  20.298  26.733  1.00  0.00     0.002 C 
ENDROOT
BRANCH   1   2
ATOM      2  C   UNL A   1      40.066  20.321  26.059  1.00  0.00     0.002 C 
BRANCH   2   3
ATOM      3  C   UNL A   1      39.238  21.574  26.351  1.00  0.00     0.021 C 
BRANCH   3   4
ATOM      4  C   UNL A   1      38.188  21.871  25.284  1.00  0.00     0.116 C 
BRANCH   4   5
ATOM      5  N   UNL A   1      37.438  20.678  24.939  1.00  0.00    -0.351 N 
ATOM      6  C   UNL A   1      36.106  20.418  25.076  1.00  0.00     0.278 C 
ATOM      7  O   UNL A   1      35.691  19.311  24.721  1.00  0.00    -0.268 OA
ATOM      8  H   UNL A   1      37.969  19.948  24.546  1.00  0.00     0.163 HD
BRANCH   6   9
ATOM      9  C   UNL A   1      35.148  21.456  25.674  1.00  0.00     0.273 C 
ATOM     10  C   UNL A   1      32.606  27.384  24.349  1.00  0.00     0.259 C 
ATOM     11  O   UNL A   1      33.098  28.339  24.958  1.00  0.00    -0.269 OA
ATOM     12  N   UNL A   1      33.286  26.174  24.336  1.00  0.00    -0.338 N 
ATOM     13  C   UNL A   1      34.182  25.903  25.447  1.00  0.00     0.120 C 
ATOM     14  C   UNL A   1      33.424  25.253  23.219  1.00  0.00     0.120 C 
ATOM     15  C   UNL A   1      33.746  24.593  26.076  1.00  0.00     0.034 C 
ATOM     16  C   UNL A   1      33.319  23.776  23.643  1.00  0.00     0.034 C 
ATOM     17  C   UNL A   1      33.808  23.412  25.084  1.00  0.00     0.029 C 
ATOM     18  C   UNL A   1      32.965  22.256  25.685  1.00  0.00     0.268 C 
ATOM     19  C   UNL A   1      35.247  22.838  25.038  1.00  0.00     0.088 C 
ATOM     20  N   UNL A   1      33.743  21.045  25.494  1.00  0.00    -0.336 N 
ATOM     21  H   UNL A   1      33.598  20.671  24.557  1.00  0.00     0.346 HD
ATOM     22  H   UNL A   1      33.474  20.312  26.150  1.00  0.00     0.346 HD
BRANCH  10  23
ATOM     23  C   UNL A   1      31.200  27.517  23.803  1.00  0.00     0.108 A 
ATOM     24  C   UNL A   1      30.001  25.881  25.385  1.00  0.00     0.045 C 
ATOM     25  C   UNL A   1      30.100  26.893  24.289  1.00  0.00    -0.031 A 
ATOM     26  C   UNL A   1      28.773  27.271  23.843  1.00  0.00     0.026 A 
ATOM     27  C   UNL A   1      28.551  28.380  23.131  1.00  0.00     0.018 A 
ATOM     28  C   UNL A   1      30.959  28.652  22.816  1.00  0.00     0.263 A 
ATOM     29  C   UNL A   1      27.129  28.788  22.859  1.00  0.00     0.064 C 
ATOM     30  N   UNL A   1      29.635  29.104  22.658  1.00  0.00    -0.315 N 
ATOM     31  O   UNL A   1      31.892  29.152  22.188  1.00  0.00    -0.268 OA
ATOM     32  C   UNL A   1      29.430  30.340  21.913  1.00  0.00     0.153 C 
ENDBRANCH  10  23
ENDBRANCH   6   9
ENDBRANCH   4   5
ENDBRANCH   3   4
ENDBRANCH   2   3
ENDBRANCH   1   2
BRANCH   1  33
ATOM     33  C   UNL A   1      42.561  20.957  25.924  1.00  0.00     0.021 C 
BRANCH  33  34
ATOM     34  C   UNL A   1      42.398  22.462  25.748  1.00  0.00     0.116 C 
BRANCH  34  35
ATOM     35  N   UNL A   1      43.551  23.057  25.089  1.00  0.00    -0.352 N 
ATOM     36  C   UNL A   1      44.130  24.284  25.297  1.00  0.00     0.251 C 
ATOM     37  H   UNL A   1      43.976  22.500  24.397  1.00  0.00     0.163 HD
ATOM     38  O   UNL A   1      44.961  24.722  24.513  1.00  0.00    -0.269 OA
BRANCH  36  39
ATOM     39  C   UNL A   1      43.724  25.082  26.471  1.00  0.00     0.039 A 
ATOM     40  C   UNL A   1      44.096  26.426  26.536  1.00  0.00     0.014 A 
ATOM     41  C   UNL A   1      42.970  24.502  27.495  1.00  0.00     0.014 A 
ATOM     42  C   UNL A   1      43.656  27.207  27.605  1.00  0.00     0.010 A 
ATOM     43  C   UNL A   1      42.469  25.299  28.518  1.00  0.00     0.010 A 
ATOM     44  C   UNL A   1      42.810  26.658  28.584  1.00  0.00    -0.014 A 
BRANCH  44  45
ATOM     45  C   UNL A   1      42.272  27.490  29.685  1.00  0.00     0.031 A 
ATOM     46  C   UNL A   1      42.923  27.466  31.037  1.00  0.00     0.074 A 
ATOM     47  C   UNL A   1      41.166  28.230  29.479  1.00  0.00     0.049 A 
ATOM     48  N   UNL A   1      42.575  28.090  32.133  1.00  0.00    -0.248 NA
ATOM     49  C   UNL A   1      44.111  26.610  31.184  1.00  0.00     0.031 C 
ATOM     50  C   UNL A   1      40.429  28.310  28.217  1.00  0.00     0.029 A 
ATOM     51  N   UNL A   1      40.470  29.055  30.325  1.00  0.00    -0.354 N 
ATOM     52  C   UNL A   1      43.500  27.705  33.095  1.00  0.00     0.074 A 
ATOM     53  C   UNL A   1      44.381  26.740  32.475  1.00  0.00     0.031 C 
ATOM     54  C   UNL A   1      39.407  29.168  28.361  1.00  0.00     0.029 A 
ATOM     55  C   UNL A   1      39.391  29.665  29.734  1.00  0.00     0.049 A 
ATOM     56  H   UNL A   1      40.721  29.197  31.266  1.00  0.00     0.167 HD
ATOM     57  C   UNL A   1      43.621  28.141  34.371  1.00  0.00     0.037 A 
ATOM     58  C   UNL A   1      38.490  30.528  30.241  1.00  0.00     0.037 A 
ATOM     59  C   UNL A   1      42.742  29.103  34.981  1.00  0.00     0.049 A 
ATOM     60  C   UNL A   1      38.615  30.962  31.674  1.00  0.00     0.074 A 
ATOM     61  C   UNL A   1      42.796  29.628  36.260  1.00  0.00     0.029 A 
ATOM     62  N   UNL A   1      41.645  29.680  34.358  1.00  0.00    -0.354 N 
ATOM     63  N   UNL A   1      39.520  30.625  32.562  1.00  0.00    -0.248 NA
ATOM     64  C   UNL A   1      37.598  31.896  32.176  1.00  0.00     0.031 C 
ATOM     65  C   UNL A   1      41.702  30.482  36.427  1.00  0.00     0.029 A 
ATOM     66  C   UNL A   1      41.000  30.537  35.233  1.00  0.00     0.049 A 
ATOM     67  H   UNL A   1      41.367  29.505  33.429  1.00  0.00     0.167 HD
ATOM     68  C   UNL A   1      39.199  31.325  33.718  1.00  0.00     0.074 A 
ATOM     69  C   UNL A   1      38.021  32.112  33.415  1.00  0.00     0.031 C 
ATOM     70  C   UNL A   1      39.827  31.316  34.919  1.00  0.00     0.037 A 
BRANCH  57  71
ATOM     71  C   UNL A   1      44.751  27.580  35.188  1.00  0.00     0.057 A 
ATOM     72  C   UNL A   1      46.007  28.199  35.231  1.00  0.00     0.134 A 
ATOM     73  C   UNL A   1      44.574  26.428  35.965  1.00  0.00     0.134 A 
ATOM     74  F   UNL A   1      46.249  29.299  34.500  1.00  0.00    -0.206 F 
ATOM     75  C   UNL A   1      47.054  27.680  35.995  1.00  0.00     0.040 A 
ATOM     76  C   UNL A   1      45.604  25.917  36.758  1.00  0.00     0.040 A 
ATOM     77  F   UNL A   1      43.396  25.787  35.977  1.00  0.00    -0.206 F 
ATOM     78  C   UNL A   1      46.851  26.539  36.768  1.00  0.00     0.006 A 
ENDBRANCH  57  71
BRANCH  58  79
ATOM     79  C   UNL A   1      37.427  31.073  29.360  1.00  0.00     0.057 A 
ATOM     80  C   UNL A   1      36.292  30.313  29.053  1.00  0.00     0.134 A 
ATOM     81  C   UNL A   1      37.489  32.376  28.849  1.00  0.00     0.134 A 
ATOM     82  F   UNL A   1      36.182  29.054  29.499  1.00  0.00    -0.206 F 
ATOM     83  C   UNL A   1      35.256  30.829  28.272  1.00  0.00     0.040 A 
ATOM     84  C   UNL A   1      36.450  32.912  28.088  1.00  0.00     0.040 A 
ATOM     85  F   UNL A   1      38.546  33.157  29.114  1.00  0.00    -0.206 F 
ATOM     86  C   UNL A   1      35.329  32.136  27.796  1.00  0.00     0.006 A 
ENDBRANCH  58  79
BRANCH  70  87
ATOM     87  C   UNL A   1      39.274  32.200  36.000  1.00  0.00     0.057 A 
ATOM     88  C   UNL A   1      39.680  33.532  36.147  1.00  0.00     0.134 A 
ATOM     89  C   UNL A   1      38.264  31.735  36.853  1.00  0.00     0.134 A 
ATOM     90  F   UNL A   1      40.650  34.037  35.368  1.00  0.00    -0.206 F 
ATOM     91  C   UNL A   1      39.112  34.366  37.111  1.00  0.00     0.040 A 
ATOM     92  C   UNL A   1      37.667  32.567  37.801  1.00  0.00     0.040 A 
ATOM     93  F   UNL A   1      37.819  30.472  36.759  1.00  0.00    -0.206 F 
ATOM     94  C   UNL A   1      38.095  33.887  37.934  1.00  0.00     0.006 A 
ENDBRANCH  70  87
ENDBRANCH  44  45
ENDBRANCH  36  39
ENDBRANCH  34  35
ENDBRANCH  33  34
ENDBRANCH   1  33
TORSDOF 14
ENDMDL
