MODEL 1
REMARK VINA RESULT:     -11.5      0.000      0.000
REMARK SMILES Cc1cc2c(c(C)c1Cl)C=C(C(=O)NCCCCCCNC(=O)c1ccc(-c3c4nc(c(-c5c(F)cccc5F)c5ccc([nH]5)c(-c5c(F)cccc5F)c5nc(c(-c6c(F)cccc6F)c6ccc3[nH]6)C=C5)C=C4)cc1)[C@@H](C(F)(F)F)O2
REMARK SMILES IDX 18 1 17 2 16 3 15 4 14 5 12 6 13 7 11 9 1 10 2 11 3 12 8 13
REMARK SMILES IDX 4 14 6 15 9 16 5 17 83 18 7 19 10 20 78 21 79 22 80 23 81 24
REMARK SMILES IDX 82 25 19 26 20 27 21 28 22 29 23 31 24 32 25 33 77 34 26 35
REMARK SMILES IDX 76 36 27 37 28 38 29 39 70 40 30 41 75 42 69 43 71 44 31 45
REMARK SMILES IDX 74 46 68 47 67 48 32 50 58 51 41 52 57 53 42 54 45 55 56 56
REMARK SMILES IDX 72 57 43 58 44 59 55 61 73 62 46 63 33 64 34 65 39 66 35 67
REMARK SMILES IDX 36 68 38 69 40 70 37 71 59 72 60 73 65 74 61 75 62 76 64 77
REMARK SMILES IDX 66 78 63 79 47 80 48 81 53 82 49 83 50 84 52 85 54 86 51 87
REMARK H PARENT 14 8 21 30 71 49 45 60
REMARK Flexibility Score: inf
ROOT
ATOM      1  C   UNL A   1      37.866  21.372  24.946  1.00  0.00     0.002 C 
ENDROOT
BRANCH   1   2
ATOM      2  C   UNL A   1      38.421  22.344  25.996  1.00  0.00     0.002 C 
BRANCH   2   3
ATOM      3  C   UNL A   1      37.785  23.736  25.988  1.00  0.00     0.021 C 
BRANCH   3   4
ATOM      4  C   UNL A   1      36.415  23.776  25.320  1.00  0.00     0.116 C 
BRANCH   4   5
ATOM      5  N   UNL A   1      35.363  23.356  26.227  1.00  0.00    -0.352 N 
ATOM      6  C   UNL A   1      34.050  23.621  26.412  1.00  0.00     0.251 C 
ATOM      7  O   UNL A   1      33.512  22.994  27.331  1.00  0.00    -0.270 OA
ATOM      8  H   UNL A   1      35.696  22.703  26.884  1.00  0.00     0.163 HD
BRANCH   6   9
ATOM      9  C   UNL A   1      33.244  24.588  25.606  1.00  0.00     0.067 C 
ATOM     10  C   UNL A   1      30.307  29.736  22.910  1.00  0.00     0.046 C 
ATOM     11  C   UNL A   1      31.041  28.768  23.797  1.00  0.00    -0.028 A 
ATOM     12  C   UNL A   1      31.262  27.475  23.322  1.00  0.00     0.052 A 
ATOM     13  C   UNL A   1      31.495  29.106  25.088  1.00  0.00     0.047 A 
ATOM     14  C   UNL A   1      31.936  26.541  24.103  1.00  0.00     0.128 A 
ATOM     15  C   UNL A   1      32.191  28.166  25.890  1.00  0.00    -0.021 A 
ATOM     16  Cl  UNL A   1      31.187  30.714  25.672  1.00  0.00    -0.084 Cl
ATOM     17  C   UNL A   1      32.420  26.868  25.372  1.00  0.00     0.022 A 
ATOM     18  O   UNL A   1      32.110  25.328  23.511  1.00  0.00    -0.475 OA
ATOM     19  C   UNL A   1      32.697  28.515  27.271  1.00  0.00     0.047 C 
ATOM     20  C   UNL A   1      33.192  25.845  26.084  1.00  0.00     0.026 C 
ATOM     21  C   UNL A   1      32.500  24.222  24.359  1.00  0.00     0.314 C 
BRANCH  21  22
ATOM     22  C   UNL A   1      31.270  23.339  24.630  1.00  0.00     0.429 C 
ATOM     23  F   UNL A   1      30.625  23.756  25.748  1.00  0.00    -0.167 F 
ATOM     24  F   UNL A   1      30.359  23.385  23.629  1.00  0.00    -0.167 F 
ATOM     25  F   UNL A   1      31.593  22.038  24.808  1.00  0.00    -0.167 F 
ENDBRANCH  21  22
ENDBRANCH   6   9
ENDBRANCH   4   5
ENDBRANCH   3   4
ENDBRANCH   2   3
ENDBRANCH   1   2
BRANCH   1  26
ATOM     26  C   UNL A   1      38.514  19.985  24.938  1.00  0.00     0.021 C 
BRANCH  26  27
ATOM     27  C   UNL A   1      39.295  19.652  26.203  1.00  0.00     0.116 C 
BRANCH  27  28
ATOM     28  N   UNL A   1      40.569  19.023  25.897  1.00  0.00    -0.352 N 
ATOM     29  C   UNL A   1      41.821  19.577  25.865  1.00  0.00     0.251 C 
ATOM     30  H   UNL A   1      40.526  18.062  25.683  1.00  0.00     0.163 HD
ATOM     31  O   UNL A   1      42.761  18.966  25.365  1.00  0.00    -0.269 OA
BRANCH  29  32
ATOM     32  C   UNL A   1      42.032  20.923  26.428  1.00  0.00     0.039 A 
ATOM     33  C   UNL A   1      41.997  21.092  27.814  1.00  0.00     0.014 A 
ATOM     34  C   UNL A   1      42.259  22.017  25.585  1.00  0.00     0.014 A 
ATOM     35  C   UNL A   1      42.233  22.353  28.358  1.00  0.00     0.010 A 
ATOM     36  C   UNL A   1      42.570  23.257  26.133  1.00  0.00     0.010 A 
ATOM     37  C   UNL A   1      42.542  23.440  27.523  1.00  0.00    -0.014 A 
BRANCH  37  38
ATOM     38  C   UNL A   1      42.797  24.786  28.089  1.00  0.00     0.031 A 
ATOM     39  C   UNL A   1      44.193  25.176  28.483  1.00  0.00     0.074 A 
ATOM     40  C   UNL A   1      41.774  25.642  28.266  1.00  0.00     0.049 A 
ATOM     41  N   UNL A   1      44.620  26.295  29.010  1.00  0.00    -0.248 NA
ATOM     42  C   UNL A   1      45.249  24.169  28.278  1.00  0.00     0.031 C 
ATOM     43  C   UNL A   1      40.373  25.362  27.949  1.00  0.00     0.029 A 
ATOM     44  N   UNL A   1      41.755  26.924  28.753  1.00  0.00    -0.354 N 
ATOM     45  C   UNL A   1      45.986  26.128  29.195  1.00  0.00     0.074 A 
ATOM     46  C   UNL A   1      46.308  24.778  28.792  1.00  0.00     0.031 C 
ATOM     47  C   UNL A   1      39.637  26.453  28.213  1.00  0.00     0.029 A 
ATOM     48  C   UNL A   1      40.506  27.496  28.753  1.00  0.00     0.049 A 
ATOM     49  H   UNL A   1      42.561  27.391  29.073  1.00  0.00     0.167 HD
ATOM     50  C   UNL A   1      46.895  27.031  29.628  1.00  0.00     0.037 A 
ATOM     51  C   UNL A   1      40.109  28.721  29.142  1.00  0.00     0.037 A 
ATOM     52  C   UNL A   1      46.572  28.379  30.008  1.00  0.00     0.049 A 
ATOM     53  C   UNL A   1      41.133  29.692  29.664  1.00  0.00     0.074 A 
ATOM     54  C   UNL A   1      47.429  29.385  30.419  1.00  0.00     0.029 A 
ATOM     55  N   UNL A   1      45.292  28.911  30.022  1.00  0.00    -0.354 N 
ATOM     56  N   UNL A   1      42.430  29.540  29.779  1.00  0.00    -0.248 NA
ATOM     57  C   UNL A   1      40.639  31.002  30.113  1.00  0.00     0.031 C 
ATOM     58  C   UNL A   1      46.661  30.510  30.731  1.00  0.00     0.029 A 
ATOM     59  C   UNL A   1      45.331  30.221  30.466  1.00  0.00     0.049 A 
ATOM     60  H   UNL A   1      44.475  28.427  29.757  1.00  0.00     0.167 HD
ATOM     61  C   UNL A   1      42.910  30.737  30.295  1.00  0.00     0.074 A 
ATOM     62  C   UNL A   1      41.767  31.612  30.452  1.00  0.00     0.031 C 
ATOM     63  C   UNL A   1      44.182  31.078  30.616  1.00  0.00     0.037 A 
BRANCH  50  64
ATOM     64  C   UNL A   1      48.330  26.596  29.697  1.00  0.00     0.057 A 
ATOM     65  C   UNL A   1      49.218  26.830  28.639  1.00  0.00     0.134 A 
ATOM     66  C   UNL A   1      48.842  25.987  30.849  1.00  0.00     0.134 A 
ATOM     67  F   UNL A   1      48.788  27.398  27.502  1.00  0.00    -0.206 F 
ATOM     68  C   UNL A   1      50.562  26.461  28.718  1.00  0.00     0.040 A 
ATOM     69  C   UNL A   1      50.190  25.638  30.950  1.00  0.00     0.040 A 
ATOM     70  F   UNL A   1      48.047  25.737  31.900  1.00  0.00    -0.206 F 
ATOM     71  C   UNL A   1      51.053  25.872  29.882  1.00  0.00     0.006 A 
ENDBRANCH  50  64
BRANCH  51  72
ATOM     72  C   UNL A   1      38.680  29.110  29.024  1.00  0.00     0.057 A 
ATOM     73  C   UNL A   1      37.822  29.041  30.127  1.00  0.00     0.134 A 
ATOM     74  C   UNL A   1      38.140  29.569  27.816  1.00  0.00     0.134 A 
ATOM     75  F   UNL A   1      38.276  28.592  31.307  1.00  0.00    -0.206 F 
ATOM     76  C   UNL A   1      36.478  29.406  30.034  1.00  0.00     0.040 A 
ATOM     77  C   UNL A   1      36.804  29.961  27.714  1.00  0.00     0.040 A 
ATOM     78  F   UNL A   1      38.910  29.664  26.722  1.00  0.00    -0.206 F 
ATOM     79  C   UNL A   1      35.968  29.875  28.825  1.00  0.00     0.006 A 
ENDBRANCH  51  72
BRANCH  63  80
ATOM     80  C   UNL A   1      44.414  32.453  31.170  1.00  0.00     0.057 A 
ATOM     81  C   UNL A   1      44.621  33.554  30.330  1.00  0.00     0.134 A 
ATOM     82  C   UNL A   1      44.341  32.693  32.548  1.00  0.00     0.134 A 
ATOM     83  F   UNL A   1      44.711  33.389  29.001  1.00  0.00    -0.206 F 
ATOM     84  C   UNL A   1      44.757  34.845  30.842  1.00  0.00     0.040 A 
ATOM     85  C   UNL A   1      44.449  33.983  33.070  1.00  0.00     0.040 A 
ATOM     86  F   UNL A   1      44.133  31.683  33.407  1.00  0.00    -0.206 F 
ATOM     87  C   UNL A   1      44.659  35.063  32.216  1.00  0.00     0.006 A 
ENDBRANCH  63  80
ENDBRANCH  37  38
ENDBRANCH  29  32
ENDBRANCH  27  28
ENDBRANCH  26  27
ENDBRANCH   1  26
TORSDOF 14
ENDMDL
MODEL 2
REMARK VINA RESULT:     -11.3      1.529      2.558
REMARK SMILES Cc1cc2c(c(C)c1Cl)C=C(C(=O)NCCCCCCNC(=O)c1ccc(-c3c4nc(c(-c5c(F)cccc5F)c5ccc([nH]5)c(-c5c(F)cccc5F)c5nc(c(-c6c(F)cccc6F)c6ccc3[nH]6)C=C5)C=C4)cc1)[C@@H](C(F)(F)F)O2
REMARK SMILES IDX 18 1 17 2 16 3 15 4 14 5 12 6 13 7 11 9 1 10 2 11 3 12 8 13
REMARK SMILES IDX 4 14 6 15 9 16 5 17 83 18 7 19 10 20 78 21 79 22 80 23 81 24
REMARK SMILES IDX 82 25 19 26 20 27 21 28 22 29 23 31 24 32 25 33 77 34 26 35
REMARK SMILES IDX 76 36 27 37 28 38 29 39 70 40 30 41 75 42 69 43 71 44 31 45
REMARK SMILES IDX 74 46 68 47 67 48 32 50 58 51 41 52 57 53 42 54 45 55 56 56
REMARK SMILES IDX 72 57 43 58 44 59 55 61 73 62 46 63 33 64 34 65 39 66 35 67
REMARK SMILES IDX 36 68 38 69 40 70 37 71 59 72 60 73 65 74 61 75 62 76 64 77
REMARK SMILES IDX 66 78 63 79 47 80 48 81 53 82 49 83 50 84 52 85 54 86 51 87
REMARK H PARENT 14 8 21 30 71 49 45 60
REMARK Flexibility Score: inf
ROOT
ATOM      1  C   UNL A   1      36.090  20.450  24.997  1.00  0.00     0.002 C 
ENDROOT
BRANCH   1   2
ATOM      2  C   UNL A   1      34.745  19.743  24.785  1.00  0.00     0.002 C 
BRANCH   2   3
ATOM      3  C   UNL A   1      33.603  20.245  25.672  1.00  0.00     0.021 C 
BRANCH   3   4
ATOM      4  C   UNL A   1      32.337  20.591  24.896  1.00  0.00     0.116 C 
BRANCH   4   5
ATOM      5  N   UNL A   1      32.640  21.266  23.648  1.00  0.00    -0.352 N 
ATOM      6  C   UNL A   1      32.865  22.535  23.237  1.00  0.00     0.251 C 
ATOM      7  O   UNL A   1      33.119  22.660  22.035  1.00  0.00    -0.270 OA
ATOM      8  H   UNL A   1      32.696  20.629  22.900  1.00  0.00     0.163 HD
BRANCH   6   9
ATOM      9  C   UNL A   1      32.825  23.745  24.113  1.00  0.00     0.067 C 
ATOM     10  C   UNL A   1      31.668  29.428  27.074  1.00  0.00     0.046 C 
ATOM     11  C   UNL A   1      31.770  28.267  26.122  1.00  0.00    -0.028 A 
ATOM     12  C   UNL A   1      32.384  27.098  26.572  1.00  0.00     0.052 A 
ATOM     13  C   UNL A   1      31.291  28.319  24.798  1.00  0.00     0.047 A 
ATOM     14  C   UNL A   1      32.504  25.996  25.732  1.00  0.00     0.128 A 
ATOM     15  C   UNL A   1      31.399  27.199  23.935  1.00  0.00    -0.021 A 
ATOM     16  Cl  UNL A   1      30.553  29.793  24.249  1.00  0.00    -0.084 Cl
ATOM     17  C   UNL A   1      32.007  26.018  24.427  1.00  0.00     0.022 A 
ATOM     18  O   UNL A   1      33.097  24.910  26.303  1.00  0.00    -0.475 OA
ATOM     19  C   UNL A   1      30.879  27.232  22.517  1.00  0.00     0.047 C 
ATOM     20  C   UNL A   1      32.103  24.780  23.646  1.00  0.00     0.026 C 
ATOM     21  C   UNL A   1      33.548  23.856  25.420  1.00  0.00     0.314 C 
BRANCH  21  22
ATOM     22  C   UNL A   1      35.075  23.960  25.254  1.00  0.00     0.429 C 
ATOM     23  F   UNL A   1      35.704  23.204  26.189  1.00  0.00    -0.167 F 
ATOM     24  F   UNL A   1      35.504  23.510  24.052  1.00  0.00    -0.167 F 
ATOM     25  F   UNL A   1      35.527  25.227  25.384  1.00  0.00    -0.167 F 
ENDBRANCH  21  22
ENDBRANCH   6   9
ENDBRANCH   4   5
ENDBRANCH   3   4
ENDBRANCH   2   3
ENDBRANCH   1   2
BRANCH   1  26
ATOM     26  C   UNL A   1      37.321  19.544  24.914  1.00  0.00     0.021 C 
BRANCH  26  27
ATOM     27  C   UNL A   1      38.613  20.199  25.387  1.00  0.00     0.116 C 
BRANCH  27  28
ATOM     28  N   UNL A   1      39.649  19.215  25.649  1.00  0.00    -0.352 N 
ATOM     29  C   UNL A   1      40.946  19.410  26.045  1.00  0.00     0.251 C 
ATOM     30  H   UNL A   1      39.381  18.275  25.526  1.00  0.00     0.163 HD
ATOM     31  O   UNL A   1      41.756  18.488  26.000  1.00  0.00    -0.269 OA
BRANCH  29  32
ATOM     32  C   UNL A   1      41.367  20.741  26.518  1.00  0.00     0.039 A 
ATOM     33  C   UNL A   1      41.873  21.659  25.595  1.00  0.00     0.014 A 
ATOM     34  C   UNL A   1      41.267  21.077  27.872  1.00  0.00     0.014 A 
ATOM     35  C   UNL A   1      42.239  22.934  26.026  1.00  0.00     0.010 A 
ATOM     36  C   UNL A   1      41.560  22.372  28.285  1.00  0.00     0.010 A 
ATOM     37  C   UNL A   1      42.065  23.306  27.370  1.00  0.00    -0.014 A 
BRANCH  37  38
ATOM     38  C   UNL A   1      42.448  24.658  27.840  1.00  0.00     0.031 A 
ATOM     39  C   UNL A   1      43.900  25.009  27.998  1.00  0.00     0.074 A 
ATOM     40  C   UNL A   1      41.492  25.557  28.142  1.00  0.00     0.049 A 
ATOM     41  N   UNL A   1      44.438  26.128  28.412  1.00  0.00    -0.248 NA
ATOM     42  C   UNL A   1      44.879  23.958  27.670  1.00  0.00     0.031 C 
ATOM     43  C   UNL A   1      40.051  25.319  28.056  1.00  0.00     0.029 A 
ATOM     44  N   UNL A   1      41.590  26.853  28.579  1.00  0.00    -0.354 N 
ATOM     45  C   UNL A   1      45.811  25.916  28.389  1.00  0.00     0.074 A 
ATOM     46  C   UNL A   1      46.023  24.543  27.991  1.00  0.00     0.031 C 
ATOM     47  C   UNL A   1      39.400  26.444  28.391  1.00  0.00     0.029 A 
ATOM     48  C   UNL A   1      40.375  27.470  28.751  1.00  0.00     0.049 A 
ATOM     49  H   UNL A   1      42.450  27.300  28.752  1.00  0.00     0.167 HD
ATOM     50  C   UNL A   1      46.804  26.798  28.643  1.00  0.00     0.037 A 
ATOM     51  C   UNL A   1      40.082  28.721  29.152  1.00  0.00     0.037 A 
ATOM     52  C   UNL A   1      46.588  28.169  29.018  1.00  0.00     0.049 A 
ATOM     53  C   UNL A   1      41.205  29.669  29.473  1.00  0.00     0.074 A 
ATOM     54  C   UNL A   1      47.529  29.154  29.255  1.00  0.00     0.029 A 
ATOM     55  N   UNL A   1      45.342  28.747  29.211  1.00  0.00    -0.354 N 
ATOM     56  N   UNL A   1      42.499  29.474  29.391  1.00  0.00    -0.248 NA
ATOM     57  C   UNL A   1      40.829  31.010  29.945  1.00  0.00     0.031 C 
ATOM     58  C   UNL A   1      46.855  30.316  29.640  1.00  0.00     0.029 A 
ATOM     59  C   UNL A   1      45.491  30.068  29.595  1.00  0.00     0.049 A 
ATOM     60  H   UNL A   1      44.480  28.286  29.093  1.00  0.00     0.167 HD
ATOM     61  C   UNL A   1      43.091  30.667  29.783  1.00  0.00     0.074 A 
ATOM     62  C   UNL A   1      42.015  31.589  30.082  1.00  0.00     0.031 C 
ATOM     63  C   UNL A   1      44.407  30.971  29.890  1.00  0.00     0.037 A 
BRANCH  50  64
ATOM     64  C   UNL A   1      48.218  26.313  28.504  1.00  0.00     0.057 A 
ATOM     65  C   UNL A   1      48.890  25.699  29.570  1.00  0.00     0.134 A 
ATOM     66  C   UNL A   1      48.895  26.409  27.283  1.00  0.00     0.134 A 
ATOM     67  F   UNL A   1      48.302  25.587  30.771  1.00  0.00    -0.206 F 
ATOM     68  C   UNL A   1      50.190  25.213  29.430  1.00  0.00     0.040 A 
ATOM     69  C   UNL A   1      50.186  25.902  27.123  1.00  0.00     0.040 A 
ATOM     70  F   UNL A   1      48.309  26.982  26.221  1.00  0.00    -0.206 F 
ATOM     71  C   UNL A   1      50.838  25.305  28.199  1.00  0.00     0.006 A 
ENDBRANCH  50  64
BRANCH  51  72
ATOM     72  C   UNL A   1      38.665  29.158  29.242  1.00  0.00     0.057 A 
ATOM     73  C   UNL A   1      37.987  29.634  28.114  1.00  0.00     0.134 A 
ATOM     74  C   UNL A   1      37.952  29.100  30.445  1.00  0.00     0.134 A 
ATOM     75  F   UNL A   1      38.621  29.730  26.936  1.00  0.00    -0.206 F 
ATOM     76  C   UNL A   1      36.654  30.044  28.180  1.00  0.00     0.040 A 
ATOM     77  C   UNL A   1      36.612  29.484  30.521  1.00  0.00     0.040 A 
ATOM     78  F   UNL A   1      38.543  28.649  31.562  1.00  0.00    -0.206 F 
ATOM     79  C   UNL A   1      35.961  29.963  29.386  1.00  0.00     0.006 A 
ENDBRANCH  51  72
BRANCH  63  80
ATOM     80  C   UNL A   1      44.767  32.353  30.350  1.00  0.00     0.057 A 
ATOM     81  C   UNL A   1      44.871  33.421  29.449  1.00  0.00     0.134 A 
ATOM     82  C   UNL A   1      44.921  32.638  31.713  1.00  0.00     0.134 A 
ATOM     83  F   UNL A   1      44.742  33.212  28.130  1.00  0.00    -0.206 F 
ATOM     84  C   UNL A   1      45.126  34.721  29.887  1.00  0.00     0.040 A 
ATOM     85  C   UNL A   1      45.150  33.939  32.165  1.00  0.00     0.040 A 
ATOM     86  F   UNL A   1      44.822  31.663  32.629  1.00  0.00    -0.206 F 
ATOM     87  C   UNL A   1      45.254  34.984  31.250  1.00  0.00     0.006 A 
ENDBRANCH  63  80
ENDBRANCH  37  38
ENDBRANCH  29  32
ENDBRANCH  27  28
ENDBRANCH  26  27
ENDBRANCH   1  26
TORSDOF 14
ENDMDL
MODEL 3
REMARK VINA RESULT:     -11.2      3.840      5.155
REMARK SMILES Cc1cc2c(c(C)c1Cl)C=C(C(=O)NCCCCCCNC(=O)c1ccc(-c3c4nc(c(-c5c(F)cccc5F)c5ccc([nH]5)c(-c5c(F)cccc5F)c5nc(c(-c6c(F)cccc6F)c6ccc3[nH]6)C=C5)C=C4)cc1)[C@@H](C(F)(F)F)O2
REMARK SMILES IDX 18 1 17 2 16 3 15 4 14 5 12 6 13 7 11 9 1 10 2 11 3 12 8 13
REMARK SMILES IDX 4 14 6 15 9 16 5 17 83 18 7 19 10 20 78 21 79 22 80 23 81 24
REMARK SMILES IDX 82 25 19 26 20 27 21 28 22 29 23 31 24 32 25 33 77 34 26 35
REMARK SMILES IDX 76 36 27 37 28 38 29 39 70 40 30 41 75 42 69 43 71 44 31 45
REMARK SMILES IDX 74 46 68 47 67 48 32 50 58 51 41 52 57 53 42 54 45 55 56 56
REMARK SMILES IDX 72 57 43 58 44 59 55 61 73 62 46 63 33 64 34 65 39 66 35 67
REMARK SMILES IDX 36 68 38 69 40 70 37 71 59 72 60 73 65 74 61 75 62 76 64 77
REMARK SMILES IDX 66 78 63 79 47 80 48 81 53 82 49 83 50 84 52 85 54 86 51 87
REMARK H PARENT 14 8 21 30 71 49 45 60
REMARK Flexibility Score: inf
ROOT
ATOM      1  C   UNL A   1      41.223  20.762  26.576  1.00  0.00     0.002 C 
ENDROOT
BRANCH   1   2
ATOM      2  C   UNL A   1      40.048  21.719  26.816  1.00  0.00     0.002 C 
BRANCH   2   3
ATOM      3  C   UNL A   1      38.785  21.407  26.009  1.00  0.00     0.021 C 
BRANCH   3   4
ATOM      4  C   UNL A   1      37.916  22.631  25.743  1.00  0.00     0.116 C 
BRANCH   4   5
ATOM      5  N   UNL A   1      37.579  22.754  24.337  1.00  0.00    -0.352 N 
ATOM      6  C   UNL A   1      36.464  22.962  23.600  1.00  0.00     0.251 C 
ATOM      7  O   UNL A   1      36.645  23.021  22.379  1.00  0.00    -0.270 OA
ATOM      8  H   UNL A   1      38.376  22.661  23.767  1.00  0.00     0.163 HD
BRANCH   6   9
ATOM      9  C   UNL A   1      35.083  23.116  24.150  1.00  0.00     0.067 C 
ATOM     10  C   UNL A   1      29.338  25.122  26.467  1.00  0.00     0.046 C 
ATOM     11  C   UNL A   1      30.766  24.982  26.014  1.00  0.00    -0.028 A 
ATOM     12  C   UNL A   1      31.164  23.768  25.454  1.00  0.00     0.052 A 
ATOM     13  C   UNL A   1      31.715  26.015  26.148  1.00  0.00     0.047 A 
ATOM     14  C   UNL A   1      32.473  23.587  25.019  1.00  0.00     0.128 A 
ATOM     15  C   UNL A   1      33.050  25.847  25.701  1.00  0.00    -0.021 A 
ATOM     16  Cl  UNL A   1      31.205  27.510  26.873  1.00  0.00    -0.084 Cl
ATOM     17  C   UNL A   1      33.420  24.610  25.116  1.00  0.00     0.022 A 
ATOM     18  O   UNL A   1      32.723  22.369  24.466  1.00  0.00    -0.475 OA
ATOM     19  C   UNL A   1      34.078  26.947  25.824  1.00  0.00     0.047 C 
ATOM     20  C   UNL A   1      34.749  24.356  24.552  1.00  0.00     0.026 C 
ATOM     21  C   UNL A   1      34.108  21.987  24.292  1.00  0.00     0.314 C 
BRANCH  21  22
ATOM     22  C   UNL A   1      34.498  20.993  25.400  1.00  0.00     0.429 C 
ATOM     23  F   UNL A   1      35.502  20.183  24.978  1.00  0.00    -0.167 F 
ATOM     24  F   UNL A   1      34.953  21.606  26.519  1.00  0.00    -0.167 F 
ATOM     25  F   UNL A   1      33.469  20.203  25.776  1.00  0.00    -0.167 F 
ENDBRANCH  21  22
ENDBRANCH   6   9
ENDBRANCH   4   5
ENDBRANCH   3   4
ENDBRANCH   2   3
ENDBRANCH   1   2
BRANCH   1  26
ATOM     26  C   UNL A   1      42.532  21.433  26.152  1.00  0.00     0.021 C 
BRANCH  26  27
ATOM     27  C   UNL A   1      42.348  22.759  25.424  1.00  0.00     0.116 C 
BRANCH  27  28
ATOM     28  N   UNL A   1      43.617  23.298  24.963  1.00  0.00    -0.352 N 
ATOM     29  C   UNL A   1      44.216  24.487  25.282  1.00  0.00     0.251 C 
ATOM     30  H   UNL A   1      44.115  22.728  24.333  1.00  0.00     0.163 HD
ATOM     31  O   UNL A   1      45.174  24.896  24.631  1.00  0.00    -0.269 OA
BRANCH  29  32
ATOM     32  C   UNL A   1      43.697  25.282  26.410  1.00  0.00     0.039 A 
ATOM     33  C   UNL A   1      43.976  26.649  26.461  1.00  0.00     0.014 A 
ATOM     34  C   UNL A   1      42.940  24.673  27.416  1.00  0.00     0.014 A 
ATOM     35  C   UNL A   1      43.458  27.416  27.504  1.00  0.00     0.010 A 
ATOM     36  C   UNL A   1      42.360  25.454  28.411  1.00  0.00     0.010 A 
ATOM     37  C   UNL A   1      42.629  26.828  28.474  1.00  0.00    -0.014 A 
BRANCH  37  38
ATOM     38  C   UNL A   1      42.070  27.633  29.585  1.00  0.00     0.031 A 
ATOM     39  C   UNL A   1      42.736  27.611  30.931  1.00  0.00     0.074 A 
ATOM     40  C   UNL A   1      40.956  28.363  29.388  1.00  0.00     0.049 A 
ATOM     41  N   UNL A   1      42.393  28.228  32.033  1.00  0.00    -0.248 NA
ATOM     42  C   UNL A   1      43.935  26.765  31.067  1.00  0.00     0.031 C 
ATOM     43  C   UNL A   1      40.206  28.439  28.134  1.00  0.00     0.029 A 
ATOM     44  N   UNL A   1      40.263  29.185  30.240  1.00  0.00    -0.354 N 
ATOM     45  C   UNL A   1      43.331  27.850  32.984  1.00  0.00     0.074 A 
ATOM     46  C   UNL A   1      44.216  26.896  32.355  1.00  0.00     0.031 C 
ATOM     47  C   UNL A   1      39.180  29.292  28.287  1.00  0.00     0.029 A 
ATOM     48  C   UNL A   1      39.178  29.793  29.658  1.00  0.00     0.049 A 
ATOM     49  H   UNL A   1      40.520  29.326  31.180  1.00  0.00     0.167 HD
ATOM     50  C   UNL A   1      43.465  28.287  34.257  1.00  0.00     0.037 A 
ATOM     51  C   UNL A   1      38.284  30.658  30.173  1.00  0.00     0.037 A 
ATOM     52  C   UNL A   1      42.595  29.253  34.872  1.00  0.00     0.049 A 
ATOM     53  C   UNL A   1      38.427  31.092  31.606  1.00  0.00     0.074 A 
ATOM     54  C   UNL A   1      42.672  29.792  36.143  1.00  0.00     0.029 A 
ATOM     55  N   UNL A   1      41.489  29.822  34.260  1.00  0.00    -0.354 N 
ATOM     56  N   UNL A   1      39.353  30.772  32.477  1.00  0.00    -0.248 NA
ATOM     57  C   UNL A   1      37.400  32.006  32.130  1.00  0.00     0.031 C 
ATOM     58  C   UNL A   1      41.584  30.651  36.318  1.00  0.00     0.029 A 
ATOM     59  C   UNL A   1      40.857  30.685  35.138  1.00  0.00     0.049 A 
ATOM     60  H   UNL A   1      41.197  29.639  33.336  1.00  0.00     0.167 HD
ATOM     61  C   UNL A   1      39.033  31.455  33.643  1.00  0.00     0.074 A 
ATOM     62  C   UNL A   1      37.838  32.225  33.362  1.00  0.00     0.031 C 
ATOM     63  C   UNL A   1      39.668  31.442  34.840  1.00  0.00     0.037 A 
BRANCH  50  64
ATOM     64  C   UNL A   1      44.604  27.739  35.066  1.00  0.00     0.057 A 
ATOM     65  C   UNL A   1      45.823  28.422  35.173  1.00  0.00     0.134 A 
ATOM     66  C   UNL A   1      44.466  26.547  35.787  1.00  0.00     0.134 A 
ATOM     67  F   UNL A   1      46.025  29.564  34.497  1.00  0.00    -0.206 F 
ATOM     68  C   UNL A   1      46.869  27.932  35.956  1.00  0.00     0.040 A 
ATOM     69  C   UNL A   1      45.495  26.060  36.595  1.00  0.00     0.040 A 
ATOM     70  F   UNL A   1      43.325  25.844  35.731  1.00  0.00    -0.206 F 
ATOM     71  C   UNL A   1      46.702  26.752  36.679  1.00  0.00     0.006 A 
ENDBRANCH  50  64
BRANCH  51  72
ATOM     72  C   UNL A   1      37.193  31.193  29.318  1.00  0.00     0.057 A 
ATOM     73  C   UNL A   1      36.066  30.418  29.022  1.00  0.00     0.134 A 
ATOM     74  C   UNL A   1      37.241  32.488  28.790  1.00  0.00     0.134 A 
ATOM     75  F   UNL A   1      35.970  29.162  29.483  1.00  0.00    -0.206 F 
ATOM     76  C   UNL A   1      35.031  30.907  28.223  1.00  0.00     0.040 A 
ATOM     77  C   UNL A   1      36.202  33.000  28.011  1.00  0.00     0.040 A 
ATOM     78  F   UNL A   1      38.290  33.285  29.042  1.00  0.00    -0.206 F 
ATOM     79  C   UNL A   1      35.094  32.205  27.721  1.00  0.00     0.006 A 
ENDBRANCH  51  72
BRANCH  63  80
ATOM     80  C   UNL A   1      39.090  32.281  35.943  1.00  0.00     0.057 A 
ATOM     81  C   UNL A   1      38.224  31.736  36.900  1.00  0.00     0.134 A 
ATOM     82  C   UNL A   1      39.473  33.619  36.102  1.00  0.00     0.134 A 
ATOM     83  F   UNL A   1      37.812  30.463  36.798  1.00  0.00    -0.206 F 
ATOM     84  C   UNL A   1      37.752  32.496  37.970  1.00  0.00     0.040 A 
ATOM     85  C   UNL A   1      39.029  34.381  37.183  1.00  0.00     0.040 A 
ATOM     86  F   UNL A   1      40.310  34.198  35.227  1.00  0.00    -0.206 F 
ATOM     87  C   UNL A   1      38.164  33.819  38.120  1.00  0.00     0.006 A 
ENDBRANCH  63  80
ENDBRANCH  37  38
ENDBRANCH  29  32
ENDBRANCH  27  28
ENDBRANCH  26  27
ENDBRANCH   1  26
TORSDOF 14
ENDMDL
