MODEL 1
REMARK VINA RESULT:      -8.3      0.000      0.000
REMARK SMILES CCCn1c(N2CCC[C@@H](C)C2)c(/C=C2/SC(=S)N(CC(=O)NCCCCCCNC(=O)c3ccc(-c4c5nc(c(-c6c(F)cccc6F)c6ccc([nH]6)c(-c6c(F)cccc6F)c6nc(c(-c7c(F)cccc7F)c7ccc4[nH]7)C=C6)C=C5)cc3)C2=O)c(C)c(C#N)c1=O
REMARK SMILES IDX 25 1 24 2 23 3 21 4 22 5 20 7 19 8 14 9 15 10 16 11 87 12
REMARK SMILES IDX 17 13 88 14 18 15 13 16 4 17 5 18 94 19 91 20 95 21 89 22
REMARK SMILES IDX 90 23 3 24 2 25 1 26 6 27 7 28 12 29 8 30 10 31 9 32 11 33
REMARK SMILES IDX 92 34 93 35 26 36 27 37 28 38 29 39 30 40 31 41 32 43 33 44
REMARK SMILES IDX 34 45 86 46 35 47 85 48 36 49 37 50 38 51 79 52 39 53 84 54
REMARK SMILES IDX 78 55 80 56 40 57 83 58 77 59 76 60 41 62 67 63 50 64 66 65
REMARK SMILES IDX 51 66 54 67 65 68 81 69 52 70 53 71 64 73 82 74 55 75 42 76
REMARK SMILES IDX 43 77 48 78 44 79 45 80 47 81 49 82 46 83 68 84 69 85 74 86
REMARK SMILES IDX 70 87 71 88 73 89 75 90 72 91 56 92 57 93 62 94 58 95 59 96
REMARK SMILES IDX 61 97 63 98 60 99
REMARK H PARENT 23 6 30 42 80 61 54 72
REMARK Flexibility Score: inf
ROOT
ATOM      1  C   UNL A   1      46.757  25.449  31.483  1.00  0.00     0.021 C 
ENDROOT
BRANCH   1   2
ATOM      2  C   UNL A   1      47.012  25.877  30.042  1.00  0.00     0.116 C 
BRANCH   2   3
ATOM      3  N   UNL A   1      48.336  26.436  29.875  1.00  0.00    -0.355 N 
ATOM      4  C   UNL A   1      49.302  26.148  28.959  1.00  0.00     0.240 C 
ATOM      5  O   UNL A   1      50.239  26.945  28.861  1.00  0.00    -0.273 OA
ATOM      6  H   UNL A   1      48.576  27.134  30.526  1.00  0.00     0.163 HD
BRANCH   4   7
ATOM      7  C   UNL A   1      49.164  24.972  27.981  1.00  0.00     0.227 C 
BRANCH   7   8
ATOM      8  N   UNL A   1      48.400  25.308  26.777  1.00  0.00    -0.283 N 
ATOM      9  C   UNL A   1      45.233  24.887  25.027  1.00  0.00     0.033 C 
ATOM     10  C   UNL A   1      46.487  25.185  25.401  1.00  0.00     0.081 C 
ATOM     11  S   UNL A   1      47.522  26.265  24.552  1.00  0.00    -0.054 SA
ATOM     12  C   UNL A   1      47.201  24.647  26.595  1.00  0.00     0.266 C 
ATOM     13  C   UNL A   1      48.826  26.083  25.724  1.00  0.00     0.148 C 
ATOM     14  O   UNL A   1      46.794  23.736  27.296  1.00  0.00    -0.268 OA
ATOM     15  S   UNL A   1      50.324  26.778  25.486  1.00  0.00    -0.052 S 
BRANCH   9  16
ATOM     16  C   UNL A   1      44.348  23.969  25.759  1.00  0.00     0.021 A 
ATOM     17  N   UNL A   1      42.587  23.550  27.321  1.00  0.00    -0.293 N 
ATOM     18  C   UNL A   1      43.481  24.455  26.706  1.00  0.00     0.119 A 
ATOM     19  C   UNL A   1      42.453  22.209  26.928  1.00  0.00     0.270 A 
ATOM     20  C   UNL A   1      43.370  21.737  25.883  1.00  0.00     0.121 A 
ATOM     21  O   UNL A   1      41.647  21.421  27.422  1.00  0.00    -0.268 OA
ATOM     22  C   UNL A   1      44.336  22.540  25.408  1.00  0.00    -0.017 A 
ATOM     23  C   UNL A   1      45.406  22.030  24.464  1.00  0.00     0.047 C 
BRANCH  17  24
ATOM     24  C   UNL A   1      41.650  23.989  28.359  1.00  0.00     0.127 C 
BRANCH  24  25
ATOM     25  C   UNL A   1      40.254  24.344  27.846  1.00  0.00     0.019 C 
ATOM     26  C   UNL A   1      39.791  25.744  28.205  1.00  0.00     0.006 C 
ENDBRANCH  24  25
ENDBRANCH  17  24
BRANCH  18  27
ATOM     27  N   UNL A   1      43.424  25.834  27.014  1.00  0.00    -0.357 N 
ATOM     28  C   UNL A   1      44.222  26.436  28.090  1.00  0.00     0.118 C 
ATOM     29  C   UNL A   1      42.897  26.817  26.051  1.00  0.00     0.121 C 
ATOM     30  C   UNL A   1      43.379  27.470  28.841  1.00  0.00     0.022 C 
ATOM     31  C   UNL A   1      42.034  27.875  26.738  1.00  0.00     0.005 C 
ATOM     32  C   UNL A   1      42.794  28.525  27.898  1.00  0.00     0.007 C 
ATOM     33  C   UNL A   1      41.575  28.913  25.713  1.00  0.00     0.009 C 
ENDBRANCH  18  27
BRANCH  20  34
ATOM     34  C   UNL A   1      43.313  20.295  25.404  1.00  0.00     0.105 C 
ATOM     35  N   UNL A   1      43.265  19.098  25.008  1.00  0.00    -0.192 NA
ENDBRANCH  20  34
ENDBRANCH   9  16
ENDBRANCH   7   8
ENDBRANCH   4   7
ENDBRANCH   2   3
ENDBRANCH   1   2
BRANCH   1  36
ATOM     36  C   UNL A   1      47.698  26.112  32.496  1.00  0.00     0.002 C 
BRANCH  36  37
ATOM     37  C   UNL A   1      48.261  25.163  33.562  1.00  0.00     0.002 C 
BRANCH  37  38
ATOM     38  C   UNL A   1      47.289  24.076  34.029  1.00  0.00     0.021 C 
BRANCH  38  39
ATOM     39  C   UNL A   1      46.498  24.450  35.276  1.00  0.00     0.116 C 
BRANCH  39  40
ATOM     40  N   UNL A   1      45.265  23.685  35.380  1.00  0.00    -0.352 N 
ATOM     41  C   UNL A   1      43.983  24.098  35.123  1.00  0.00     0.251 C 
ATOM     42  H   UNL A   1      45.365  22.750  35.672  1.00  0.00     0.163 HD
ATOM     43  O   UNL A   1      43.019  23.419  35.454  1.00  0.00    -0.269 OA
BRANCH  41  44
ATOM     44  C   UNL A   1      43.782  25.394  34.448  1.00  0.00     0.039 A 
ATOM     45  C   UNL A   1      43.625  26.548  35.218  1.00  0.00     0.014 A 
ATOM     46  C   UNL A   1      43.784  25.457  33.051  1.00  0.00     0.014 A 
ATOM     47  C   UNL A   1      43.514  27.783  34.581  1.00  0.00     0.010 A 
ATOM     48  C   UNL A   1      43.736  26.696  32.421  1.00  0.00     0.010 A 
ATOM     49  C   UNL A   1      43.585  27.866  33.181  1.00  0.00    -0.014 A 
BRANCH  49  50
ATOM     50  C   UNL A   1      43.440  29.166  32.487  1.00  0.00     0.031 A 
ATOM     51  C   UNL A   1      44.671  29.917  32.069  1.00  0.00     0.074 A 
ATOM     52  C   UNL A   1      42.218  29.683  32.266  1.00  0.00     0.049 A 
ATOM     53  N   UNL A   1      44.771  31.078  31.473  1.00  0.00    -0.248 NA
ATOM     54  C   UNL A   1      45.964  29.285  32.378  1.00  0.00     0.031 C 
ATOM     55  C   UNL A   1      40.952  29.057  32.649  1.00  0.00     0.029 A 
ATOM     56  N   UNL A   1      41.843  30.859  31.670  1.00  0.00    -0.354 N 
ATOM     57  C   UNL A   1      46.134  31.309  31.331  1.00  0.00     0.074 A 
ATOM     58  C   UNL A   1      46.820  30.206  31.965  1.00  0.00     0.031 C 
ATOM     59  C   UNL A   1      39.938  29.849  32.259  1.00  0.00     0.029 A 
ATOM     60  C   UNL A   1      40.483  31.048  31.631  1.00  0.00     0.049 A 
ATOM     61  H   UNL A   1      42.488  31.506  31.303  1.00  0.00     0.167 HD
ATOM     62  C   UNL A   1      46.757  32.334  30.703  1.00  0.00     0.037 A 
ATOM     63  C   UNL A   1      39.766  32.079  31.145  1.00  0.00     0.037 A 
ATOM     64  C   UNL A   1      46.069  33.436  30.082  1.00  0.00     0.049 A 
ATOM     65  C   UNL A   1      40.486  33.240  30.513  1.00  0.00     0.074 A 
ATOM     66  C   UNL A   1      46.604  34.511  29.396  1.00  0.00     0.029 A 
ATOM     67  N   UNL A   1      44.693  33.606  30.085  1.00  0.00    -0.354 N 
ATOM     68  N   UNL A   1      41.772  33.417  30.325  1.00  0.00    -0.248 NA
ATOM     69  C   UNL A   1      39.651  34.345  30.022  1.00  0.00     0.031 C 
ATOM     70  C   UNL A   1      45.554  35.362  29.031  1.00  0.00     0.029 A 
ATOM     71  C   UNL A   1      44.362  34.787  29.438  1.00  0.00     0.049 A 
ATOM     72  H   UNL A   1      44.047  32.982  30.486  1.00  0.00     0.167 HD
ATOM     73  C   UNL A   1      41.896  34.634  29.665  1.00  0.00     0.074 A 
ATOM     74  C   UNL A   1      40.554  35.142  29.471  1.00  0.00     0.031 C 
ATOM     75  C   UNL A   1      43.018  35.276  29.254  1.00  0.00     0.037 A 
BRANCH  62  76
ATOM     76  C   UNL A   1      48.257  32.303  30.670  1.00  0.00     0.057 A 
ATOM     77  C   UNL A   1      49.009  32.914  31.682  1.00  0.00     0.134 A 
ATOM     78  C   UNL A   1      48.960  31.668  29.636  1.00  0.00     0.134 A 
ATOM     79  F   UNL A   1      48.401  33.542  32.699  1.00  0.00    -0.206 F 
ATOM     80  C   UNL A   1      50.405  32.888  31.669  1.00  0.00     0.040 A 
ATOM     81  C   UNL A   1      50.354  31.609  29.630  1.00  0.00     0.040 A 
ATOM     82  F   UNL A   1      48.300  31.051  28.645  1.00  0.00    -0.206 F 
ATOM     83  C   UNL A   1      51.080  32.225  30.646  1.00  0.00     0.006 A 
ENDBRANCH  62  76
BRANCH  63  84
ATOM     84  C   UNL A   1      38.282  32.065  31.217  1.00  0.00     0.057 A 
ATOM     85  C   UNL A   1      37.502  31.558  30.172  1.00  0.00     0.134 A 
ATOM     86  C   UNL A   1      37.611  32.515  32.361  1.00  0.00     0.134 A 
ATOM     87  F   UNL A   1      38.082  31.116  29.046  1.00  0.00    -0.206 F 
ATOM     88  C   UNL A   1      36.111  31.493  30.263  1.00  0.00     0.040 A 
ATOM     89  C   UNL A   1      36.223  32.431  32.477  1.00  0.00     0.040 A 
ATOM     90  F   UNL A   1      38.304  32.993  33.405  1.00  0.00    -0.206 F 
ATOM     91  C   UNL A   1      35.468  31.919  31.423  1.00  0.00     0.006 A 
ENDBRANCH  63  84
BRANCH  75  92
ATOM     92  C   UNL A   1      42.835  36.575  28.524  1.00  0.00     0.057 A 
ATOM     93  C   UNL A   1      42.456  36.586  27.174  1.00  0.00     0.134 A 
ATOM     94  C   UNL A   1      43.049  37.813  29.143  1.00  0.00     0.134 A 
ATOM     95  F   UNL A   1      42.245  35.437  26.516  1.00  0.00    -0.206 F 
ATOM     96  C   UNL A   1      42.296  37.780  26.470  1.00  0.00     0.040 A 
ATOM     97  C   UNL A   1      42.860  39.015  28.459  1.00  0.00     0.040 A 
ATOM     98  F   UNL A   1      43.400  37.875  30.437  1.00  0.00    -0.206 F 
ATOM     99  C   UNL A   1      42.488  39.000  27.116  1.00  0.00     0.006 A 
ENDBRANCH  75  92
ENDBRANCH  49  50
ENDBRANCH  41  44
ENDBRANCH  39  40
ENDBRANCH  38  39
ENDBRANCH  37  38
ENDBRANCH  36  37
ENDBRANCH   1  36
TORSDOF 19
ENDMDL
MODEL 2
REMARK VINA RESULT:      -8.3      1.752      2.343
REMARK SMILES CCCn1c(N2CCC[C@@H](C)C2)c(/C=C2/SC(=S)N(CC(=O)NCCCCCCNC(=O)c3ccc(-c4c5nc(c(-c6c(F)cccc6F)c6ccc([nH]6)c(-c6c(F)cccc6F)c6nc(c(-c7c(F)cccc7F)c7ccc4[nH]7)C=C6)C=C5)cc3)C2=O)c(C)c(C#N)c1=O
REMARK SMILES IDX 25 1 24 2 23 3 21 4 22 5 20 7 19 8 14 9 15 10 16 11 87 12
REMARK SMILES IDX 17 13 88 14 18 15 13 16 4 17 5 18 94 19 91 20 95 21 89 22
REMARK SMILES IDX 90 23 3 24 2 25 1 26 6 27 7 28 12 29 8 30 10 31 9 32 11 33
REMARK SMILES IDX 92 34 93 35 26 36 27 37 28 38 29 39 30 40 31 41 32 43 33 44
REMARK SMILES IDX 34 45 86 46 35 47 85 48 36 49 37 50 38 51 79 52 39 53 84 54
REMARK SMILES IDX 78 55 80 56 40 57 83 58 77 59 76 60 41 62 67 63 50 64 66 65
REMARK SMILES IDX 51 66 54 67 65 68 81 69 52 70 53 71 64 73 82 74 55 75 42 76
REMARK SMILES IDX 43 77 48 78 44 79 45 80 47 81 49 82 46 83 68 84 69 85 74 86
REMARK SMILES IDX 70 87 71 88 73 89 75 90 72 91 56 92 57 93 62 94 58 95 59 96
REMARK SMILES IDX 61 97 63 98 60 99
REMARK H PARENT 23 6 30 42 80 61 54 72
REMARK Flexibility Score: inf
ROOT
ATOM      1  C   UNL A   1      44.538  24.091  31.839  1.00  0.00     0.021 C 
ENDROOT
BRANCH   1   2
ATOM      2  C   UNL A   1      45.338  25.344  32.179  1.00  0.00     0.116 C 
BRANCH   2   3
ATOM      3  N   UNL A   1      46.520  25.466  31.354  1.00  0.00    -0.355 N 
ATOM      4  C   UNL A   1      46.823  26.371  30.382  1.00  0.00     0.240 C 
ATOM      5  O   UNL A   1      47.999  26.425  30.011  1.00  0.00    -0.273 OA
ATOM      6  H   UNL A   1      47.214  24.789  31.522  1.00  0.00     0.163 HD
BRANCH   4   7
ATOM      7  C   UNL A   1      45.789  27.388  29.874  1.00  0.00     0.227 C 
BRANCH   7   8
ATOM      8  N   UNL A   1      45.657  27.397  28.414  1.00  0.00    -0.283 N 
ATOM      9  C   UNL A   1      44.315  25.643  25.519  1.00  0.00     0.033 C 
ATOM     10  C   UNL A   1      44.946  26.473  26.364  1.00  0.00     0.081 C 
ATOM     11  S   UNL A   1      45.669  27.962  25.901  1.00  0.00    -0.054 SA
ATOM     12  C   UNL A   1      45.132  26.262  27.829  1.00  0.00     0.266 C 
ATOM     13  C   UNL A   1      46.157  28.344  27.552  1.00  0.00     0.148 C 
ATOM     14  O   UNL A   1      44.880  25.226  28.420  1.00  0.00    -0.268 OA
ATOM     15  S   UNL A   1      47.098  29.676  27.903  1.00  0.00    -0.052 S 
BRANCH   9  16
ATOM     16  C   UNL A   1      43.690  24.373  25.919  1.00  0.00     0.021 A 
ATOM     17  N   UNL A   1      41.865  23.127  26.834  1.00  0.00    -0.293 N 
ATOM     18  C   UNL A   1      42.468  24.372  26.547  1.00  0.00     0.119 A 
ATOM     19  C   UNL A   1      42.387  21.898  26.402  1.00  0.00     0.270 A 
ATOM     20  C   UNL A   1      43.675  21.943  25.697  1.00  0.00     0.121 A 
ATOM     21  O   UNL A   1      41.849  20.809  26.603  1.00  0.00    -0.268 OA
ATOM     22  C   UNL A   1      44.341  23.102  25.565  1.00  0.00    -0.017 A 
ATOM     23  C   UNL A   1      45.747  23.155  25.005  1.00  0.00     0.047 C 
BRANCH  17  24
ATOM     24  C   UNL A   1      40.575  23.046  27.524  1.00  0.00     0.127 C 
BRANCH  24  25
ATOM     25  C   UNL A   1      39.371  22.858  26.601  1.00  0.00     0.019 C 
ATOM     26  C   UNL A   1      38.471  24.075  26.488  1.00  0.00     0.006 C 
ENDBRANCH  24  25
ENDBRANCH  17  24
BRANCH  18  27
ATOM     27  N   UNL A   1      41.790  25.578  26.838  1.00  0.00    -0.357 N 
ATOM     28  C   UNL A   1      41.043  26.330  25.820  1.00  0.00     0.118 C 
ATOM     29  C   UNL A   1      41.437  25.950  28.219  1.00  0.00     0.121 C 
ATOM     30  C   UNL A   1      41.280  27.831  26.010  1.00  0.00     0.022 C 
ATOM     31  C   UNL A   1      41.661  27.439  28.479  1.00  0.00     0.005 C 
ATOM     32  C   UNL A   1      40.936  28.287  27.430  1.00  0.00     0.007 C 
ATOM     33  C   UNL A   1      41.211  27.789  29.898  1.00  0.00     0.009 C 
ENDBRANCH  18  27
BRANCH  20  34
ATOM     34  C   UNL A   1      44.328  20.661  25.207  1.00  0.00     0.105 C 
ATOM     35  N   UNL A   1      44.870  19.596  24.801  1.00  0.00    -0.192 NA
ENDBRANCH  20  34
ENDBRANCH   9  16
ENDBRANCH   7   8
ENDBRANCH   4   7
ENDBRANCH   2   3
ENDBRANCH   1   2
BRANCH   1  36
ATOM     36  C   UNL A   1      44.079  23.301  33.072  1.00  0.00     0.002 C 
BRANCH  36  37
ATOM     37  C   UNL A   1      45.215  22.841  33.995  1.00  0.00     0.002 C 
BRANCH  37  38
ATOM     38  C   UNL A   1      44.885  22.889  35.489  1.00  0.00     0.021 C 
BRANCH  38  39
ATOM     39  C   UNL A   1      44.338  24.232  35.956  1.00  0.00     0.116 C 
BRANCH  39  40
ATOM     40  N   UNL A   1      43.011  24.100  36.537  1.00  0.00    -0.352 N 
ATOM     41  C   UNL A   1      42.000  25.027  36.569  1.00  0.00     0.251 C 
ATOM     42  H   UNL A   1      42.813  23.234  36.960  1.00  0.00     0.163 HD
ATOM     43  O   UNL A   1      41.012  24.863  37.274  1.00  0.00    -0.269 OA
BRANCH  41  44
ATOM     44  C   UNL A   1      42.132  26.242  35.746  1.00  0.00     0.039 A 
ATOM     45  C   UNL A   1      42.391  26.117  34.380  1.00  0.00     0.014 A 
ATOM     46  C   UNL A   1      41.965  27.501  36.333  1.00  0.00     0.014 A 
ATOM     47  C   UNL A   1      42.438  27.262  33.586  1.00  0.00     0.010 A 
ATOM     48  C   UNL A   1      41.951  28.635  35.529  1.00  0.00     0.010 A 
ATOM     49  C   UNL A   1      42.202  28.525  34.153  1.00  0.00    -0.014 A 
BRANCH  49  50
ATOM     50  C   UNL A   1      42.276  29.755  33.330  1.00  0.00     0.031 A 
ATOM     51  C   UNL A   1      43.588  30.472  33.196  1.00  0.00     0.074 A 
ATOM     52  C   UNL A   1      41.170  30.239  32.737  1.00  0.00     0.049 A 
ATOM     53  N   UNL A   1      43.868  31.573  32.547  1.00  0.00    -0.248 NA
ATOM     54  C   UNL A   1      44.736  29.881  33.904  1.00  0.00     0.031 C 
ATOM     55  C   UNL A   1      39.836  29.643  32.815  1.00  0.00     0.029 A 
ATOM     56  N   UNL A   1      40.994  31.352  31.956  1.00  0.00    -0.354 N 
ATOM     57  C   UNL A   1      45.222  31.800  32.762  1.00  0.00     0.074 A 
ATOM     58  C   UNL A   1      45.689  30.765  33.658  1.00  0.00     0.031 C 
ATOM     59  C   UNL A   1      38.982  30.388  32.092  1.00  0.00     0.029 A 
ATOM     60  C   UNL A   1      39.700  31.527  31.530  1.00  0.00     0.049 A 
ATOM     61  H   UNL A   1      41.726  31.967  31.721  1.00  0.00     0.167 HD
ATOM     62  C   UNL A   1      46.012  32.766  32.237  1.00  0.00     0.037 A 
ATOM     63  C   UNL A   1      39.161  32.503  30.774  1.00  0.00     0.037 A 
ATOM     64  C   UNL A   1      45.540  33.800  31.354  1.00  0.00     0.049 A 
ATOM     65  C   UNL A   1      40.048  33.606  30.260  1.00  0.00     0.074 A 
ATOM     66  C   UNL A   1      46.262  34.811  30.745  1.00  0.00     0.029 A 
ATOM     67  N   UNL A   1      44.219  33.960  30.965  1.00  0.00    -0.354 N 
ATOM     68  N   UNL A   1      41.340  33.774  30.414  1.00  0.00    -0.248 NA
ATOM     69  C   UNL A   1      39.399  34.655  29.460  1.00  0.00     0.031 C 
ATOM     70  C   UNL A   1      45.367  35.616  30.031  1.00  0.00     0.029 A 
ATOM     71  C   UNL A   1      44.099  35.073  30.147  1.00  0.00     0.049 A 
ATOM     72  H   UNL A   1      43.476  33.372  31.230  1.00  0.00     0.167 HD
ATOM     73  C   UNL A   1      41.662  34.925  29.705  1.00  0.00     0.074 A 
ATOM     74  C   UNL A   1      40.433  35.403  29.106  1.00  0.00     0.031 C 
ATOM     75  C   UNL A   1      42.866  35.533  29.559  1.00  0.00     0.037 A 
BRANCH  62  76
ATOM     76  C   UNL A   1      47.463  32.743  32.619  1.00  0.00     0.057 A 
ATOM     77  C   UNL A   1      48.391  32.015  31.864  1.00  0.00     0.134 A 
ATOM     78  C   UNL A   1      47.944  33.442  33.735  1.00  0.00     0.134 A 
ATOM     79  F   UNL A   1      47.999  31.320  30.785  1.00  0.00    -0.206 F 
ATOM     80  C   UNL A   1      49.746  31.989  32.202  1.00  0.00     0.040 A 
ATOM     81  C   UNL A   1      49.301  33.449  34.064  1.00  0.00     0.040 A 
ATOM     82  F   UNL A   1      47.111  34.172  34.491  1.00  0.00    -0.206 F 
ATOM     83  C   UNL A   1      50.205  32.716  33.298  1.00  0.00     0.006 A 
ENDBRANCH  62  76
BRANCH  63  84
ATOM     84  C   UNL A   1      37.715  32.486  30.439  1.00  0.00     0.057 A 
ATOM     85  C   UNL A   1      37.237  31.851  29.287  1.00  0.00     0.134 A 
ATOM     86  C   UNL A   1      36.769  33.064  31.295  1.00  0.00     0.134 A 
ATOM     87  F   UNL A   1      38.090  31.283  28.423  1.00  0.00    -0.206 F 
ATOM     88  C   UNL A   1      35.871  31.786  29.002  1.00  0.00     0.040 A 
ATOM     89  C   UNL A   1      35.400  32.982  31.036  1.00  0.00     0.040 A 
ATOM     90  F   UNL A   1      37.163  33.669  32.426  1.00  0.00    -0.206 F 
ATOM     91  C   UNL A   1      34.948  32.342  29.884  1.00  0.00     0.006 A 
ENDBRANCH  63  84
BRANCH  75  92
ATOM     92  C   UNL A   1      42.913  36.758  28.691  1.00  0.00     0.057 A 
ATOM     93  C   UNL A   1      42.760  36.651  27.302  1.00  0.00     0.134 A 
ATOM     94  C   UNL A   1      43.127  38.037  29.220  1.00  0.00     0.134 A 
ATOM     95  F   UNL A   1      42.562  35.456  26.726  1.00  0.00    -0.206 F 
ATOM     96  C   UNL A   1      42.816  37.772  26.473  1.00  0.00     0.040 A 
ATOM     97  C   UNL A   1      43.152  39.170  28.404  1.00  0.00     0.040 A 
ATOM     98  F   UNL A   1      43.267  38.211  30.543  1.00  0.00    -0.206 F 
ATOM     99  C   UNL A   1      43.003  39.038  27.025  1.00  0.00     0.006 A 
ENDBRANCH  75  92
ENDBRANCH  49  50
ENDBRANCH  41  44
ENDBRANCH  39  40
ENDBRANCH  38  39
ENDBRANCH  37  38
ENDBRANCH  36  37
ENDBRANCH   1  36
TORSDOF 19
ENDMDL
MODEL 3
REMARK VINA RESULT:      -8.2      3.457      7.881
REMARK SMILES CCCn1c(N2CCC[C@@H](C)C2)c(/C=C2/SC(=S)N(CC(=O)NCCCCCCNC(=O)c3ccc(-c4c5nc(c(-c6c(F)cccc6F)c6ccc([nH]6)c(-c6c(F)cccc6F)c6nc(c(-c7c(F)cccc7F)c7ccc4[nH]7)C=C6)C=C5)cc3)C2=O)c(C)c(C#N)c1=O
REMARK SMILES IDX 25 1 24 2 23 3 21 4 22 5 20 7 19 8 14 9 15 10 16 11 87 12
REMARK SMILES IDX 17 13 88 14 18 15 13 16 4 17 5 18 94 19 91 20 95 21 89 22
REMARK SMILES IDX 90 23 3 24 2 25 1 26 6 27 7 28 12 29 8 30 10 31 9 32 11 33
REMARK SMILES IDX 92 34 93 35 26 36 27 37 28 38 29 39 30 40 31 41 32 43 33 44
REMARK SMILES IDX 34 45 86 46 35 47 85 48 36 49 37 50 38 51 79 52 39 53 84 54
REMARK SMILES IDX 78 55 80 56 40 57 83 58 77 59 76 60 41 62 67 63 50 64 66 65
REMARK SMILES IDX 51 66 54 67 65 68 81 69 52 70 53 71 64 73 82 74 55 75 42 76
REMARK SMILES IDX 43 77 48 78 44 79 45 80 47 81 49 82 46 83 68 84 69 85 74 86
REMARK SMILES IDX 70 87 71 88 73 89 75 90 72 91 56 92 57 93 62 94 58 95 59 96
REMARK SMILES IDX 61 97 63 98 60 99
REMARK H PARENT 23 6 30 42 80 61 54 72
REMARK Flexibility Score: inf
ROOT
ATOM      1  C   UNL A   1      44.463  24.628  31.605  1.00  0.00     0.021 C 
ENDROOT
BRANCH   1   2
ATOM      2  C   UNL A   1      45.530  25.544  31.015  1.00  0.00     0.116 C 
BRANCH   2   3
ATOM      3  N   UNL A   1      45.030  26.289  29.880  1.00  0.00    -0.355 N 
ATOM      4  C   UNL A   1      45.691  27.072  28.982  1.00  0.00     0.240 C 
ATOM      5  O   UNL A   1      45.085  27.383  27.954  1.00  0.00    -0.273 OA
ATOM      6  H   UNL A   1      44.060  26.218  29.733  1.00  0.00     0.163 HD
BRANCH   4   7
ATOM      7  C   UNL A   1      47.174  27.430  29.161  1.00  0.00     0.227 C 
BRANCH   7   8
ATOM      8  N   UNL A   1      47.385  28.633  29.971  1.00  0.00    -0.283 N 
ATOM      9  C   UNL A   1      47.267  32.273  30.011  1.00  0.00     0.033 C 
ATOM     10  C   UNL A   1      47.439  30.970  30.285  1.00  0.00     0.081 C 
ATOM     11  S   UNL A   1      47.822  30.349  31.841  1.00  0.00    -0.054 SA
ATOM     12  C   UNL A   1      47.333  29.845  29.311  1.00  0.00     0.266 C 
ATOM     13  C   UNL A   1      47.796  28.677  31.282  1.00  0.00     0.148 C 
ATOM     14  O   UNL A   1      47.240  29.978  28.103  1.00  0.00    -0.268 OA
ATOM     15  S   UNL A   1      48.237  27.412  32.277  1.00  0.00    -0.052 S 
BRANCH   9  16
ATOM     16  C   UNL A   1      46.931  32.801  28.680  1.00  0.00     0.021 A 
ATOM     17  N   UNL A   1      45.355  33.643  27.092  1.00  0.00    -0.293 N 
ATOM     18  C   UNL A   1      45.623  33.055  28.348  1.00  0.00     0.119 A 
ATOM     19  C   UNL A   1      46.358  34.096  26.220  1.00  0.00     0.270 A 
ATOM     20  C   UNL A   1      47.746  33.844  26.630  1.00  0.00     0.121 A 
ATOM     21  O   UNL A   1      46.140  34.654  25.145  1.00  0.00    -0.268 OA
ATOM     22  C   UNL A   1      48.012  33.136  27.740  1.00  0.00    -0.017 A 
ATOM     23  C   UNL A   1      49.421  32.707  28.093  1.00  0.00     0.047 C 
BRANCH  17  24
ATOM     24  C   UNL A   1      43.983  33.921  26.657  1.00  0.00     0.127 C 
BRANCH  24  25
ATOM     25  C   UNL A   1      43.500  35.343  26.944  1.00  0.00     0.019 C 
ATOM     26  C   UNL A   1      42.082  35.427  27.478  1.00  0.00     0.006 C 
ENDBRANCH  24  25
ENDBRANCH  17  24
BRANCH  18  27
ATOM     27  N   UNL A   1      44.571  32.805  29.258  1.00  0.00    -0.357 N 
ATOM     28  C   UNL A   1      43.936  31.487  29.390  1.00  0.00     0.118 C 
ATOM     29  C   UNL A   1      44.311  33.699  30.401  1.00  0.00     0.121 C 
ATOM     30  C   UNL A   1      42.424  31.656  29.560  1.00  0.00     0.022 C 
ATOM     31  C   UNL A   1      42.815  33.919  30.619  1.00  0.00     0.005 C 
ATOM     32  C   UNL A   1      42.081  32.579  30.732  1.00  0.00     0.007 C 
ATOM     33  C   UNL A   1      42.597  34.788  31.858  1.00  0.00     0.009 C 
ENDBRANCH  18  27
BRANCH  20  34
ATOM     34  C   UNL A   1      48.901  34.281  25.743  1.00  0.00     0.105 C 
ATOM     35  N   UNL A   1      49.859  34.642  25.007  1.00  0.00    -0.192 NA
ENDBRANCH  20  34
ENDBRANCH   9  16
ENDBRANCH   7   8
ENDBRANCH   4   7
ENDBRANCH   2   3
ENDBRANCH   1   2
BRANCH   1  36
ATOM     36  C   UNL A   1      44.909  23.910  32.885  1.00  0.00     0.002 C 
BRANCH  36  37
ATOM     37  C   UNL A   1      44.989  24.809  34.126  1.00  0.00     0.002 C 
BRANCH  37  38
ATOM     38  C   UNL A   1      46.264  24.641  34.957  1.00  0.00     0.021 C 
BRANCH  38  39
ATOM     39  C   UNL A   1      46.027  24.672  36.462  1.00  0.00     0.116 C 
BRANCH  39  40
ATOM     40  N   UNL A   1      46.838  25.688  37.113  1.00  0.00    -0.352 N 
ATOM     41  C   UNL A   1      46.797  27.048  36.941  1.00  0.00     0.251 C 
ATOM     42  H   UNL A   1      47.502  25.358  37.760  1.00  0.00     0.163 HD
ATOM     43  O   UNL A   1      47.676  27.772  37.391  1.00  0.00    -0.269 OA
BRANCH  41  44
ATOM     44  C   UNL A   1      45.672  27.629  36.185  1.00  0.00     0.039 A 
ATOM     45  C   UNL A   1      44.368  27.432  36.641  1.00  0.00     0.014 A 
ATOM     46  C   UNL A   1      45.924  28.395  35.042  1.00  0.00     0.014 A 
ATOM     47  C   UNL A   1      43.310  28.045  35.972  1.00  0.00     0.010 A 
ATOM     48  C   UNL A   1      44.875  29.055  34.414  1.00  0.00     0.010 A 
ATOM     49  C   UNL A   1      43.559  28.873  34.866  1.00  0.00    -0.014 A 
BRANCH  49  50
ATOM     50  C   UNL A   1      42.444  29.510  34.125  1.00  0.00     0.031 A 
ATOM     51  C   UNL A   1      41.745  30.695  34.727  1.00  0.00     0.074 A 
ATOM     52  C   UNL A   1      42.044  29.008  32.943  1.00  0.00     0.049 A 
ATOM     53  N   UNL A   1      40.735  31.384  34.261  1.00  0.00    -0.248 NA
ATOM     54  C   UNL A   1      42.236  31.154  36.036  1.00  0.00     0.031 C 
ATOM     55  C   UNL A   1      42.630  27.847  32.272  1.00  0.00     0.029 A 
ATOM     56  N   UNL A   1      41.041  29.411  32.099  1.00  0.00    -0.354 N 
ATOM     57  C   UNL A   1      40.477  32.360  35.215  1.00  0.00     0.074 A 
ATOM     58  C   UNL A   1      41.387  32.129  36.315  1.00  0.00     0.031 C 
ATOM     59  C   UNL A   1      41.987  27.644  31.109  1.00  0.00     0.029 A 
ATOM     60  C   UNL A   1      40.927  28.637  30.970  1.00  0.00     0.049 A 
ATOM     61  H   UNL A   1      40.458  30.182  32.285  1.00  0.00     0.167 HD
ATOM     62  C   UNL A   1      39.583  33.376  35.167  1.00  0.00     0.037 A 
ATOM     63  C   UNL A   1      40.058  28.723  29.945  1.00  0.00     0.037 A 
ATOM     64  C   UNL A   1      38.673  33.596  34.075  1.00  0.00     0.049 A 
ATOM     65  C   UNL A   1      39.026  29.820  29.949  1.00  0.00     0.074 A 
ATOM     66  C   UNL A   1      37.745  34.609  33.914  1.00  0.00     0.029 A 
ATOM     67  N   UNL A   1      38.569  32.777  32.960  1.00  0.00    -0.354 N 
ATOM     68  N   UNL A   1      38.835  30.778  30.825  1.00  0.00    -0.248 NA
ATOM     69  C   UNL A   1      38.091  29.849  28.816  1.00  0.00     0.031 C 
ATOM     70  C   UNL A   1      37.042  34.373  32.728  1.00  0.00     0.029 A 
ATOM     71  C   UNL A   1      37.570  33.246  32.121  1.00  0.00     0.049 A 
ATOM     72  H   UNL A   1      39.121  31.981  32.790  1.00  0.00     0.167 HD
ATOM     73  C   UNL A   1      37.783  31.541  30.331  1.00  0.00     0.074 A 
ATOM     74  C   UNL A   1      37.390  30.944  29.071  1.00  0.00     0.031 C 
ATOM     75  C   UNL A   1      37.194  32.638  30.869  1.00  0.00     0.037 A 
BRANCH  62  76
ATOM     76  C   UNL A   1      39.552  34.313  36.338  1.00  0.00     0.057 A 
ATOM     77  C   UNL A   1      38.854  33.979  37.506  1.00  0.00     0.134 A 
ATOM     78  C   UNL A   1      40.213  35.550  36.313  1.00  0.00     0.134 A 
ATOM     79  F   UNL A   1      38.196  32.814  37.598  1.00  0.00    -0.206 F 
ATOM     80  C   UNL A   1      38.821  34.838  38.606  1.00  0.00     0.040 A 
ATOM     81  C   UNL A   1      40.214  36.401  37.418  1.00  0.00     0.040 A 
ATOM     82  F   UNL A   1      40.913  35.923  35.231  1.00  0.00    -0.206 F 
ATOM     83  C   UNL A   1      39.511  36.048  38.567  1.00  0.00     0.006 A 
ENDBRANCH  62  76
BRANCH  63  84
ATOM     84  C   UNL A   1      40.124  27.759  28.818  1.00  0.00     0.057 A 
ATOM     85  C   UNL A   1      40.856  28.036  27.658  1.00  0.00     0.134 A 
ATOM     86  C   UNL A   1      39.493  26.511  28.898  1.00  0.00     0.134 A 
ATOM     87  F   UNL A   1      41.478  29.215  27.515  1.00  0.00    -0.206 F 
ATOM     88  C   UNL A   1      40.963  27.106  26.622  1.00  0.00     0.040 A 
ATOM     89  C   UNL A   1      39.616  25.562  27.883  1.00  0.00     0.040 A 
ATOM     90  F   UNL A   1      38.794  26.177  29.993  1.00  0.00    -0.206 F 
ATOM     91  C   UNL A   1      40.352  25.860  26.739  1.00  0.00     0.006 A 
ENDBRANCH  63  84
BRANCH  75  92
ATOM     92  C   UNL A   1      36.090  33.279  30.077  1.00  0.00     0.057 A 
ATOM     93  C   UNL A   1      36.386  34.098  28.979  1.00  0.00     0.134 A 
ATOM     94  C   UNL A   1      34.740  33.105  30.408  1.00  0.00     0.134 A 
ATOM     95  F   UNL A   1      37.658  34.317  28.614  1.00  0.00    -0.206 F 
ATOM     96  C   UNL A   1      35.379  34.718  28.239  1.00  0.00     0.040 A 
ATOM     97  C   UNL A   1      33.722  33.693  29.654  1.00  0.00     0.040 A 
ATOM     98  F   UNL A   1      34.388  32.322  31.439  1.00  0.00    -0.206 F 
ATOM     99  C   UNL A   1      34.041  34.508  28.570  1.00  0.00     0.006 A 
ENDBRANCH  75  92
ENDBRANCH  49  50
ENDBRANCH  41  44
ENDBRANCH  39  40
ENDBRANCH  38  39
ENDBRANCH  37  38
ENDBRANCH  36  37
ENDBRANCH   1  36
TORSDOF 19
ENDMDL
