MODEL 1
REMARK VINA RESULT:     -12.2      0.000      0.000
REMARK SMILES O=C(NCCCCCCNC(=O)[C@H]1[C@H]2C[C@@H]3[C@@H](OC(=O)[C@@H]31)[C@@H]2Sc1ccccc1)c1ccc(-c2c3nc(c(-c4c(F)cccc4F)c4ccc([nH]4)c(-c4c(F)cccc4F)c4nc(c(-c5c(F)cccc5F)c5ccc2[nH]5)C=C4)C=C3)cc1
REMARK SMILES IDX 6 1 5 2 4 3 3 4 1 5 2 6 30 8 31 9 83 10 32 11 82 12 33 13
REMARK SMILES IDX 34 14 35 15 76 16 36 17 81 18 75 19 77 20 37 21 80 22 74 23
REMARK SMILES IDX 73 24 38 26 64 27 47 28 63 29 48 30 51 31 62 32 78 33 49 34
REMARK SMILES IDX 50 35 61 37 79 38 52 39 39 40 40 41 45 42 41 43 42 44 44 45
REMARK SMILES IDX 46 46 43 47 65 48 66 49 71 50 67 51 68 52 70 53 72 54 69 55
REMARK SMILES IDX 53 56 54 57 59 58 55 59 56 60 58 61 60 62 57 63 7 64 8 65
REMARK SMILES IDX 9 66 10 67 11 68 12 70 13 71 14 72 21 73 15 74 22 75 16 76
REMARK SMILES IDX 19 77 17 78 18 79 20 80 23 81 24 82 25 83 29 84 26 85 28 86
REMARK SMILES IDX 27 87
REMARK H PARENT 3 7 77 25 51 36 10 69
REMARK Flexibility Score: inf
ROOT
ATOM      1  C   UNL A   1      31.426  30.850  26.166  1.00  0.00     0.002 C 
ENDROOT
BRANCH   1   2
ATOM      2  C   UNL A   1      31.358  32.338  26.516  1.00  0.00     0.021 C 
BRANCH   2   3
ATOM      3  C   UNL A   1      32.661  32.909  27.061  1.00  0.00     0.116 C 
BRANCH   3   4
ATOM      4  N   UNL A   1      32.475  34.235  27.626  1.00  0.00    -0.352 N 
ATOM      5  O   UNL A   1      32.638  35.833  29.213  1.00  0.00    -0.269 OA
ATOM      6  C   UNL A   1      33.068  34.791  28.730  1.00  0.00     0.251 C 
ATOM      7  H   UNL A   1      31.835  34.813  27.152  1.00  0.00     0.163 HD
BRANCH   6   8
ATOM      8  C   UNL A   1      34.229  34.113  29.336  1.00  0.00     0.039 A 
ATOM      9  C   UNL A   1      34.033  33.144  30.323  1.00  0.00     0.014 A 
ATOM     10  C   UNL A   1      35.517  34.446  28.915  1.00  0.00     0.014 A 
ATOM     11  C   UNL A   1      35.127  32.608  30.986  1.00  0.00     0.010 A 
ATOM     12  C   UNL A   1      36.618  33.828  29.513  1.00  0.00     0.010 A 
ATOM     13  C   UNL A   1      36.430  32.918  30.565  1.00  0.00    -0.014 A 
BRANCH  13  14
ATOM     14  C   UNL A   1      37.573  32.203  31.181  1.00  0.00     0.031 A 
ATOM     15  C   UNL A   1      38.056  32.539  32.561  1.00  0.00     0.074 A 
ATOM     16  C   UNL A   1      38.167  31.224  30.470  1.00  0.00     0.049 A 
ATOM     17  N   UNL A   1      39.043  32.008  33.237  1.00  0.00    -0.248 NA
ATOM     18  C   UNL A   1      37.348  33.612  33.275  1.00  0.00     0.031 C 
ATOM     19  C   UNL A   1      37.786  30.820  29.112  1.00  0.00     0.029 A 
ATOM     20  N   UNL A   1      39.201  30.383  30.786  1.00  0.00    -0.354 N 
ATOM     21  C   UNL A   1      39.087  32.690  34.446  1.00  0.00     0.074 A 
ATOM     22  C   UNL A   1      38.045  33.695  34.399  1.00  0.00     0.031 C 
ATOM     23  C   UNL A   1      38.544  29.784  28.731  1.00  0.00     0.029 A 
ATOM     24  C   UNL A   1      39.513  29.501  29.781  1.00  0.00     0.049 A 
ATOM     25  H   UNL A   1      39.674  30.409  31.648  1.00  0.00     0.167 HD
ATOM     26  C   UNL A   1      39.919  32.490  35.497  1.00  0.00     0.037 A 
ATOM     27  C   UNL A   1      40.492  28.581  29.699  1.00  0.00     0.037 A 
ATOM     28  C   UNL A   1      40.954  31.486  35.527  1.00  0.00     0.049 A 
ATOM     29  C   UNL A   1      41.428  28.416  30.859  1.00  0.00     0.074 A 
ATOM     30  C   UNL A   1      41.828  31.182  36.558  1.00  0.00     0.029 A 
ATOM     31  N   UNL A   1      41.264  30.633  34.478  1.00  0.00    -0.354 N 
ATOM     32  N   UNL A   1      41.431  29.039  32.013  1.00  0.00    -0.248 NA
ATOM     33  C   UNL A   1      42.497  27.423  30.706  1.00  0.00     0.031 C 
ATOM     34  C   UNL A   1      42.704  30.188  36.109  1.00  0.00     0.029 A 
ATOM     35  C   UNL A   1      42.335  29.824  34.824  1.00  0.00     0.049 A 
ATOM     36  H   UNL A   1      40.793  30.607  33.614  1.00  0.00     0.167 HD
ATOM     37  C   UNL A   1      42.486  28.498  32.733  1.00  0.00     0.074 A 
ATOM     38  C   UNL A   1      43.085  27.481  31.892  1.00  0.00     0.031 C 
ATOM     39  C   UNL A   1      42.920  28.815  33.977  1.00  0.00     0.037 A 
BRANCH  26  40
ATOM     40  C   UNL A   1      39.765  33.388  36.692  1.00  0.00     0.057 A 
ATOM     41  C   UNL A   1      40.472  34.591  36.816  1.00  0.00     0.134 A 
ATOM     42  C   UNL A   1      38.860  33.067  37.713  1.00  0.00     0.134 A 
ATOM     43  F   UNL A   1      41.363  34.957  35.881  1.00  0.00    -0.206 F 
ATOM     44  C   UNL A   1      40.303  35.430  37.921  1.00  0.00     0.040 A 
ATOM     45  C   UNL A   1      38.660  33.911  38.807  1.00  0.00     0.040 A 
ATOM     46  F   UNL A   1      38.142  31.935  37.656  1.00  0.00    -0.206 F 
ATOM     47  C   UNL A   1      39.388  35.093  38.917  1.00  0.00     0.006 A 
ENDBRANCH  26  40
BRANCH  27  48
ATOM     48  C   UNL A   1      40.639  27.765  28.468  1.00  0.00     0.057 A 
ATOM     49  C   UNL A   1      41.399  28.218  27.385  1.00  0.00     0.134 A 
ATOM     50  C   UNL A   1      40.027  26.511  28.347  1.00  0.00     0.134 A 
ATOM     51  F   UNL A   1      42.000  29.416  27.436  1.00  0.00    -0.206 F 
ATOM     52  C   UNL A   1      41.529  27.464  26.218  1.00  0.00     0.040 A 
ATOM     53  C   UNL A   1      40.175  25.731  27.200  1.00  0.00     0.040 A 
ATOM     54  F   UNL A   1      39.295  26.013  29.355  1.00  0.00    -0.206 F 
ATOM     55  C   UNL A   1      40.920  26.214  26.126  1.00  0.00     0.006 A 
ENDBRANCH  27  48
BRANCH  39  56
ATOM     56  C   UNL A   1      44.075  28.022  34.518  1.00  0.00     0.057 A 
ATOM     57  C   UNL A   1      45.404  28.424  34.330  1.00  0.00     0.134 A 
ATOM     58  C   UNL A   1      43.850  26.854  35.257  1.00  0.00     0.134 A 
ATOM     59  F   UNL A   1      45.689  29.524  33.618  1.00  0.00    -0.206 F 
ATOM     60  C   UNL A   1      46.469  27.675  34.834  1.00  0.00     0.040 A 
ATOM     61  C   UNL A   1      44.905  26.114  35.793  1.00  0.00     0.040 A 
ATOM     62  F   UNL A   1      42.602  26.417  35.480  1.00  0.00    -0.206 F 
ATOM     63  C   UNL A   1      46.220  26.521  35.575  1.00  0.00     0.006 A 
ENDBRANCH  39  56
ENDBRANCH  13  14
ENDBRANCH   6   8
ENDBRANCH   3   4
ENDBRANCH   2   3
ENDBRANCH   1   2
BRANCH   1  64
ATOM     64  C   UNL A   1      32.162  29.980  27.190  1.00  0.00     0.002 C 
BRANCH  64  65
ATOM     65  C   UNL A   1      33.682  29.967  27.041  1.00  0.00     0.021 C 
BRANCH  65  66
ATOM     66  C   UNL A   1      34.240  28.662  26.469  1.00  0.00     0.116 C 
BRANCH  66  67
ATOM     67  N   UNL A   1      34.201  28.657  25.016  1.00  0.00    -0.356 N 
ATOM     68  C   UNL A   1      33.269  28.351  24.079  1.00  0.00     0.224 C 
ATOM     69  H   UNL A   1      35.054  28.943  24.616  1.00  0.00     0.163 HD
ATOM     70  O   UNL A   1      33.640  28.450  22.902  1.00  0.00    -0.275 OA
BRANCH  68  71
ATOM     71  C   UNL A   1      31.852  27.844  24.356  1.00  0.00     0.097 C 
ATOM     72  C   UNL A   1      30.822  28.160  23.216  1.00  0.00     0.020 C 
ATOM     73  C   UNL A   1      31.694  26.332  24.554  1.00  0.00     0.119 C 
ATOM     74  C   UNL A   1      31.070  26.978  22.297  1.00  0.00     0.014 C 
ATOM     75  C   UNL A   1      29.390  27.850  23.748  1.00  0.00     0.097 C 
ATOM     76  C   UNL A   1      30.812  25.934  23.370  1.00  0.00     0.047 C 
ATOM     77  C   UNL A   1      30.814  26.019  25.730  1.00  0.00     0.310 C 
ATOM     78  C   UNL A   1      29.442  26.311  23.937  1.00  0.00     0.194 C 
ATOM     79  O   UNL A   1      29.512  25.964  25.323  1.00  0.00    -0.461 OA
ATOM     80  O   UNL A   1      31.190  25.863  26.875  1.00  0.00    -0.252 OA
BRANCH  75  81
ATOM     81  S   UNL A   1      27.944  28.455  22.750  1.00  0.00    -0.119 SA
BRANCH  81  82
ATOM     82  C   UNL A   1      28.216  30.203  22.520  1.00  0.00     0.008 A 
ATOM     83  C   UNL A   1      28.030  30.760  21.249  1.00  0.00     0.015 A 
ATOM     84  C   UNL A   1      28.610  31.040  23.572  1.00  0.00     0.015 A 
ATOM     85  C   UNL A   1      28.160  32.139  21.052  1.00  0.00     0.001 A 
ATOM     86  C   UNL A   1      28.707  32.423  23.383  1.00  0.00     0.001 A 
ATOM     87  C   UNL A   1      28.475  32.972  22.124  1.00  0.00     0.000 A 
ENDBRANCH  81  82
ENDBRANCH  75  81
ENDBRANCH  68  71
ENDBRANCH  66  67
ENDBRANCH  65  66
ENDBRANCH  64  65
ENDBRANCH   1  64
TORSDOF 15
ENDMDL
MODEL 2
REMARK VINA RESULT:     -11.9      0.581      6.184
REMARK SMILES O=C(NCCCCCCNC(=O)[C@H]1[C@H]2C[C@@H]3[C@@H](OC(=O)[C@@H]31)[C@@H]2Sc1ccccc1)c1ccc(-c2c3nc(c(-c4c(F)cccc4F)c4ccc([nH]4)c(-c4c(F)cccc4F)c4nc(c(-c5c(F)cccc5F)c5ccc2[nH]5)C=C4)C=C3)cc1
REMARK SMILES IDX 6 1 5 2 4 3 3 4 1 5 2 6 30 8 31 9 83 10 32 11 82 12 33 13
REMARK SMILES IDX 34 14 35 15 76 16 36 17 81 18 75 19 77 20 37 21 80 22 74 23
REMARK SMILES IDX 73 24 38 26 64 27 47 28 63 29 48 30 51 31 62 32 78 33 49 34
REMARK SMILES IDX 50 35 61 37 79 38 52 39 39 40 40 41 45 42 41 43 42 44 44 45
REMARK SMILES IDX 46 46 43 47 65 48 66 49 71 50 67 51 68 52 70 53 72 54 69 55
REMARK SMILES IDX 53 56 54 57 59 58 55 59 56 60 58 61 60 62 57 63 7 64 8 65
REMARK SMILES IDX 9 66 10 67 11 68 12 70 13 71 14 72 21 73 15 74 22 75 16 76
REMARK SMILES IDX 19 77 17 78 18 79 20 80 23 81 24 82 25 83 29 84 26 85 28 86
REMARK SMILES IDX 27 87
REMARK H PARENT 3 7 77 25 51 36 10 69
REMARK Flexibility Score: inf
ROOT
ATOM      1  C   UNL A   1      31.408  30.912  26.485  1.00  0.00     0.002 C 
ENDROOT
BRANCH   1   2
ATOM      2  C   UNL A   1      31.406  32.443  26.505  1.00  0.00     0.021 C 
BRANCH   2   3
ATOM      3  C   UNL A   1      32.685  33.058  27.058  1.00  0.00     0.116 C 
BRANCH   3   4
ATOM      4  N   UNL A   1      32.447  34.374  27.627  1.00  0.00    -0.352 N 
ATOM      5  O   UNL A   1      32.527  35.965  29.228  1.00  0.00    -0.269 OA
ATOM      6  C   UNL A   1      32.998  34.939  28.749  1.00  0.00     0.251 C 
ATOM      7  H   UNL A   1      31.802  34.937  27.142  1.00  0.00     0.163 HD
BRANCH   6   8
ATOM      8  C   UNL A   1      34.164  34.290  29.378  1.00  0.00     0.039 A 
ATOM      9  C   UNL A   1      33.987  33.476  30.500  1.00  0.00     0.014 A 
ATOM     10  C   UNL A   1      35.437  34.494  28.844  1.00  0.00     0.014 A 
ATOM     11  C   UNL A   1      35.095  32.979  31.169  1.00  0.00     0.010 A 
ATOM     12  C   UNL A   1      36.544  33.907  29.460  1.00  0.00     0.010 A 
ATOM     13  C   UNL A   1      36.382  33.160  30.637  1.00  0.00    -0.014 A 
BRANCH  13  14
ATOM     14  C   UNL A   1      37.528  32.477  31.282  1.00  0.00     0.031 A 
ATOM     15  C   UNL A   1      38.227  31.325  30.621  1.00  0.00     0.074 A 
ATOM     16  C   UNL A   1      37.942  32.927  32.483  1.00  0.00     0.049 A 
ATOM     17  N   UNL A   1      39.241  30.621  31.056  1.00  0.00    -0.248 NA
ATOM     18  C   UNL A   1      37.721  30.901  29.307  1.00  0.00     0.031 C 
ATOM     19  C   UNL A   1      37.329  34.035  33.223  1.00  0.00     0.029 A 
ATOM     20  N   UNL A   1      38.976  32.526  33.286  1.00  0.00    -0.354 N 
ATOM     21  C   UNL A   1      39.485  29.662  30.081  1.00  0.00     0.074 A 
ATOM     22  C   UNL A   1      38.493  29.856  29.044  1.00  0.00     0.031 C 
ATOM     23  C   UNL A   1      38.024  34.252  34.347  1.00  0.00     0.029 A 
ATOM     24  C   UNL A   1      39.080  33.254  34.447  1.00  0.00     0.049 A 
ATOM     25  H   UNL A   1      39.585  31.789  33.055  1.00  0.00     0.167 HD
ATOM     26  C   UNL A   1      40.452  28.713  30.056  1.00  0.00     0.037 A 
ATOM     27  C   UNL A   1      39.915  33.116  35.492  1.00  0.00     0.037 A 
ATOM     28  C   UNL A   1      41.432  28.532  31.098  1.00  0.00     0.049 A 
ATOM     29  C   UNL A   1      40.944  32.025  35.457  1.00  0.00     0.074 A 
ATOM     30  C   UNL A   1      42.474  27.620  31.152  1.00  0.00     0.029 A 
ATOM     31  N   UNL A   1      41.485  29.265  32.275  1.00  0.00    -0.354 N 
ATOM     32  N   UNL A   1      41.190  31.153  34.510  1.00  0.00    -0.248 NA
ATOM     33  C   UNL A   1      41.808  31.898  36.637  1.00  0.00     0.031 C 
ATOM     34  C   UNL A   1      43.117  27.762  32.386  1.00  0.00     0.029 A 
ATOM     35  C   UNL A   1      42.521  28.807  33.074  1.00  0.00     0.049 A 
ATOM     36  H   UNL A   1      40.876  30.002  32.509  1.00  0.00     0.167 HD
ATOM     37  C   UNL A   1      42.253  30.387  34.968  1.00  0.00     0.074 A 
ATOM     38  C   UNL A   1      42.615  30.914  36.268  1.00  0.00     0.031 C 
ATOM     39  C   UNL A   1      42.871  29.342  34.366  1.00  0.00     0.037 A 
BRANCH  26  40
ATOM     40  C   UNL A   1      40.486  27.780  28.879  1.00  0.00     0.057 A 
ATOM     41  C   UNL A   1      41.314  28.007  27.771  1.00  0.00     0.134 A 
ATOM     42  C   UNL A   1      39.714  26.611  28.874  1.00  0.00     0.134 A 
ATOM     43  F   UNL A   1      42.073  29.112  27.704  1.00  0.00    -0.206 F 
ATOM     44  C   UNL A   1      41.354  27.120  26.693  1.00  0.00     0.040 A 
ATOM     45  C   UNL A   1      39.767  25.702  27.816  1.00  0.00     0.040 A 
ATOM     46  F   UNL A   1      38.904  26.324  29.905  1.00  0.00    -0.206 F 
ATOM     47  C   UNL A   1      40.585  25.959  26.717  1.00  0.00     0.006 A 
ENDBRANCH  26  40
BRANCH  27  48
ATOM     48  C   UNL A   1      39.795  34.026  36.660  1.00  0.00     0.057 A 
ATOM     49  C   UNL A   1      39.035  33.671  37.778  1.00  0.00     0.134 A 
ATOM     50  C   UNL A   1      40.442  35.267  36.685  1.00  0.00     0.134 A 
ATOM     51  F   UNL A   1      38.382  32.500  37.809  1.00  0.00    -0.206 F 
ATOM     52  C   UNL A   1      38.903  34.528  38.873  1.00  0.00     0.040 A 
ATOM     53  C   UNL A   1      40.347  36.120  37.786  1.00  0.00     0.040 A 
ATOM     54  F   UNL A   1      41.198  35.660  35.649  1.00  0.00    -0.206 F 
ATOM     55  C   UNL A   1      39.566  35.753  38.880  1.00  0.00     0.006 A 
ENDBRANCH  27  48
BRANCH  39  56
ATOM     56  C   UNL A   1      44.033  28.727  35.094  1.00  0.00     0.057 A 
ATOM     57  C   UNL A   1      43.863  27.695  36.026  1.00  0.00     0.134 A 
ATOM     58  C   UNL A   1      45.340  29.160  34.839  1.00  0.00     0.134 A 
ATOM     59  F   UNL A   1      42.635  27.245  36.327  1.00  0.00    -0.206 F 
ATOM     60  C   UNL A   1      44.950  27.136  36.699  1.00  0.00     0.040 A 
ATOM     61  C   UNL A   1      46.438  28.587  35.481  1.00  0.00     0.040 A 
ATOM     62  F   UNL A   1      45.573  30.140  33.953  1.00  0.00    -0.206 F 
ATOM     63  C   UNL A   1      46.243  27.576  36.421  1.00  0.00     0.006 A 
ENDBRANCH  39  56
ENDBRANCH  13  14
ENDBRANCH   6   8
ENDBRANCH   3   4
ENDBRANCH   2   3
ENDBRANCH   1   2
BRANCH   1  64
ATOM     64  C   UNL A   1      32.445  30.257  27.403  1.00  0.00     0.002 C 
BRANCH  64  65
ATOM     65  C   UNL A   1      32.832  28.832  27.012  1.00  0.00     0.021 C 
BRANCH  65  66
ATOM     66  C   UNL A   1      34.168  28.731  26.271  1.00  0.00     0.116 C 
BRANCH  66  67
ATOM     67  N   UNL A   1      33.995  28.891  24.837  1.00  0.00    -0.356 N 
ATOM     68  C   UNL A   1      33.003  28.627  23.951  1.00  0.00     0.224 C 
ATOM     69  H   UNL A   1      34.787  29.286  24.406  1.00  0.00     0.163 HD
ATOM     70  O   UNL A   1      33.257  28.889  22.768  1.00  0.00    -0.275 OA
BRANCH  68  71
ATOM     71  C   UNL A   1      31.654  27.985  24.281  1.00  0.00     0.097 C 
ATOM     72  C   UNL A   1      30.501  28.366  23.288  1.00  0.00     0.020 C 
ATOM     73  C   UNL A   1      31.610  26.453  24.290  1.00  0.00     0.119 C 
ATOM     74  C   UNL A   1      30.731  27.332  22.202  1.00  0.00     0.014 C 
ATOM     75  C   UNL A   1      29.149  27.886  23.898  1.00  0.00     0.097 C 
ATOM     76  C   UNL A   1      30.643  26.144  23.146  1.00  0.00     0.047 C 
ATOM     77  C   UNL A   1      30.868  25.929  25.485  1.00  0.00     0.310 C 
ATOM     78  C   UNL A   1      29.314  26.343  23.876  1.00  0.00     0.194 C 
ATOM     79  O   UNL A   1      29.539  25.830  25.191  1.00  0.00    -0.461 OA
ATOM     80  O   UNL A   1      31.363  25.658  26.563  1.00  0.00    -0.252 OA
BRANCH  75  81
ATOM     81  S   UNL A   1      27.579  28.504  23.120  1.00  0.00    -0.119 SA
BRANCH  81  82
ATOM     82  C   UNL A   1      27.924  30.175  22.599  1.00  0.00     0.008 A 
ATOM     83  C   UNL A   1      28.028  30.454  21.232  1.00  0.00     0.015 A 
ATOM     84  C   UNL A   1      28.097  31.220  23.517  1.00  0.00     0.015 A 
ATOM     85  C   UNL A   1      28.222  31.767  20.788  1.00  0.00     0.001 A 
ATOM     86  C   UNL A   1      28.257  32.537  23.072  1.00  0.00     0.001 A 
ATOM     87  C   UNL A   1      28.313  32.810  21.707  1.00  0.00     0.000 A 
ENDBRANCH  81  82
ENDBRANCH  75  81
ENDBRANCH  68  71
ENDBRANCH  66  67
ENDBRANCH  65  66
ENDBRANCH  64  65
ENDBRANCH   1  64
TORSDOF 15
ENDMDL
MODEL 3
REMARK VINA RESULT:     -11.9      2.879      7.711
REMARK SMILES O=C(NCCCCCCNC(=O)[C@H]1[C@H]2C[C@@H]3[C@@H](OC(=O)[C@@H]31)[C@@H]2Sc1ccccc1)c1ccc(-c2c3nc(c(-c4c(F)cccc4F)c4ccc([nH]4)c(-c4c(F)cccc4F)c4nc(c(-c5c(F)cccc5F)c5ccc2[nH]5)C=C4)C=C3)cc1
REMARK SMILES IDX 6 1 5 2 4 3 3 4 1 5 2 6 30 8 31 9 83 10 32 11 82 12 33 13
REMARK SMILES IDX 34 14 35 15 76 16 36 17 81 18 75 19 77 20 37 21 80 22 74 23
REMARK SMILES IDX 73 24 38 26 64 27 47 28 63 29 48 30 51 31 62 32 78 33 49 34
REMARK SMILES IDX 50 35 61 37 79 38 52 39 39 40 40 41 45 42 41 43 42 44 44 45
REMARK SMILES IDX 46 46 43 47 65 48 66 49 71 50 67 51 68 52 70 53 72 54 69 55
REMARK SMILES IDX 53 56 54 57 59 58 55 59 56 60 58 61 60 62 57 63 7 64 8 65
REMARK SMILES IDX 9 66 10 67 11 68 12 70 13 71 14 72 21 73 15 74 22 75 16 76
REMARK SMILES IDX 19 77 17 78 18 79 20 80 23 81 24 82 25 83 29 84 26 85 28 86
REMARK SMILES IDX 27 87
REMARK H PARENT 3 7 77 25 51 36 10 69
REMARK Flexibility Score: inf
ROOT
ATOM      1  C   UNL A   1      35.976  23.457  25.895  1.00  0.00     0.002 C 
ENDROOT
BRANCH   1   2
ATOM      2  C   UNL A   1      37.467  23.118  25.832  1.00  0.00     0.021 C 
BRANCH   2   3
ATOM      3  C   UNL A   1      38.369  24.165  26.473  1.00  0.00     0.116 C 
BRANCH   3   4
ATOM      4  N   UNL A   1      39.759  23.985  26.093  1.00  0.00    -0.352 N 
ATOM      5  O   UNL A   1      41.914  24.608  25.824  1.00  0.00    -0.269 OA
ATOM      6  C   UNL A   1      40.846  24.759  26.409  1.00  0.00     0.251 C 
ATOM      7  H   UNL A   1      39.948  23.199  25.530  1.00  0.00     0.163 HD
BRANCH   6   8
ATOM      8  C   UNL A   1      40.711  25.786  27.458  1.00  0.00     0.039 A 
ATOM      9  C   UNL A   1      39.821  25.589  28.517  1.00  0.00     0.014 A 
ATOM     10  C   UNL A   1      41.479  26.950  27.385  1.00  0.00     0.014 A 
ATOM     11  C   UNL A   1      39.596  26.612  29.425  1.00  0.00     0.010 A 
ATOM     12  C   UNL A   1      41.326  27.937  28.361  1.00  0.00     0.010 A 
ATOM     13  C   UNL A   1      40.371  27.782  29.377  1.00  0.00    -0.014 A 
BRANCH  13  14
ATOM     14  C   UNL A   1      40.225  28.785  30.459  1.00  0.00     0.031 A 
ATOM     15  C   UNL A   1      39.195  29.874  30.386  1.00  0.00     0.074 A 
ATOM     16  C   UNL A   1      41.038  28.687  31.529  1.00  0.00     0.049 A 
ATOM     17  N   UNL A   1      38.945  30.827  31.247  1.00  0.00    -0.248 NA
ATOM     18  C   UNL A   1      38.339  29.905  29.190  1.00  0.00     0.031 C 
ATOM     19  C   UNL A   1      42.085  27.674  31.701  1.00  0.00     0.029 A 
ATOM     20  N   UNL A   1      41.111  29.433  32.675  1.00  0.00    -0.354 N 
ATOM     21  C   UNL A   1      37.917  31.580  30.695  1.00  0.00     0.074 A 
ATOM     22  C   UNL A   1      37.610  30.990  29.408  1.00  0.00     0.031 C 
ATOM     23  C   UNL A   1      42.661  27.834  32.899  1.00  0.00     0.029 A 
ATOM     24  C   UNL A   1      42.084  29.004  33.545  1.00  0.00     0.049 A 
ATOM     25  H   UNL A   1      40.523  30.201  32.858  1.00  0.00     0.167 HD
ATOM     26  C   UNL A   1      37.288  32.660  31.218  1.00  0.00     0.037 A 
ATOM     27  C   UNL A   1      42.488  29.513  34.723  1.00  0.00     0.037 A 
ATOM     28  C   UNL A   1      37.607  33.237  32.501  1.00  0.00     0.049 A 
ATOM     29  C   UNL A   1      41.805  30.739  35.254  1.00  0.00     0.074 A 
ATOM     30  C   UNL A   1      37.006  34.311  33.135  1.00  0.00     0.029 A 
ATOM     31  N   UNL A   1      38.622  32.797  33.339  1.00  0.00    -0.354 N 
ATOM     32  N   UNL A   1      40.807  31.415  34.740  1.00  0.00    -0.248 NA
ATOM     33  C   UNL A   1      42.306  31.272  36.525  1.00  0.00     0.031 C 
ATOM     34  C   UNL A   1      37.696  34.558  34.326  1.00  0.00     0.029 A 
ATOM     35  C   UNL A   1      38.684  33.596  34.469  1.00  0.00     0.049 A 
ATOM     36  H   UNL A   1      39.211  32.030  33.157  1.00  0.00     0.167 HD
ATOM     37  C   UNL A   1      40.544  32.441  35.636  1.00  0.00     0.074 A 
ATOM     38  C   UNL A   1      41.475  32.282  36.735  1.00  0.00     0.031 C 
ATOM     39  C   UNL A   1      39.616  33.426  35.556  1.00  0.00     0.037 A 
BRANCH  26  40
ATOM     40  C   UNL A   1      36.208  33.307  30.397  1.00  0.00     0.057 A 
ATOM     41  C   UNL A   1      36.497  34.097  29.277  1.00  0.00     0.134 A 
ATOM     42  C   UNL A   1      34.857  33.097  30.704  1.00  0.00     0.134 A 
ATOM     43  F   UNL A   1      37.769  34.348  28.930  1.00  0.00    -0.206 F 
ATOM     44  C   UNL A   1      35.484  34.675  28.507  1.00  0.00     0.040 A 
ATOM     45  C   UNL A   1      33.836  33.645  29.926  1.00  0.00     0.040 A 
ATOM     46  F   UNL A   1      34.506  32.344  31.758  1.00  0.00    -0.206 F 
ATOM     47  C   UNL A   1      34.148  34.442  28.827  1.00  0.00     0.006 A 
ENDBRANCH  26  40
BRANCH  27  48
ATOM     48  C   UNL A   1      43.604  28.872  35.462  1.00  0.00     0.057 A 
ATOM     49  C   UNL A   1      43.364  27.874  36.413  1.00  0.00     0.134 A 
ATOM     50  C   UNL A   1      44.936  29.237  35.231  1.00  0.00     0.134 A 
ATOM     51  F   UNL A   1      42.109  27.489  36.687  1.00  0.00    -0.206 F 
ATOM     52  C   UNL A   1      44.407  27.278  37.124  1.00  0.00     0.040 A 
ATOM     53  C   UNL A   1      45.991  28.626  35.910  1.00  0.00     0.040 A 
ATOM     54  F   UNL A   1      45.234  30.178  34.323  1.00  0.00    -0.206 F 
ATOM     55  C   UNL A   1      45.725  27.650  36.868  1.00  0.00     0.006 A 
ENDBRANCH  27  48
BRANCH  39  56
ATOM     56  C   UNL A   1      39.537  34.383  36.710  1.00  0.00     0.057 A 
ATOM     57  C   UNL A   1      38.830  34.079  37.881  1.00  0.00     0.134 A 
ATOM     58  C   UNL A   1      40.197  35.617  36.656  1.00  0.00     0.134 A 
ATOM     59  F   UNL A   1      38.162  32.921  37.991  1.00  0.00    -0.206 F 
ATOM     60  C   UNL A   1      38.760  34.981  38.944  1.00  0.00     0.040 A 
ATOM     61  C   UNL A   1      40.162  36.513  37.725  1.00  0.00     0.040 A 
ATOM     62  F   UNL A   1      40.898  35.968  35.567  1.00  0.00    -0.206 F 
ATOM     63  C   UNL A   1      39.434  36.198  38.871  1.00  0.00     0.006 A 
ENDBRANCH  39  56
ENDBRANCH  13  14
ENDBRANCH   6   8
ENDBRANCH   3   4
ENDBRANCH   2   3
ENDBRANCH   1   2
BRANCH   1  64
ATOM     64  C   UNL A   1      35.075  22.316  26.381  1.00  0.00     0.002 C 
BRANCH  64  65
ATOM     65  C   UNL A   1      34.900  21.172  25.383  1.00  0.00     0.021 C 
BRANCH  65  66
ATOM     66  C   UNL A   1      33.583  21.219  24.607  1.00  0.00     0.116 C 
BRANCH  66  67
ATOM     67  N   UNL A   1      33.661  22.131  23.477  1.00  0.00    -0.356 N 
ATOM     68  C   UNL A   1      33.337  23.430  23.264  1.00  0.00     0.224 C 
ATOM     69  H   UNL A   1      34.040  21.703  22.676  1.00  0.00     0.163 HD
ATOM     70  O   UNL A   1      33.536  23.851  22.117  1.00  0.00    -0.275 OA
BRANCH  68  71
ATOM     71  C   UNL A   1      32.698  24.374  24.286  1.00  0.00     0.097 C 
ATOM     72  C   UNL A   1      32.353  25.795  23.719  1.00  0.00     0.020 C 
ATOM     73  C   UNL A   1      31.371  23.917  24.902  1.00  0.00     0.119 C 
ATOM     74  C   UNL A   1      30.988  25.519  23.117  1.00  0.00     0.014 C 
ATOM     75  C   UNL A   1      31.986  26.725  24.915  1.00  0.00     0.097 C 
ATOM     76  C   UNL A   1      30.393  24.983  24.407  1.00  0.00     0.047 C 
ATOM     77  C   UNL A   1      31.351  24.129  26.388  1.00  0.00     0.310 C 
ATOM     78  C   UNL A   1      30.673  26.081  25.434  1.00  0.00     0.194 C 
ATOM     79  O   UNL A   1      30.891  25.384  26.664  1.00  0.00    -0.461 OA
ATOM     80  O   UNL A   1      31.713  23.324  27.224  1.00  0.00    -0.252 OA
BRANCH  75  81
ATOM     81  S   UNL A   1      31.873  28.551  24.592  1.00  0.00    -0.119 SA
BRANCH  81  82
ATOM     82  C   UNL A   1      32.866  29.326  25.856  1.00  0.00     0.008 A 
ATOM     83  C   UNL A   1      34.097  28.756  26.199  1.00  0.00     0.015 A 
ATOM     84  C   UNL A   1      32.453  30.489  26.518  1.00  0.00     0.015 A 
ATOM     85  C   UNL A   1      34.934  29.380  27.131  1.00  0.00     0.001 A 
ATOM     86  C   UNL A   1      33.304  31.132  27.425  1.00  0.00     0.001 A 
ATOM     87  C   UNL A   1      34.547  30.580  27.725  1.00  0.00     0.000 A 
ENDBRANCH  81  82
ENDBRANCH  75  81
ENDBRANCH  68  71
ENDBRANCH  66  67
ENDBRANCH  65  66
ENDBRANCH  64  65
ENDBRANCH   1  64
TORSDOF 15
ENDMDL
