MODEL 1
REMARK VINA RESULT:      -9.4      0.000      0.000
REMARK SMILES O=C(NCCCCCCNC(=O)[C@@H]1CCC[N@@H+](Cc2ccc(F)cc2Cl)C1)c1ccc(-c2c3nc(c(-c4c(F)cccc4F)c4ccc([nH]4)c(-c4c(F)cccc4F)c4nc(c(-c5c(F)cccc5F)c5ccc2[nH]5)C=C4)C=C3)cc1
REMARK SMILES IDX 6 1 5 2 4 3 3 4 1 5 2 6 28 8 29 9 81 10 30 11 80 12 31 13
REMARK SMILES IDX 32 14 33 15 74 16 34 17 79 18 73 19 75 20 35 21 78 22 72 23
REMARK SMILES IDX 71 24 36 26 62 27 45 28 61 29 46 30 49 31 60 32 76 33 47 34
REMARK SMILES IDX 48 35 59 37 77 38 50 39 37 40 38 41 43 42 39 43 40 44 42 45
REMARK SMILES IDX 44 46 41 47 63 48 64 49 69 50 65 51 66 52 68 53 70 54 67 55
REMARK SMILES IDX 51 56 52 57 57 58 53 59 54 60 56 61 58 62 55 63 7 64 8 65
REMARK SMILES IDX 9 66 10 67 11 68 12 70 13 71 14 72 27 73 15 74 17 75 16 76
REMARK SMILES IDX 18 78 19 79 20 80 25 81 21 82 24 83 26 84 22 85 23 86
REMARK H PARENT 3 7 75 25 49 36 10 69 17 77
REMARK Flexibility Score: inf
ROOT
ATOM      1  C   UNL A   1      35.006  35.274  33.157  1.00  0.00     0.002 C 
ENDROOT
BRANCH   1   2
ATOM      2  C   UNL A   1      33.589  35.421  32.600  1.00  0.00     0.021 C 
BRANCH   2   3
ATOM      3  C   UNL A   1      33.483  36.174  31.283  1.00  0.00     0.116 C 
BRANCH   3   4
ATOM      4  N   UNL A   1      32.776  35.421  30.261  1.00  0.00    -0.352 N 
ATOM      5  O   UNL A   1      32.529  34.017  28.514  1.00  0.00    -0.269 OA
ATOM      6  C   UNL A   1      33.236  34.431  29.428  1.00  0.00     0.251 C 
ATOM      7  H   UNL A   1      31.826  35.653  30.151  1.00  0.00     0.163 HD
BRANCH   6   8
ATOM      8  C   UNL A   1      34.593  33.875  29.620  1.00  0.00     0.039 A 
ATOM      9  C   UNL A   1      35.686  34.424  28.947  1.00  0.00     0.014 A 
ATOM     10  C   UNL A   1      34.777  32.803  30.499  1.00  0.00     0.014 A 
ATOM     11  C   UNL A   1      36.930  33.812  29.039  1.00  0.00     0.010 A 
ATOM     12  C   UNL A   1      36.051  32.250  30.667  1.00  0.00     0.010 A 
ATOM     13  C   UNL A   1      37.133  32.735  29.919  1.00  0.00    -0.014 A 
BRANCH  13  14
ATOM     14  C   UNL A   1      38.510  32.205  30.084  1.00  0.00     0.031 A 
ATOM     15  C   UNL A   1      39.541  32.925  30.904  1.00  0.00     0.074 A 
ATOM     16  C   UNL A   1      38.799  31.012  29.525  1.00  0.00     0.049 A 
ATOM     17  N   UNL A   1      40.758  32.547  31.208  1.00  0.00    -0.248 NA
ATOM     18  C   UNL A   1      39.168  34.239  31.449  1.00  0.00     0.031 C 
ATOM     19  C   UNL A   1      37.885  30.237  28.681  1.00  0.00     0.029 A 
ATOM     20  N   UNL A   1      39.919  30.228  29.605  1.00  0.00    -0.354 N 
ATOM     21  C   UNL A   1      41.297  33.574  31.972  1.00  0.00     0.074 A 
ATOM     22  C   UNL A   1      40.287  34.607  32.058  1.00  0.00     0.031 C 
ATOM     23  C   UNL A   1      38.455  29.064  28.376  1.00  0.00     0.029 A 
ATOM     24  C   UNL A   1      39.795  29.028  28.948  1.00  0.00     0.049 A 
ATOM     25  H   UNL A   1      40.736  30.498  30.086  1.00  0.00     0.167 HD
ATOM     26  C   UNL A   1      42.518  33.640  32.555  1.00  0.00     0.037 A 
ATOM     27  C   UNL A   1      40.665  28.011  28.813  1.00  0.00     0.037 A 
ATOM     28  C   UNL A   1      43.519  32.605  32.467  1.00  0.00     0.049 A 
ATOM     29  C   UNL A   1      42.007  28.112  29.473  1.00  0.00     0.074 A 
ATOM     30  C   UNL A   1      44.785  32.576  33.027  1.00  0.00     0.029 A 
ATOM     31  N   UNL A   1      43.364  31.413  31.775  1.00  0.00    -0.354 N 
ATOM     32  N   UNL A   1      42.491  29.082  30.210  1.00  0.00    -0.248 NA
ATOM     33  C   UNL A   1      42.922  26.981  29.282  1.00  0.00     0.031 C 
ATOM     34  C   UNL A   1      45.409  31.384  32.645  1.00  0.00     0.029 A 
ATOM     35  C   UNL A   1      44.515  30.648  31.883  1.00  0.00     0.049 A 
ATOM     36  H   UNL A   1      42.556  31.149  31.278  1.00  0.00     0.167 HD
ATOM     37  C   UNL A   1      43.768  28.678  30.574  1.00  0.00     0.074 A 
ATOM     38  C   UNL A   1      43.966  27.359  30.006  1.00  0.00     0.031 C 
ATOM     39  C   UNL A   1      44.697  29.343  31.302  1.00  0.00     0.037 A 
BRANCH  26  40
ATOM     40  C   UNL A   1      42.849  34.876  33.342  1.00  0.00     0.057 A 
ATOM     41  C   UNL A   1      43.348  36.030  32.726  1.00  0.00     0.134 A 
ATOM     42  C   UNL A   1      42.613  34.932  34.723  1.00  0.00     0.134 A 
ATOM     43  F   UNL A   1      43.606  36.038  31.409  1.00  0.00    -0.206 F 
ATOM     44  C   UNL A   1      43.612  37.191  33.454  1.00  0.00     0.040 A 
ATOM     45  C   UNL A   1      42.853  36.094  35.458  1.00  0.00     0.040 A 
ATOM     46  F   UNL A   1      42.130  33.864  35.375  1.00  0.00    -0.206 F 
ATOM     47  C   UNL A   1      43.357  37.228  34.824  1.00  0.00     0.006 A 
ENDBRANCH  26  40
BRANCH  27  48
ATOM     48  C   UNL A   1      40.288  26.820  28.012  1.00  0.00     0.057 A 
ATOM     49  C   UNL A   1      39.448  25.829  28.529  1.00  0.00     0.134 A 
ATOM     50  C   UNL A   1      40.755  26.652  26.702  1.00  0.00     0.134 A 
ATOM     51  F   UNL A   1      38.982  25.925  29.783  1.00  0.00    -0.206 F 
ATOM     52  C   UNL A   1      39.099  24.703  27.780  1.00  0.00     0.040 A 
ATOM     53  C   UNL A   1      40.390  25.548  25.931  1.00  0.00     0.040 A 
ATOM     54  F   UNL A   1      41.555  27.574  26.144  1.00  0.00    -0.206 F 
ATOM     55  C   UNL A   1      39.566  24.566  26.474  1.00  0.00     0.006 A 
ENDBRANCH  27  48
BRANCH  39  56
ATOM     56  C   UNL A   1      46.003  28.640  31.525  1.00  0.00     0.057 A 
ATOM     57  C   UNL A   1      47.112  28.871  30.700  1.00  0.00     0.134 A 
ATOM     58  C   UNL A   1      46.152  27.723  32.572  1.00  0.00     0.134 A 
ATOM     59  F   UNL A   1      47.027  29.727  29.671  1.00  0.00    -0.206 F 
ATOM     60  C   UNL A   1      48.315  28.191  30.890  1.00  0.00     0.040 A 
ATOM     61  C   UNL A   1      47.358  27.055  32.788  1.00  0.00     0.040 A 
ATOM     62  F   UNL A   1      45.130  27.461  33.401  1.00  0.00    -0.206 F 
ATOM     63  C   UNL A   1      48.441  27.281  31.939  1.00  0.00     0.006 A 
ENDBRANCH  39  56
ENDBRANCH  13  14
ENDBRANCH   6   8
ENDBRANCH   3   4
ENDBRANCH   2   3
ENDBRANCH   1   2
BRANCH   1  64
ATOM     64  C   UNL A   1      35.185  34.260  34.293  1.00  0.00     0.002 C 
BRANCH  64  65
ATOM     65  C   UNL A   1      36.190  33.139  34.037  1.00  0.00     0.021 C 
BRANCH  65  66
ATOM     66  C   UNL A   1      37.507  33.266  34.787  1.00  0.00     0.116 C 
BRANCH  66  67
ATOM     67  N   UNL A   1      37.875  32.090  35.530  1.00  0.00    -0.356 N 
ATOM     68  C   UNL A   1      38.429  30.932  35.088  1.00  0.00     0.228 C 
ATOM     69  H   UNL A   1      37.702  32.131  36.498  1.00  0.00     0.163 HD
ATOM     70  O   UNL A   1      38.718  30.092  35.949  1.00  0.00    -0.275 OA
BRANCH  68  71
ATOM     71  C   UNL A   1      38.649  30.597  33.606  1.00  0.00     0.133 C 
ATOM     72  C   UNL A   1      37.551  29.827  32.862  1.00  0.00     0.025 C 
ATOM     73  C   UNL A   1      40.065  30.089  33.337  1.00  0.00     0.276 C 
ATOM     74  C   UNL A   1      37.834  28.357  32.536  1.00  0.00     0.062 C 
ATOM     75  N   UNL A   1      40.174  28.633  33.409  1.00  0.00    -0.330 N 
ATOM     76  C   UNL A   1      39.314  27.980  32.415  1.00  0.00     0.262 C 
ATOM     77  H   UNL A   1      39.818  28.346  34.321  1.00  0.00     0.348 HD
BRANCH  75  78
ATOM     78  C   UNL A   1      41.576  28.158  33.400  1.00  0.00     0.300 C 
BRANCH  78  79
ATOM     79  C   UNL A   1      42.070  27.544  34.697  1.00  0.00     0.025 A 
ATOM     80  C   UNL A   1      41.638  26.250  35.050  1.00  0.00     0.014 A 
ATOM     81  C   UNL A   1      42.869  28.255  35.615  1.00  0.00     0.052 A 
ATOM     82  C   UNL A   1      41.913  25.724  36.311  1.00  0.00     0.040 A 
ATOM     83  C   UNL A   1      43.155  27.719  36.872  1.00  0.00     0.060 A 
ATOM     84  Cl  UNL A   1      43.515  29.819  35.265  1.00  0.00    -0.084 Cl
ATOM     85  C   UNL A   1      42.656  26.472  37.214  1.00  0.00     0.124 A 
ATOM     86  F   UNL A   1      42.891  25.981  38.438  1.00  0.00    -0.207 F 
ENDBRANCH  78  79
ENDBRANCH  75  78
ENDBRANCH  68  71
ENDBRANCH  66  67
ENDBRANCH  65  66
ENDBRANCH  64  65
ENDBRANCH   1  64
TORSDOF 15
ENDMDL
MODEL 2
REMARK VINA RESULT:      -9.2      0.369      6.139
REMARK SMILES O=C(NCCCCCCNC(=O)[C@@H]1CCC[N@@H+](Cc2ccc(F)cc2Cl)C1)c1ccc(-c2c3nc(c(-c4c(F)cccc4F)c4ccc([nH]4)c(-c4c(F)cccc4F)c4nc(c(-c5c(F)cccc5F)c5ccc2[nH]5)C=C4)C=C3)cc1
REMARK SMILES IDX 6 1 5 2 4 3 3 4 1 5 2 6 28 8 29 9 81 10 30 11 80 12 31 13
REMARK SMILES IDX 32 14 33 15 74 16 34 17 79 18 73 19 75 20 35 21 78 22 72 23
REMARK SMILES IDX 71 24 36 26 62 27 45 28 61 29 46 30 49 31 60 32 76 33 47 34
REMARK SMILES IDX 48 35 59 37 77 38 50 39 37 40 38 41 43 42 39 43 40 44 42 45
REMARK SMILES IDX 44 46 41 47 63 48 64 49 69 50 65 51 66 52 68 53 70 54 67 55
REMARK SMILES IDX 51 56 52 57 57 58 53 59 54 60 56 61 58 62 55 63 7 64 8 65
REMARK SMILES IDX 9 66 10 67 11 68 12 70 13 71 14 72 27 73 15 74 17 75 16 76
REMARK SMILES IDX 18 78 19 79 20 80 25 81 21 82 24 83 26 84 22 85 23 86
REMARK H PARENT 3 7 75 25 49 36 10 69 17 77
REMARK Flexibility Score: inf
ROOT
ATOM      1  C   UNL A   1      34.948  35.333  33.018  1.00  0.00     0.002 C 
ENDROOT
BRANCH   1   2
ATOM      2  C   UNL A   1      33.610  35.126  32.307  1.00  0.00     0.021 C 
BRANCH   2   3
ATOM      3  C   UNL A   1      33.363  36.032  31.109  1.00  0.00     0.116 C 
BRANCH   3   4
ATOM      4  N   UNL A   1      32.721  35.340  30.005  1.00  0.00    -0.352 N 
ATOM      5  O   UNL A   1      32.582  34.028  28.176  1.00  0.00    -0.269 OA
ATOM      6  C   UNL A   1      33.228  34.387  29.156  1.00  0.00     0.251 C 
ATOM      7  H   UNL A   1      31.783  35.590  29.842  1.00  0.00     0.163 HD
BRANCH   6   8
ATOM      8  C   UNL A   1      34.563  33.805  29.411  1.00  0.00     0.039 A 
ATOM      9  C   UNL A   1      34.720  32.759  30.321  1.00  0.00     0.014 A 
ATOM     10  C   UNL A   1      35.671  34.300  28.715  1.00  0.00     0.014 A 
ATOM     11  C   UNL A   1      35.994  32.310  30.643  1.00  0.00     0.010 A 
ATOM     12  C   UNL A   1      36.944  33.778  28.969  1.00  0.00     0.010 A 
ATOM     13  C   UNL A   1      37.118  32.795  29.953  1.00  0.00    -0.014 A 
BRANCH  13  14
ATOM     14  C   UNL A   1      38.442  32.186  30.237  1.00  0.00     0.031 A 
ATOM     15  C   UNL A   1      38.852  30.871  29.638  1.00  0.00     0.074 A 
ATOM     16  C   UNL A   1      39.306  32.880  31.005  1.00  0.00     0.049 A 
ATOM     17  N   UNL A   1      40.003  30.253  29.725  1.00  0.00    -0.248 NA
ATOM     18  C   UNL A   1      37.844  30.152  28.845  1.00  0.00     0.031 C 
ATOM     19  C   UNL A   1      39.005  34.154  31.666  1.00  0.00     0.029 A 
ATOM     20  N   UNL A   1      40.614  32.638  31.335  1.00  0.00    -0.354 N 
ATOM     21  C   UNL A   1      39.859  29.073  29.007  1.00  0.00     0.074 A 
ATOM     22  C   UNL A   1      38.497  29.045  28.516  1.00  0.00     0.031 C 
ATOM     23  C   UNL A   1      40.112  34.611  32.266  1.00  0.00     0.029 A 
ATOM     24  C   UNL A   1      41.181  33.638  32.086  1.00  0.00     0.049 A 
ATOM     25  H   UNL A   1      41.099  31.826  31.060  1.00  0.00     0.167 HD
ATOM     26  C   UNL A   1      40.782  28.111  28.771  1.00  0.00     0.037 A 
ATOM     27  C   UNL A   1      42.426  33.758  32.584  1.00  0.00     0.037 A 
ATOM     28  C   UNL A   1      42.138  28.146  29.262  1.00  0.00     0.049 A 
ATOM     29  C   UNL A   1      43.426  32.677  32.303  1.00  0.00     0.074 A 
ATOM     30  C   UNL A   1      43.151  27.221  29.073  1.00  0.00     0.029 A 
ATOM     31  N   UNL A   1      42.671  29.165  30.038  1.00  0.00    -0.354 N 
ATOM     32  N   UNL A   1      43.278  31.579  31.602  1.00  0.00    -0.248 NA
ATOM     33  C   UNL A   1      44.764  32.851  32.881  1.00  0.00     0.031 C 
ATOM     34  C   UNL A   1      44.285  27.662  29.763  1.00  0.00     0.029 A 
ATOM     35  C   UNL A   1      43.993  28.886  30.345  1.00  0.00     0.049 A 
ATOM     36  H   UNL A   1      42.182  29.969  30.329  1.00  0.00     0.167 HD
ATOM     37  C   UNL A   1      44.504  30.931  31.653  1.00  0.00     0.074 A 
ATOM     38  C   UNL A   1      45.393  31.778  32.421  1.00  0.00     0.031 C 
ATOM     39  C   UNL A   1      44.859  29.737  31.120  1.00  0.00     0.037 A 
BRANCH  26  40
ATOM     40  C   UNL A   1      40.361  26.928  27.947  1.00  0.00     0.057 A 
ATOM     41  C   UNL A   1      40.799  26.756  26.628  1.00  0.00     0.134 A 
ATOM     42  C   UNL A   1      39.555  25.921  28.495  1.00  0.00     0.134 A 
ATOM     43  F   UNL A   1      41.565  27.689  26.040  1.00  0.00    -0.206 F 
ATOM     44  C   UNL A   1      40.442  25.633  25.879  1.00  0.00     0.040 A 
ATOM     45  C   UNL A   1      39.209  24.783  27.764  1.00  0.00     0.040 A 
ATOM     46  F   UNL A   1      39.106  26.019  29.755  1.00  0.00    -0.206 F 
ATOM     47  C   UNL A   1      39.651  24.638  26.450  1.00  0.00     0.006 A 
ENDBRANCH  26  40
BRANCH  27  48
ATOM     48  C   UNL A   1      42.781  34.942  33.403  1.00  0.00     0.057 A 
ATOM     49  C   UNL A   1      42.656  34.930  34.796  1.00  0.00     0.134 A 
ATOM     50  C   UNL A   1      43.264  36.115  32.809  1.00  0.00     0.134 A 
ATOM     51  F   UNL A   1      42.185  33.842  35.423  1.00  0.00    -0.206 F 
ATOM     52  C   UNL A   1      42.982  36.046  35.569  1.00  0.00     0.040 A 
ATOM     53  C   UNL A   1      43.622  37.228  33.570  1.00  0.00     0.040 A 
ATOM     54  F   UNL A   1      43.417  36.186  31.477  1.00  0.00    -0.206 F 
ATOM     55  C   UNL A   1      43.472  37.198  34.954  1.00  0.00     0.006 A 
ENDBRANCH  27  48
BRANCH  39  56
ATOM     56  C   UNL A   1      46.272  29.292  31.353  1.00  0.00     0.057 A 
ATOM     57  C   UNL A   1      47.316  29.692  30.508  1.00  0.00     0.134 A 
ATOM     58  C   UNL A   1      46.591  28.453  32.427  1.00  0.00     0.134 A 
ATOM     59  F   UNL A   1      47.072  30.483  29.452  1.00  0.00    -0.206 F 
ATOM     60  C   UNL A   1      48.624  29.249  30.708  1.00  0.00     0.040 A 
ATOM     61  C   UNL A   1      47.899  28.024  32.652  1.00  0.00     0.040 A 
ATOM     62  F   UNL A   1      45.637  28.039  33.275  1.00  0.00    -0.206 F 
ATOM     63  C   UNL A   1      48.918  28.414  31.784  1.00  0.00     0.006 A 
ENDBRANCH  39  56
ENDBRANCH  13  14
ENDBRANCH   6   8
ENDBRANCH   3   4
ENDBRANCH   2   3
ENDBRANCH   1   2
BRANCH   1  64
ATOM     64  C   UNL A   1      35.164  34.522  34.301  1.00  0.00     0.002 C 
BRANCH  64  65
ATOM     65  C   UNL A   1      35.930  33.211  34.143  1.00  0.00     0.021 C 
BRANCH  65  66
ATOM     66  C   UNL A   1      37.350  33.221  34.688  1.00  0.00     0.116 C 
BRANCH  66  67
ATOM     67  N   UNL A   1      37.697  32.047  35.444  1.00  0.00    -0.356 N 
ATOM     68  C   UNL A   1      38.254  30.883  35.019  1.00  0.00     0.228 C 
ATOM     69  H   UNL A   1      37.504  32.093  36.408  1.00  0.00     0.163 HD
ATOM     70  O   UNL A   1      38.521  30.046  35.891  1.00  0.00    -0.275 OA
BRANCH  68  71
ATOM     71  C   UNL A   1      38.502  30.540  33.544  1.00  0.00     0.133 C 
ATOM     72  C   UNL A   1      37.480  29.656  32.819  1.00  0.00     0.025 C 
ATOM     73  C   UNL A   1      39.958  30.161  33.280  1.00  0.00     0.276 C 
ATOM     74  C   UNL A   1      37.898  28.212  32.522  1.00  0.00     0.062 C 
ATOM     75  N   UNL A   1      40.203  28.723  33.381  1.00  0.00    -0.330 N 
ATOM     76  C   UNL A   1      39.406  27.973  32.404  1.00  0.00     0.262 C 
ATOM     77  H   UNL A   1      39.877  28.422  34.300  1.00  0.00     0.348 HD
BRANCH  75  78
ATOM     78  C   UNL A   1      41.643  28.380  33.378  1.00  0.00     0.300 C 
BRANCH  78  79
ATOM     79  C   UNL A   1      42.165  27.721  34.641  1.00  0.00     0.025 A 
ATOM     80  C   UNL A   1      41.670  26.454  35.008  1.00  0.00     0.014 A 
ATOM     81  C   UNL A   1      43.057  28.369  35.520  1.00  0.00     0.052 A 
ATOM     82  C   UNL A   1      41.978  25.897  36.248  1.00  0.00     0.040 A 
ATOM     83  C   UNL A   1      43.374  27.802  36.755  1.00  0.00     0.060 A 
ATOM     84  Cl  UNL A   1      43.783  29.892  35.147  1.00  0.00    -0.084 Cl
ATOM     85  C   UNL A   1      42.814  26.585  37.115  1.00  0.00     0.124 A 
ATOM     86  F   UNL A   1      43.082  26.067  38.320  1.00  0.00    -0.207 F 
ENDBRANCH  78  79
ENDBRANCH  75  78
ENDBRANCH  68  71
ENDBRANCH  66  67
ENDBRANCH  65  66
ENDBRANCH  64  65
ENDBRANCH   1  64
TORSDOF 15
ENDMDL
MODEL 3
REMARK VINA RESULT:      -9.1      5.298     10.316
REMARK SMILES O=C(NCCCCCCNC(=O)[C@@H]1CCC[N@@H+](Cc2ccc(F)cc2Cl)C1)c1ccc(-c2c3nc(c(-c4c(F)cccc4F)c4ccc([nH]4)c(-c4c(F)cccc4F)c4nc(c(-c5c(F)cccc5F)c5ccc2[nH]5)C=C4)C=C3)cc1
REMARK SMILES IDX 6 1 5 2 4 3 3 4 1 5 2 6 28 8 29 9 81 10 30 11 80 12 31 13
REMARK SMILES IDX 32 14 33 15 74 16 34 17 79 18 73 19 75 20 35 21 78 22 72 23
REMARK SMILES IDX 71 24 36 26 62 27 45 28 61 29 46 30 49 31 60 32 76 33 47 34
REMARK SMILES IDX 48 35 59 37 77 38 50 39 37 40 38 41 43 42 39 43 40 44 42 45
REMARK SMILES IDX 44 46 41 47 63 48 64 49 69 50 65 51 66 52 68 53 70 54 67 55
REMARK SMILES IDX 51 56 52 57 57 58 53 59 54 60 56 61 58 62 55 63 7 64 8 65
REMARK SMILES IDX 9 66 10 67 11 68 12 70 13 71 14 72 27 73 15 74 17 75 16 76
REMARK SMILES IDX 18 78 19 79 20 80 25 81 21 82 24 83 26 84 22 85 23 86
REMARK H PARENT 3 7 75 25 49 36 10 69 17 77
REMARK Flexibility Score: inf
ROOT
ATOM      1  C   UNL A   1      34.171  33.533  29.027  1.00  0.00     0.002 C 
ENDROOT
BRANCH   1   2
ATOM      2  C   UNL A   1      33.031  34.546  28.916  1.00  0.00     0.021 C 
BRANCH   2   3
ATOM      3  C   UNL A   1      33.351  35.942  29.430  1.00  0.00     0.116 C 
BRANCH   3   4
ATOM      4  N   UNL A   1      32.536  36.318  30.573  1.00  0.00    -0.352 N 
ATOM      5  O   UNL A   1      31.759  36.231  32.689  1.00  0.00    -0.269 OA
ATOM      6  C   UNL A   1      32.640  35.932  31.887  1.00  0.00     0.251 C 
ATOM      7  H   UNL A   1      31.802  36.944  30.377  1.00  0.00     0.163 HD
BRANCH   6   8
ATOM      8  C   UNL A   1      33.804  35.138  32.334  1.00  0.00     0.039 A 
ATOM      9  C   UNL A   1      35.084  35.695  32.340  1.00  0.00     0.014 A 
ATOM     10  C   UNL A   1      33.610  33.824  32.773  1.00  0.00     0.014 A 
ATOM     11  C   UNL A   1      36.181  34.899  32.641  1.00  0.00     0.010 A 
ATOM     12  C   UNL A   1      34.707  33.053  33.171  1.00  0.00     0.010 A 
ATOM     13  C   UNL A   1      36.004  33.577  33.085  1.00  0.00    -0.014 A 
BRANCH  13  14
ATOM     14  C   UNL A   1      37.198  32.812  33.525  1.00  0.00     0.031 A 
ATOM     15  C   UNL A   1      37.859  31.798  32.636  1.00  0.00     0.074 A 
ATOM     16  C   UNL A   1      37.721  33.098  34.734  1.00  0.00     0.049 A 
ATOM     17  N   UNL A   1      38.955  31.112  32.848  1.00  0.00    -0.248 NA
ATOM     18  C   UNL A   1      37.210  31.508  31.349  1.00  0.00     0.031 C 
ATOM     19  C   UNL A   1      37.145  34.043  35.696  1.00  0.00     0.029 A 
ATOM     20  N   UNL A   1      38.863  32.656  35.349  1.00  0.00    -0.354 N 
ATOM     21  C   UNL A   1      39.124  30.308  31.728  1.00  0.00     0.074 A 
ATOM     22  C   UNL A   1      38.000  30.566  30.853  1.00  0.00     0.031 C 
ATOM     23  C   UNL A   1      37.968  34.158  36.748  1.00  0.00     0.029 A 
ATOM     24  C   UNL A   1      39.094  33.252  36.565  1.00  0.00     0.049 A 
ATOM     25  H   UNL A   1      39.460  31.977  34.958  1.00  0.00     0.167 HD
ATOM     26  C   UNL A   1      40.130  29.443  31.454  1.00  0.00     0.037 A 
ATOM     27  C   UNL A   1      40.100  33.084  37.444  1.00  0.00     0.037 A 
ATOM     28  C   UNL A   1      41.248  29.193  32.331  1.00  0.00     0.049 A 
ATOM     29  C   UNL A   1      41.201  32.123  37.111  1.00  0.00     0.074 A 
ATOM     30  C   UNL A   1      42.321  28.338  32.141  1.00  0.00     0.029 A 
ATOM     31  N   UNL A   1      41.437  29.799  33.564  1.00  0.00    -0.354 N 
ATOM     32  N   UNL A   1      41.355  31.387  36.036  1.00  0.00    -0.248 NA
ATOM     33  C   UNL A   1      42.264  31.968  38.109  1.00  0.00     0.031 C 
ATOM     34  C   UNL A   1      43.141  28.402  33.273  1.00  0.00     0.029 A 
ATOM     35  C   UNL A   1      42.602  29.330  34.150  1.00  0.00     0.049 A 
ATOM     36  H   UNL A   1      40.832  30.465  33.965  1.00  0.00     0.167 HD
ATOM     37  C   UNL A   1      42.535  30.682  36.228  1.00  0.00     0.074 A 
ATOM     38  C   UNL A   1      43.073  31.108  37.505  1.00  0.00     0.031 C 
ATOM     39  C   UNL A   1      43.115  29.758  35.426  1.00  0.00     0.037 A 
BRANCH  26  40
ATOM     40  C   UNL A   1      40.073  28.696  30.153  1.00  0.00     0.057 A 
ATOM     41  C   UNL A   1      39.349  27.505  30.019  1.00  0.00     0.134 A 
ATOM     42  C   UNL A   1      40.700  29.202  29.006  1.00  0.00     0.134 A 
ATOM     43  F   UNL A   1      38.734  26.961  31.081  1.00  0.00    -0.206 F 
ATOM     44  C   UNL A   1      39.261  26.836  28.796  1.00  0.00     0.040 A 
ATOM     45  C   UNL A   1      40.601  28.555  27.773  1.00  0.00     0.040 A 
ATOM     46  F   UNL A   1      41.404  30.343  29.063  1.00  0.00    -0.206 F 
ATOM     47  C   UNL A   1      39.882  27.366  27.667  1.00  0.00     0.006 A 
ENDBRANCH  26  40
BRANCH  27  48
ATOM     48  C   UNL A   1      40.097  33.840  38.721  1.00  0.00     0.057 A 
ATOM     49  C   UNL A   1      40.800  35.040  38.859  1.00  0.00     0.134 A 
ATOM     50  C   UNL A   1      39.380  33.379  39.832  1.00  0.00     0.134 A 
ATOM     51  F   UNL A   1      41.519  35.525  37.836  1.00  0.00    -0.206 F 
ATOM     52  C   UNL A   1      40.805  35.749  40.062  1.00  0.00     0.040 A 
ATOM     53  C   UNL A   1      39.350  34.092  41.031  1.00  0.00     0.040 A 
ATOM     54  F   UNL A   1      38.675  32.239  39.759  1.00  0.00    -0.206 F 
ATOM     55  C   UNL A   1      40.073  35.276  41.150  1.00  0.00     0.006 A 
ENDBRANCH  27  48
BRANCH  39  56
ATOM     56  C   UNL A   1      44.401  29.158  35.913  1.00  0.00     0.057 A 
ATOM     57  C   UNL A   1      45.641  29.734  35.611  1.00  0.00     0.134 A 
ATOM     58  C   UNL A   1      44.397  27.993  36.689  1.00  0.00     0.134 A 
ATOM     59  F   UNL A   1      45.711  30.842  34.858  1.00  0.00    -0.206 F 
ATOM     60  C   UNL A   1      46.837  29.154  36.037  1.00  0.00     0.040 A 
ATOM     61  C   UNL A   1      45.585  27.417  37.143  1.00  0.00     0.040 A 
ATOM     62  F   UNL A   1      43.242  27.395  37.018  1.00  0.00    -0.206 F 
ATOM     63  C   UNL A   1      46.809  27.993  36.808  1.00  0.00     0.006 A 
ENDBRANCH  39  56
ENDBRANCH  13  14
ENDBRANCH   6   8
ENDBRANCH   3   4
ENDBRANCH   2   3
ENDBRANCH   1   2
BRANCH   1  64
ATOM     64  C   UNL A   1      34.179  32.407  27.986  1.00  0.00     0.002 C 
BRANCH  64  65
ATOM     65  C   UNL A   1      35.027  31.184  28.329  1.00  0.00     0.021 C 
BRANCH  65  66
ATOM     66  C   UNL A   1      34.597  29.888  27.659  1.00  0.00     0.116 C 
BRANCH  66  67
ATOM     67  N   UNL A   1      34.101  30.057  26.319  1.00  0.00    -0.356 N 
ATOM     68  C   UNL A   1      33.250  29.270  25.612  1.00  0.00     0.228 C 
ATOM     69  H   UNL A   1      34.425  30.857  25.847  1.00  0.00     0.163 HD
ATOM     70  O   UNL A   1      32.921  29.678  24.490  1.00  0.00    -0.275 OA
BRANCH  68  71
ATOM     71  C   UNL A   1      32.740  27.906  26.096  1.00  0.00     0.133 C 
ATOM     72  C   UNL A   1      33.634  26.677  25.889  1.00  0.00     0.025 C 
ATOM     73  C   UNL A   1      31.271  27.682  25.737  1.00  0.00     0.276 C 
ATOM     74  C   UNL A   1      33.210  25.688  24.798  1.00  0.00     0.062 C 
ATOM     75  N   UNL A   1      31.093  26.997  24.458  1.00  0.00    -0.330 N 
ATOM     76  C   UNL A   1      31.714  25.668  24.469  1.00  0.00     0.262 C 
ATOM     77  H   UNL A   1      31.594  27.537  23.751  1.00  0.00     0.348 HD
BRANCH  75  78
ATOM     78  C   UNL A   1      29.689  27.004  23.990  1.00  0.00     0.300 C 
BRANCH  78  79
ATOM     79  C   UNL A   1      29.297  28.171  23.103  1.00  0.00     0.025 A 
ATOM     80  C   UNL A   1      30.300  28.849  22.380  1.00  0.00     0.014 A 
ATOM     81  C   UNL A   1      27.980  28.670  23.046  1.00  0.00     0.052 A 
ATOM     82  C   UNL A   1      30.016  30.035  21.704  1.00  0.00     0.040 A 
ATOM     83  C   UNL A   1      27.697  29.851  22.356  1.00  0.00     0.060 A 
ATOM     84  Cl  UNL A   1      26.656  27.886  23.832  1.00  0.00    -0.084 Cl
ATOM     85  C   UNL A   1      28.720  30.531  21.713  1.00  0.00     0.124 A 
ATOM     86  F   UNL A   1      28.455  31.688  21.094  1.00  0.00    -0.207 F 
ENDBRANCH  78  79
ENDBRANCH  75  78
ENDBRANCH  68  71
ENDBRANCH  66  67
ENDBRANCH  65  66
ENDBRANCH  64  65
ENDBRANCH   1  64
TORSDOF 15
ENDMDL
