MODEL 1
REMARK VINA RESULT:     -12.2      0.000      0.000
REMARK SMILES CC1(C)S[C@H](c2ccc(-c3ccccc3)o2)[NH2+][C@H]1C(=O)NCCCCCCNC(=O)c1ccc(-c2c3nc(c(-c4c(F)cccc4F)c4ccc([nH]4)c(-c4c(F)cccc4F)c4nc(c(-c5c(F)cccc5F)c5ccc2[nH]5)C=C4)C=C3)cc1
REMARK SMILES IDX 24 1 23 2 22 3 21 4 19 5 20 6 18 8 1 9 2 10 3 11 4 12 5 13
REMARK SMILES IDX 17 14 6 17 7 18 16 19 8 20 9 21 10 22 11 23 15 24 12 25
REMARK SMILES IDX 14 26 13 27 25 28 26 29 27 30 28 31 29 32 30 34 31 35 32 36
REMARK SMILES IDX 84 37 33 38 83 39 34 40 35 41 36 42 77 43 37 44 82 45 76 46
REMARK SMILES IDX 78 47 38 48 81 49 75 50 74 51 39 53 65 54 48 55 64 56 49 57
REMARK SMILES IDX 52 58 63 59 79 60 50 61 51 62 62 64 80 65 53 66 40 67 41 68
REMARK SMILES IDX 46 69 42 70 43 71 45 72 47 73 44 74 66 75 67 76 72 77 68 78
REMARK SMILES IDX 69 79 71 80 73 81 70 82 54 83 55 84 60 85 56 86 57 87 59 88
REMARK SMILES IDX 61 89 58 90
REMARK H PARENT 21 7 17 15 17 16 28 33 78 52 52 63
REMARK Flexibility Score: inf
ROOT
ATOM      1  C   UNL A   1      32.127  29.746  27.202  1.00  0.00     0.002 C 
ENDROOT
BRANCH   1   2
ATOM      2  C   UNL A   1      33.639  29.536  27.115  1.00  0.00     0.021 C 
BRANCH   2   3
ATOM      3  C   UNL A   1      34.072  28.268  26.375  1.00  0.00     0.116 C 
BRANCH   3   4
ATOM      4  N   UNL A   1      34.098  28.477  24.939  1.00  0.00    -0.351 N 
ATOM      5  C   UNL A   1      33.655  27.757  23.871  1.00  0.00     0.279 C 
ATOM      6  O   UNL A   1      33.998  28.185  22.760  1.00  0.00    -0.268 OA
ATOM      7  H   UNL A   1      34.530  29.323  24.681  1.00  0.00     0.163 HD
BRANCH   5   8
ATOM      8  C   UNL A   1      32.827  26.455  23.965  1.00  0.00     0.289 C 
ATOM      9  C   UNL A   1      30.767  27.582  22.768  1.00  0.00     0.030 C 
ATOM     10  C   UNL A   1      31.299  26.646  23.851  1.00  0.00     0.078 C 
ATOM     11  C   UNL A   1      30.695  27.056  25.198  1.00  0.00     0.030 C 
ATOM     12  S   UNL A   1      30.702  24.979  23.412  1.00  0.00    -0.078 SA
ATOM     13  C   UNL A   1      32.347  24.313  23.037  1.00  0.00     0.311 C 
ATOM     14  N   UNL A   1      33.341  25.387  23.076  1.00  0.00    -0.317 N 
ATOM     15  H   UNL A   1      33.487  25.758  22.138  1.00  0.00     0.348 HD
ATOM     16  H   UNL A   1      34.231  25.032  23.427  1.00  0.00     0.348 HD
BRANCH  13  17
ATOM     17  C   UNL A   1      32.625  23.129  23.907  1.00  0.00     0.172 A 
ATOM     18  C   UNL A   1      32.736  23.039  25.283  1.00  0.00     0.054 A 
ATOM     19  O   UNL A   1      32.834  21.896  23.346  1.00  0.00    -0.454 OA
ATOM     20  C   UNL A   1      33.004  21.688  25.582  1.00  0.00     0.051 A 
ATOM     21  C   UNL A   1      33.046  21.020  24.376  1.00  0.00     0.134 A 
BRANCH  21  22
ATOM     22  C   UNL A   1      33.253  19.620  24.039  1.00  0.00     0.017 A 
ATOM     23  C   UNL A   1      32.450  18.970  23.095  1.00  0.00     0.012 A 
ATOM     24  C   UNL A   1      34.320  18.915  24.620  1.00  0.00     0.012 A 
ATOM     25  C   UNL A   1      32.723  17.649  22.725  1.00  0.00     0.001 A 
ATOM     26  C   UNL A   1      34.584  17.593  24.259  1.00  0.00     0.001 A 
ATOM     27  C   UNL A   1      33.790  16.963  23.305  1.00  0.00     0.000 A 
ENDBRANCH  21  22
ENDBRANCH  13  17
ENDBRANCH   5   8
ENDBRANCH   3   4
ENDBRANCH   2   3
ENDBRANCH   1   2
BRANCH   1  28
ATOM     28  C   UNL A   1      31.548  30.747  26.198  1.00  0.00     0.002 C 
BRANCH  28  29
ATOM     29  C   UNL A   1      31.381  32.179  26.712  1.00  0.00     0.021 C 
BRANCH  29  30
ATOM     30  C   UNL A   1      32.676  32.970  26.885  1.00  0.00     0.116 C 
BRANCH  30  31
ATOM     31  N   UNL A   1      32.489  34.173  27.673  1.00  0.00    -0.352 N 
ATOM     32  C   UNL A   1      33.154  34.600  28.792  1.00  0.00     0.251 C 
ATOM     33  H   UNL A   1      31.778  34.775  27.354  1.00  0.00     0.163 HD
ATOM     34  O   UNL A   1      32.739  35.569  29.418  1.00  0.00    -0.269 OA
BRANCH  32  35
ATOM     35  C   UNL A   1      34.366  33.891  29.261  1.00  0.00     0.039 A 
ATOM     36  C   UNL A   1      34.204  32.748  30.049  1.00  0.00     0.014 A 
ATOM     37  C   UNL A   1      35.649  34.372  28.980  1.00  0.00     0.014 A 
ATOM     38  C   UNL A   1      35.327  32.075  30.535  1.00  0.00     0.010 A 
ATOM     39  C   UNL A   1      36.770  33.662  29.411  1.00  0.00     0.010 A 
ATOM     40  C   UNL A   1      36.619  32.520  30.211  1.00  0.00    -0.014 A 
BRANCH  40  41
ATOM     41  C   UNL A   1      37.812  31.821  30.749  1.00  0.00     0.031 A 
ATOM     42  C   UNL A   1      38.308  32.130  32.135  1.00  0.00     0.074 A 
ATOM     43  C   UNL A   1      38.461  30.923  29.986  1.00  0.00     0.049 A 
ATOM     44  N   UNL A   1      39.324  31.618  32.784  1.00  0.00    -0.248 NA
ATOM     45  C   UNL A   1      37.581  33.168  32.883  1.00  0.00     0.031 C 
ATOM     46  C   UNL A   1      38.111  30.572  28.608  1.00  0.00     0.029 A 
ATOM     47  N   UNL A   1      39.551  30.137  30.262  1.00  0.00    -0.354 N 
ATOM     48  C   UNL A   1      39.364  32.279  34.006  1.00  0.00     0.074 A 
ATOM     49  C   UNL A   1      38.307  33.265  33.988  1.00  0.00     0.031 C 
ATOM     50  C   UNL A   1      38.952  29.620  28.170  1.00  0.00     0.029 A 
ATOM     51  C   UNL A   1      39.911  29.310  29.226  1.00  0.00     0.049 A 
ATOM     52  H   UNL A   1      40.031  30.163  31.122  1.00  0.00     0.167 HD
ATOM     53  C   UNL A   1      40.189  32.065  35.060  1.00  0.00     0.037 A 
ATOM     54  C   UNL A   1      40.897  28.397  29.143  1.00  0.00     0.037 A 
ATOM     55  C   UNL A   1      41.220  31.061  35.089  1.00  0.00     0.049 A 
ATOM     56  C   UNL A   1      41.783  28.161  30.334  1.00  0.00     0.074 A 
ATOM     57  C   UNL A   1      42.069  30.725  36.129  1.00  0.00     0.029 A 
ATOM     58  N   UNL A   1      41.540  30.229  34.027  1.00  0.00    -0.354 N 
ATOM     59  N   UNL A   1      41.764  28.743  31.508  1.00  0.00    -0.248 NA
ATOM     60  C   UNL A   1      42.819  27.128  30.191  1.00  0.00     0.031 C 
ATOM     61  C   UNL A   1      42.926  29.713  35.685  1.00  0.00     0.029 A 
ATOM     62  C   UNL A   1      42.584  29.391  34.381  1.00  0.00     0.049 A 
ATOM     63  H   UNL A   1      41.092  30.234  33.151  1.00  0.00     0.167 HD
ATOM     64  C   UNL A   1      42.767  28.135  32.251  1.00  0.00     0.074 A 
ATOM     65  C   UNL A   1      43.361  27.124  31.400  1.00  0.00     0.031 C 
ATOM     66  C   UNL A   1      43.163  28.391  33.522  1.00  0.00     0.037 A 
BRANCH  53  67
ATOM     67  C   UNL A   1      39.999  32.932  36.270  1.00  0.00     0.057 A 
ATOM     68  C   UNL A   1      39.077  32.603  37.274  1.00  0.00     0.134 A 
ATOM     69  C   UNL A   1      40.758  34.095  36.446  1.00  0.00     0.134 A 
ATOM     70  F   UNL A   1      38.310  31.509  37.161  1.00  0.00    -0.206 F 
ATOM     71  C   UNL A   1      38.898  33.416  38.396  1.00  0.00     0.040 A 
ATOM     72  C   UNL A   1      40.606  34.902  37.575  1.00  0.00     0.040 A 
ATOM     73  F   UNL A   1      41.660  34.465  35.525  1.00  0.00    -0.206 F 
ATOM     74  C   UNL A   1      39.668  34.566  38.551  1.00  0.00     0.006 A 
ENDBRANCH  53  67
BRANCH  54  75
ATOM     75  C   UNL A   1      41.074  27.608  27.899  1.00  0.00     0.057 A 
ATOM     76  C   UNL A   1      41.876  28.078  26.854  1.00  0.00     0.134 A 
ATOM     77  C   UNL A   1      40.440  26.372  27.722  1.00  0.00     0.134 A 
ATOM     78  F   UNL A   1      42.494  29.264  26.959  1.00  0.00    -0.206 F 
ATOM     79  C   UNL A   1      42.028  27.359  25.668  1.00  0.00     0.040 A 
ATOM     80  C   UNL A   1      40.601  25.632  26.550  1.00  0.00     0.040 A 
ATOM     81  F   UNL A   1      39.664  25.864  28.690  1.00  0.00    -0.206 F 
ATOM     82  C   UNL A   1      41.391  26.129  25.516  1.00  0.00     0.006 A 
ENDBRANCH  54  75
BRANCH  66  83
ATOM     83  C   UNL A   1      44.276  27.548  34.070  1.00  0.00     0.057 A 
ATOM     84  C   UNL A   1      45.610  27.974  34.036  1.00  0.00     0.134 A 
ATOM     85  C   UNL A   1      44.008  26.304  34.654  1.00  0.00     0.134 A 
ATOM     86  F   UNL A   1      45.934  29.151  33.477  1.00  0.00    -0.206 F 
ATOM     87  C   UNL A   1      46.641  27.179  34.538  1.00  0.00     0.040 A 
ATOM     88  C   UNL A   1      45.028  25.512  35.182  1.00  0.00     0.040 A 
ATOM     89  F   UNL A   1      42.751  25.841  34.726  1.00  0.00    -0.206 F 
ATOM     90  C   UNL A   1      46.351  25.946  35.118  1.00  0.00     0.006 A 
ENDBRANCH  66  83
ENDBRANCH  40  41
ENDBRANCH  32  35
ENDBRANCH  30  31
ENDBRANCH  29  30
ENDBRANCH  28  29
ENDBRANCH   1  28
TORSDOF 15
ENDMDL
MODEL 2
REMARK VINA RESULT:     -12.1      1.433      2.316
REMARK SMILES CC1(C)S[C@H](c2ccc(-c3ccccc3)o2)[NH2+][C@H]1C(=O)NCCCCCCNC(=O)c1ccc(-c2c3nc(c(-c4c(F)cccc4F)c4ccc([nH]4)c(-c4c(F)cccc4F)c4nc(c(-c5c(F)cccc5F)c5ccc2[nH]5)C=C4)C=C3)cc1
REMARK SMILES IDX 24 1 23 2 22 3 21 4 19 5 20 6 18 8 1 9 2 10 3 11 4 12 5 13
REMARK SMILES IDX 17 14 6 17 7 18 16 19 8 20 9 21 10 22 11 23 15 24 12 25
REMARK SMILES IDX 14 26 13 27 25 28 26 29 27 30 28 31 29 32 30 34 31 35 32 36
REMARK SMILES IDX 84 37 33 38 83 39 34 40 35 41 36 42 77 43 37 44 82 45 76 46
REMARK SMILES IDX 78 47 38 48 81 49 75 50 74 51 39 53 65 54 48 55 64 56 49 57
REMARK SMILES IDX 52 58 63 59 79 60 50 61 51 62 62 64 80 65 53 66 40 67 41 68
REMARK SMILES IDX 46 69 42 70 43 71 45 72 47 73 44 74 66 75 67 76 72 77 68 78
REMARK SMILES IDX 69 79 71 80 73 81 70 82 54 83 55 84 60 85 56 86 57 87 59 88
REMARK SMILES IDX 61 89 58 90
REMARK H PARENT 21 7 17 15 17 16 28 33 78 52 52 63
REMARK Flexibility Score: inf
ROOT
ATOM      1  C   UNL A   1      32.237  29.736  27.156  1.00  0.00     0.002 C 
ENDROOT
BRANCH   1   2
ATOM      2  C   UNL A   1      33.750  29.596  26.986  1.00  0.00     0.021 C 
BRANCH   2   3
ATOM      3  C   UNL A   1      34.199  28.355  26.213  1.00  0.00     0.116 C 
BRANCH   3   4
ATOM      4  N   UNL A   1      34.153  28.579  24.780  1.00  0.00    -0.351 N 
ATOM      5  C   UNL A   1      33.694  27.851  23.724  1.00  0.00     0.279 C 
ATOM      6  O   UNL A   1      33.968  28.304  22.604  1.00  0.00    -0.268 OA
ATOM      7  H   UNL A   1      34.536  29.445  24.513  1.00  0.00     0.163 HD
BRANCH   5   8
ATOM      8  C   UNL A   1      32.927  26.513  23.839  1.00  0.00     0.289 C 
ATOM      9  C   UNL A   1      30.803  27.535  22.659  1.00  0.00     0.030 C 
ATOM     10  C   UNL A   1      31.390  26.633  23.743  1.00  0.00     0.078 C 
ATOM     11  C   UNL A   1      30.785  27.028  25.094  1.00  0.00     0.030 C 
ATOM     12  S   UNL A   1      30.865  24.937  23.326  1.00  0.00    -0.078 SA
ATOM     13  C   UNL A   1      32.533  24.343  22.935  1.00  0.00     0.311 C 
ATOM     14  N   UNL A   1      33.477  25.461  22.953  1.00  0.00    -0.317 N 
ATOM     15  H   UNL A   1      33.595  25.830  22.009  1.00  0.00     0.348 HD
ATOM     16  H   UNL A   1      34.387  25.150  23.296  1.00  0.00     0.348 HD
BRANCH  13  17
ATOM     17  C   UNL A   1      32.875  23.181  23.812  1.00  0.00     0.172 A 
ATOM     18  C   UNL A   1      33.163  23.136  25.164  1.00  0.00     0.054 A 
ATOM     19  O   UNL A   1      32.959  21.919  23.281  1.00  0.00    -0.454 OA
ATOM     20  C   UNL A   1      33.413  21.787  25.483  1.00  0.00     0.051 A 
ATOM     21  C   UNL A   1      33.269  21.074  24.311  1.00  0.00     0.134 A 
BRANCH  21  22
ATOM     22  C   UNL A   1      33.373  19.654  24.010  1.00  0.00     0.017 A 
ATOM     23  C   UNL A   1      32.523  19.039  23.085  1.00  0.00     0.012 A 
ATOM     24  C   UNL A   1      34.388  18.889  24.607  1.00  0.00     0.012 A 
ATOM     25  C   UNL A   1      32.697  17.694  22.748  1.00  0.00     0.001 A 
ATOM     26  C   UNL A   1      34.556  17.543  24.280  1.00  0.00     0.001 A 
ATOM     27  C   UNL A   1      33.714  16.947  23.344  1.00  0.00     0.000 A 
ENDBRANCH  21  22
ENDBRANCH  13  17
ENDBRANCH   5   8
ENDBRANCH   3   4
ENDBRANCH   2   3
ENDBRANCH   1   2
BRANCH   1  28
ATOM     28  C   UNL A   1      31.566  30.751  26.225  1.00  0.00     0.002 C 
BRANCH  28  29
ATOM     29  C   UNL A   1      31.389  32.160  26.798  1.00  0.00     0.021 C 
BRANCH  29  30
ATOM     30  C   UNL A   1      32.681  32.933  27.052  1.00  0.00     0.116 C 
BRANCH  30  31
ATOM     31  N   UNL A   1      32.460  34.143  27.821  1.00  0.00    -0.352 N 
ATOM     32  C   UNL A   1      33.159  34.642  28.888  1.00  0.00     0.251 C 
ATOM     33  H   UNL A   1      31.693  34.688  27.531  1.00  0.00     0.163 HD
ATOM     34  O   UNL A   1      32.717  35.599  29.514  1.00  0.00    -0.269 OA
BRANCH  32  35
ATOM     35  C   UNL A   1      34.440  34.027  29.301  1.00  0.00     0.039 A 
ATOM     36  C   UNL A   1      35.597  34.362  28.592  1.00  0.00     0.014 A 
ATOM     37  C   UNL A   1      34.500  33.087  30.334  1.00  0.00     0.014 A 
ATOM     38  C   UNL A   1      36.816  33.774  28.935  1.00  0.00     0.010 A 
ATOM     39  C   UNL A   1      35.729  32.550  30.719  1.00  0.00     0.010 A 
ATOM     40  C   UNL A   1      36.894  32.871  30.008  1.00  0.00    -0.014 A 
BRANCH  40  41
ATOM     41  C   UNL A   1      38.184  32.226  30.356  1.00  0.00     0.031 A 
ATOM     42  C   UNL A   1      39.108  32.871  31.352  1.00  0.00     0.074 A 
ATOM     43  C   UNL A   1      38.533  31.068  29.764  1.00  0.00     0.049 A 
ATOM     44  N   UNL A   1      40.270  32.458  31.793  1.00  0.00    -0.248 NA
ATOM     45  C   UNL A   1      38.683  34.165  31.908  1.00  0.00     0.031 C 
ATOM     46  C   UNL A   1      37.749  30.367  28.746  1.00  0.00     0.029 A 
ATOM     47  N   UNL A   1      39.639  30.275  29.937  1.00  0.00    -0.354 N 
ATOM     48  C   UNL A   1      40.715  33.443  32.666  1.00  0.00     0.074 A 
ATOM     49  C   UNL A   1      39.728  34.499  32.650  1.00  0.00     0.031 C 
ATOM     50  C   UNL A   1      38.385  29.234  28.406  1.00  0.00     0.029 A 
ATOM     51  C   UNL A   1      39.628  29.139  29.165  1.00  0.00     0.049 A 
ATOM     52  H   UNL A   1      40.372  30.498  30.556  1.00  0.00     0.167 HD
ATOM     53  C   UNL A   1      41.833  33.455  33.433  1.00  0.00     0.037 A 
ATOM     54  C   UNL A   1      40.517  28.130  29.087  1.00  0.00     0.037 A 
ATOM     55  C   UNL A   1      42.799  32.389  33.472  1.00  0.00     0.049 A 
ATOM     56  C   UNL A   1      41.735  28.155  29.966  1.00  0.00     0.074 A 
ATOM     57  C   UNL A   1      43.932  32.278  34.258  1.00  0.00     0.029 A 
ATOM     58  N   UNL A   1      42.741  31.245  32.690  1.00  0.00    -0.354 N 
ATOM     59  N   UNL A   1      42.109  29.059  30.839  1.00  0.00    -0.248 NA
ATOM     60  C   UNL A   1      42.650  27.009  29.859  1.00  0.00     0.031 C 
ATOM     61  C   UNL A   1      44.580  31.083  33.927  1.00  0.00     0.029 A 
ATOM     62  C   UNL A   1      43.828  30.430  32.963  1.00  0.00     0.049 A 
ATOM     63  H   UNL A   1      42.034  31.043  32.036  1.00  0.00     0.167 HD
ATOM     64  C   UNL A   1      43.287  28.583  31.400  1.00  0.00     0.074 A 
ATOM     65  C   UNL A   1      43.554  27.300  30.782  1.00  0.00     0.031 C 
ATOM     66  C   UNL A   1      44.078  29.157  32.339  1.00  0.00     0.037 A 
BRANCH  53  67
ATOM     67  C   UNL A   1      42.061  34.660  34.298  1.00  0.00     0.057 A 
ATOM     68  C   UNL A   1      42.748  35.787  33.825  1.00  0.00     0.134 A 
ATOM     69  C   UNL A   1      41.572  34.704  35.609  1.00  0.00     0.134 A 
ATOM     70  F   UNL A   1      43.254  35.803  32.583  1.00  0.00    -0.206 F 
ATOM     71  C   UNL A   1      42.965  36.903  34.635  1.00  0.00     0.040 A 
ATOM     72  C   UNL A   1      41.760  35.825  36.420  1.00  0.00     0.040 A 
ATOM     73  F   UNL A   1      40.903  33.662  36.122  1.00  0.00    -0.206 F 
ATOM     74  C   UNL A   1      42.464  36.927  35.935  1.00  0.00     0.006 A 
ENDBRANCH  53  67
BRANCH  54  75
ATOM     75  C   UNL A   1      40.266  26.990  28.171  1.00  0.00     0.057 A 
ATOM     76  C   UNL A   1      39.499  25.893  28.579  1.00  0.00     0.134 A 
ATOM     77  C   UNL A   1      40.793  26.964  26.875  1.00  0.00     0.134 A 
ATOM     78  F   UNL A   1      38.983  25.854  29.817  1.00  0.00    -0.206 F 
ATOM     79  C   UNL A   1      39.279  24.802  27.738  1.00  0.00     0.040 A 
ATOM     80  C   UNL A   1      40.563  25.890  26.015  1.00  0.00     0.040 A 
ATOM     81  F   UNL A   1      41.530  27.989  26.423  1.00  0.00    -0.206 F 
ATOM     82  C   UNL A   1      39.809  24.801  26.449  1.00  0.00     0.006 A 
ENDBRANCH  54  75
BRANCH  66  83
ATOM     83  C   UNL A   1      45.292  28.387  32.768  1.00  0.00     0.057 A 
ATOM     84  C   UNL A   1      45.248  27.469  33.824  1.00  0.00     0.134 A 
ATOM     85  C   UNL A   1      46.514  28.555  32.104  1.00  0.00     0.134 A 
ATOM     86  F   UNL A   1      44.110  27.273  34.508  1.00  0.00    -0.206 F 
ATOM     87  C   UNL A   1      46.385  26.764  34.224  1.00  0.00     0.040 A 
ATOM     88  C   UNL A   1      47.651  27.837  32.479  1.00  0.00     0.040 A 
ATOM     89  F   UNL A   1      46.622  29.413  31.079  1.00  0.00    -0.206 F 
ATOM     90  C   UNL A   1      47.589  26.944  33.548  1.00  0.00     0.006 A 
ENDBRANCH  66  83
ENDBRANCH  40  41
ENDBRANCH  32  35
ENDBRANCH  30  31
ENDBRANCH  29  30
ENDBRANCH  28  29
ENDBRANCH   1  28
TORSDOF 15
ENDMDL
MODEL 3
REMARK VINA RESULT:     -12.0      1.083      2.276
REMARK SMILES CC1(C)S[C@H](c2ccc(-c3ccccc3)o2)[NH2+][C@H]1C(=O)NCCCCCCNC(=O)c1ccc(-c2c3nc(c(-c4c(F)cccc4F)c4ccc([nH]4)c(-c4c(F)cccc4F)c4nc(c(-c5c(F)cccc5F)c5ccc2[nH]5)C=C4)C=C3)cc1
REMARK SMILES IDX 24 1 23 2 22 3 21 4 19 5 20 6 18 8 1 9 2 10 3 11 4 12 5 13
REMARK SMILES IDX 17 14 6 17 7 18 16 19 8 20 9 21 10 22 11 23 15 24 12 25
REMARK SMILES IDX 14 26 13 27 25 28 26 29 27 30 28 31 29 32 30 34 31 35 32 36
REMARK SMILES IDX 84 37 33 38 83 39 34 40 35 41 36 42 77 43 37 44 82 45 76 46
REMARK SMILES IDX 78 47 38 48 81 49 75 50 74 51 39 53 65 54 48 55 64 56 49 57
REMARK SMILES IDX 52 58 63 59 79 60 50 61 51 62 62 64 80 65 53 66 40 67 41 68
REMARK SMILES IDX 46 69 42 70 43 71 45 72 47 73 44 74 66 75 67 76 72 77 68 78
REMARK SMILES IDX 69 79 71 80 73 81 70 82 54 83 55 84 60 85 56 86 57 87 59 88
REMARK SMILES IDX 61 89 58 90
REMARK H PARENT 21 7 17 15 17 16 28 33 78 52 52 63
REMARK Flexibility Score: inf
ROOT
ATOM      1  C   UNL A   1      32.365  29.904  27.231  1.00  0.00     0.002 C 
ENDROOT
BRANCH   1   2
ATOM      2  C   UNL A   1      33.853  29.790  26.891  1.00  0.00     0.021 C 
BRANCH   2   3
ATOM      3  C   UNL A   1      34.206  28.666  25.916  1.00  0.00     0.116 C 
BRANCH   3   4
ATOM      4  N   UNL A   1      33.809  28.998  24.560  1.00  0.00    -0.351 N 
ATOM      5  C   UNL A   1      33.202  28.305  23.557  1.00  0.00     0.279 C 
ATOM      6  O   UNL A   1      33.163  28.879  22.460  1.00  0.00    -0.268 OA
ATOM      7  H   UNL A   1      34.026  29.925  24.311  1.00  0.00     0.163 HD
BRANCH   5   8
ATOM      8  C   UNL A   1      32.629  26.875  23.691  1.00  0.00     0.289 C 
ATOM      9  C   UNL A   1      30.162  27.744  23.368  1.00  0.00     0.030 C 
ATOM     10  C   UNL A   1      31.135  26.805  24.077  1.00  0.00     0.078 C 
ATOM     11  C   UNL A   1      30.953  26.956  25.591  1.00  0.00     0.030 C 
ATOM     12  S   UNL A   1      30.656  25.116  23.583  1.00  0.00    -0.078 SA
ATOM     13  C   UNL A   1      32.163  24.794  22.626  1.00  0.00     0.311 C 
ATOM     14  N   UNL A   1      32.963  26.015  22.532  1.00  0.00    -0.317 N 
ATOM     15  H   UNL A   1      32.746  26.505  21.664  1.00  0.00     0.348 HD
ATOM     16  H   UNL A   1      33.958  25.786  22.536  1.00  0.00     0.348 HD
BRANCH  13  17
ATOM     17  C   UNL A   1      32.862  23.591  23.174  1.00  0.00     0.172 A 
ATOM     18  C   UNL A   1      32.454  22.270  23.229  1.00  0.00     0.054 A 
ATOM     19  O   UNL A   1      34.099  23.716  23.750  1.00  0.00    -0.454 OA
ATOM     20  C   UNL A   1      33.496  21.549  23.846  1.00  0.00     0.051 A 
ATOM     21  C   UNL A   1      34.486  22.462  24.139  1.00  0.00     0.134 A 
BRANCH  21  22
ATOM     22  C   UNL A   1      35.801  22.321  24.747  1.00  0.00     0.017 A 
ATOM     23  C   UNL A   1      36.502  21.112  24.698  1.00  0.00     0.012 A 
ATOM     24  C   UNL A   1      36.415  23.435  25.341  1.00  0.00     0.012 A 
ATOM     25  C   UNL A   1      37.799  21.024  25.213  1.00  0.00     0.001 A 
ATOM     26  C   UNL A   1      37.705  23.345  25.867  1.00  0.00     0.001 A 
ATOM     27  C   UNL A   1      38.400  22.141  25.795  1.00  0.00     0.000 A 
ENDBRANCH  21  22
ENDBRANCH  13  17
ENDBRANCH   5   8
ENDBRANCH   3   4
ENDBRANCH   2   3
ENDBRANCH   1   2
BRANCH   1  28
ATOM     28  C   UNL A   1      31.549  30.800  26.295  1.00  0.00     0.002 C 
BRANCH  28  29
ATOM     29  C   UNL A   1      31.375  32.251  26.752  1.00  0.00     0.021 C 
BRANCH  29  30
ATOM     30  C   UNL A   1      32.668  33.045  26.922  1.00  0.00     0.116 C 
BRANCH  30  31
ATOM     31  N   UNL A   1      32.483  34.238  27.726  1.00  0.00    -0.352 N 
ATOM     32  C   UNL A   1      33.150  34.649  28.850  1.00  0.00     0.251 C 
ATOM     33  H   UNL A   1      31.771  34.844  27.417  1.00  0.00     0.163 HD
ATOM     34  O   UNL A   1      32.737  35.610  29.489  1.00  0.00    -0.269 OA
BRANCH  32  35
ATOM     35  C   UNL A   1      34.363  33.934  29.307  1.00  0.00     0.039 A 
ATOM     36  C   UNL A   1      34.204  32.831  30.151  1.00  0.00     0.014 A 
ATOM     37  C   UNL A   1      35.644  34.372  28.960  1.00  0.00     0.014 A 
ATOM     38  C   UNL A   1      35.329  32.154  30.627  1.00  0.00     0.010 A 
ATOM     39  C   UNL A   1      36.764  33.656  29.382  1.00  0.00     0.010 A 
ATOM     40  C   UNL A   1      36.618  32.554  30.238  1.00  0.00    -0.014 A 
BRANCH  40  41
ATOM     41  C   UNL A   1      37.815  31.852  30.764  1.00  0.00     0.031 A 
ATOM     42  C   UNL A   1      38.324  32.158  32.146  1.00  0.00     0.074 A 
ATOM     43  C   UNL A   1      38.454  30.952  29.994  1.00  0.00     0.049 A 
ATOM     44  N   UNL A   1      39.345  31.644  32.785  1.00  0.00    -0.248 NA
ATOM     45  C   UNL A   1      37.606  33.197  32.902  1.00  0.00     0.031 C 
ATOM     46  C   UNL A   1      38.091  30.603  28.620  1.00  0.00     0.029 A 
ATOM     47  N   UNL A   1      39.545  30.164  30.260  1.00  0.00    -0.354 N 
ATOM     48  C   UNL A   1      39.397  32.303  34.008  1.00  0.00     0.074 A 
ATOM     49  C   UNL A   1      38.342  33.292  33.999  1.00  0.00     0.031 C 
ATOM     50  C   UNL A   1      38.926  29.650  28.174  1.00  0.00     0.029 A 
ATOM     51  C   UNL A   1      39.893  29.337  29.221  1.00  0.00     0.049 A 
ATOM     52  H   UNL A   1      40.033  30.188  31.115  1.00  0.00     0.167 HD
ATOM     53  C   UNL A   1      40.231  32.086  35.054  1.00  0.00     0.037 A 
ATOM     54  C   UNL A   1      40.877  28.422  29.127  1.00  0.00     0.037 A 
ATOM     55  C   UNL A   1      41.260  31.081  35.073  1.00  0.00     0.049 A 
ATOM     56  C   UNL A   1      41.772  28.182  30.310  1.00  0.00     0.074 A 
ATOM     57  C   UNL A   1      42.117  30.741  36.105  1.00  0.00     0.029 A 
ATOM     58  N   UNL A   1      41.568  30.248  34.007  1.00  0.00    -0.354 N 
ATOM     59  N   UNL A   1      41.766  28.764  31.485  1.00  0.00    -0.248 NA
ATOM     60  C   UNL A   1      42.805  27.147  30.158  1.00  0.00     0.031 C 
ATOM     61  C   UNL A   1      42.968  29.727  35.652  1.00  0.00     0.029 A 
ATOM     62  C   UNL A   1      42.614  29.407  34.351  1.00  0.00     0.049 A 
ATOM     63  H   UNL A   1      41.112  30.255  33.135  1.00  0.00     0.167 HD
ATOM     64  C   UNL A   1      42.774  28.153  32.218  1.00  0.00     0.074 A 
ATOM     65  C   UNL A   1      43.358  27.141  31.361  1.00  0.00     0.031 C 
ATOM     66  C   UNL A   1      43.182  28.407  33.486  1.00  0.00     0.037 A 
BRANCH  53  67
ATOM     67  C   UNL A   1      40.054  32.953  36.266  1.00  0.00     0.057 A 
ATOM     68  C   UNL A   1      40.797  34.127  36.448  1.00  0.00     0.134 A 
ATOM     69  C   UNL A   1      39.117  32.622  37.253  1.00  0.00     0.134 A 
ATOM     70  F   UNL A   1      41.721  34.494  35.547  1.00  0.00    -0.206 F 
ATOM     71  C   UNL A   1      40.634  34.927  37.581  1.00  0.00     0.040 A 
ATOM     72  C   UNL A   1      38.926  33.428  38.378  1.00  0.00     0.040 A 
ATOM     73  F   UNL A   1      38.370  31.514  37.139  1.00  0.00    -0.206 F 
ATOM     74  C   UNL A   1      39.692  34.581  38.547  1.00  0.00     0.006 A 
ENDBRANCH  53  67
BRANCH  54  75
ATOM     75  C   UNL A   1      41.040  27.633  27.881  1.00  0.00     0.057 A 
ATOM     76  C   UNL A   1      40.408  26.395  27.724  1.00  0.00     0.134 A 
ATOM     77  C   UNL A   1      41.836  28.091  26.825  1.00  0.00     0.134 A 
ATOM     78  F   UNL A   1      39.647  25.896  28.710  1.00  0.00    -0.206 F 
ATOM     79  C   UNL A   1      40.576  25.629  26.570  1.00  0.00     0.040 A 
ATOM     80  C   UNL A   1      41.995  27.347  25.656  1.00  0.00     0.040 A 
ATOM     81  F   UNL A   1      42.462  29.273  26.912  1.00  0.00    -0.206 F 
ATOM     82  C   UNL A   1      41.369  26.108  25.529  1.00  0.00     0.006 A 
ENDBRANCH  54  75
BRANCH  66  83
ATOM     83  C   UNL A   1      44.298  27.560  34.023  1.00  0.00     0.057 A 
ATOM     84  C   UNL A   1      44.057  26.327  34.640  1.00  0.00     0.134 A 
ATOM     85  C   UNL A   1      45.630  27.977  33.905  1.00  0.00     0.134 A 
ATOM     86  F   UNL A   1      42.801  25.878  34.796  1.00  0.00    -0.206 F 
ATOM     87  C   UNL A   1      45.099  25.549  35.148  1.00  0.00     0.040 A 
ATOM     88  C   UNL A   1      46.682  27.197  34.386  1.00  0.00     0.040 A 
ATOM     89  F   UNL A   1      45.930  29.145  33.317  1.00  0.00    -0.206 F 
ATOM     90  C   UNL A   1      46.417  25.982  35.017  1.00  0.00     0.006 A 
ENDBRANCH  66  83
ENDBRANCH  40  41
ENDBRANCH  32  35
ENDBRANCH  30  31
ENDBRANCH  29  30
ENDBRANCH  28  29
ENDBRANCH   1  28
TORSDOF 15
ENDMDL
