MODEL 1
REMARK VINA RESULT:      -8.6      0.000      0.000
REMARK SMILES C=CCCCOC(F)(F)C(=O)NCCCCCCNC(=O)c1ccc(-c2c3nc(c(-c4c(F)cccc4F)c4ccc([nH]4)c(-c4c(F)cccc4F)c4nc(c(-c5c(F)cccc5F)c5ccc2[nH]5)C=C4)C=C3)cc1
REMARK SMILES IDX 14 1 13 2 12 3 10 4 11 5 7 7 8 8 9 9 6 10 5 11 4 12 3 13
REMARK SMILES IDX 2 14 1 15 15 16 16 17 17 18 18 19 19 20 20 21 21 23 22 24
REMARK SMILES IDX 23 25 75 26 24 27 74 28 25 29 26 30 27 31 68 32 28 33 73 34
REMARK SMILES IDX 67 35 69 36 29 37 72 38 66 39 65 40 30 42 56 43 39 44 55 45
REMARK SMILES IDX 40 46 43 47 54 48 70 49 41 50 42 51 53 53 71 54 44 55 31 56
REMARK SMILES IDX 32 57 37 58 33 59 34 60 36 61 38 62 35 63 57 64 58 65 63 66
REMARK SMILES IDX 59 67 60 68 62 69 64 70 61 71 45 72 46 73 51 74 47 75 48 76
REMARK SMILES IDX 50 77 52 78 49 79
REMARK H PARENT 12 6 19 22 69 41 43 52
REMARK Flexibility Score: inf
ROOT
ATOM      1  C   UNL A   1      45.547  21.882  25.187  1.00  0.00     0.021 C 
ENDROOT
BRANCH   1   2
ATOM      2  C   UNL A   1      45.758  23.197  24.444  1.00  0.00     0.116 C 
BRANCH   2   3
ATOM      3  N   UNL A   1      44.683  24.151  24.676  1.00  0.00    -0.349 N 
ATOM      4  C   UNL A   1      44.819  25.476  25.067  1.00  0.00     0.320 C 
ATOM      5  O   UNL A   1      43.806  26.167  25.192  1.00  0.00    -0.265 OA
ATOM      6  H   UNL A   1      43.764  23.823  24.542  1.00  0.00     0.163 HD
BRANCH   4   7
ATOM      7  C   UNL A   1      46.283  25.981  25.321  1.00  0.00     0.436 C 
ATOM      8  F   UNL A   1      46.935  25.034  26.060  1.00  0.00    -0.165 F 
ATOM      9  F   UNL A   1      46.197  27.099  26.099  1.00  0.00    -0.165 F 
BRANCH   7  10
ATOM     10  O   UNL A   1      47.129  26.326  24.255  1.00  0.00    -0.313 OA
BRANCH  10  11
ATOM     11  C   UNL A   1      47.840  27.549  24.459  1.00  0.00     0.168 C 
BRANCH  11  12
ATOM     12  C   UNL A   1      49.375  27.446  24.492  1.00  0.00     0.033 C 
BRANCH  12  13
ATOM     13  C   UNL A   1      50.045  26.113  24.882  1.00  0.00     0.029 C 
BRANCH  13  14
ATOM     14  C   UNL A   1      51.428  26.184  25.463  1.00  0.00    -0.035 C 
ATOM     15  C   UNL A   1      52.065  25.122  25.975  1.00  0.00     0.004 C 
ENDBRANCH  13  14
ENDBRANCH  12  13
ENDBRANCH  11  12
ENDBRANCH  10  11
ENDBRANCH   7  10
ENDBRANCH   4   7
ENDBRANCH   2   3
ENDBRANCH   1   2
BRANCH   1  16
ATOM     16  C   UNL A   1      46.443  20.742  24.702  1.00  0.00     0.002 C 
BRANCH  16  17
ATOM     17  C   UNL A   1      45.985  19.341  25.119  1.00  0.00     0.002 C 
BRANCH  17  18
ATOM     18  C   UNL A   1      44.516  19.025  24.825  1.00  0.00     0.021 C 
BRANCH  18  19
ATOM     19  C   UNL A   1      43.676  18.713  26.057  1.00  0.00     0.116 C 
BRANCH  19  20
ATOM     20  N   UNL A   1      42.261  18.604  25.742  1.00  0.00    -0.352 N 
ATOM     21  C   UNL A   1      41.235  19.468  26.026  1.00  0.00     0.251 C 
ATOM     22  H   UNL A   1      42.001  17.790  25.253  1.00  0.00     0.163 HD
ATOM     23  O   UNL A   1      40.072  19.122  25.849  1.00  0.00    -0.269 OA
BRANCH  21  24
ATOM     24  C   UNL A   1      41.528  20.816  26.559  1.00  0.00     0.039 A 
ATOM     25  C   UNL A   1      41.498  21.017  27.941  1.00  0.00     0.014 A 
ATOM     26  C   UNL A   1      41.804  21.884  25.700  1.00  0.00     0.014 A 
ATOM     27  C   UNL A   1      41.781  22.280  28.464  1.00  0.00     0.010 A 
ATOM     28  C   UNL A   1      42.168  23.120  26.225  1.00  0.00     0.010 A 
ATOM     29  C   UNL A   1      42.139  23.337  27.611  1.00  0.00    -0.014 A 
BRANCH  29  30
ATOM     30  C   UNL A   1      42.441  24.689  28.146  1.00  0.00     0.031 A 
ATOM     31  C   UNL A   1      43.844  25.030  28.573  1.00  0.00     0.074 A 
ATOM     32  C   UNL A   1      41.452  25.591  28.293  1.00  0.00     0.049 A 
ATOM     33  N   UNL A   1      44.300  26.130  29.115  1.00  0.00    -0.248 NA
ATOM     34  C   UNL A   1      44.862  23.983  28.393  1.00  0.00     0.031 C 
ATOM     35  C   UNL A   1      40.045  25.369  27.956  1.00  0.00     0.029 A 
ATOM     36  N   UNL A   1      41.481  26.876  28.773  1.00  0.00    -0.354 N 
ATOM     37  C   UNL A   1      45.650  25.902  29.352  1.00  0.00     0.074 A 
ATOM     38  C   UNL A   1      45.925  24.538  28.957  1.00  0.00     0.031 C 
ATOM     39  C   UNL A   1      39.350  26.489  28.212  1.00  0.00     0.029 A 
ATOM     40  C   UNL A   1      40.254  27.494  28.766  1.00  0.00     0.049 A 
ATOM     41  H   UNL A   1      42.303  27.314  29.091  1.00  0.00     0.167 HD
ATOM     42  C   UNL A   1      46.585  26.758  29.831  1.00  0.00     0.037 A 
ATOM     43  C   UNL A   1      39.900  28.730  29.163  1.00  0.00     0.037 A 
ATOM     44  C   UNL A   1      46.314  28.122  30.204  1.00  0.00     0.049 A 
ATOM     45  C   UNL A   1      40.954  29.661  29.696  1.00  0.00     0.074 A 
ATOM     46  C   UNL A   1      47.198  29.083  30.661  1.00  0.00     0.029 A 
ATOM     47  N   UNL A   1      45.062  28.716  30.162  1.00  0.00    -0.354 N 
ATOM     48  N   UNL A   1      42.238  29.451  29.863  1.00  0.00    -0.248 NA
ATOM     49  C   UNL A   1      40.511  31.008  30.082  1.00  0.00     0.031 C 
ATOM     50  C   UNL A   1      46.473  30.247  30.938  1.00  0.00     0.029 A 
ATOM     51  C   UNL A   1      45.148  30.028  30.598  1.00  0.00     0.049 A 
ATOM     52  H   UNL A   1      44.235  28.272  29.867  1.00  0.00     0.167 HD
ATOM     53  C   UNL A   1      42.762  30.650  30.332  1.00  0.00     0.074 A 
ATOM     54  C   UNL A   1      41.658  31.583  30.415  1.00  0.00     0.031 C 
ATOM     55  C   UNL A   1      44.043  30.952  30.658  1.00  0.00     0.037 A 
BRANCH  42  56
ATOM     56  C   UNL A   1      47.987  26.238  29.975  1.00  0.00     0.057 A 
ATOM     57  C   UNL A   1      48.908  26.288  28.918  1.00  0.00     0.134 A 
ATOM     58  C   UNL A   1      48.430  25.695  31.187  1.00  0.00     0.134 A 
ATOM     59  F   UNL A   1      48.548  26.783  27.724  1.00  0.00    -0.206 F 
ATOM     60  C   UNL A   1      50.204  25.786  29.052  1.00  0.00     0.040 A 
ATOM     61  C   UNL A   1      49.734  25.219  31.344  1.00  0.00     0.040 A 
ATOM     62  F   UNL A   1      47.605  25.620  32.242  1.00  0.00    -0.206 F 
ATOM     63  C   UNL A   1      50.622  25.256  30.271  1.00  0.00     0.006 A 
ENDBRANCH  42  56
BRANCH  43  64
ATOM     64  C   UNL A   1      38.488  29.177  29.039  1.00  0.00     0.057 A 
ATOM     65  C   UNL A   1      37.991  29.667  27.825  1.00  0.00     0.134 A 
ATOM     66  C   UNL A   1      37.608  29.139  30.126  1.00  0.00     0.134 A 
ATOM     67  F   UNL A   1      38.790  29.744  26.750  1.00  0.00    -0.206 F 
ATOM     68  C   UNL A   1      36.679  30.127  27.703  1.00  0.00     0.040 A 
ATOM     69  C   UNL A   1      36.286  29.570  30.012  1.00  0.00     0.040 A 
ATOM     70  F   UNL A   1      38.019  28.671  31.314  1.00  0.00    -0.206 F 
ATOM     71  C   UNL A   1      35.821  30.076  28.799  1.00  0.00     0.006 A 
ENDBRANCH  43  64
BRANCH  55  72
ATOM     72  C   UNL A   1      44.332  32.366  31.071  1.00  0.00     0.057 A 
ATOM     73  C   UNL A   1      44.652  33.368  30.144  1.00  0.00     0.134 A 
ATOM     74  C   UNL A   1      44.264  32.736  32.422  1.00  0.00     0.134 A 
ATOM     75  F   UNL A   1      44.745  33.080  28.837  1.00  0.00    -0.206 F 
ATOM     76  C   UNL A   1      44.928  34.675  30.549  1.00  0.00     0.040 A 
ATOM     77  C   UNL A   1      44.506  34.046  32.835  1.00  0.00     0.040 A 
ATOM     78  F   UNL A   1      43.951  31.830  33.361  1.00  0.00    -0.206 F 
ATOM     79  C   UNL A   1      44.849  35.018  31.898  1.00  0.00     0.006 A 
ENDBRANCH  55  72
ENDBRANCH  29  30
ENDBRANCH  21  24
ENDBRANCH  19  20
ENDBRANCH  18  19
ENDBRANCH  17  18
ENDBRANCH  16  17
ENDBRANCH   1  16
TORSDOF 18
ENDMDL
MODEL 2
REMARK VINA RESULT:      -8.2      0.549      6.571
REMARK SMILES C=CCCCOC(F)(F)C(=O)NCCCCCCNC(=O)c1ccc(-c2c3nc(c(-c4c(F)cccc4F)c4ccc([nH]4)c(-c4c(F)cccc4F)c4nc(c(-c5c(F)cccc5F)c5ccc2[nH]5)C=C4)C=C3)cc1
REMARK SMILES IDX 14 1 13 2 12 3 10 4 11 5 7 7 8 8 9 9 6 10 5 11 4 12 3 13
REMARK SMILES IDX 2 14 1 15 15 16 16 17 17 18 18 19 19 20 20 21 21 23 22 24
REMARK SMILES IDX 23 25 75 26 24 27 74 28 25 29 26 30 27 31 68 32 28 33 73 34
REMARK SMILES IDX 67 35 69 36 29 37 72 38 66 39 65 40 30 42 56 43 39 44 55 45
REMARK SMILES IDX 40 46 43 47 54 48 70 49 41 50 42 51 53 53 71 54 44 55 31 56
REMARK SMILES IDX 32 57 37 58 33 59 34 60 36 61 38 62 35 63 57 64 58 65 63 66
REMARK SMILES IDX 59 67 60 68 62 69 64 70 61 71 45 72 46 73 51 74 47 75 48 76
REMARK SMILES IDX 50 77 52 78 49 79
REMARK H PARENT 12 6 19 22 69 41 43 52
REMARK Flexibility Score: inf
ROOT
ATOM      1  C   UNL A   1      45.547  21.826  25.072  1.00  0.00     0.021 C 
ENDROOT
BRANCH   1   2
ATOM      2  C   UNL A   1      45.825  23.101  24.282  1.00  0.00     0.116 C 
BRANCH   2   3
ATOM      3  N   UNL A   1      44.945  24.199  24.660  1.00  0.00    -0.349 N 
ATOM      4  C   UNL A   1      45.327  25.490  24.998  1.00  0.00     0.320 C 
ATOM      5  O   UNL A   1      44.454  26.317  25.266  1.00  0.00    -0.265 OA
ATOM      6  H   UNL A   1      43.980  24.005  24.679  1.00  0.00     0.163 HD
BRANCH   4   7
ATOM      7  C   UNL A   1      46.869  25.781  25.010  1.00  0.00     0.436 C 
ATOM      8  F   UNL A   1      47.498  24.707  25.576  1.00  0.00    -0.165 F 
ATOM      9  F   UNL A   1      47.075  26.843  25.841  1.00  0.00    -0.165 F 
BRANCH   7  10
ATOM     10  O   UNL A   1      47.560  26.086  23.827  1.00  0.00    -0.313 OA
BRANCH  10  11
ATOM     11  C   UNL A   1      48.323  27.293  23.902  1.00  0.00     0.168 C 
BRANCH  11  12
ATOM     12  C   UNL A   1      49.853  27.136  23.852  1.00  0.00     0.033 C 
BRANCH  12  13
ATOM     13  C   UNL A   1      50.576  26.334  24.953  1.00  0.00     0.029 C 
BRANCH  13  14
ATOM     14  C   UNL A   1      51.964  26.775  25.323  1.00  0.00    -0.035 C 
ATOM     15  C   UNL A   1      52.246  27.999  25.790  1.00  0.00     0.004 C 
ENDBRANCH  13  14
ENDBRANCH  12  13
ENDBRANCH  11  12
ENDBRANCH  10  11
ENDBRANCH   7  10
ENDBRANCH   4   7
ENDBRANCH   2   3
ENDBRANCH   1   2
BRANCH   1  16
ATOM     16  C   UNL A   1      46.403  20.632  24.649  1.00  0.00     0.002 C 
BRANCH  16  17
ATOM     17  C   UNL A   1      45.850  19.265  25.062  1.00  0.00     0.002 C 
BRANCH  17  18
ATOM     18  C   UNL A   1      44.354  19.067  24.804  1.00  0.00     0.021 C 
BRANCH  18  19
ATOM     19  C   UNL A   1      43.550  18.648  26.028  1.00  0.00     0.116 C 
BRANCH  19  20
ATOM     20  N   UNL A   1      42.121  18.619  25.762  1.00  0.00    -0.352 N 
ATOM     21  C   UNL A   1      41.155  19.536  26.086  1.00  0.00     0.251 C 
ATOM     22  H   UNL A   1      41.800  17.825  25.277  1.00  0.00     0.163 HD
ATOM     23  O   UNL A   1      39.969  19.255  25.947  1.00  0.00    -0.269 OA
BRANCH  21  24
ATOM     24  C   UNL A   1      41.540  20.861  26.616  1.00  0.00     0.039 A 
ATOM     25  C   UNL A   1      41.554  21.057  28.000  1.00  0.00     0.014 A 
ATOM     26  C   UNL A   1      41.858  21.915  25.756  1.00  0.00     0.014 A 
ATOM     27  C   UNL A   1      41.924  22.298  28.520  1.00  0.00     0.010 A 
ATOM     28  C   UNL A   1      42.307  23.125  26.276  1.00  0.00     0.010 A 
ATOM     29  C   UNL A   1      42.323  23.336  27.663  1.00  0.00    -0.014 A 
BRANCH  29  30
ATOM     30  C   UNL A   1      42.717  24.665  28.195  1.00  0.00     0.031 A 
ATOM     31  C   UNL A   1      41.675  25.733  28.391  1.00  0.00     0.074 A 
ATOM     32  C   UNL A   1      44.011  24.929  28.456  1.00  0.00     0.049 A 
ATOM     33  N   UNL A   1      41.822  26.971  28.791  1.00  0.00    -0.248 NA
ATOM     34  C   UNL A   1      40.286  25.369  28.069  1.00  0.00     0.031 C 
ATOM     35  C   UNL A   1      45.122  23.994  28.269  1.00  0.00     0.029 A 
ATOM     36  N   UNL A   1      44.612  26.068  28.930  1.00  0.00    -0.354 N 
ATOM     37  C   UNL A   1      40.551  27.533  28.752  1.00  0.00     0.074 A 
ATOM     38  C   UNL A   1      39.658  26.523  28.229  1.00  0.00     0.031 C 
ATOM     39  C   UNL A   1      46.265  24.587  28.650  1.00  0.00     0.029 A 
ATOM     40  C   UNL A   1      45.974  25.954  29.073  1.00  0.00     0.049 A 
ATOM     41  H   UNL A   1      44.114  26.889  29.148  1.00  0.00     0.167 HD
ATOM     42  C   UNL A   1      40.157  28.769  29.142  1.00  0.00     0.037 A 
ATOM     43  C   UNL A   1      46.883  26.852  29.496  1.00  0.00     0.037 A 
ATOM     44  C   UNL A   1      41.045  29.766  29.682  1.00  0.00     0.049 A 
ATOM     45  C   UNL A   1      46.423  28.220  29.919  1.00  0.00     0.074 A 
ATOM     46  C   UNL A   1      40.740  31.034  30.145  1.00  0.00     0.029 A 
ATOM     47  N   UNL A   1      42.415  29.604  29.831  1.00  0.00    -0.354 N 
ATOM     48  N   UNL A   1      45.211  28.720  29.930  1.00  0.00    -0.248 NA
ATOM     49  C   UNL A   1      47.458  29.145  30.403  1.00  0.00     0.031 C 
ATOM     50  C   UNL A   1      41.932  31.656  30.532  1.00  0.00     0.029 A 
ATOM     51  C   UNL A   1      42.971  30.754  30.366  1.00  0.00     0.049 A 
ATOM     52  H   UNL A   1      42.917  28.792  29.592  1.00  0.00     0.167 HD
ATOM     53  C   UNL A   1      45.331  29.999  30.460  1.00  0.00     0.074 A 
ATOM     54  C   UNL A   1      46.733  30.194  30.765  1.00  0.00     0.031 C 
ATOM     55  C   UNL A   1      44.367  30.926  30.681  1.00  0.00     0.037 A 
BRANCH  42  56
ATOM     56  C   UNL A   1      38.701  29.107  28.997  1.00  0.00     0.057 A 
ATOM     57  C   UNL A   1      37.812  29.036  30.080  1.00  0.00     0.134 A 
ATOM     58  C   UNL A   1      38.180  29.524  27.765  1.00  0.00     0.134 A 
ATOM     59  F   UNL A   1      38.239  28.632  31.285  1.00  0.00    -0.206 F 
ATOM     60  C   UNL A   1      36.456  29.333  29.934  1.00  0.00     0.040 A 
ATOM     61  C   UNL A   1      36.832  29.855  27.615  1.00  0.00     0.040 A 
ATOM     62  F   UNL A   1      38.973  29.620  26.688  1.00  0.00    -0.206 F 
ATOM     63  C   UNL A   1      35.964  29.752  28.700  1.00  0.00     0.006 A 
ENDBRANCH  42  56
BRANCH  43  64
ATOM     64  C   UNL A   1      48.319  26.477  29.578  1.00  0.00     0.057 A 
ATOM     65  C   UNL A   1      48.811  25.741  30.663  1.00  0.00     0.134 A 
ATOM     66  C   UNL A   1      49.232  26.854  28.588  1.00  0.00     0.134 A 
ATOM     67  F   UNL A   1      47.987  25.365  31.653  1.00  0.00    -0.206 F 
ATOM     68  C   UNL A   1      50.163  25.416  30.774  1.00  0.00     0.040 A 
ATOM     69  C   UNL A   1      50.583  26.512  28.671  1.00  0.00     0.040 A 
ATOM     70  F   UNL A   1      48.822  27.550  27.518  1.00  0.00    -0.206 F 
ATOM     71  C   UNL A   1      51.053  25.799  29.773  1.00  0.00     0.006 A 
ENDBRANCH  43  64
BRANCH  55  72
ATOM     72  C   UNL A   1      44.784  32.209  31.342  1.00  0.00     0.057 A 
ATOM     73  C   UNL A   1      44.796  32.366  32.734  1.00  0.00     0.134 A 
ATOM     74  C   UNL A   1      45.204  33.299  30.566  1.00  0.00     0.134 A 
ATOM     75  F   UNL A   1      44.395  31.367  33.535  1.00  0.00    -0.206 F 
ATOM     76  C   UNL A   1      45.178  33.570  33.329  1.00  0.00     0.040 A 
ATOM     77  C   UNL A   1      45.618  34.495  31.150  1.00  0.00     0.040 A 
ATOM     78  F   UNL A   1      45.229  33.213  29.227  1.00  0.00    -0.206 F 
ATOM     79  C   UNL A   1      45.596  34.638  32.535  1.00  0.00     0.006 A 
ENDBRANCH  55  72
ENDBRANCH  29  30
ENDBRANCH  21  24
ENDBRANCH  19  20
ENDBRANCH  18  19
ENDBRANCH  17  18
ENDBRANCH  16  17
ENDBRANCH   1  16
TORSDOF 18
ENDMDL
MODEL 3
REMARK VINA RESULT:      -7.8      6.026     12.053
REMARK SMILES C=CCCCOC(F)(F)C(=O)NCCCCCCNC(=O)c1ccc(-c2c3nc(c(-c4c(F)cccc4F)c4ccc([nH]4)c(-c4c(F)cccc4F)c4nc(c(-c5c(F)cccc5F)c5ccc2[nH]5)C=C4)C=C3)cc1
REMARK SMILES IDX 14 1 13 2 12 3 10 4 11 5 7 7 8 8 9 9 6 10 5 11 4 12 3 13
REMARK SMILES IDX 2 14 1 15 15 16 16 17 17 18 18 19 19 20 20 21 21 23 22 24
REMARK SMILES IDX 23 25 75 26 24 27 74 28 25 29 26 30 27 31 68 32 28 33 73 34
REMARK SMILES IDX 67 35 69 36 29 37 72 38 66 39 65 40 30 42 56 43 39 44 55 45
REMARK SMILES IDX 40 46 43 47 54 48 70 49 41 50 42 51 53 53 71 54 44 55 31 56
REMARK SMILES IDX 32 57 37 58 33 59 34 60 36 61 38 62 35 63 57 64 58 65 63 66
REMARK SMILES IDX 59 67 60 68 62 69 64 70 61 71 45 72 46 73 51 74 47 75 48 76
REMARK SMILES IDX 50 77 52 78 49 79
REMARK H PARENT 12 6 19 22 69 41 43 52
REMARK Flexibility Score: inf
ROOT
ATOM      1  C   UNL A   1      31.787  28.379  27.276  1.00  0.00     0.021 C 
ENDROOT
BRANCH   1   2
ATOM      2  C   UNL A   1      31.384  27.293  26.283  1.00  0.00     0.116 C 
BRANCH   2   3
ATOM      3  N   UNL A   1      32.360  27.117  25.217  1.00  0.00    -0.349 N 
ATOM      4  C   UNL A   1      32.118  27.179  23.851  1.00  0.00     0.320 C 
ATOM      5  O   UNL A   1      33.062  27.038  23.073  1.00  0.00    -0.265 OA
ATOM      6  H   UNL A   1      33.288  26.936  25.492  1.00  0.00     0.163 HD
BRANCH   4   7
ATOM      7  C   UNL A   1      30.630  27.424  23.418  1.00  0.00     0.436 C 
ATOM      8  F   UNL A   1      30.051  28.254  24.338  1.00  0.00    -0.165 F 
ATOM      9  F   UNL A   1      29.980  26.228  23.501  1.00  0.00    -0.165 F 
BRANCH   7  10
ATOM     10  O   UNL A   1      30.318  27.937  22.148  1.00  0.00    -0.313 OA
BRANCH  10  11
ATOM     11  C   UNL A   1      29.953  29.320  22.161  1.00  0.00     0.168 C 
BRANCH  11  12
ATOM     12  C   UNL A   1      28.450  29.628  22.053  1.00  0.00     0.033 C 
BRANCH  12  13
ATOM     13  C   UNL A   1      27.977  31.089  21.899  1.00  0.00     0.029 C 
BRANCH  13  14
ATOM     14  C   UNL A   1      28.083  31.975  23.108  1.00  0.00    -0.035 C 
ATOM     15  C   UNL A   1      28.790  33.113  23.125  1.00  0.00     0.004 C 
ENDBRANCH  13  14
ENDBRANCH  12  13
ENDBRANCH  11  12
ENDBRANCH  10  11
ENDBRANCH   7  10
ENDBRANCH   4   7
ENDBRANCH   2   3
ENDBRANCH   1   2
BRANCH   1  16
ATOM     16  C   UNL A   1      32.376  29.630  26.624  1.00  0.00     0.002 C 
BRANCH  16  17
ATOM     17  C   UNL A   1      31.360  30.511  25.890  1.00  0.00     0.002 C 
BRANCH  17  18
ATOM     18  C   UNL A   1      31.266  31.952  26.397  1.00  0.00     0.021 C 
BRANCH  18  19
ATOM     19  C   UNL A   1      32.581  32.536  26.897  1.00  0.00     0.116 C 
BRANCH  19  20
ATOM     20  N   UNL A   1      32.428  33.898  27.380  1.00  0.00    -0.352 N 
ATOM     21  C   UNL A   1      33.063  34.533  28.417  1.00  0.00     0.251 C 
ATOM     22  H   UNL A   1      31.772  34.446  26.891  1.00  0.00     0.163 HD
ATOM     23  O   UNL A   1      32.669  35.629  28.801  1.00  0.00    -0.269 OA
BRANCH  21  24
ATOM     24  C   UNL A   1      34.216  33.891  29.083  1.00  0.00     0.039 A 
ATOM     25  C   UNL A   1      35.507  34.308  28.750  1.00  0.00     0.014 A 
ATOM     26  C   UNL A   1      34.029  32.862  30.010  1.00  0.00     0.014 A 
ATOM     27  C   UNL A   1      36.608  33.721  29.375  1.00  0.00     0.010 A 
ATOM     28  C   UNL A   1      35.122  32.337  30.694  1.00  0.00     0.010 A 
ATOM     29  C   UNL A   1      36.424  32.744  30.367  1.00  0.00    -0.014 A 
BRANCH  29  30
ATOM     30  C   UNL A   1      37.581  32.105  31.042  1.00  0.00     0.031 A 
ATOM     31  C   UNL A   1      38.334  31.000  30.350  1.00  0.00     0.074 A 
ATOM     32  C   UNL A   1      37.925  32.479  32.288  1.00  0.00     0.049 A 
ATOM     33  N   UNL A   1      39.334  30.278  30.790  1.00  0.00    -0.248 NA
ATOM     34  C   UNL A   1      37.886  30.640  28.996  1.00  0.00     0.031 C 
ATOM     35  C   UNL A   1      37.249  33.508  33.081  1.00  0.00     0.029 A 
ATOM     36  N   UNL A   1      38.929  32.031  33.110  1.00  0.00    -0.354 N 
ATOM     37  C   UNL A   1      39.621  29.373  29.774  1.00  0.00     0.074 A 
ATOM     38  C   UNL A   1      38.650  29.593  28.725  1.00  0.00     0.031 C 
ATOM     39  C   UNL A   1      37.874  33.631  34.264  1.00  0.00     0.029 A 
ATOM     40  C   UNL A   1      38.969  32.667  34.327  1.00  0.00     0.049 A 
ATOM     41  H   UNL A   1      39.560  31.321  32.852  1.00  0.00     0.167 HD
ATOM     42  C   UNL A   1      40.619  28.460  29.708  1.00  0.00     0.037 A 
ATOM     43  C   UNL A   1      39.796  32.491  35.374  1.00  0.00     0.037 A 
ATOM     44  C   UNL A   1      41.598  28.257  30.744  1.00  0.00     0.049 A 
ATOM     45  C   UNL A   1      40.894  31.467  35.280  1.00  0.00     0.074 A 
ATOM     46  C   UNL A   1      42.673  27.387  30.758  1.00  0.00     0.029 A 
ATOM     47  N   UNL A   1      41.617  28.937  31.953  1.00  0.00    -0.354 N 
ATOM     48  N   UNL A   1      41.188  30.656  34.291  1.00  0.00    -0.248 NA
ATOM     49  C   UNL A   1      41.784  31.344  36.442  1.00  0.00     0.031 C 
ATOM     50  C   UNL A   1      43.318  27.508  31.993  1.00  0.00     0.029 A 
ATOM     51  C   UNL A   1      42.679  28.496  32.725  1.00  0.00     0.049 A 
ATOM     52  H   UNL A   1      40.973  29.630  32.223  1.00  0.00     0.167 HD
ATOM     53  C   UNL A   1      42.321  29.959  34.695  1.00  0.00     0.074 A 
ATOM     54  C   UNL A   1      42.663  30.449  36.014  1.00  0.00     0.031 C 
ATOM     55  C   UNL A   1      43.018  29.006  34.031  1.00  0.00     0.037 A 
BRANCH  42  56
ATOM     56  C   UNL A   1      40.698  27.613  28.469  1.00  0.00     0.057 A 
ATOM     57  C   UNL A   1      40.000  26.402  28.354  1.00  0.00     0.134 A 
ATOM     58  C   UNL A   1      41.467  28.018  27.371  1.00  0.00     0.134 A 
ATOM     59  F   UNL A   1      39.254  25.947  29.372  1.00  0.00    -0.206 F 
ATOM     60  C   UNL A   1      40.092  25.611  27.208  1.00  0.00     0.040 A 
ATOM     61  C   UNL A   1      41.541  27.251  26.206  1.00  0.00     0.040 A 
ATOM     62  F   UNL A   1      42.157  29.168  27.409  1.00  0.00    -0.206 F 
ATOM     63  C   UNL A   1      40.859  26.039  26.126  1.00  0.00     0.006 A 
ENDBRANCH  42  56
BRANCH  43  64
ATOM     64  C   UNL A   1      39.644  33.327  36.593  1.00  0.00     0.057 A 
ATOM     65  C   UNL A   1      40.369  34.515  36.747  1.00  0.00     0.134 A 
ATOM     66  C   UNL A   1      38.785  32.957  37.634  1.00  0.00     0.134 A 
ATOM     67  F   UNL A   1      41.221  34.914  35.791  1.00  0.00    -0.206 F 
ATOM     68  C   UNL A   1      40.267  35.290  37.903  1.00  0.00     0.040 A 
ATOM     69  C   UNL A   1      38.652  33.737  38.784  1.00  0.00     0.040 A 
ATOM     70  F   UNL A   1      38.055  31.836  37.543  1.00  0.00    -0.206 F 
ATOM     71  C   UNL A   1      39.403  34.902  38.925  1.00  0.00     0.006 A 
ENDBRANCH  43  64
BRANCH  55  72
ATOM     72  C   UNL A   1      44.258  28.475  34.691  1.00  0.00     0.057 A 
ATOM     73  C   UNL A   1      44.243  27.339  35.512  1.00  0.00     0.134 A 
ATOM     74  C   UNL A   1      45.494  29.102  34.481  1.00  0.00     0.134 A 
ATOM     75  F   UNL A   1      43.092  26.698  35.764  1.00  0.00    -0.206 F 
ATOM     76  C   UNL A   1      45.405  26.867  36.124  1.00  0.00     0.040 A 
ATOM     77  C   UNL A   1      46.667  28.621  35.062  1.00  0.00     0.040 A 
ATOM     78  F   UNL A   1      45.583  30.188  33.697  1.00  0.00    -0.206 F 
ATOM     79  C   UNL A   1      46.623  27.506  35.895  1.00  0.00     0.006 A 
ENDBRANCH  55  72
ENDBRANCH  29  30
ENDBRANCH  21  24
ENDBRANCH  19  20
ENDBRANCH  18  19
ENDBRANCH  17  18
ENDBRANCH  16  17
ENDBRANCH   1  16
TORSDOF 18
ENDMDL
