MODEL 1
REMARK VINA RESULT:     -11.8      0.000      0.000
REMARK SMILES C[C@@H](C(=O)NCCCCCCNC(=O)c1ccc(-c2c3nc(c(-c4c(F)cccc4F)c4ccc([nH]4)c(-c4c(F)cccc4F)c4nc(c(-c5c(F)cccc5F)c5ccc2[nH]5)C=C4)C=C3)cc1)c1cc(/C=C/S(C)(=O)=O)cc(C(=O)c2ccccc2)c1
REMARK SMILES IDX 8 1 7 2 6 3 5 4 3 5 4 6 2 8 1 9 69 10 70 11 88 12 71 13
REMARK SMILES IDX 79 14 78 15 72 16 73 17 74 18 75 19 76 20 77 21 80 22 81 23
REMARK SMILES IDX 82 24 83 25 87 26 84 27 86 28 85 29 9 30 10 31 11 32 12 33
REMARK SMILES IDX 13 34 14 36 15 37 16 38 68 39 17 40 67 41 18 42 19 43 20 44
REMARK SMILES IDX 61 45 21 46 66 47 60 48 62 49 22 50 65 51 59 52 58 53 23 55
REMARK SMILES IDX 49 56 32 57 48 58 33 59 36 60 47 61 63 62 34 63 35 64 46 66
REMARK SMILES IDX 64 67 37 68 24 69 25 70 30 71 26 72 27 73 29 74 31 75 28 76
REMARK SMILES IDX 50 77 51 78 56 79 52 80 53 81 55 82 57 83 54 84 38 85 39 86
REMARK SMILES IDX 44 87 40 88 41 89 43 90 45 91 42 92
REMARK H PARENT 5 7 12 35 62 54 36 65
REMARK Flexibility Score: inf
ROOT
ATOM      1  C   UNL A   1      32.672  23.006  26.961  1.00  0.00     0.002 C 
ENDROOT
BRANCH   1   2
ATOM      2  C   UNL A   1      31.424  23.891  26.851  1.00  0.00     0.021 C 
BRANCH   2   3
ATOM      3  C   UNL A   1      31.691  25.248  26.195  1.00  0.00     0.116 C 
BRANCH   3   4
ATOM      4  N   UNL A   1      31.330  26.318  27.097  1.00  0.00    -0.356 N 
ATOM      5  C   UNL A   1      31.907  27.537  27.282  1.00  0.00     0.227 C 
ATOM      6  O   UNL A   1      31.486  28.209  28.226  1.00  0.00    -0.274 OA
ATOM      7  H   UNL A   1      30.547  26.137  27.665  1.00  0.00     0.163 HD
BRANCH   5   8
ATOM      8  C   UNL A   1      32.984  28.027  26.301  1.00  0.00     0.105 C 
ATOM      9  C   UNL A   1      33.478  29.452  26.587  1.00  0.00     0.023 C 
BRANCH   8  10
ATOM     10  C   UNL A   1      32.525  28.000  24.848  1.00  0.00    -0.035 A 
ATOM     11  C   UNL A   1      31.558  28.900  24.390  1.00  0.00     0.012 A 
ATOM     12  C   UNL A   1      32.974  26.992  23.987  1.00  0.00     0.016 A 
ATOM     13  C   UNL A   1      31.004  28.785  23.105  1.00  0.00    -0.024 A 
ATOM     14  C   UNL A   1      32.417  26.826  22.721  1.00  0.00     0.023 A 
ATOM     15  C   UNL A   1      31.443  27.734  22.278  1.00  0.00     0.020 A 
BRANCH  13  16
ATOM     16  C   UNL A   1      29.937  29.687  22.621  1.00  0.00     0.020 C 
ATOM     17  C   UNL A   1      29.447  30.733  23.306  1.00  0.00     0.106 C 
BRANCH  17  18
ATOM     18  S   UNL A   1      28.135  31.674  22.669  1.00  0.00     0.168 S 
ATOM     19  C   UNL A   1      28.000  31.003  21.028  1.00  0.00     0.163 C 
ATOM     20  O   UNL A   1      26.925  31.300  23.379  1.00  0.00    -0.225 OA
ATOM     21  O   UNL A   1      28.519  33.064  22.534  1.00  0.00    -0.225 OA
ENDBRANCH  17  18
ENDBRANCH  13  16
BRANCH  14  22
ATOM     22  C   UNL A   1      32.838  25.691  21.848  1.00  0.00     0.193 C 
ATOM     23  O   UNL A   1      33.161  25.891  20.680  1.00  0.00    -0.289 OA
BRANCH  22  24
ATOM     24  C   UNL A   1      32.896  24.304  22.381  1.00  0.00     0.022 A 
ATOM     25  C   UNL A   1      34.146  23.705  22.556  1.00  0.00     0.012 A 
ATOM     26  C   UNL A   1      31.730  23.614  22.743  1.00  0.00     0.012 A 
ATOM     27  C   UNL A   1      34.234  22.440  23.141  1.00  0.00     0.001 A 
ATOM     28  C   UNL A   1      31.824  22.352  23.335  1.00  0.00     0.001 A 
ATOM     29  C   UNL A   1      33.076  21.771  23.540  1.00  0.00     0.000 A 
ENDBRANCH  22  24
ENDBRANCH  14  22
ENDBRANCH   8  10
ENDBRANCH   5   8
ENDBRANCH   3   4
ENDBRANCH   2   3
ENDBRANCH   1   2
BRANCH   1  30
ATOM     30  C   UNL A   1      33.973  23.677  26.516  1.00  0.00     0.002 C 
BRANCH  30  31
ATOM     31  C   UNL A   1      35.222  22.806  26.665  1.00  0.00     0.021 C 
BRANCH  31  32
ATOM     32  C   UNL A   1      36.483  23.418  26.070  1.00  0.00     0.116 C 
BRANCH  32  33
ATOM     33  N   UNL A   1      37.593  22.480  26.083  1.00  0.00    -0.352 N 
ATOM     34  C   UNL A   1      38.926  22.721  26.296  1.00  0.00     0.251 C 
ATOM     35  H   UNL A   1      37.355  21.540  25.915  1.00  0.00     0.163 HD
ATOM     36  O   UNL A   1      39.754  21.847  26.058  1.00  0.00    -0.269 OA
BRANCH  34  37
ATOM     37  C   UNL A   1      39.364  24.037  26.804  1.00  0.00     0.039 A 
ATOM     38  C   UNL A   1      39.928  24.950  25.910  1.00  0.00     0.014 A 
ATOM     39  C   UNL A   1      39.251  24.359  28.160  1.00  0.00     0.014 A 
ATOM     40  C   UNL A   1      40.352  26.197  26.371  1.00  0.00     0.010 A 
ATOM     41  C   UNL A   1      39.596  25.632  28.603  1.00  0.00     0.010 A 
ATOM     42  C   UNL A   1      40.175  26.554  27.719  1.00  0.00    -0.014 A 
BRANCH  42  43
ATOM     43  C   UNL A   1      40.633  27.872  28.225  1.00  0.00     0.031 A 
ATOM     44  C   UNL A   1      42.102  28.199  28.245  1.00  0.00     0.074 A 
ATOM     45  C   UNL A   1      39.735  28.756  28.699  1.00  0.00     0.049 A 
ATOM     46  N   UNL A   1      42.702  29.286  28.665  1.00  0.00    -0.248 NA
ATOM     47  C   UNL A   1      43.022  27.160  27.757  1.00  0.00     0.031 C 
ATOM     48  C   UNL A   1      38.290  28.537  28.774  1.00  0.00     0.029 A 
ATOM     49  N   UNL A   1      39.908  30.019  29.206  1.00  0.00    -0.354 N 
ATOM     50  C   UNL A   1      44.062  29.051  28.507  1.00  0.00     0.074 A 
ATOM     51  C   UNL A   1      44.204  27.699  28.012  1.00  0.00     0.031 C 
ATOM     52  C   UNL A   1      37.703  29.644  29.260  1.00  0.00     0.029 A 
ATOM     53  C   UNL A   1      38.732  30.633  29.566  1.00  0.00     0.049 A 
ATOM     54  H   UNL A   1      40.790  30.444  29.303  1.00  0.00     0.167 HD
ATOM     55  C   UNL A   1      45.100  29.893  28.730  1.00  0.00     0.037 A 
ATOM     56  C   UNL A   1      38.512  31.858  30.078  1.00  0.00     0.037 A 
ATOM     57  C   UNL A   1      44.952  31.247  29.193  1.00  0.00     0.049 A 
ATOM     58  C   UNL A   1      39.681  32.775  30.316  1.00  0.00     0.074 A 
ATOM     59  C   UNL A   1      45.932  32.205  29.384  1.00  0.00     0.029 A 
ATOM     60  N   UNL A   1      43.744  31.835  29.537  1.00  0.00    -0.354 N 
ATOM     61  N   UNL A   1      40.956  32.567  30.091  1.00  0.00    -0.248 NA
ATOM     62  C   UNL A   1      39.376  34.101  30.868  1.00  0.00     0.031 C 
ATOM     63  C   UNL A   1      45.324  33.356  29.897  1.00  0.00     0.029 A 
ATOM     64  C   UNL A   1      43.958  33.136  29.966  1.00  0.00     0.049 A 
ATOM     65  H   UNL A   1      42.865  31.395  29.486  1.00  0.00     0.167 HD
ATOM     66  C   UNL A   1      41.600  33.748  30.436  1.00  0.00     0.074 A 
ATOM     67  C   UNL A   1      40.573  34.670  30.877  1.00  0.00     0.031 C 
ATOM     68  C   UNL A   1      42.922  34.044  30.391  1.00  0.00     0.037 A 
BRANCH  55  69
ATOM     69  C   UNL A   1      46.486  29.368  28.480  1.00  0.00     0.057 A 
ATOM     70  C   UNL A   1      47.108  29.478  27.229  1.00  0.00     0.134 A 
ATOM     71  C   UNL A   1      47.215  28.765  29.511  1.00  0.00     0.134 A 
ATOM     72  F   UNL A   1      46.461  30.033  26.193  1.00  0.00    -0.206 F 
ATOM     73  C   UNL A   1      48.393  28.979  27.006  1.00  0.00     0.040 A 
ATOM     74  C   UNL A   1      48.513  28.290  29.308  1.00  0.00     0.040 A 
ATOM     75  F   UNL A   1      46.684  28.631  30.736  1.00  0.00    -0.206 F 
ATOM     76  C   UNL A   1      49.102  28.389  28.049  1.00  0.00     0.006 A 
ENDBRANCH  55  69
BRANCH  56  77
ATOM     77  C   UNL A   1      37.126  32.308  30.363  1.00  0.00     0.057 A 
ATOM     78  C   UNL A   1      36.398  33.042  29.417  1.00  0.00     0.134 A 
ATOM     79  C   UNL A   1      36.501  32.034  31.585  1.00  0.00     0.134 A 
ATOM     80  F   UNL A   1      36.950  33.351  28.234  1.00  0.00    -0.206 F 
ATOM     81  C   UNL A   1      35.111  33.507  29.685  1.00  0.00     0.040 A 
ATOM     82  C   UNL A   1      35.203  32.471  31.856  1.00  0.00     0.040 A 
ATOM     83  F   UNL A   1      37.139  31.328  32.529  1.00  0.00    -0.206 F 
ATOM     84  C   UNL A   1      34.507  33.217  30.907  1.00  0.00     0.006 A 
ENDBRANCH  56  77
BRANCH  68  85
ATOM     85  C   UNL A   1      43.328  35.438  30.778  1.00  0.00     0.057 A 
ATOM     86  C   UNL A   1      43.595  35.795  32.106  1.00  0.00     0.134 A 
ATOM     87  C   UNL A   1      43.479  36.429  29.801  1.00  0.00     0.134 A 
ATOM     88  F   UNL A   1      43.458  34.895  33.093  1.00  0.00    -0.206 F 
ATOM     89  C   UNL A   1      43.966  37.095  32.451  1.00  0.00     0.040 A 
ATOM     90  C   UNL A   1      43.881  37.725  30.129  1.00  0.00     0.040 A 
ATOM     91  F   UNL A   1      43.250  36.153  28.507  1.00  0.00    -0.206 F 
ATOM     92  C   UNL A   1      44.116  38.063  31.459  1.00  0.00     0.006 A 
ENDBRANCH  68  85
ENDBRANCH  42  43
ENDBRANCH  34  37
ENDBRANCH  32  33
ENDBRANCH  31  32
ENDBRANCH  30  31
ENDBRANCH   1  30
TORSDOF 18
ENDMDL
MODEL 2
REMARK VINA RESULT:     -11.8      4.171      8.899
REMARK SMILES C[C@@H](C(=O)NCCCCCCNC(=O)c1ccc(-c2c3nc(c(-c4c(F)cccc4F)c4ccc([nH]4)c(-c4c(F)cccc4F)c4nc(c(-c5c(F)cccc5F)c5ccc2[nH]5)C=C4)C=C3)cc1)c1cc(/C=C/S(C)(=O)=O)cc(C(=O)c2ccccc2)c1
REMARK SMILES IDX 8 1 7 2 6 3 5 4 3 5 4 6 2 8 1 9 69 10 70 11 88 12 71 13
REMARK SMILES IDX 79 14 78 15 72 16 73 17 74 18 75 19 76 20 77 21 80 22 81 23
REMARK SMILES IDX 82 24 83 25 87 26 84 27 86 28 85 29 9 30 10 31 11 32 12 33
REMARK SMILES IDX 13 34 14 36 15 37 16 38 68 39 17 40 67 41 18 42 19 43 20 44
REMARK SMILES IDX 61 45 21 46 66 47 60 48 62 49 22 50 65 51 59 52 58 53 23 55
REMARK SMILES IDX 49 56 32 57 48 58 33 59 36 60 47 61 63 62 34 63 35 64 46 66
REMARK SMILES IDX 64 67 37 68 24 69 25 70 30 71 26 72 27 73 29 74 31 75 28 76
REMARK SMILES IDX 50 77 51 78 56 79 52 80 53 81 55 82 57 83 54 84 38 85 39 86
REMARK SMILES IDX 44 87 40 88 41 89 43 90 45 91 42 92
REMARK H PARENT 5 7 12 35 62 54 36 65
REMARK Flexibility Score: inf
ROOT
ATOM      1  C   UNL A   1      31.118  28.625  24.615  1.00  0.00     0.002 C 
ENDROOT
BRANCH   1   2
ATOM      2  C   UNL A   1      30.742  27.465  23.683  1.00  0.00     0.021 C 
BRANCH   2   3
ATOM      3  C   UNL A   1      30.232  26.226  24.422  1.00  0.00     0.116 C 
BRANCH   3   4
ATOM      4  N   UNL A   1      31.065  25.951  25.570  1.00  0.00    -0.356 N 
ATOM      5  C   UNL A   1      31.293  24.778  26.223  1.00  0.00     0.227 C 
ATOM      6  O   UNL A   1      31.939  24.846  27.270  1.00  0.00    -0.274 OA
ATOM      7  H   UNL A   1      31.539  26.731  25.937  1.00  0.00     0.163 HD
BRANCH   5   8
ATOM      8  C   UNL A   1      30.800  23.457  25.612  1.00  0.00     0.105 C 
ATOM      9  C   UNL A   1      30.039  22.564  26.602  1.00  0.00     0.023 C 
BRANCH   8  10
ATOM     10  C   UNL A   1      31.925  22.612  25.027  1.00  0.00    -0.035 A 
ATOM     11  C   UNL A   1      31.824  21.218  24.992  1.00  0.00     0.012 A 
ATOM     12  C   UNL A   1      33.125  23.214  24.632  1.00  0.00     0.016 A 
ATOM     13  C   UNL A   1      32.912  20.417  24.611  1.00  0.00    -0.024 A 
ATOM     14  C   UNL A   1      34.236  22.447  24.287  1.00  0.00     0.023 A 
ATOM     15  C   UNL A   1      34.120  21.049  24.263  1.00  0.00     0.020 A 
BRANCH  13  16
ATOM     16  C   UNL A   1      32.849  18.939  24.625  1.00  0.00     0.020 C 
ATOM     17  C   UNL A   1      33.915  18.125  24.558  1.00  0.00     0.106 C 
BRANCH  17  18
ATOM     18  S   UNL A   1      33.713  16.402  24.501  1.00  0.00     0.168 S 
ATOM     19  C   UNL A   1      35.192  15.859  25.326  1.00  0.00     0.163 C 
ATOM     20  O   UNL A   1      32.596  16.050  25.360  1.00  0.00    -0.225 OA
ATOM     21  O   UNL A   1      33.782  15.922  23.138  1.00  0.00    -0.225 OA
ENDBRANCH  17  18
ENDBRANCH  13  16
BRANCH  14  22
ATOM     22  C   UNL A   1      35.538  23.099  23.959  1.00  0.00     0.193 C 
ATOM     23  O   UNL A   1      35.663  23.754  22.928  1.00  0.00    -0.289 OA
BRANCH  22  24
ATOM     24  C   UNL A   1      36.698  22.986  24.883  1.00  0.00     0.022 A 
ATOM     25  C   UNL A   1      37.490  21.836  24.824  1.00  0.00     0.012 A 
ATOM     26  C   UNL A   1      37.025  24.020  25.772  1.00  0.00     0.012 A 
ATOM     27  C   UNL A   1      38.637  21.743  25.615  1.00  0.00     0.001 A 
ATOM     28  C   UNL A   1      38.178  23.924  26.554  1.00  0.00     0.001 A 
ATOM     29  C   UNL A   1      38.986  22.790  26.470  1.00  0.00     0.000 A 
ENDBRANCH  22  24
ENDBRANCH  14  22
ENDBRANCH   8  10
ENDBRANCH   5   8
ENDBRANCH   3   4
ENDBRANCH   2   3
ENDBRANCH   1   2
BRANCH   1  30
ATOM     30  C   UNL A   1      32.492  29.243  24.343  1.00  0.00     0.002 C 
BRANCH  30  31
ATOM     31  C   UNL A   1      33.672  28.429  24.879  1.00  0.00     0.021 C 
BRANCH  31  32
ATOM     32  C   UNL A   1      33.980  28.672  26.350  1.00  0.00     0.116 C 
BRANCH  32  33
ATOM     33  N   UNL A   1      33.834  30.074  26.705  1.00  0.00    -0.352 N 
ATOM     34  C   UNL A   1      34.581  30.828  27.573  1.00  0.00     0.251 C 
ATOM     35  H   UNL A   1      33.096  30.549  26.260  1.00  0.00     0.163 HD
ATOM     36  O   UNL A   1      34.188  31.938  27.918  1.00  0.00    -0.269 OA
BRANCH  34  37
ATOM     37  C   UNL A   1      35.856  30.299  28.099  1.00  0.00     0.039 A 
ATOM     38  C   UNL A   1      35.866  29.693  29.357  1.00  0.00     0.014 A 
ATOM     39  C   UNL A   1      37.043  30.427  27.371  1.00  0.00     0.014 A 
ATOM     40  C   UNL A   1      37.061  29.191  29.873  1.00  0.00     0.010 A 
ATOM     41  C   UNL A   1      38.217  29.851  27.850  1.00  0.00     0.010 A 
ATOM     42  C   UNL A   1      38.243  29.251  29.116  1.00  0.00    -0.014 A 
BRANCH  42  43
ATOM     43  C   UNL A   1      39.524  28.732  29.659  1.00  0.00     0.031 A 
ATOM     44  C   UNL A   1      40.117  29.344  30.899  1.00  0.00     0.074 A 
ATOM     45  C   UNL A   1      40.168  27.738  29.018  1.00  0.00     0.049 A 
ATOM     46  N   UNL A   1      41.233  29.044  31.517  1.00  0.00    -0.248 NA
ATOM     47  C   UNL A   1      39.377  30.459  31.511  1.00  0.00     0.031 C 
ATOM     48  C   UNL A   1      39.717  27.095  27.783  1.00  0.00     0.029 A 
ATOM     49  N   UNL A   1      41.342  27.096  29.320  1.00  0.00    -0.354 N 
ATOM     50  C   UNL A   1      41.333  29.942  32.572  1.00  0.00     0.074 A 
ATOM     51  C   UNL A   1      40.199  30.835  32.477  1.00  0.00     0.031 C 
ATOM     52  C   UNL A   1      40.583  26.122  27.454  1.00  0.00     0.029 A 
ATOM     53  C   UNL A   1      41.667  26.100  28.431  1.00  0.00     0.049 A 
ATOM     54  H   UNL A   1      41.897  27.326  30.099  1.00  0.00     0.167 HD
ATOM     55  C   UNL A   1      42.270  30.003  33.549  1.00  0.00     0.037 A 
ATOM     56  C   UNL A   1      42.719  25.260  28.412  1.00  0.00     0.037 A 
ATOM     57  C   UNL A   1      43.378  29.092  33.657  1.00  0.00     0.049 A 
ATOM     58  C   UNL A   1      43.746  25.346  29.509  1.00  0.00     0.074 A 
ATOM     59  C   UNL A   1      44.344  29.023  34.646  1.00  0.00     0.029 A 
ATOM     60  N   UNL A   1      43.669  28.091  32.743  1.00  0.00    -0.354 N 
ATOM     61  N   UNL A   1      43.787  26.151  30.544  1.00  0.00    -0.248 NA
ATOM     62  C   UNL A   1      44.866  24.398  29.439  1.00  0.00     0.031 C 
ATOM     63  C   UNL A   1      45.251  28.015  34.302  1.00  0.00     0.029 A 
ATOM     64  C   UNL A   1      44.815  27.416  33.131  1.00  0.00     0.049 A 
ATOM     65  H   UNL A   1      43.140  27.889  31.937  1.00  0.00     0.167 HD
ATOM     66  C   UNL A   1      44.914  25.781  31.268  1.00  0.00     0.074 A 
ATOM     67  C   UNL A   1      45.521  24.673  30.558  1.00  0.00     0.031 C 
ATOM     68  C   UNL A   1      45.400  26.308  32.418  1.00  0.00     0.037 A 
BRANCH  55  69
ATOM     69  C   UNL A   1      42.135  31.094  34.573  1.00  0.00     0.057 A 
ATOM     70  C   UNL A   1      42.823  32.311  34.459  1.00  0.00     0.134 A 
ATOM     71  C   UNL A   1      41.289  30.934  35.677  1.00  0.00     0.134 A 
ATOM     72  F   UNL A   1      43.660  32.525  33.433  1.00  0.00    -0.206 F 
ATOM     73  C   UNL A   1      42.697  33.314  35.421  1.00  0.00     0.040 A 
ATOM     74  C   UNL A   1      41.131  31.944  36.629  1.00  0.00     0.040 A 
ATOM     75  F   UNL A   1      40.596  29.799  35.847  1.00  0.00    -0.206 F 
ATOM     76  C   UNL A   1      41.843  33.135  36.507  1.00  0.00     0.006 A 
ENDBRANCH  55  69
BRANCH  56  77
ATOM     77  C   UNL A   1      42.837  24.236  27.344  1.00  0.00     0.057 A 
ATOM     78  C   UNL A   1      42.405  22.920  27.557  1.00  0.00     0.134 A 
ATOM     79  C   UNL A   1      43.394  24.537  26.096  1.00  0.00     0.134 A 
ATOM     80  F   UNL A   1      41.878  22.566  28.739  1.00  0.00    -0.206 F 
ATOM     81  C   UNL A   1      42.545  21.936  26.578  1.00  0.00     0.040 A 
ATOM     82  C   UNL A   1      43.516  23.568  25.098  1.00  0.00     0.040 A 
ATOM     83  F   UNL A   1      43.817  25.779  25.824  1.00  0.00    -0.206 F 
ATOM     84  C   UNL A   1      43.098  22.261  25.341  1.00  0.00     0.006 A 
ENDBRANCH  56  77
BRANCH  68  85
ATOM     85  C   UNL A   1      46.619  25.659  33.009  1.00  0.00     0.057 A 
ATOM     86  C   UNL A   1      46.533  24.615  33.938  1.00  0.00     0.134 A 
ATOM     87  C   UNL A   1      47.901  26.069  32.617  1.00  0.00     0.134 A 
ATOM     88  F   UNL A   1      45.336  24.182  34.364  1.00  0.00    -0.206 F 
ATOM     89  C   UNL A   1      47.675  24.025  34.482  1.00  0.00     0.040 A 
ATOM     90  C   UNL A   1      49.050  25.466  33.130  1.00  0.00     0.040 A 
ATOM     91  F   UNL A   1      48.056  27.057  31.722  1.00  0.00    -0.206 F 
ATOM     92  C   UNL A   1      48.938  24.447  34.072  1.00  0.00     0.006 A 
ENDBRANCH  68  85
ENDBRANCH  42  43
ENDBRANCH  34  37
ENDBRANCH  32  33
ENDBRANCH  31  32
ENDBRANCH  30  31
ENDBRANCH   1  30
TORSDOF 18
ENDMDL
MODEL 3
REMARK VINA RESULT:     -11.5      4.174      8.856
REMARK SMILES C[C@@H](C(=O)NCCCCCCNC(=O)c1ccc(-c2c3nc(c(-c4c(F)cccc4F)c4ccc([nH]4)c(-c4c(F)cccc4F)c4nc(c(-c5c(F)cccc5F)c5ccc2[nH]5)C=C4)C=C3)cc1)c1cc(/C=C/S(C)(=O)=O)cc(C(=O)c2ccccc2)c1
REMARK SMILES IDX 8 1 7 2 6 3 5 4 3 5 4 6 2 8 1 9 69 10 70 11 88 12 71 13
REMARK SMILES IDX 79 14 78 15 72 16 73 17 74 18 75 19 76 20 77 21 80 22 81 23
REMARK SMILES IDX 82 24 83 25 87 26 84 27 86 28 85 29 9 30 10 31 11 32 12 33
REMARK SMILES IDX 13 34 14 36 15 37 16 38 68 39 17 40 67 41 18 42 19 43 20 44
REMARK SMILES IDX 61 45 21 46 66 47 60 48 62 49 22 50 65 51 59 52 58 53 23 55
REMARK SMILES IDX 49 56 32 57 48 58 33 59 36 60 47 61 63 62 34 63 35 64 46 66
REMARK SMILES IDX 64 67 37 68 24 69 25 70 30 71 26 72 27 73 29 74 31 75 28 76
REMARK SMILES IDX 50 77 51 78 56 79 52 80 53 81 55 82 57 83 54 84 38 85 39 86
REMARK SMILES IDX 44 87 40 88 41 89 43 90 45 91 42 92
REMARK H PARENT 5 7 12 35 62 54 36 65
REMARK Flexibility Score: inf
ROOT
ATOM      1  C   UNL A   1      30.650  28.322  24.269  1.00  0.00     0.002 C 
ENDROOT
BRANCH   1   2
ATOM      2  C   UNL A   1      29.956  27.246  23.424  1.00  0.00     0.021 C 
BRANCH   2   3
ATOM      3  C   UNL A   1      30.428  25.823  23.734  1.00  0.00     0.116 C 
BRANCH   3   4
ATOM      4  N   UNL A   1      31.071  25.782  25.028  1.00  0.00    -0.356 N 
ATOM      5  C   UNL A   1      31.223  24.744  25.895  1.00  0.00     0.227 C 
ATOM      6  O   UNL A   1      31.688  25.015  27.004  1.00  0.00    -0.274 OA
ATOM      7  H   UNL A   1      31.457  26.636  25.328  1.00  0.00     0.163 HD
BRANCH   5   8
ATOM      8  C   UNL A   1      30.874  23.317  25.444  1.00  0.00     0.105 C 
ATOM      9  C   UNL A   1      30.187  22.476  26.529  1.00  0.00     0.023 C 
BRANCH   8  10
ATOM     10  C   UNL A   1      32.088  22.525  24.972  1.00  0.00    -0.035 A 
ATOM     11  C   UNL A   1      32.080  21.127  24.999  1.00  0.00     0.012 A 
ATOM     12  C   UNL A   1      33.269  23.190  24.623  1.00  0.00     0.016 A 
ATOM     13  C   UNL A   1      33.241  20.386  24.725  1.00  0.00    -0.024 A 
ATOM     14  C   UNL A   1      34.447  22.485  24.385  1.00  0.00     0.023 A 
ATOM     15  C   UNL A   1      34.425  21.083  24.423  1.00  0.00     0.020 A 
BRANCH  13  16
ATOM     16  C   UNL A   1      33.273  18.910  24.808  1.00  0.00     0.020 C 
ATOM     17  C   UNL A   1      34.343  18.149  24.525  1.00  0.00     0.106 C 
BRANCH  17  18
ATOM     18  S   UNL A   1      34.239  16.417  24.580  1.00  0.00     0.168 S 
ATOM     19  C   UNL A   1      32.728  16.195  25.491  1.00  0.00     0.163 C 
ATOM     20  O   UNL A   1      33.994  15.936  23.232  1.00  0.00    -0.225 OA
ATOM     21  O   UNL A   1      35.309  15.864  25.383  1.00  0.00    -0.225 OA
ENDBRANCH  17  18
ENDBRANCH  13  16
BRANCH  14  22
ATOM     22  C   UNL A   1      35.723  23.209  24.106  1.00  0.00     0.193 C 
ATOM     23  O   UNL A   1      35.816  23.951  23.133  1.00  0.00    -0.289 OA
BRANCH  22  24
ATOM     24  C   UNL A   1      36.892  23.062  25.013  1.00  0.00     0.022 A 
ATOM     25  C   UNL A   1      37.626  21.873  24.970  1.00  0.00     0.012 A 
ATOM     26  C   UNL A   1      37.287  24.100  25.869  1.00  0.00     0.012 A 
ATOM     27  C   UNL A   1      38.782  21.744  25.743  1.00  0.00     0.001 A 
ATOM     28  C   UNL A   1      38.448  23.967  26.634  1.00  0.00     0.001 A 
ATOM     29  C   UNL A   1      39.197  22.793  26.564  1.00  0.00     0.000 A 
ENDBRANCH  22  24
ENDBRANCH  14  22
ENDBRANCH   8  10
ENDBRANCH   5   8
ENDBRANCH   3   4
ENDBRANCH   2   3
ENDBRANCH   1   2
BRANCH   1  30
ATOM     30  C   UNL A   1      31.747  29.100  23.537  1.00  0.00     0.002 C 
BRANCH  30  31
ATOM     31  C   UNL A   1      33.171  28.760  23.979  1.00  0.00     0.021 C 
BRANCH  31  32
ATOM     32  C   UNL A   1      33.449  29.035  25.450  1.00  0.00     0.116 C 
BRANCH  32  33
ATOM     33  N   UNL A   1      32.975  30.349  25.851  1.00  0.00    -0.352 N 
ATOM     34  C   UNL A   1      33.386  31.134  26.896  1.00  0.00     0.251 C 
ATOM     35  H   UNL A   1      32.258  30.727  25.294  1.00  0.00     0.163 HD
ATOM     36  O   UNL A   1      32.731  32.121  27.219  1.00  0.00    -0.269 OA
BRANCH  34  37
ATOM     37  C   UNL A   1      34.615  30.788  27.639  1.00  0.00     0.039 A 
ATOM     38  C   UNL A   1      34.715  29.524  28.225  1.00  0.00     0.014 A 
ATOM     39  C   UNL A   1      35.653  31.714  27.785  1.00  0.00     0.014 A 
ATOM     40  C   UNL A   1      35.866  29.180  28.934  1.00  0.00     0.010 A 
ATOM     41  C   UNL A   1      36.834  31.340  28.420  1.00  0.00     0.010 A 
ATOM     42  C   UNL A   1      36.941  30.080  29.023  1.00  0.00    -0.014 A 
BRANCH  42  43
ATOM     43  C   UNL A   1      38.166  29.731  29.785  1.00  0.00     0.031 A 
ATOM     44  C   UNL A   1      38.384  30.301  31.161  1.00  0.00     0.074 A 
ATOM     45  C   UNL A   1      39.096  28.932  29.228  1.00  0.00     0.049 A 
ATOM     46  N   UNL A   1      39.395  30.131  31.977  1.00  0.00    -0.248 NA
ATOM     47  C   UNL A   1      37.344  31.205  31.678  1.00  0.00     0.031 C 
ATOM     48  C   UNL A   1      39.021  28.354  27.886  1.00  0.00     0.029 A 
ATOM     49  N   UNL A   1      40.289  28.469  29.725  1.00  0.00    -0.354 N 
ATOM     50  C   UNL A   1      39.119  30.918  33.088  1.00  0.00     0.074 A 
ATOM     51  C   UNL A   1      37.879  31.612  32.819  1.00  0.00     0.031 C 
ATOM     52  C   UNL A   1      40.101  27.581  27.680  1.00  0.00     0.029 A 
ATOM     53  C   UNL A   1      40.960  27.640  28.859  1.00  0.00     0.049 A 
ATOM     54  H   UNL A   1      40.630  28.707  30.617  1.00  0.00     0.167 HD
ATOM     55  C   UNL A   1      39.821  31.034  34.241  1.00  0.00     0.037 A 
ATOM     56  C   UNL A   1      42.133  26.996  29.004  1.00  0.00     0.037 A 
ATOM     57  C   UNL A   1      41.037  30.317  34.518  1.00  0.00     0.049 A 
ATOM     58  C   UNL A   1      42.894  27.140  30.295  1.00  0.00     0.074 A 
ATOM     59  C   UNL A   1      41.789  30.309  35.680  1.00  0.00     0.029 A 
ATOM     60  N   UNL A   1      41.681  29.480  33.619  1.00  0.00    -0.354 N 
ATOM     61  N   UNL A   1      42.583  27.828  31.367  1.00  0.00    -0.248 NA
ATOM     62  C   UNL A   1      44.163  26.408  30.397  1.00  0.00     0.031 C 
ATOM     63  C   UNL A   1      42.916  29.510  35.465  1.00  0.00     0.029 A 
ATOM     64  C   UNL A   1      42.836  28.972  34.192  1.00  0.00     0.049 A 
ATOM     65  H   UNL A   1      41.365  29.278  32.709  1.00  0.00     0.167 HD
ATOM     66  C   UNL A   1      43.597  27.580  32.284  1.00  0.00     0.074 A 
ATOM     67  C   UNL A   1      44.525  26.671  31.644  1.00  0.00     0.031 C 
ATOM     68  C   UNL A   1      43.744  28.059  33.544  1.00  0.00     0.037 A 
BRANCH  55  69
ATOM     69  C   UNL A   1      39.289  31.974  35.286  1.00  0.00     0.057 A 
ATOM     70  C   UNL A   1      39.640  33.331  35.314  1.00  0.00     0.134 A 
ATOM     71  C   UNL A   1      38.396  31.521  36.264  1.00  0.00     0.134 A 
ATOM     72  F   UNL A   1      40.502  33.830  34.414  1.00  0.00    -0.206 F 
ATOM     73  C   UNL A   1      39.147  34.194  36.295  1.00  0.00     0.040 A 
ATOM     74  C   UNL A   1      37.871  32.381  37.231  1.00  0.00     0.040 A 
ATOM     75  F   UNL A   1      38.012  30.236  36.295  1.00  0.00    -0.206 F 
ATOM     76  C   UNL A   1      38.254  33.721  37.253  1.00  0.00     0.006 A 
ENDBRANCH  55  69
BRANCH  56  77
ATOM     77  C   UNL A   1      42.645  26.124  27.918  1.00  0.00     0.057 A 
ATOM     78  C   UNL A   1      43.500  26.630  26.930  1.00  0.00     0.134 A 
ATOM     79  C   UNL A   1      42.284  24.774  27.828  1.00  0.00     0.134 A 
ATOM     80  F   UNL A   1      43.867  27.920  26.952  1.00  0.00    -0.206 F 
ATOM     81  C   UNL A   1      43.957  25.833  25.880  1.00  0.00     0.040 A 
ATOM     82  C   UNL A   1      42.756  23.959  26.797  1.00  0.00     0.040 A 
ATOM     83  F   UNL A   1      41.477  24.226  28.747  1.00  0.00    -0.206 F 
ATOM     84  C   UNL A   1      43.589  24.491  25.814  1.00  0.00     0.006 A 
ENDBRANCH  56  77
BRANCH  68  85
ATOM     85  C   UNL A   1      44.925  27.567  34.331  1.00  0.00     0.057 A 
ATOM     86  C   UNL A   1      44.870  26.405  35.112  1.00  0.00     0.134 A 
ATOM     87  C   UNL A   1      46.144  28.255  34.284  1.00  0.00     0.134 A 
ATOM     88  F   UNL A   1      43.729  25.706  35.210  1.00  0.00    -0.206 F 
ATOM     89  C   UNL A   1      45.974  25.964  35.842  1.00  0.00     0.040 A 
ATOM     90  C   UNL A   1      47.265  27.806  34.984  1.00  0.00     0.040 A 
ATOM     91  F   UNL A   1      46.271  29.370  33.547  1.00  0.00    -0.206 F 
ATOM     92  C   UNL A   1      47.178  26.662  35.773  1.00  0.00     0.006 A 
ENDBRANCH  68  85
ENDBRANCH  42  43
ENDBRANCH  34  37
ENDBRANCH  32  33
ENDBRANCH  31  32
ENDBRANCH  30  31
ENDBRANCH   1  30
TORSDOF 18
ENDMDL
