MODEL 1
REMARK VINA RESULT:      -8.0      0.000      0.000
REMARK SMILES CCCCCCNC(=O)Oc1cccc(-c2ccc([C@@H](C)C(=O)NCCCCCCNC(=O)c3ccc(-c4c5nc(c(-c6c(F)cccc6F)c6ccc([nH]6)c(-c6c(F)cccc6F)c6nc(c(-c7c(F)cccc7F)c7ccc4[nH]7)C=C6)C=C5)cc3)cc2O)c1
REMARK SMILES IDX 22 1 23 2 24 3 20 5 21 6 19 7 16 8 17 9 89 10 18 11 88 12
REMARK SMILES IDX 15 13 11 14 12 15 91 16 13 17 14 18 10 19 8 20 7 21 9 23
REMARK SMILES IDX 6 24 5 25 4 26 3 27 2 28 1 29 90 30 25 32 26 33 27 34 28 35
REMARK SMILES IDX 29 36 30 37 31 38 32 39 33 41 34 42 35 43 87 44 36 45 86 46
REMARK SMILES IDX 37 47 38 48 39 49 80 50 40 51 85 52 79 53 81 54 41 55 84 56
REMARK SMILES IDX 78 57 77 58 42 60 68 61 51 62 67 63 52 64 55 65 66 66 82 67
REMARK SMILES IDX 53 68 54 69 65 71 83 72 56 73 43 74 44 75 49 76 45 77 46 78
REMARK SMILES IDX 48 79 50 80 47 81 69 82 70 83 75 84 71 85 72 86 74 87 76 88
REMARK SMILES IDX 73 89 57 90 58 91 63 92 59 93 60 94 62 95 64 96 61 97
REMARK H PARENT 24 4 7 22 90 31 31 40 81 59 55 70
REMARK Flexibility Score: inf
ROOT
ATOM      1  C   UNL A   1      41.477  25.042  28.186  1.00  0.00     0.227 C 
ATOM      2  O   UNL A   1      42.520  25.358  28.772  1.00  0.00    -0.274 OA
ATOM      3  N   UNL A   1      41.303  23.714  27.946  1.00  0.00    -0.356 N 
ATOM      4  H   UNL A   1      42.005  23.140  28.329  1.00  0.00     0.163 HD
ENDROOT
BRANCH   1   5
ATOM      5  C   UNL A   1      40.454  26.122  27.806  1.00  0.00     0.105 C 
ATOM      6  C   UNL A   1      40.791  26.878  26.520  1.00  0.00     0.023 C 
BRANCH   5   7
ATOM      7  C   UNL A   1      39.993  26.984  28.971  1.00  0.00    -0.032 A 
ATOM      8  C   UNL A   1      39.146  28.701  31.109  1.00  0.00     0.024 A 
ATOM      9  C   UNL A   1      38.528  27.463  30.858  1.00  0.00     0.013 A 
ATOM     10  C   UNL A   1      40.229  29.032  30.277  1.00  0.00     0.123 A 
ATOM     11  C   UNL A   1      38.968  26.607  29.842  1.00  0.00     0.005 A 
ATOM     12  C   UNL A   1      40.618  28.216  29.207  1.00  0.00     0.051 A 
BRANCH   8  13
ATOM     13  C   UNL A   1      38.639  29.564  32.203  1.00  0.00    -0.011 A 
ATOM     14  C   UNL A   1      36.980  31.076  33.139  1.00  0.00     0.133 A 
ATOM     15  C   UNL A   1      37.725  31.231  34.304  1.00  0.00     0.047 A 
ATOM     16  C   UNL A   1      37.412  30.243  32.103  1.00  0.00     0.056 A 
ATOM     17  C   UNL A   1      38.922  30.540  34.437  1.00  0.00     0.004 A 
ATOM     18  C   UNL A   1      39.379  29.730  33.393  1.00  0.00     0.009 A 
BRANCH  14  19
ATOM     19  O   UNL A   1      35.871  31.926  32.990  1.00  0.00    -0.410 OA
BRANCH  19  20
ATOM     20  C   UNL A   1      35.909  33.208  33.514  1.00  0.00     0.412 C 
ATOM     21  N   UNL A   1      36.300  34.141  32.593  1.00  0.00    -0.321 N 
ATOM     22  H   UNL A   1      36.373  35.071  32.911  1.00  0.00     0.167 HD
ATOM     23  O   UNL A   1      35.643  33.521  34.667  1.00  0.00    -0.224 OA
BRANCH  21  24
ATOM     24  C   UNL A   1      36.616  33.902  31.200  1.00  0.00     0.119 C 
BRANCH  24  25
ATOM     25  C   UNL A   1      38.124  33.801  30.961  1.00  0.00     0.021 C 
BRANCH  25  26
ATOM     26  C   UNL A   1      38.540  32.771  29.905  1.00  0.00     0.002 C 
BRANCH  26  27
ATOM     27  C   UNL A   1      37.388  32.070  29.176  1.00  0.00    -0.000 C 
BRANCH  27  28
ATOM     28  C   UNL A   1      37.777  30.819  28.384  1.00  0.00    -0.003 C 
ATOM     29  C   UNL A   1      36.717  29.731  28.420  1.00  0.00     0.004 C 
ENDBRANCH  27  28
ENDBRANCH  26  27
ENDBRANCH  25  26
ENDBRANCH  24  25
ENDBRANCH  21  24
ENDBRANCH  19  20
ENDBRANCH  14  19
ENDBRANCH   8  13
BRANCH  10  30
ATOM     30  O   UNL A   1      41.012  30.140  30.476  1.00  0.00    -0.507 OA
ATOM     31  H   UNL A   1      40.614  30.976  30.621  1.00  0.00     0.293 HD
ENDBRANCH  10  30
ENDBRANCH   5   7
ENDBRANCH   1   5
BRANCH   3  32
ATOM     32  C   UNL A   1      40.275  22.991  27.228  1.00  0.00     0.116 C 
BRANCH  32  33
ATOM     33  C   UNL A   1      40.873  22.041  26.189  1.00  0.00     0.021 C 
BRANCH  33  34
ATOM     34  C   UNL A   1      42.404  21.974  26.219  1.00  0.00     0.002 C 
BRANCH  34  35
ATOM     35  C   UNL A   1      43.106  22.587  24.998  1.00  0.00     0.002 C 
BRANCH  35  36
ATOM     36  C   UNL A   1      43.703  23.980  25.211  1.00  0.00     0.021 C 
BRANCH  36  37
ATOM     37  C   UNL A   1      45.115  23.991  25.792  1.00  0.00     0.116 C 
BRANCH  37  38
ATOM     38  N   UNL A   1      46.020  24.809  25.001  1.00  0.00    -0.352 N 
ATOM     39  C   UNL A   1      46.272  26.156  25.066  1.00  0.00     0.251 C 
ATOM     40  H   UNL A   1      46.529  24.322  24.314  1.00  0.00     0.163 HD
ATOM     41  O   UNL A   1      46.895  26.709  24.166  1.00  0.00    -0.269 OA
BRANCH  39  42
ATOM     42  C   UNL A   1      45.789  26.951  26.217  1.00  0.00     0.039 A 
ATOM     43  C   UNL A   1      46.690  27.283  27.234  1.00  0.00     0.014 A 
ATOM     44  C   UNL A   1      44.449  27.332  26.315  1.00  0.00     0.014 A 
ATOM     45  C   UNL A   1      46.257  28.043  28.322  1.00  0.00     0.010 A 
ATOM     46  C   UNL A   1      44.033  28.142  27.371  1.00  0.00     0.010 A 
ATOM     47  C   UNL A   1      44.932  28.502  28.386  1.00  0.00    -0.014 A 
BRANCH  47  48
ATOM     48  C   UNL A   1      44.468  29.363  29.504  1.00  0.00     0.031 A 
ATOM     49  C   UNL A   1      44.154  28.759  30.846  1.00  0.00     0.074 A 
ATOM     50  C   UNL A   1      44.257  30.676  29.288  1.00  0.00     0.049 A 
ATOM     51  N   UNL A   1      43.654  29.330  31.911  1.00  0.00    -0.248 NA
ATOM     52  C   UNL A   1      44.412  27.319  31.002  1.00  0.00     0.031 C 
ATOM     53  C   UNL A   1      44.473  31.371  28.017  1.00  0.00     0.029 A 
ATOM     54  N   UNL A   1      43.793  31.658  30.128  1.00  0.00    -0.354 N 
ATOM     55  C   UNL A   1      43.515  28.319  32.854  1.00  0.00     0.074 A 
ATOM     56  C   UNL A   1      43.950  27.091  32.223  1.00  0.00     0.031 C 
ATOM     57  C   UNL A   1      44.147  32.665  28.163  1.00  0.00     0.029 A 
ATOM     58  C   UNL A   1      43.670  32.886  29.524  1.00  0.00     0.049 A 
ATOM     59  H   UNL A   1      43.568  31.497  31.073  1.00  0.00     0.167 HD
ATOM     60  C   UNL A   1      43.081  28.410  34.133  1.00  0.00     0.037 A 
ATOM     61  C   UNL A   1      43.210  34.055  30.009  1.00  0.00     0.037 A 
ATOM     62  C   UNL A   1      42.689  29.639  34.771  1.00  0.00     0.049 A 
ATOM     63  C   UNL A   1      42.757  34.131  31.441  1.00  0.00     0.074 A 
ATOM     64  C   UNL A   1      42.318  29.844  36.089  1.00  0.00     0.029 A 
ATOM     65  N   UNL A   1      42.621  30.871  34.139  1.00  0.00    -0.354 N 
ATOM     66  N   UNL A   1      42.707  33.180  32.343  1.00  0.00    -0.248 NA
ATOM     67  C   UNL A   1      42.302  35.443  31.925  1.00  0.00     0.031 C 
ATOM     68  C   UNL A   1      41.986  31.193  36.244  1.00  0.00     0.029 A 
ATOM     69  C   UNL A   1      42.191  31.835  35.034  1.00  0.00     0.049 A 
ATOM     70  H   UNL A   1      42.845  31.034  33.194  1.00  0.00     0.167 HD
ATOM     71  C   UNL A   1      42.243  33.783  33.505  1.00  0.00     0.074 A 
ATOM     72  C   UNL A   1      42.041  35.184  33.198  1.00  0.00     0.031 C 
ATOM     73  C   UNL A   1      42.005  33.227  34.716  1.00  0.00     0.037 A 
BRANCH  60  74
ATOM     74  C   UNL A   1      43.009  27.146  34.939  1.00  0.00     0.057 A 
ATOM     75  C   UNL A   1      44.091  26.698  35.706  1.00  0.00     0.134 A 
ATOM     76  C   UNL A   1      41.820  26.408  35.002  1.00  0.00     0.134 A 
ATOM     77  F   UNL A   1      45.260  27.355  35.682  1.00  0.00    -0.206 F 
ATOM     78  C   UNL A   1      43.998  25.552  36.497  1.00  0.00     0.040 A 
ATOM     79  C   UNL A   1      41.708  25.274  35.807  1.00  0.00     0.040 A 
ATOM     80  F   UNL A   1      40.744  26.788  34.296  1.00  0.00    -0.206 F 
ATOM     81  C   UNL A   1      42.800  24.840  36.556  1.00  0.00     0.006 A 
ENDBRANCH  60  74
BRANCH  61  82
ATOM     82  C   UNL A   1      43.159  35.256  29.139  1.00  0.00     0.057 A 
ATOM     83  C   UNL A   1      44.298  36.039  28.916  1.00  0.00     0.134 A 
ATOM     84  C   UNL A   1      41.967  35.663  28.527  1.00  0.00     0.134 A 
ATOM     85  F   UNL A   1      45.465  35.710  29.491  1.00  0.00    -0.206 F 
ATOM     86  C   UNL A   1      44.248  37.199  28.142  1.00  0.00     0.040 A 
ATOM     87  C   UNL A   1      41.909  36.806  27.729  1.00  0.00     0.040 A 
ATOM     88  F   UNL A   1      40.842  34.951  28.694  1.00  0.00    -0.206 F 
ATOM     89  C   UNL A   1      43.051  37.584  27.542  1.00  0.00     0.006 A 
ENDBRANCH  61  82
BRANCH  73  90
ATOM     90  C   UNL A   1      41.530  34.137  35.809  1.00  0.00     0.057 A 
ATOM     91  C   UNL A   1      42.421  34.757  36.693  1.00  0.00     0.134 A 
ATOM     92  C   UNL A   1      40.167  34.427  35.953  1.00  0.00     0.134 A 
ATOM     93  F   UNL A   1      43.737  34.508  36.616  1.00  0.00    -0.206 F 
ATOM     94  C   UNL A   1      41.973  35.619  37.694  1.00  0.00     0.040 A 
ATOM     95  C   UNL A   1      39.708  35.307  36.934  1.00  0.00     0.040 A 
ATOM     96  F   UNL A   1      39.262  33.873  35.131  1.00  0.00    -0.206 F 
ATOM     97  C   UNL A   1      40.613  35.902  37.811  1.00  0.00     0.006 A 
ENDBRANCH  73  90
ENDBRANCH  47  48
ENDBRANCH  39  42
ENDBRANCH  37  38
ENDBRANCH  36  37
ENDBRANCH  35  36
ENDBRANCH  34  35
ENDBRANCH  33  34
ENDBRANCH  32  33
ENDBRANCH   3  32
TORSDOF 23
ENDMDL
MODEL 2
REMARK VINA RESULT:      -7.8      4.474     10.437
REMARK SMILES CCCCCCNC(=O)Oc1cccc(-c2ccc([C@@H](C)C(=O)NCCCCCCNC(=O)c3ccc(-c4c5nc(c(-c6c(F)cccc6F)c6ccc([nH]6)c(-c6c(F)cccc6F)c6nc(c(-c7c(F)cccc7F)c7ccc4[nH]7)C=C6)C=C5)cc3)cc2O)c1
REMARK SMILES IDX 22 1 23 2 24 3 20 5 21 6 19 7 16 8 17 9 89 10 18 11 88 12
REMARK SMILES IDX 15 13 11 14 12 15 91 16 13 17 14 18 10 19 8 20 7 21 9 23
REMARK SMILES IDX 6 24 5 25 4 26 3 27 2 28 1 29 90 30 25 32 26 33 27 34 28 35
REMARK SMILES IDX 29 36 30 37 31 38 32 39 33 41 34 42 35 43 87 44 36 45 86 46
REMARK SMILES IDX 37 47 38 48 39 49 80 50 40 51 85 52 79 53 81 54 41 55 84 56
REMARK SMILES IDX 78 57 77 58 42 60 68 61 51 62 67 63 52 64 55 65 66 66 82 67
REMARK SMILES IDX 53 68 54 69 65 71 83 72 56 73 43 74 44 75 49 76 45 77 46 78
REMARK SMILES IDX 48 79 50 80 47 81 69 82 70 83 75 84 71 85 72 86 74 87 76 88
REMARK SMILES IDX 73 89 57 90 58 91 63 92 59 93 60 94 62 95 64 96 61 97
REMARK H PARENT 24 4 7 22 90 31 31 40 81 59 55 70
REMARK Flexibility Score: inf
ROOT
ATOM      1  C   UNL A   1      34.795  33.697  29.832  1.00  0.00     0.227 C 
ATOM      2  O   UNL A   1      34.431  34.613  29.082  1.00  0.00    -0.274 OA
ATOM      3  N   UNL A   1      34.180  33.635  31.044  1.00  0.00    -0.356 N 
ATOM      4  H   UNL A   1      33.458  34.294  31.163  1.00  0.00     0.163 HD
ENDROOT
BRANCH   1   5
ATOM      5  C   UNL A   1      35.858  32.695  29.358  1.00  0.00     0.105 C 
ATOM      6  C   UNL A   1      37.142  33.343  28.840  1.00  0.00     0.023 C 
BRANCH   5   7
ATOM      7  C   UNL A   1      35.310  31.557  28.510  1.00  0.00    -0.032 A 
ATOM      8  C   UNL A   1      34.221  29.484  26.852  1.00  0.00     0.024 A 
ATOM      9  C   UNL A   1      35.524  29.413  27.374  1.00  0.00     0.013 A 
ATOM     10  C   UNL A   1      33.467  30.611  27.221  1.00  0.00     0.123 A 
ATOM     11  C   UNL A   1      36.041  30.403  28.218  1.00  0.00     0.005 A 
ATOM     12  C   UNL A   1      34.010  31.644  27.996  1.00  0.00     0.051 A 
BRANCH   8  13
ATOM     13  C   UNL A   1      33.726  28.402  25.968  1.00  0.00    -0.011 A 
ATOM     14  C   UNL A   1      32.822  26.171  25.621  1.00  0.00     0.133 A 
ATOM     15  C   UNL A   1      32.821  26.346  24.241  1.00  0.00     0.047 A 
ATOM     16  C   UNL A   1      33.250  27.183  26.483  1.00  0.00     0.056 A 
ATOM     17  C   UNL A   1      33.253  27.556  23.712  1.00  0.00     0.004 A 
ATOM     18  C   UNL A   1      33.714  28.563  24.566  1.00  0.00     0.009 A 
BRANCH  14  19
ATOM     19  O   UNL A   1      32.538  24.876  26.086  1.00  0.00    -0.410 OA
BRANCH  19  20
ATOM     20  C   UNL A   1      31.225  24.497  26.315  1.00  0.00     0.412 C 
ATOM     21  N   UNL A   1      31.049  23.142  26.249  1.00  0.00    -0.321 N 
ATOM     22  H   UNL A   1      30.131  22.809  26.377  1.00  0.00     0.167 HD
ATOM     23  O   UNL A   1      30.288  25.252  26.543  1.00  0.00    -0.224 OA
BRANCH  21  24
ATOM     24  C   UNL A   1      32.076  22.147  26.012  1.00  0.00     0.119 C 
BRANCH  24  25
ATOM     25  C   UNL A   1      32.237  21.830  24.525  1.00  0.00     0.021 C 
BRANCH  25  26
ATOM     26  C   UNL A   1      33.429  20.929  24.185  1.00  0.00     0.002 C 
BRANCH  26  27
ATOM     27  C   UNL A   1      34.797  21.441  24.650  1.00  0.00    -0.000 C 
BRANCH  27  28
ATOM     28  C   UNL A   1      35.163  22.853  24.185  1.00  0.00    -0.003 C 
ATOM     29  C   UNL A   1      36.392  22.892  23.291  1.00  0.00     0.004 C 
ENDBRANCH  27  28
ENDBRANCH  26  27
ENDBRANCH  25  26
ENDBRANCH  24  25
ENDBRANCH  21  24
ENDBRANCH  19  20
ENDBRANCH  14  19
ENDBRANCH   8  13
BRANCH  10  30
ATOM     30  O   UNL A   1      32.143  30.762  26.899  1.00  0.00    -0.507 OA
ATOM     31  H   UNL A   1      31.479  30.461  27.490  1.00  0.00     0.293 HD
ENDBRANCH  10  30
ENDBRANCH   5   7
ENDBRANCH   1   5
BRANCH   3  32
ATOM     32  C   UNL A   1      34.394  32.778  32.189  1.00  0.00     0.116 C 
BRANCH  32  33
ATOM     33  C   UNL A   1      34.398  33.573  33.497  1.00  0.00     0.021 C 
BRANCH  33  34
ATOM     34  C   UNL A   1      35.533  34.597  33.595  1.00  0.00     0.002 C 
BRANCH  34  35
ATOM     35  C   UNL A   1      36.943  34.031  33.376  1.00  0.00     0.002 C 
BRANCH  35  36
ATOM     36  C   UNL A   1      37.447  33.075  34.462  1.00  0.00     0.021 C 
BRANCH  36  37
ATOM     37  C   UNL A   1      38.026  31.761  33.942  1.00  0.00     0.116 C 
BRANCH  37  38
ATOM     38  N   UNL A   1      37.010  30.937  33.306  1.00  0.00    -0.352 N 
ATOM     39  C   UNL A   1      37.092  30.148  32.188  1.00  0.00     0.251 C 
ATOM     40  H   UNL A   1      36.130  30.948  33.746  1.00  0.00     0.163 HD
ATOM     41  O   UNL A   1      36.071  29.708  31.670  1.00  0.00    -0.269 OA
BRANCH  39  42
ATOM     42  C   UNL A   1      38.409  29.827  31.596  1.00  0.00     0.039 A 
ATOM     43  C   UNL A   1      39.261  28.952  32.276  1.00  0.00     0.014 A 
ATOM     44  C   UNL A   1      38.822  30.417  30.398  1.00  0.00     0.014 A 
ATOM     45  C   UNL A   1      40.504  28.627  31.728  1.00  0.00     0.010 A 
ATOM     46  C   UNL A   1      40.035  30.045  29.822  1.00  0.00     0.010 A 
ATOM     47  C   UNL A   1      40.890  29.149  30.483  1.00  0.00    -0.014 A 
BRANCH  47  48
ATOM     48  C   UNL A   1      42.179  28.767  29.854  1.00  0.00     0.031 A 
ATOM     49  C   UNL A   1      42.322  27.437  29.165  1.00  0.00     0.074 A 
ATOM     50  C   UNL A   1      43.244  29.585  29.970  1.00  0.00     0.049 A 
ATOM     51  N   UNL A   1      43.387  26.890  28.639  1.00  0.00    -0.248 NA
ATOM     52  C   UNL A   1      41.114  26.601  29.080  1.00  0.00     0.031 C 
ATOM     53  C   UNL A   1      43.248  30.877  30.660  1.00  0.00     0.029 A 
ATOM     54  N   UNL A   1      44.535  29.441  29.527  1.00  0.00    -0.354 N 
ATOM     55  C   UNL A   1      42.986  25.640  28.183  1.00  0.00     0.074 A 
ATOM     56  C   UNL A   1      41.588  25.494  28.525  1.00  0.00     0.031 C 
ATOM     57  C   UNL A   1      44.478  31.409  30.589  1.00  0.00     0.029 A 
ATOM     58  C   UNL A   1      45.357  30.484  29.880  1.00  0.00     0.049 A 
ATOM     59  H   UNL A   1      44.844  28.664  29.007  1.00  0.00     0.167 HD
ATOM     60  C   UNL A   1      43.713  24.708  27.523  1.00  0.00     0.037 A 
ATOM     61  C   UNL A   1      46.674  30.668  29.668  1.00  0.00     0.037 A 
ATOM     62  C   UNL A   1      45.092  24.873  27.145  1.00  0.00     0.049 A 
ATOM     63  C   UNL A   1      47.450  29.626  28.912  1.00  0.00     0.074 A 
ATOM     64  C   UNL A   1      45.888  24.021  26.400  1.00  0.00     0.029 A 
ATOM     65  N   UNL A   1      45.878  25.964  27.482  1.00  0.00    -0.354 N 
ATOM     66  N   UNL A   1      47.036  28.485  28.417  1.00  0.00    -0.248 NA
ATOM     67  C   UNL A   1      48.876  29.899  28.677  1.00  0.00     0.031 C 
ATOM     68  C   UNL A   1      47.168  24.576  26.319  1.00  0.00     0.029 A 
ATOM     69  C   UNL A   1      47.157  25.795  26.979  1.00  0.00     0.049 A 
ATOM     70  H   UNL A   1      45.573  26.742  28.001  1.00  0.00     0.167 HD
ATOM     71  C   UNL A   1      48.139  27.919  27.792  1.00  0.00     0.074 A 
ATOM     72  C   UNL A   1      49.237  28.848  27.956  1.00  0.00     0.031 C 
ATOM     73  C   UNL A   1      48.236  26.735  27.141  1.00  0.00     0.037 A 
BRANCH  60  74
ATOM     74  C   UNL A   1      43.034  23.421  27.157  1.00  0.00     0.057 A 
ATOM     75  C   UNL A   1      42.601  23.161  25.851  1.00  0.00     0.134 A 
ATOM     76  C   UNL A   1      42.876  22.404  28.107  1.00  0.00     0.134 A 
ATOM     77  F   UNL A   1      42.716  24.097  24.898  1.00  0.00    -0.206 F 
ATOM     78  C   UNL A   1      42.020  21.939  25.506  1.00  0.00     0.040 A 
ATOM     79  C   UNL A   1      42.318  21.170  27.768  1.00  0.00     0.040 A 
ATOM     80  F   UNL A   1      43.277  22.587  29.375  1.00  0.00    -0.206 F 
ATOM     81  C   UNL A   1      41.885  20.936  26.465  1.00  0.00     0.006 A 
ENDBRANCH  60  74
BRANCH  61  82
ATOM     82  C   UNL A   1      47.348  31.891  30.172  1.00  0.00     0.057 A 
ATOM     83  C   UNL A   1      47.342  33.079  29.432  1.00  0.00     0.134 A 
ATOM     84  C   UNL A   1      48.035  31.895  31.393  1.00  0.00     0.134 A 
ATOM     85  F   UNL A   1      46.717  33.131  28.246  1.00  0.00    -0.206 F 
ATOM     86  C   UNL A   1      48.016  34.219  29.873  1.00  0.00     0.040 A 
ATOM     87  C   UNL A   1      48.691  33.035  31.858  1.00  0.00     0.040 A 
ATOM     88  F   UNL A   1      48.071  30.790  32.153  1.00  0.00    -0.206 F 
ATOM     89  C   UNL A   1      48.691  34.199  31.092  1.00  0.00     0.006 A 
ENDBRANCH  61  82
BRANCH  73  90
ATOM     90  C   UNL A   1      49.561  26.391  26.531  1.00  0.00     0.057 A 
ATOM     91  C   UNL A   1      49.944  26.878  25.275  1.00  0.00     0.134 A 
ATOM     92  C   UNL A   1      50.481  25.596  27.226  1.00  0.00     0.134 A 
ATOM     93  F   UNL A   1      49.102  27.633  24.554  1.00  0.00    -0.206 F 
ATOM     94  C   UNL A   1      51.188  26.571  24.724  1.00  0.00     0.040 A 
ATOM     95  C   UNL A   1      51.738  25.301  26.696  1.00  0.00     0.040 A 
ATOM     96  F   UNL A   1      50.179  25.105  28.438  1.00  0.00    -0.206 F 
ATOM     97  C   UNL A   1      52.092  25.786  25.439  1.00  0.00     0.006 A 
ENDBRANCH  73  90
ENDBRANCH  47  48
ENDBRANCH  39  42
ENDBRANCH  37  38
ENDBRANCH  36  37
ENDBRANCH  35  36
ENDBRANCH  34  35
ENDBRANCH  33  34
ENDBRANCH  32  33
ENDBRANCH   3  32
TORSDOF 23
ENDMDL
MODEL 3
REMARK VINA RESULT:      -7.6      4.542      9.472
REMARK SMILES CCCCCCNC(=O)Oc1cccc(-c2ccc([C@@H](C)C(=O)NCCCCCCNC(=O)c3ccc(-c4c5nc(c(-c6c(F)cccc6F)c6ccc([nH]6)c(-c6c(F)cccc6F)c6nc(c(-c7c(F)cccc7F)c7ccc4[nH]7)C=C6)C=C5)cc3)cc2O)c1
REMARK SMILES IDX 22 1 23 2 24 3 20 5 21 6 19 7 16 8 17 9 89 10 18 11 88 12
REMARK SMILES IDX 15 13 11 14 12 15 91 16 13 17 14 18 10 19 8 20 7 21 9 23
REMARK SMILES IDX 6 24 5 25 4 26 3 27 2 28 1 29 90 30 25 32 26 33 27 34 28 35
REMARK SMILES IDX 29 36 30 37 31 38 32 39 33 41 34 42 35 43 87 44 36 45 86 46
REMARK SMILES IDX 37 47 38 48 39 49 80 50 40 51 85 52 79 53 81 54 41 55 84 56
REMARK SMILES IDX 78 57 77 58 42 60 68 61 51 62 67 63 52 64 55 65 66 66 82 67
REMARK SMILES IDX 53 68 54 69 65 71 83 72 56 73 43 74 44 75 49 76 45 77 46 78
REMARK SMILES IDX 48 79 50 80 47 81 69 82 70 83 75 84 71 85 72 86 74 87 76 88
REMARK SMILES IDX 73 89 57 90 58 91 63 92 59 93 60 94 62 95 64 96 61 97
REMARK H PARENT 24 4 7 22 90 31 31 40 81 59 55 70
REMARK Flexibility Score: inf
ROOT
ATOM      1  C   UNL A   1      41.593  31.314  31.811  1.00  0.00     0.227 C 
ATOM      2  O   UNL A   1      42.525  31.983  32.275  1.00  0.00    -0.274 OA
ATOM      3  N   UNL A   1      41.842  30.669  30.640  1.00  0.00    -0.356 N 
ATOM      4  H   UNL A   1      42.770  30.755  30.323  1.00  0.00     0.163 HD
ENDROOT
BRANCH   1   5
ATOM      5  C   UNL A   1      40.262  31.224  32.573  1.00  0.00     0.105 C 
ATOM      6  C   UNL A   1      40.105  29.954  33.410  1.00  0.00     0.023 C 
BRANCH   5   7
ATOM      7  C   UNL A   1      39.045  31.622  31.752  1.00  0.00    -0.032 A 
ATOM      8  C   UNL A   1      36.683  32.326  30.281  1.00  0.00     0.024 A 
ATOM      9  C   UNL A   1      37.825  33.146  30.295  1.00  0.00     0.013 A 
ATOM     10  C   UNL A   1      36.779  31.120  30.997  1.00  0.00     0.123 A 
ATOM     11  C   UNL A   1      38.992  32.783  30.978  1.00  0.00     0.005 A 
ATOM     12  C   UNL A   1      37.914  30.793  31.749  1.00  0.00     0.051 A 
BRANCH   8  13
ATOM     13  C   UNL A   1      35.478  32.761  29.536  1.00  0.00    -0.011 A 
ATOM     14  C   UNL A   1      33.592  34.262  29.209  1.00  0.00     0.133 A 
ATOM     15  C   UNL A   1      33.160  33.537  28.103  1.00  0.00     0.047 A 
ATOM     16  C   UNL A   1      34.743  33.898  29.913  1.00  0.00     0.056 A 
ATOM     17  C   UNL A   1      33.893  32.431  27.691  1.00  0.00     0.004 A 
ATOM     18  C   UNL A   1      35.027  32.041  28.409  1.00  0.00     0.009 A 
BRANCH  14  19
ATOM     19  O   UNL A   1      32.723  35.261  29.679  1.00  0.00    -0.410 OA
BRANCH  19  20
ATOM     20  C   UNL A   1      33.106  36.591  29.620  1.00  0.00     0.412 C 
ATOM     21  N   UNL A   1      33.268  37.148  30.859  1.00  0.00    -0.321 N 
ATOM     22  H   UNL A   1      33.514  38.101  30.887  1.00  0.00     0.167 HD
ATOM     23  O   UNL A   1      33.281  37.244  28.599  1.00  0.00    -0.224 OA
BRANCH  21  24
ATOM     24  C   UNL A   1      33.115  36.477  32.135  1.00  0.00     0.119 C 
BRANCH  24  25
ATOM     25  C   UNL A   1      34.408  36.494  32.952  1.00  0.00     0.021 C 
BRANCH  25  26
ATOM     26  C   UNL A   1      34.749  35.169  33.643  1.00  0.00     0.002 C 
BRANCH  26  27
ATOM     27  C   UNL A   1      36.058  34.509  33.196  1.00  0.00    -0.000 C 
BRANCH  27  28
ATOM     28  C   UNL A   1      37.088  34.275  34.305  1.00  0.00    -0.003 C 
ATOM     29  C   UNL A   1      37.163  32.826  34.758  1.00  0.00     0.004 C 
ENDBRANCH  27  28
ENDBRANCH  26  27
ENDBRANCH  25  26
ENDBRANCH  24  25
ENDBRANCH  21  24
ENDBRANCH  19  20
ENDBRANCH  14  19
ENDBRANCH   8  13
BRANCH  10  30
ATOM     30  O   UNL A   1      35.802  30.159  30.974  1.00  0.00    -0.507 OA
ATOM     31  H   UNL A   1      34.955  30.359  30.625  1.00  0.00     0.293 HD
ENDBRANCH  10  30
ENDBRANCH   5   7
ENDBRANCH   1   5
BRANCH   3  32
ATOM     32  C   UNL A   1      40.992  29.882  29.774  1.00  0.00     0.116 C 
BRANCH  32  33
ATOM     33  C   UNL A   1      41.038  28.396  30.136  1.00  0.00     0.021 C 
BRANCH  33  34
ATOM     34  C   UNL A   1      41.130  27.465  28.922  1.00  0.00     0.002 C 
BRANCH  34  35
ATOM     35  C   UNL A   1      39.783  27.053  28.312  1.00  0.00     0.002 C 
BRANCH  35  36
ATOM     36  C   UNL A   1      39.583  25.549  28.106  1.00  0.00     0.021 C 
BRANCH  36  37
ATOM     37  C   UNL A   1      39.707  25.078  26.660  1.00  0.00     0.116 C 
BRANCH  37  38
ATOM     38  N   UNL A   1      40.411  23.809  26.563  1.00  0.00    -0.352 N 
ATOM     39  C   UNL A   1      41.737  23.555  26.321  1.00  0.00     0.251 C 
ATOM     40  H   UNL A   1      39.850  23.011  26.692  1.00  0.00     0.163 HD
ATOM     41  O   UNL A   1      42.106  22.418  26.047  1.00  0.00    -0.269 OA
BRANCH  39  42
ATOM     42  C   UNL A   1      42.729  24.651  26.380  1.00  0.00     0.039 A 
ATOM     43  C   UNL A   1      43.345  24.938  27.603  1.00  0.00     0.014 A 
ATOM     44  C   UNL A   1      43.022  25.419  25.250  1.00  0.00     0.014 A 
ATOM     45  C   UNL A   1      44.294  25.960  27.678  1.00  0.00     0.010 A 
ATOM     46  C   UNL A   1      44.013  26.397  25.313  1.00  0.00     0.010 A 
ATOM     47  C   UNL A   1      44.656  26.680  26.528  1.00  0.00    -0.014 A 
BRANCH  47  48
ATOM     48  C   UNL A   1      45.707  27.728  26.573  1.00  0.00     0.031 A 
ATOM     49  C   UNL A   1      45.327  29.176  26.728  1.00  0.00     0.074 A 
ATOM     50  C   UNL A   1      46.998  27.383  26.400  1.00  0.00     0.049 A 
ATOM     51  N   UNL A   1      46.091  30.237  26.698  1.00  0.00    -0.248 NA
ATOM     52  C   UNL A   1      43.897  29.470  26.913  1.00  0.00     0.031 C 
ATOM     53  C   UNL A   1      47.489  26.020  26.188  1.00  0.00     0.029 A 
ATOM     54  N   UNL A   1      48.132  28.156  26.353  1.00  0.00    -0.354 N 
ATOM     55  C   UNL A   1      45.236  31.324  26.837  1.00  0.00     0.074 A 
ATOM     56  C   UNL A   1      43.891  30.796  26.914  1.00  0.00     0.031 C 
ATOM     57  C   UNL A   1      48.823  26.052  26.039  1.00  0.00     0.029 A 
ATOM     58  C   UNL A   1      49.277  27.437  26.112  1.00  0.00     0.049 A 
ATOM     59  H   UNL A   1      48.124  29.132  26.479  1.00  0.00     0.167 HD
ATOM     60  C   UNL A   1      45.547  32.639  26.909  1.00  0.00     0.037 A 
ATOM     61  C   UNL A   1      50.549  27.849  25.954  1.00  0.00     0.037 A 
ATOM     62  C   UNL A   1      46.888  33.159  26.875  1.00  0.00     0.049 A 
ATOM     63  C   UNL A   1      50.867  29.315  26.064  1.00  0.00     0.074 A 
ATOM     64  C   UNL A   1      47.308  34.469  27.029  1.00  0.00     0.029 A 
ATOM     65  N   UNL A   1      48.027  32.394  26.675  1.00  0.00    -0.354 N 
ATOM     66  N   UNL A   1      50.056  30.322  26.275  1.00  0.00    -0.248 NA
ATOM     67  C   UNL A   1      52.279  29.701  25.921  1.00  0.00     0.031 C 
ATOM     68  C   UNL A   1      48.698  34.503  26.882  1.00  0.00     0.029 A 
ATOM     69  C   UNL A   1      49.147  33.209  26.678  1.00  0.00     0.049 A 
ATOM     70  H   UNL A   1      48.037  31.418  26.549  1.00  0.00     0.167 HD
ATOM     71  C   UNL A   1      50.858  31.455  26.317  1.00  0.00     0.074 A 
ATOM     72  C   UNL A   1      52.222  31.009  26.125  1.00  0.00     0.031 C 
ATOM     73  C   UNL A   1      50.499  32.748  26.497  1.00  0.00     0.037 A 
BRANCH  60  74
ATOM     74  C   UNL A   1      44.418  33.619  27.041  1.00  0.00     0.057 A 
ATOM     75  C   UNL A   1      43.937  34.027  28.291  1.00  0.00     0.134 A 
ATOM     76  C   UNL A   1      43.853  34.212  25.904  1.00  0.00     0.134 A 
ATOM     77  F   UNL A   1      44.429  33.491  29.417  1.00  0.00    -0.206 F 
ATOM     78  C   UNL A   1      42.924  34.981  28.406  1.00  0.00     0.040 A 
ATOM     79  C   UNL A   1      42.856  35.183  26.007  1.00  0.00     0.040 A 
ATOM     80  F   UNL A   1      44.274  33.870  24.677  1.00  0.00    -0.206 F 
ATOM     81  C   UNL A   1      42.386  35.568  27.261  1.00  0.00     0.006 A 
ENDBRANCH  60  74
BRANCH  61  82
ATOM     82  C   UNL A   1      51.625  26.864  25.680  1.00  0.00     0.057 A 
ATOM     83  C   UNL A   1      52.069  26.619  24.375  1.00  0.00     0.134 A 
ATOM     84  C   UNL A   1      52.219  26.126  26.712  1.00  0.00     0.134 A 
ATOM     85  F   UNL A   1      51.525  27.281  23.343  1.00  0.00    -0.206 F 
ATOM     86  C   UNL A   1      53.043  25.658  24.102  1.00  0.00     0.040 A 
ATOM     87  C   UNL A   1      53.212  25.181  26.457  1.00  0.00     0.040 A 
ATOM     88  F   UNL A   1      51.844  26.320  27.986  1.00  0.00    -0.206 F 
ATOM     89  C   UNL A   1      53.621  24.937  25.146  1.00  0.00     0.006 A 
ENDBRANCH  61  82
BRANCH  73  90
ATOM     90  C   UNL A   1      51.596  33.769  26.527  1.00  0.00     0.057 A 
ATOM     91  C   UNL A   1      52.029  34.422  25.367  1.00  0.00     0.134 A 
ATOM     92  C   UNL A   1      52.198  34.133  27.738  1.00  0.00     0.134 A 
ATOM     93  F   UNL A   1      51.501  34.108  24.174  1.00  0.00    -0.206 F 
ATOM     94  C   UNL A   1      53.036  35.386  25.406  1.00  0.00     0.040 A 
ATOM     95  C   UNL A   1      53.189  35.114  27.795  1.00  0.00     0.040 A 
ATOM     96  F   UNL A   1      51.822  33.551  28.888  1.00  0.00    -0.206 F 
ATOM     97  C   UNL A   1      53.613  35.740  26.625  1.00  0.00     0.006 A 
ENDBRANCH  73  90
ENDBRANCH  47  48
ENDBRANCH  39  42
ENDBRANCH  37  38
ENDBRANCH  36  37
ENDBRANCH  35  36
ENDBRANCH  34  35
ENDBRANCH  33  34
ENDBRANCH  32  33
ENDBRANCH   3  32
TORSDOF 23
ENDMDL
