MODEL 1
REMARK VINA RESULT:     -11.9      0.000      0.000
REMARK SMILES C[C@@H]1CN(S(=O)(=O)N2CCC(C(=O)NCCCCCCNC(=O)c3ccc(-c4c5nc(c(-c6c(F)cccc6F)c6ccc([nH]6)c(-c6c(F)cccc6F)c6nc(c(-c7c(F)cccc7F)c7ccc4[nH]7)C=C6)C=C5)cc3)CC2)C[C@@H](C)O1
REMARK SMILES IDX 17 1 16 2 15 3 14 4 12 5 13 6 11 8 8 9 9 10 79 11 10 12
REMARK SMILES IDX 78 13 5 14 6 15 7 16 4 17 1 18 2 19 3 20 83 21 81 22 80 23
REMARK SMILES IDX 82 24 18 25 19 26 20 27 21 28 22 29 23 31 24 32 25 33 77 34
REMARK SMILES IDX 26 35 76 36 27 37 28 38 29 39 70 40 30 41 75 42 69 43 71 44
REMARK SMILES IDX 31 45 74 46 68 47 67 48 32 50 58 51 41 52 57 53 42 54 45 55
REMARK SMILES IDX 56 56 72 57 43 58 44 59 55 61 73 62 46 63 33 64 34 65 39 66
REMARK SMILES IDX 35 67 36 68 38 69 40 70 37 71 59 72 60 73 65 74 61 75 62 76
REMARK SMILES IDX 64 77 66 78 63 79 47 80 48 81 53 82 49 83 50 84 52 85 54 86
REMARK SMILES IDX 51 87
REMARK H PARENT 14 7 21 30 71 49 45 60
REMARK Flexibility Score: inf
ROOT
ATOM      1  C   UNL A   1      35.822  21.212  25.000  1.00  0.00     0.002 C 
ENDROOT
BRANCH   1   2
ATOM      2  C   UNL A   1      35.333  21.870  26.302  1.00  0.00     0.021 C 
BRANCH   2   3
ATOM      3  C   UNL A   1      34.025  21.417  26.970  1.00  0.00     0.116 C 
BRANCH   3   4
ATOM      4  N   UNL A   1      33.309  20.264  26.477  1.00  0.00    -0.356 N 
ATOM      5  C   UNL A   1      32.482  20.153  25.387  1.00  0.00     0.223 C 
ATOM      6  O   UNL A   1      32.224  19.002  25.013  1.00  0.00    -0.275 OA
ATOM      7  H   UNL A   1      33.431  19.438  26.998  1.00  0.00     0.163 HD
BRANCH   5   8
ATOM      8  C   UNL A   1      31.915  21.342  24.565  1.00  0.00     0.081 C 
ATOM      9  N   UNL A   1      32.545  24.012  23.757  1.00  0.00    -0.189 NA
ATOM     10  C   UNL A   1      32.465  22.995  22.713  1.00  0.00     0.104 C 
ATOM     11  C   UNL A   1      31.458  23.941  24.738  1.00  0.00     0.104 C 
ATOM     12  C   UNL A   1      32.833  21.677  23.379  1.00  0.00     0.030 C 
ATOM     13  C   UNL A   1      31.379  22.539  25.380  1.00  0.00     0.030 C 
BRANCH   9  14
ATOM     14  S   UNL A   1      33.441  25.409  23.496  1.00  0.00     0.282 S 
ATOM     15  O   UNL A   1      33.796  25.494  22.102  1.00  0.00    -0.195 OA
ATOM     16  O   UNL A   1      34.416  25.554  24.552  1.00  0.00    -0.195 OA
BRANCH  14  17
ATOM     17  N   UNL A   1      32.197  26.533  23.775  1.00  0.00    -0.184 NA
ATOM     18  C   UNL A   1      29.149  27.097  23.537  1.00  0.00     0.040 C 
ATOM     19  C   UNL A   1      30.313  27.774  22.806  1.00  0.00     0.130 C 
ATOM     20  C   UNL A   1      31.571  26.974  22.513  1.00  0.00     0.135 C 
ATOM     21  O   UNL A   1      30.684  28.969  23.491  1.00  0.00    -0.373 OA
ATOM     22  C   UNL A   1      31.284  28.649  24.763  1.00  0.00     0.130 C 
ATOM     23  C   UNL A   1      32.546  27.750  24.594  1.00  0.00     0.135 C 
ATOM     24  C   UNL A   1      31.547  29.991  25.422  1.00  0.00     0.040 C 
ENDBRANCH  14  17
ENDBRANCH   9  14
ENDBRANCH   5   8
ENDBRANCH   3   4
ENDBRANCH   2   3
ENDBRANCH   1   2
BRANCH   1  25
ATOM     25  C   UNL A   1      36.364  19.766  24.961  1.00  0.00     0.002 C 
BRANCH  25  26
ATOM     26  C   UNL A   1      37.858  19.445  24.753  1.00  0.00     0.021 C 
BRANCH  26  27
ATOM     27  C   UNL A   1      38.891  20.025  25.705  1.00  0.00     0.116 C 
BRANCH  27  28
ATOM     28  N   UNL A   1      40.055  19.171  25.823  1.00  0.00    -0.352 N 
ATOM     29  C   UNL A   1      41.370  19.486  26.082  1.00  0.00     0.251 C 
ATOM     30  H   UNL A   1      39.877  18.210  25.699  1.00  0.00     0.163 HD
ATOM     31  O   UNL A   1      42.234  18.642  25.848  1.00  0.00    -0.269 OA
BRANCH  29  32
ATOM     32  C   UNL A   1      41.784  20.810  26.623  1.00  0.00     0.039 A 
ATOM     33  C   UNL A   1      42.107  21.829  25.719  1.00  0.00     0.014 A 
ATOM     34  C   UNL A   1      41.948  21.044  27.991  1.00  0.00     0.014 A 
ATOM     35  C   UNL A   1      42.538  23.080  26.180  1.00  0.00     0.010 A 
ATOM     36  C   UNL A   1      42.303  22.315  28.455  1.00  0.00     0.010 A 
ATOM     37  C   UNL A   1      42.607  23.349  27.557  1.00  0.00    -0.014 A 
BRANCH  37  38
ATOM     38  C   UNL A   1      42.981  24.701  28.063  1.00  0.00     0.031 A 
ATOM     39  C   UNL A   1      41.928  25.747  28.323  1.00  0.00     0.074 A 
ATOM     40  C   UNL A   1      44.282  25.010  28.241  1.00  0.00     0.049 A 
ATOM     41  N   UNL A   1      42.074  26.996  28.698  1.00  0.00    -0.248 NA
ATOM     42  C   UNL A   1      40.527  25.347  28.118  1.00  0.00     0.031 C 
ATOM     43  C   UNL A   1      45.407  24.106  27.994  1.00  0.00     0.029 A 
ATOM     44  N   UNL A   1      44.882  26.174  28.659  1.00  0.00    -0.354 N 
ATOM     45  C   UNL A   1      40.790  27.529  28.759  1.00  0.00     0.074 A 
ATOM     46  C   UNL A   1      39.882  26.484  28.341  1.00  0.00     0.031 C 
ATOM     47  C   UNL A   1      46.555  24.739  28.282  1.00  0.00     0.029 A 
ATOM     48  C   UNL A   1      46.256  26.110  28.684  1.00  0.00     0.049 A 
ATOM     49  H   UNL A   1      44.377  26.979  28.917  1.00  0.00     0.167 HD
ATOM     50  C   UNL A   1      40.404  28.770  29.144  1.00  0.00     0.037 A 
ATOM     51  C   UNL A   1      47.175  27.051  28.975  1.00  0.00     0.037 A 
ATOM     52  C   UNL A   1      41.307  29.804  29.579  1.00  0.00     0.049 A 
ATOM     53  C   UNL A   1      46.718  28.430  29.368  1.00  0.00     0.074 A 
ATOM     54  C   UNL A   1      41.003  31.071  30.050  1.00  0.00     0.029 A 
ATOM     55  N   UNL A   1      42.690  29.698  29.587  1.00  0.00    -0.354 N 
ATOM     56  N   UNL A   1      45.497  28.893  29.493  1.00  0.00    -0.248 NA
ATOM     57  C   UNL A   1      47.766  29.418  29.661  1.00  0.00     0.031 C 
ATOM     58  C   UNL A   1      42.201  31.752  30.284  1.00  0.00     0.029 A 
ATOM     59  C   UNL A   1      43.252  30.889  30.018  1.00  0.00     0.049 A 
ATOM     60  H   UNL A   1      43.196  28.895  29.325  1.00  0.00     0.167 HD
ATOM     61  C   UNL A   1      45.632  30.215  29.899  1.00  0.00     0.074 A 
ATOM     62  C   UNL A   1      47.051  30.472  30.025  1.00  0.00     0.031 C 
ATOM     63  C   UNL A   1      44.666  31.135  30.140  1.00  0.00     0.037 A 
BRANCH  50  64
ATOM     64  C   UNL A   1      38.936  29.091  29.114  1.00  0.00     0.057 A 
ATOM     65  C   UNL A   1      38.132  28.996  30.257  1.00  0.00     0.134 A 
ATOM     66  C   UNL A   1      38.334  29.570  27.941  1.00  0.00     0.134 A 
ATOM     67  F   UNL A   1      38.641  28.539  31.411  1.00  0.00    -0.206 F 
ATOM     68  C   UNL A   1      36.780  29.349  30.232  1.00  0.00     0.040 A 
ATOM     69  C   UNL A   1      36.992  29.953  27.911  1.00  0.00     0.040 A 
ATOM     70  F   UNL A   1      39.047  29.697  26.812  1.00  0.00    -0.206 F 
ATOM     71  C   UNL A   1      36.210  29.839  29.059  1.00  0.00     0.006 A 
ENDBRANCH  50  64
BRANCH  51  72
ATOM     72  C   UNL A   1      48.626  26.734  28.893  1.00  0.00     0.057 A 
ATOM     73  C   UNL A   1      49.355  26.966  27.721  1.00  0.00     0.134 A 
ATOM     74  C   UNL A   1      49.310  26.159  29.972  1.00  0.00     0.134 A 
ATOM     75  F   UNL A   1      48.754  27.494  26.645  1.00  0.00    -0.206 F 
ATOM     76  C   UNL A   1      50.702  26.615  27.614  1.00  0.00     0.040 A 
ATOM     77  C   UNL A   1      50.664  25.832  29.890  1.00  0.00     0.040 A 
ATOM     78  F   UNL A   1      48.674  25.916  31.127  1.00  0.00    -0.206 F 
ATOM     79  C   UNL A   1      51.362  26.048  28.703  1.00  0.00     0.006 A 
ENDBRANCH  51  72
BRANCH  63  80
ATOM     80  C   UNL A   1      45.110  32.499  30.588  1.00  0.00     0.057 A 
ATOM     81  C   UNL A   1      45.329  33.541  29.677  1.00  0.00     0.134 A 
ATOM     82  C   UNL A   1      45.285  32.784  31.948  1.00  0.00     0.134 A 
ATOM     83  F   UNL A   1      45.192  33.332  28.359  1.00  0.00    -0.206 F 
ATOM     84  C   UNL A   1      45.732  34.809  30.101  1.00  0.00     0.040 A 
ATOM     85  C   UNL A   1      45.656  34.055  32.386  1.00  0.00     0.040 A 
ATOM     86  F   UNL A   1      45.081  31.835  32.875  1.00  0.00    -0.206 F 
ATOM     87  C   UNL A   1      45.888  35.071  31.460  1.00  0.00     0.006 A 
ENDBRANCH  63  80
ENDBRANCH  37  38
ENDBRANCH  29  32
ENDBRANCH  27  28
ENDBRANCH  26  27
ENDBRANCH  25  26
ENDBRANCH   1  25
TORSDOF 15
ENDMDL
MODEL 2
REMARK VINA RESULT:     -11.7      4.196      9.557
REMARK SMILES C[C@@H]1CN(S(=O)(=O)N2CCC(C(=O)NCCCCCCNC(=O)c3ccc(-c4c5nc(c(-c6c(F)cccc6F)c6ccc([nH]6)c(-c6c(F)cccc6F)c6nc(c(-c7c(F)cccc7F)c7ccc4[nH]7)C=C6)C=C5)cc3)CC2)C[C@@H](C)O1
REMARK SMILES IDX 17 1 16 2 15 3 14 4 12 5 13 6 11 8 8 9 9 10 79 11 10 12
REMARK SMILES IDX 78 13 5 14 6 15 7 16 4 17 1 18 2 19 3 20 83 21 81 22 80 23
REMARK SMILES IDX 82 24 18 25 19 26 20 27 21 28 22 29 23 31 24 32 25 33 77 34
REMARK SMILES IDX 26 35 76 36 27 37 28 38 29 39 70 40 30 41 75 42 69 43 71 44
REMARK SMILES IDX 31 45 74 46 68 47 67 48 32 50 58 51 41 52 57 53 42 54 45 55
REMARK SMILES IDX 56 56 72 57 43 58 44 59 55 61 73 62 46 63 33 64 34 65 39 66
REMARK SMILES IDX 35 67 36 68 38 69 40 70 37 71 59 72 60 73 65 74 61 75 62 76
REMARK SMILES IDX 64 77 66 78 63 79 47 80 48 81 53 82 49 83 50 84 52 85 54 86
REMARK SMILES IDX 51 87
REMARK H PARENT 14 7 21 30 71 49 45 60
REMARK Flexibility Score: inf
ROOT
ATOM      1  C   UNL A   1      31.770  30.013  25.410  1.00  0.00     0.002 C 
ENDROOT
BRANCH   1   2
ATOM      2  C   UNL A   1      32.939  29.246  24.767  1.00  0.00     0.021 C 
BRANCH   2   3
ATOM      3  C   UNL A   1      32.958  28.961  23.257  1.00  0.00     0.116 C 
BRANCH   3   4
ATOM      4  N   UNL A   1      31.794  29.230  22.445  1.00  0.00    -0.356 N 
ATOM      5  C   UNL A   1      30.636  28.504  22.316  1.00  0.00     0.223 C 
ATOM      6  O   UNL A   1      29.683  29.090  21.786  1.00  0.00    -0.275 OA
ATOM      7  H   UNL A   1      31.839  30.051  21.905  1.00  0.00     0.163 HD
BRANCH   5   8
ATOM      8  C   UNL A   1      30.418  27.059  22.837  1.00  0.00     0.081 C 
ATOM      9  N   UNL A   1      31.424  25.192  24.757  1.00  0.00    -0.189 NA
ATOM     10  C   UNL A   1      30.059  25.676  24.939  1.00  0.00     0.104 C 
ATOM     11  C   UNL A   1      31.745  24.834  23.373  1.00  0.00     0.104 C 
ATOM     12  C   UNL A   1      30.016  27.065  24.320  1.00  0.00     0.030 C 
ATOM     13  C   UNL A   1      31.477  26.016  22.415  1.00  0.00     0.030 C 
BRANCH   9  14
ATOM     14  S   UNL A   1      32.281  24.592  26.071  1.00  0.00     0.282 S 
ATOM     15  O   UNL A   1      31.356  24.200  27.104  1.00  0.00    -0.195 OA
ATOM     16  O   UNL A   1      33.414  25.449  26.333  1.00  0.00    -0.195 OA
BRANCH  14  17
ATOM     17  N   UNL A   1      32.857  23.171  25.337  1.00  0.00    -0.184 NA
ATOM     18  C   UNL A   1      32.270  20.942  23.251  1.00  0.00     0.040 C 
ATOM     19  C   UNL A   1      32.385  20.829  24.774  1.00  0.00     0.130 C 
ATOM     20  C   UNL A   1      31.991  22.015  25.639  1.00  0.00     0.135 C 
ATOM     21  O   UNL A   1      33.706  20.425  25.131  1.00  0.00    -0.373 OA
ATOM     22  C   UNL A   1      34.644  21.482  24.846  1.00  0.00     0.130 C 
ATOM     23  C   UNL A   1      34.290  22.791  25.616  1.00  0.00     0.135 C 
ATOM     24  C   UNL A   1      36.005  20.901  25.181  1.00  0.00     0.040 C 
ENDBRANCH  14  17
ENDBRANCH   9  14
ENDBRANCH   5   8
ENDBRANCH   3   4
ENDBRANCH   2   3
ENDBRANCH   1   2
BRANCH   1  25
ATOM     25  C   UNL A   1      31.839  30.559  26.853  1.00  0.00     0.002 C 
BRANCH  25  26
ATOM     26  C   UNL A   1      31.621  32.049  27.188  1.00  0.00     0.021 C 
BRANCH  26  27
ATOM     27  C   UNL A   1      32.692  33.065  26.825  1.00  0.00     0.116 C 
BRANCH  27  28
ATOM     28  N   UNL A   1      32.565  34.282  27.601  1.00  0.00    -0.352 N 
ATOM     29  C   UNL A   1      33.155  34.647  28.791  1.00  0.00     0.251 C 
ATOM     30  H   UNL A   1      31.961  34.957  27.216  1.00  0.00     0.163 HD
ATOM     31  O   UNL A   1      32.683  35.596  29.415  1.00  0.00    -0.269 OA
BRANCH  29  32
ATOM     32  C   UNL A   1      34.333  33.930  29.351  1.00  0.00     0.039 A 
ATOM     33  C   UNL A   1      35.614  34.383  29.013  1.00  0.00     0.014 A 
ATOM     34  C   UNL A   1      34.210  32.772  30.125  1.00  0.00     0.014 A 
ATOM     35  C   UNL A   1      36.753  33.718  29.486  1.00  0.00     0.010 A 
ATOM     36  C   UNL A   1      35.345  32.153  30.660  1.00  0.00     0.010 A 
ATOM     37  C   UNL A   1      36.631  32.614  30.345  1.00  0.00    -0.014 A 
BRANCH  37  38
ATOM     38  C   UNL A   1      37.834  31.949  30.924  1.00  0.00     0.031 A 
ATOM     39  C   UNL A   1      38.555  30.863  30.167  1.00  0.00     0.074 A 
ATOM     40  C   UNL A   1      38.251  32.285  32.162  1.00  0.00     0.049 A 
ATOM     41  N   UNL A   1      39.574  30.128  30.543  1.00  0.00    -0.248 NA
ATOM     42  C   UNL A   1      38.057  30.547  28.820  1.00  0.00     0.031 C 
ATOM     43  C   UNL A   1      37.625  33.294  33.020  1.00  0.00     0.029 A 
ATOM     44  N   UNL A   1      39.293  31.808  32.922  1.00  0.00    -0.354 N 
ATOM     45  C   UNL A   1      39.827  29.258  29.487  1.00  0.00     0.074 A 
ATOM     46  C   UNL A   1      38.830  29.526  28.474  1.00  0.00     0.031 C 
ATOM     47  C   UNL A   1      38.303  33.373  34.175  1.00  0.00     0.029 A 
ATOM     48  C   UNL A   1      39.380  32.388  34.166  1.00  0.00     0.049 A 
ATOM     49  H   UNL A   1      39.918  31.117  32.606  1.00  0.00     0.167 HD
ATOM     50  C   UNL A   1      40.811  28.333  29.366  1.00  0.00     0.037 A 
ATOM     51  C   UNL A   1      40.216  32.143  35.194  1.00  0.00     0.037 A 
ATOM     52  C   UNL A   1      41.817  28.081  30.365  1.00  0.00     0.049 A 
ATOM     53  C   UNL A   1      41.278  31.087  35.043  1.00  0.00     0.074 A 
ATOM     54  C   UNL A   1      42.892  27.209  30.304  1.00  0.00     0.029 A 
ATOM     55  N   UNL A   1      41.868  28.688  31.611  1.00  0.00    -0.354 N 
ATOM     56  N   UNL A   1      41.549  30.328  34.009  1.00  0.00    -0.248 NA
ATOM     57  C   UNL A   1      42.152  30.854  36.202  1.00  0.00     0.031 C 
ATOM     58  C   UNL A   1      43.556  27.244  31.534  1.00  0.00     0.029 A 
ATOM     59  C   UNL A   1      42.932  28.182  32.340  1.00  0.00     0.049 A 
ATOM     60  H   UNL A   1      41.240  29.376  31.929  1.00  0.00     0.167 HD
ATOM     61  C   UNL A   1      42.634  29.546  34.385  1.00  0.00     0.074 A 
ATOM     62  C   UNL A   1      42.989  29.942  35.731  1.00  0.00     0.031 C 
ATOM     63  C   UNL A   1      43.277  28.583  33.680  1.00  0.00     0.037 A 
BRANCH  50  64
ATOM     64  C   UNL A   1      40.856  27.515  28.106  1.00  0.00     0.057 A 
ATOM     65  C   UNL A   1      41.581  27.925  26.980  1.00  0.00     0.134 A 
ATOM     66  C   UNL A   1      40.224  26.265  28.044  1.00  0.00     0.134 A 
ATOM     67  F   UNL A   1      42.204  29.113  26.968  1.00  0.00    -0.206 F 
ATOM     68  C   UNL A   1      41.662  27.132  25.833  1.00  0.00     0.040 A 
ATOM     69  C   UNL A   1      40.321  25.450  26.914  1.00  0.00     0.040 A 
ATOM     70  F   UNL A   1      39.521  25.804  29.090  1.00  0.00    -0.206 F 
ATOM     71  C   UNL A   1      41.039  25.886  25.803  1.00  0.00     0.006 A 
ENDBRANCH  50  64
BRANCH  51  72
ATOM     72  C   UNL A   1      40.079  32.896  36.469  1.00  0.00     0.057 A 
ATOM     73  C   UNL A   1      39.095  32.565  37.407  1.00  0.00     0.134 A 
ATOM     74  C   UNL A   1      40.907  33.987  36.765  1.00  0.00     0.134 A 
ATOM     75  F   UNL A   1      38.256  31.544  37.173  1.00  0.00    -0.206 F 
ATOM     76  C   UNL A   1      38.919  33.305  38.577  1.00  0.00     0.040 A 
ATOM     77  C   UNL A   1      40.763  34.716  37.946  1.00  0.00     0.040 A 
ATOM     78  F   UNL A   1      41.875  34.355  35.914  1.00  0.00    -0.206 F 
ATOM     79  C   UNL A   1      39.757  34.383  38.852  1.00  0.00     0.006 A 
ENDBRANCH  51  72
BRANCH  63  80
ATOM     80  C   UNL A   1      44.442  27.905  34.342  1.00  0.00     0.057 A 
ATOM     81  C   UNL A   1      44.293  26.714  35.065  1.00  0.00     0.134 A 
ATOM     82  C   UNL A   1      45.736  28.430  34.225  1.00  0.00     0.134 A 
ATOM     83  F   UNL A   1      43.079  26.165  35.227  1.00  0.00    -0.206 F 
ATOM     84  C   UNL A   1      45.383  26.085  35.670  1.00  0.00     0.040 A 
ATOM     85  C   UNL A   1      46.838  27.793  34.797  1.00  0.00     0.040 A 
ATOM     86  F   UNL A   1      45.953  29.562  33.538  1.00  0.00    -0.206 F 
ATOM     87  C   UNL A   1      46.661  26.621  35.529  1.00  0.00     0.006 A 
ENDBRANCH  63  80
ENDBRANCH  37  38
ENDBRANCH  29  32
ENDBRANCH  27  28
ENDBRANCH  26  27
ENDBRANCH  25  26
ENDBRANCH   1  25
TORSDOF 15
ENDMDL
MODEL 3
REMARK VINA RESULT:     -11.7      5.314     10.342
REMARK SMILES C[C@@H]1CN(S(=O)(=O)N2CCC(C(=O)NCCCCCCNC(=O)c3ccc(-c4c5nc(c(-c6c(F)cccc6F)c6ccc([nH]6)c(-c6c(F)cccc6F)c6nc(c(-c7c(F)cccc7F)c7ccc4[nH]7)C=C6)C=C5)cc3)CC2)C[C@@H](C)O1
REMARK SMILES IDX 17 1 16 2 15 3 14 4 12 5 13 6 11 8 8 9 9 10 79 11 10 12
REMARK SMILES IDX 78 13 5 14 6 15 7 16 4 17 1 18 2 19 3 20 83 21 81 22 80 23
REMARK SMILES IDX 82 24 18 25 19 26 20 27 21 28 22 29 23 31 24 32 25 33 77 34
REMARK SMILES IDX 26 35 76 36 27 37 28 38 29 39 70 40 30 41 75 42 69 43 71 44
REMARK SMILES IDX 31 45 74 46 68 47 67 48 32 50 58 51 41 52 57 53 42 54 45 55
REMARK SMILES IDX 56 56 72 57 43 58 44 59 55 61 73 62 46 63 33 64 34 65 39 66
REMARK SMILES IDX 35 67 36 68 38 69 40 70 37 71 59 72 60 73 65 74 61 75 62 76
REMARK SMILES IDX 64 77 66 78 63 79 47 80 48 81 53 82 49 83 50 84 52 85 54 86
REMARK SMILES IDX 51 87
REMARK H PARENT 14 7 21 30 71 49 45 60
REMARK Flexibility Score: inf
ROOT
ATOM      1  C   UNL A   1      34.417  32.764  29.361  1.00  0.00     0.002 C 
ENDROOT
BRANCH   1   2
ATOM      2  C   UNL A   1      34.853  31.585  28.475  1.00  0.00     0.021 C 
BRANCH   2   3
ATOM      3  C   UNL A   1      33.915  31.023  27.394  1.00  0.00     0.116 C 
BRANCH   3   4
ATOM      4  N   UNL A   1      32.959  29.990  27.717  1.00  0.00    -0.356 N 
ATOM      5  C   UNL A   1      32.420  29.020  26.909  1.00  0.00     0.223 C 
ATOM      6  O   UNL A   1      31.850  28.085  27.487  1.00  0.00    -0.275 OA
ATOM      7  H   UNL A   1      32.647  29.982  28.650  1.00  0.00     0.163 HD
BRANCH   5   8
ATOM      8  C   UNL A   1      32.532  28.974  25.361  1.00  0.00     0.081 C 
ATOM      9  N   UNL A   1      32.665  27.135  23.175  1.00  0.00    -0.189 NA
ATOM     10  C   UNL A   1      31.486  27.992  23.263  1.00  0.00     0.104 C 
ATOM     11  C   UNL A   1      33.927  27.836  23.424  1.00  0.00     0.104 C 
ATOM     12  C   UNL A   1      31.298  28.302  24.741  1.00  0.00     0.030 C 
ATOM     13  C   UNL A   1      33.905  28.556  24.791  1.00  0.00     0.030 C 
BRANCH   9  14
ATOM     14  S   UNL A   1      32.584  25.686  22.329  1.00  0.00     0.282 S 
ATOM     15  O   UNL A   1      33.346  25.803  21.112  1.00  0.00    -0.195 OA
ATOM     16  O   UNL A   1      31.224  25.199  22.346  1.00  0.00    -0.195 OA
BRANCH  14  17
ATOM     17  N   UNL A   1      33.492  24.740  23.410  1.00  0.00    -0.184 NA
ATOM     18  C   UNL A   1      36.229  23.364  23.938  1.00  0.00     0.040 C 
ATOM     19  C   UNL A   1      34.858  22.722  23.705  1.00  0.00     0.130 C 
ATOM     20  C   UNL A   1      33.845  23.433  22.822  1.00  0.00     0.135 C 
ATOM     21  O   UNL A   1      34.241  22.428  24.957  1.00  0.00    -0.373 OA
ATOM     22  C   UNL A   1      33.880  23.648  25.634  1.00  0.00     0.130 C 
ATOM     23  C   UNL A   1      32.904  24.513  24.780  1.00  0.00     0.135 C 
ATOM     24  C   UNL A   1      33.325  23.205  26.975  1.00  0.00     0.040 C 
ENDBRANCH  14  17
ENDBRANCH   9  14
ENDBRANCH   5   8
ENDBRANCH   3   4
ENDBRANCH   2   3
ENDBRANCH   1   2
BRANCH   1  25
ATOM     25  C   UNL A   1      34.390  34.219  28.842  1.00  0.00     0.002 C 
BRANCH  25  26
ATOM     26  C   UNL A   1      33.140  35.116  28.948  1.00  0.00     0.021 C 
BRANCH  26  27
ATOM     27  C   UNL A   1      33.229  36.444  29.681  1.00  0.00     0.116 C 
BRANCH  27  28
ATOM     28  N   UNL A   1      32.411  36.457  30.877  1.00  0.00    -0.352 N 
ATOM     29  C   UNL A   1      32.530  35.741  32.047  1.00  0.00     0.251 C 
ATOM     30  H   UNL A   1      31.647  37.077  30.848  1.00  0.00     0.163 HD
ATOM     31  O   UNL A   1      31.564  35.692  32.807  1.00  0.00    -0.269 OA
BRANCH  29  32
ATOM     32  C   UNL A   1      33.777  35.018  32.418  1.00  0.00     0.039 A 
ATOM     33  C   UNL A   1      33.670  33.715  32.919  1.00  0.00     0.014 A 
ATOM     34  C   UNL A   1      35.037  35.621  32.371  1.00  0.00     0.014 A 
ATOM     35  C   UNL A   1      34.813  33.008  33.318  1.00  0.00     0.010 A 
ATOM     36  C   UNL A   1      36.185  34.890  32.696  1.00  0.00     0.010 A 
ATOM     37  C   UNL A   1      36.089  33.576  33.177  1.00  0.00    -0.014 A 
BRANCH  37  38
ATOM     38  C   UNL A   1      37.320  32.806  33.517  1.00  0.00     0.031 A 
ATOM     39  C   UNL A   1      38.098  33.107  34.773  1.00  0.00     0.074 A 
ATOM     40  C   UNL A   1      37.773  31.863  32.666  1.00  0.00     0.049 A 
ATOM     41  N   UNL A   1      39.225  32.587  35.194  1.00  0.00    -0.248 NA
ATOM     42  C   UNL A   1      37.548  34.140  35.665  1.00  0.00     0.031 C 
ATOM     43  C   UNL A   1      37.139  31.495  31.398  1.00  0.00     0.029 A 
ATOM     44  N   UNL A   1      38.880  31.050  32.728  1.00  0.00    -0.354 N 
ATOM     45  C   UNL A   1      39.524  33.238  36.387  1.00  0.00     0.074 A 
ATOM     46  C   UNL A   1      38.484  34.220  36.601  1.00  0.00     0.031 C 
ATOM     47  C   UNL A   1      37.853  30.520  30.814  1.00  0.00     0.029 A 
ATOM     48  C   UNL A   1      39.023  30.227  31.635  1.00  0.00     0.049 A 
ATOM     49  H   UNL A   1      39.511  31.055  33.484  1.00  0.00     0.167 HD
ATOM     50  C   UNL A   1      40.561  33.024  37.235  1.00  0.00     0.037 A 
ATOM     51  C   UNL A   1      39.996  29.352  31.316  1.00  0.00     0.037 A 
ATOM     52  C   UNL A   1      41.585  32.032  37.031  1.00  0.00     0.049 A 
ATOM     53  C   UNL A   1      41.153  29.159  32.260  1.00  0.00     0.074 A 
ATOM     54  C   UNL A   1      42.638  31.698  37.867  1.00  0.00     0.029 A 
ATOM     55  N   UNL A   1      41.695  31.222  35.911  1.00  0.00    -0.354 N 
ATOM     56  N   UNL A   1      41.378  29.728  33.420  1.00  0.00    -0.248 NA
ATOM     57  C   UNL A   1      42.189  28.200  31.853  1.00  0.00     0.031 C 
ATOM     58  C   UNL A   1      43.418  30.732  37.226  1.00  0.00     0.029 A 
ATOM     59  C   UNL A   1      42.818  30.418  36.017  1.00  0.00     0.049 A 
ATOM     60  H   UNL A   1      41.066  31.219  35.153  1.00  0.00     0.167 HD
ATOM     61  C   UNL A   1      42.567  29.182  33.887  1.00  0.00     0.074 A 
ATOM     62  C   UNL A   1      43.001  28.217  32.899  1.00  0.00     0.031 C 
ATOM     63  C   UNL A   1      43.241  29.460  35.029  1.00  0.00     0.037 A 
BRANCH  50  64
ATOM     64  C   UNL A   1      40.649  33.879  38.467  1.00  0.00     0.057 A 
ATOM     65  C   UNL A   1      41.405  35.059  38.499  1.00  0.00     0.134 A 
ATOM     66  C   UNL A   1      39.910  33.558  39.614  1.00  0.00     0.134 A 
ATOM     67  F   UNL A   1      42.142  35.423  37.438  1.00  0.00    -0.206 F 
ATOM     68  C   UNL A   1      41.437  35.876  39.630  1.00  0.00     0.040 A 
ATOM     69  C   UNL A   1      39.912  34.382  40.741  1.00  0.00     0.040 A 
ATOM     70  F   UNL A   1      39.155  32.449  39.650  1.00  0.00    -0.206 F 
ATOM     71  C   UNL A   1      40.681  35.543  40.752  1.00  0.00     0.006 A 
ENDBRANCH  50  64
BRANCH  51  72
ATOM     72  C   UNL A   1      39.935  28.595  30.036  1.00  0.00     0.057 A 
ATOM     73  C   UNL A   1      39.253  27.377  29.944  1.00  0.00     0.134 A 
ATOM     74  C   UNL A   1      40.585  29.056  28.884  1.00  0.00     0.134 A 
ATOM     75  F   UNL A   1      38.628  26.870  31.017  1.00  0.00    -0.206 F 
ATOM     76  C   UNL A   1      39.243  26.630  28.765  1.00  0.00     0.040 A 
ATOM     77  C   UNL A   1      40.557  28.335  27.690  1.00  0.00     0.040 A 
ATOM     78  F   UNL A   1      41.252  30.219  28.900  1.00  0.00    -0.206 F 
ATOM     79  C   UNL A   1      39.894  27.111  27.631  1.00  0.00     0.006 A 
ENDBRANCH  51  72
BRANCH  63  80
ATOM     80  C   UNL A   1      44.508  28.694  35.285  1.00  0.00     0.057 A 
ATOM     81  C   UNL A   1      45.759  29.178  34.880  1.00  0.00     0.134 A 
ATOM     82  C   UNL A   1      44.481  27.476  35.976  1.00  0.00     0.134 A 
ATOM     83  F   UNL A   1      45.856  30.331  34.202  1.00  0.00    -0.206 F 
ATOM     84  C   UNL A   1      46.934  28.465  35.130  1.00  0.00     0.040 A 
ATOM     85  C   UNL A   1      45.650  26.770  36.260  1.00  0.00     0.040 A 
ATOM     86  F   UNL A   1      43.318  26.959  36.402  1.00  0.00    -0.206 F 
ATOM     87  C   UNL A   1      46.882  27.261  35.830  1.00  0.00     0.006 A 
ENDBRANCH  63  80
ENDBRANCH  37  38
ENDBRANCH  29  32
ENDBRANCH  27  28
ENDBRANCH  26  27
ENDBRANCH  25  26
ENDBRANCH   1  25
TORSDOF 15
ENDMDL
