MODEL 1
REMARK VINA RESULT:      -9.3      0.000      0.000
REMARK SMILES O=C(NCCCCCCNC(=O)[C@@H]1CSc2ccccc21)c1ccc(-c2c3nc(c(-c4c(F)cccc4F)c4ccc([nH]4)c(-c4c(F)cccc4F)c4nc(c(-c5c(F)cccc5F)c5ccc2[nH]5)C=C4)C=C3)cc1
REMARK SMILES IDX 5 1 4 2 3 3 1 4 2 5 22 7 23 8 75 9 24 10 74 11 25 12 26 13
REMARK SMILES IDX 27 14 68 15 28 16 73 17 67 18 69 19 29 20 72 21 66 22 65 23
REMARK SMILES IDX 30 25 56 26 39 27 55 28 40 29 43 30 54 31 70 32 41 33 42 34
REMARK SMILES IDX 53 36 71 37 44 38 31 39 32 40 37 41 33 42 34 43 36 44 38 45
REMARK SMILES IDX 35 46 57 47 58 48 63 49 59 50 60 51 62 52 64 53 61 54 45 55
REMARK SMILES IDX 46 56 51 57 47 58 48 59 50 60 52 61 49 62 6 63 7 64 8 65
REMARK SMILES IDX 9 66 10 67 11 68 12 70 13 71 14 72 21 73 15 74 16 75 20 76
REMARK SMILES IDX 17 77 19 78 18 79
REMARK H PARENT 3 6 69 24 43 35 10 69
REMARK Flexibility Score: inf
ROOT
ATOM      1  C   UNL A   1      33.636  35.398  32.577  1.00  0.00     0.021 C 
ENDROOT
BRANCH   1   2
ATOM      2  C   UNL A   1      33.627  36.253  31.313  1.00  0.00     0.116 C 
BRANCH   2   3
ATOM      3  N   UNL A   1      32.858  35.641  30.246  1.00  0.00    -0.352 N 
ATOM      4  O   UNL A   1      32.506  34.415  28.390  1.00  0.00    -0.269 OA
ATOM      5  C   UNL A   1      33.238  34.685  29.341  1.00  0.00     0.251 C 
ATOM      6  H   UNL A   1      31.929  35.957  30.159  1.00  0.00     0.163 HD
BRANCH   5   7
ATOM      7  C   UNL A   1      34.527  33.978  29.495  1.00  0.00     0.039 A 
ATOM      8  C   UNL A   1      34.613  32.938  30.426  1.00  0.00     0.014 A 
ATOM      9  C   UNL A   1      35.662  34.379  28.784  1.00  0.00     0.014 A 
ATOM     10  C   UNL A   1      35.831  32.290  30.635  1.00  0.00     0.010 A 
ATOM     11  C   UNL A   1      36.865  33.697  28.954  1.00  0.00     0.010 A 
ATOM     12  C   UNL A   1      36.965  32.665  29.900  1.00  0.00    -0.014 A 
BRANCH  12  13
ATOM     13  C   UNL A   1      38.286  32.048  30.166  1.00  0.00     0.031 A 
ATOM     14  C   UNL A   1      39.291  32.781  31.008  1.00  0.00     0.074 A 
ATOM     15  C   UNL A   1      38.597  30.856  29.626  1.00  0.00     0.049 A 
ATOM     16  N   UNL A   1      40.524  32.454  31.301  1.00  0.00    -0.248 NA
ATOM     17  C   UNL A   1      38.859  34.068  31.573  1.00  0.00     0.031 C 
ATOM     18  C   UNL A   1      37.718  30.058  28.772  1.00  0.00     0.029 A 
ATOM     19  N   UNL A   1      39.749  30.116  29.708  1.00  0.00    -0.354 N 
ATOM     20  C   UNL A   1      41.018  33.501  32.068  1.00  0.00     0.074 A 
ATOM     21  C   UNL A   1      39.968  34.493  32.157  1.00  0.00     0.031 C 
ATOM     22  C   UNL A   1      38.360  28.933  28.415  1.00  0.00     0.029 A 
ATOM     23  C   UNL A   1      39.701  28.946  28.993  1.00  0.00     0.049 A 
ATOM     24  H   UNL A   1      40.534  30.397  30.230  1.00  0.00     0.167 HD
ATOM     25  C   UNL A   1      42.229  33.618  32.663  1.00  0.00     0.037 A 
ATOM     26  C   UNL A   1      40.639  27.997  28.815  1.00  0.00     0.037 A 
ATOM     27  C   UNL A   1      43.262  32.618  32.601  1.00  0.00     0.049 A 
ATOM     28  C   UNL A   1      41.980  28.151  29.475  1.00  0.00     0.074 A 
ATOM     29  C   UNL A   1      44.494  32.606  33.230  1.00  0.00     0.029 A 
ATOM     30  N   UNL A   1      43.179  31.449  31.860  1.00  0.00    -0.354 N 
ATOM     31  N   UNL A   1      42.418  29.121  30.241  1.00  0.00    -0.248 NA
ATOM     32  C   UNL A   1      42.958  27.079  29.243  1.00  0.00     0.031 C 
ATOM     33  C   UNL A   1      45.172  31.445  32.840  1.00  0.00     0.029 A 
ATOM     34  C   UNL A   1      44.349  30.719  31.994  1.00  0.00     0.049 A 
ATOM     35  H   UNL A   1      42.402  31.177  31.319  1.00  0.00     0.167 HD
ATOM     36  C   UNL A   1      43.718  28.777  30.586  1.00  0.00     0.074 A 
ATOM     37  C   UNL A   1      43.990  27.497  29.964  1.00  0.00     0.031 C 
ATOM     38  C   UNL A   1      44.608  29.458  31.347  1.00  0.00     0.037 A 
BRANCH  25  39
ATOM     39  C   UNL A   1      42.491  34.881  33.427  1.00  0.00     0.057 A 
ATOM     40  C   UNL A   1      42.122  34.992  34.773  1.00  0.00     0.134 A 
ATOM     41  C   UNL A   1      43.124  35.982  32.836  1.00  0.00     0.134 A 
ATOM     42  F   UNL A   1      41.511  33.975  35.398  1.00  0.00    -0.206 F 
ATOM     43  C   UNL A   1      42.386  36.149  35.508  1.00  0.00     0.040 A 
ATOM     44  C   UNL A   1      43.415  37.136  33.568  1.00  0.00     0.040 A 
ATOM     45  F   UNL A   1      43.519  35.933  31.554  1.00  0.00    -0.206 F 
ATOM     46  C   UNL A   1      43.044  37.222  34.907  1.00  0.00     0.006 A 
ENDBRANCH  25  39
BRANCH  26  47
ATOM     47  C   UNL A   1      40.335  26.811  27.982  1.00  0.00     0.057 A 
ATOM     48  C   UNL A   1      39.520  25.775  28.455  1.00  0.00     0.134 A 
ATOM     49  C   UNL A   1      40.861  26.683  26.692  1.00  0.00     0.134 A 
ATOM     50  F   UNL A   1      38.989  25.841  29.685  1.00  0.00    -0.206 F 
ATOM     51  C   UNL A   1      39.250  24.648  27.680  1.00  0.00     0.040 A 
ATOM     52  C   UNL A   1      40.585  25.569  25.898  1.00  0.00     0.040 A 
ATOM     53  F   UNL A   1      41.631  27.654  26.179  1.00  0.00    -0.206 F 
ATOM     54  C   UNL A   1      39.781  24.545  26.395  1.00  0.00     0.006 A 
ENDBRANCH  26  47
BRANCH  38  55
ATOM     55  C   UNL A   1      45.956  28.833  31.536  1.00  0.00     0.057 A 
ATOM     56  C   UNL A   1      46.186  27.915  32.568  1.00  0.00     0.134 A 
ATOM     57  C   UNL A   1      47.034  29.157  30.702  1.00  0.00     0.134 A 
ATOM     58  F   UNL A   1      45.195  27.566  33.403  1.00  0.00    -0.206 F 
ATOM     59  C   UNL A   1      47.443  27.341  32.765  1.00  0.00     0.040 A 
ATOM     60  C   UNL A   1      48.290  28.575  30.877  1.00  0.00     0.040 A 
ATOM     61  F   UNL A   1      46.871  30.017  29.686  1.00  0.00    -0.206 F 
ATOM     62  C   UNL A   1      48.497  27.666  31.914  1.00  0.00     0.006 A 
ENDBRANCH  38  55
ENDBRANCH  12  13
ENDBRANCH   5   7
ENDBRANCH   2   3
ENDBRANCH   1   2
BRANCH   1  63
ATOM     63  C   UNL A   1      34.961  35.397  33.344  1.00  0.00     0.002 C 
BRANCH  63  64
ATOM     64  C   UNL A   1      35.108  34.287  34.388  1.00  0.00     0.002 C 
BRANCH  64  65
ATOM     65  C   UNL A   1      36.250  33.292  34.133  1.00  0.00     0.021 C 
BRANCH  65  66
ATOM     66  C   UNL A   1      37.470  33.484  35.036  1.00  0.00     0.116 C 
BRANCH  66  67
ATOM     67  N   UNL A   1      37.685  32.318  35.869  1.00  0.00    -0.356 N 
ATOM     68  C   UNL A   1      38.258  31.115  35.576  1.00  0.00     0.228 C 
ATOM     69  H   UNL A   1      37.365  32.408  36.795  1.00  0.00     0.163 HD
ATOM     70  O   UNL A   1      38.217  30.251  36.452  1.00  0.00    -0.274 OA
BRANCH  68  71
ATOM     71  C   UNL A   1      38.950  30.922  34.228  1.00  0.00     0.120 C 
ATOM     72  C   UNL A   1      38.071  30.098  33.271  1.00  0.00     0.093 C 
ATOM     73  C   UNL A   1      40.293  30.238  34.339  1.00  0.00    -0.021 A 
ATOM     74  S   UNL A   1      38.957  28.599  32.752  1.00  0.00    -0.125 SA
ATOM     75  C   UNL A   1      40.414  29.040  33.640  1.00  0.00     0.011 A 
ATOM     76  C   UNL A   1      41.369  30.717  35.090  1.00  0.00     0.006 A 
ATOM     77  C   UNL A   1      41.587  28.299  33.681  1.00  0.00     0.015 A 
ATOM     78  C   UNL A   1      42.549  29.974  35.145  1.00  0.00     0.000 A 
ATOM     79  C   UNL A   1      42.658  28.769  34.443  1.00  0.00     0.001 A 
ENDBRANCH  68  71
ENDBRANCH  66  67
ENDBRANCH  65  66
ENDBRANCH  64  65
ENDBRANCH  63  64
ENDBRANCH   1  63
TORSDOF 13
ENDMDL
MODEL 2
REMARK VINA RESULT:      -8.5      4.331      7.079
REMARK SMILES O=C(NCCCCCCNC(=O)[C@@H]1CSc2ccccc21)c1ccc(-c2c3nc(c(-c4c(F)cccc4F)c4ccc([nH]4)c(-c4c(F)cccc4F)c4nc(c(-c5c(F)cccc5F)c5ccc2[nH]5)C=C4)C=C3)cc1
REMARK SMILES IDX 5 1 4 2 3 3 1 4 2 5 22 7 23 8 75 9 24 10 74 11 25 12 26 13
REMARK SMILES IDX 27 14 68 15 28 16 73 17 67 18 69 19 29 20 72 21 66 22 65 23
REMARK SMILES IDX 30 25 56 26 39 27 55 28 40 29 43 30 54 31 70 32 41 33 42 34
REMARK SMILES IDX 53 36 71 37 44 38 31 39 32 40 37 41 33 42 34 43 36 44 38 45
REMARK SMILES IDX 35 46 57 47 58 48 63 49 59 50 60 51 62 52 64 53 61 54 45 55
REMARK SMILES IDX 46 56 51 57 47 58 48 59 50 60 52 61 49 62 6 63 7 64 8 65
REMARK SMILES IDX 9 66 10 67 11 68 12 70 13 71 14 72 21 73 15 74 16 75 20 76
REMARK SMILES IDX 17 77 19 78 18 79
REMARK H PARENT 3 6 69 24 43 35 10 69
REMARK Flexibility Score: inf
ROOT
ATOM      1  C   UNL A   1      33.944  28.422  25.768  1.00  0.00     0.021 C 
ENDROOT
BRANCH   1   2
ATOM      2  C   UNL A   1      33.701  28.572  27.267  1.00  0.00     0.116 C 
BRANCH   2   3
ATOM      3  N   UNL A   1      33.680  29.963  27.680  1.00  0.00    -0.352 N 
ATOM      4  O   UNL A   1      34.395  31.815  28.742  1.00  0.00    -0.269 OA
ATOM      5  C   UNL A   1      34.655  30.696  28.305  1.00  0.00     0.251 C 
ATOM      6  H   UNL A   1      32.847  30.450  27.483  1.00  0.00     0.163 HD
BRANCH   5   7
ATOM      7  C   UNL A   1      36.019  30.148  28.462  1.00  0.00     0.039 A 
ATOM      8  C   UNL A   1      36.384  29.602  29.696  1.00  0.00     0.014 A 
ATOM      9  C   UNL A   1      36.957  30.235  27.428  1.00  0.00     0.014 A 
ATOM     10  C   UNL A   1      37.682  29.130  29.892  1.00  0.00     0.010 A 
ATOM     11  C   UNL A   1      38.237  29.716  27.606  1.00  0.00     0.010 A 
ATOM     12  C   UNL A   1      38.617  29.184  28.848  1.00  0.00    -0.014 A 
BRANCH  12  13
ATOM     13  C   UNL A   1      40.024  28.766  29.061  1.00  0.00     0.031 A 
ATOM     14  C   UNL A   1      40.993  29.722  29.695  1.00  0.00     0.074 A 
ATOM     15  C   UNL A   1      40.438  27.553  28.653  1.00  0.00     0.049 A 
ATOM     16  N   UNL A   1      42.278  29.583  29.905  1.00  0.00    -0.248 NA
ATOM     17  C   UNL A   1      40.448  31.019  30.127  1.00  0.00     0.031 C 
ATOM     18  C   UNL A   1      39.600  26.546  28.003  1.00  0.00     0.029 A 
ATOM     19  N   UNL A   1      41.677  26.970  28.717  1.00  0.00    -0.354 N 
ATOM     20  C   UNL A   1      42.696  30.779  30.475  1.00  0.00     0.074 A 
ATOM     21  C   UNL A   1      41.540  31.647  30.536  1.00  0.00     0.031 C 
ATOM     22  C   UNL A   1      40.348  25.463  27.735  1.00  0.00     0.029 A 
ATOM     23  C   UNL A   1      41.720  25.712  28.170  1.00  0.00     0.049 A 
ATOM     24  H   UNL A   1      42.460  27.410  29.117  1.00  0.00     0.167 HD
ATOM     25  C   UNL A   1      43.927  31.118  30.926  1.00  0.00     0.037 A 
ATOM     26  C   UNL A   1      42.753  24.861  28.026  1.00  0.00     0.037 A 
ATOM     27  C   UNL A   1      45.070  30.244  30.894  1.00  0.00     0.049 A 
ATOM     28  C   UNL A   1      44.114  25.260  28.523  1.00  0.00     0.074 A 
ATOM     29  C   UNL A   1      46.341  30.463  31.393  1.00  0.00     0.029 A 
ATOM     30  N   UNL A   1      45.076  28.980  30.324  1.00  0.00    -0.354 N 
ATOM     31  N   UNL A   1      44.486  26.374  29.108  1.00  0.00    -0.248 NA
ATOM     32  C   UNL A   1      45.197  24.285  28.338  1.00  0.00     0.031 C 
ATOM     33  C   UNL A   1      47.127  29.344  31.094  1.00  0.00     0.029 A 
ATOM     34  C   UNL A   1      46.336  28.416  30.436  1.00  0.00     0.049 A 
ATOM     35  H   UNL A   1      44.298  28.546  29.903  1.00  0.00     0.167 HD
ATOM     36  C   UNL A   1      45.843  26.233  29.365  1.00  0.00     0.074 A 
ATOM     37  C   UNL A   1      46.224  24.917  28.892  1.00  0.00     0.031 C 
ATOM     38  C   UNL A   1      46.699  27.113  29.938  1.00  0.00     0.037 A 
BRANCH  25  39
ATOM     39  C   UNL A   1      44.089  32.498  31.487  1.00  0.00     0.057 A 
ATOM     40  C   UNL A   1      43.889  32.743  32.852  1.00  0.00     0.134 A 
ATOM     41  C   UNL A   1      44.459  33.583  30.683  1.00  0.00     0.134 A 
ATOM     42  F   UNL A   1      43.530  31.749  33.677  1.00  0.00    -0.206 F 
ATOM     43  C   UNL A   1      44.064  34.016  33.397  1.00  0.00     0.040 A 
ATOM     44  C   UNL A   1      44.662  34.856  31.221  1.00  0.00     0.040 A 
ATOM     45  F   UNL A   1      44.684  33.411  29.371  1.00  0.00    -0.206 F 
ATOM     46  C   UNL A   1      44.462  35.075  32.582  1.00  0.00     0.006 A 
ENDBRANCH  25  39
BRANCH  26  47
ATOM     47  C   UNL A   1      42.535  23.541  27.390  1.00  0.00     0.057 A 
ATOM     48  C   UNL A   1      42.702  23.359  26.012  1.00  0.00     0.134 A 
ATOM     49  C   UNL A   1      42.143  22.433  28.147  1.00  0.00     0.134 A 
ATOM     50  F   UNL A   1      43.073  24.387  25.234  1.00  0.00    -0.206 F 
ATOM     51  C   UNL A   1      42.477  22.123  25.408  1.00  0.00     0.040 A 
ATOM     52  C   UNL A   1      41.931  21.185  27.559  1.00  0.00     0.040 A 
ATOM     53  F   UNL A   1      41.988  22.544  29.475  1.00  0.00    -0.206 F 
ATOM     54  C   UNL A   1      42.093  21.030  26.183  1.00  0.00     0.006 A 
ENDBRANCH  26  47
BRANCH  38  55
ATOM     55  C   UNL A   1      48.127  26.680  30.072  1.00  0.00     0.057 A 
ATOM     56  C   UNL A   1      49.071  26.996  29.087  1.00  0.00     0.134 A 
ATOM     57  C   UNL A   1      48.563  25.933  31.174  1.00  0.00     0.134 A 
ATOM     58  F   UNL A   1      48.715  27.706  28.006  1.00  0.00    -0.206 F 
ATOM     59  C   UNL A   1      50.399  26.582  29.193  1.00  0.00     0.040 A 
ATOM     60  C   UNL A   1      49.893  25.530  31.300  1.00  0.00     0.040 A 
ATOM     61  F   UNL A   1      47.709  25.614  32.159  1.00  0.00    -0.206 F 
ATOM     62  C   UNL A   1      50.814  25.852  30.304  1.00  0.00     0.006 A 
ENDBRANCH  38  55
ENDBRANCH  12  13
ENDBRANCH   5   7
ENDBRANCH   2   3
ENDBRANCH   1   2
BRANCH   1  63
ATOM     63  C   UNL A   1      33.546  27.064  25.184  1.00  0.00     0.002 C 
BRANCH  63  64
ATOM     64  C   UNL A   1      32.095  26.962  24.705  1.00  0.00     0.002 C 
BRANCH  64  65
ATOM     65  C   UNL A   1      31.071  26.590  25.787  1.00  0.00     0.021 C 
BRANCH  65  66
ATOM     66  C   UNL A   1      30.638  25.123  25.772  1.00  0.00     0.116 C 
BRANCH  66  67
ATOM     67  N   UNL A   1      31.230  24.398  26.878  1.00  0.00    -0.356 N 
ATOM     68  C   UNL A   1      32.073  23.325  26.882  1.00  0.00     0.228 C 
ATOM     69  H   UNL A   1      30.984  24.733  27.770  1.00  0.00     0.163 HD
ATOM     70  O   UNL A   1      32.344  22.834  27.978  1.00  0.00    -0.274 OA
BRANCH  68  71
ATOM     71  C   UNL A   1      32.665  22.830  25.564  1.00  0.00     0.120 C 
ATOM     72  C   UNL A   1      32.135  21.429  25.214  1.00  0.00     0.093 C 
ATOM     73  C   UNL A   1      34.175  22.773  25.571  1.00  0.00    -0.021 A 
ATOM     74  S   UNL A   1      33.521  20.264  25.058  1.00  0.00    -0.125 SA
ATOM     75  C   UNL A   1      34.728  21.517  25.337  1.00  0.00     0.011 A 
ATOM     76  C   UNL A   1      35.010  23.867  25.809  1.00  0.00     0.006 A 
ATOM     77  C   UNL A   1      36.102  21.324  25.344  1.00  0.00     0.015 A 
ATOM     78  C   UNL A   1      36.393  23.681  25.827  1.00  0.00     0.000 A 
ATOM     79  C   UNL A   1      36.938  22.413  25.596  1.00  0.00     0.001 A 
ENDBRANCH  68  71
ENDBRANCH  66  67
ENDBRANCH  65  66
ENDBRANCH  64  65
ENDBRANCH  63  64
ENDBRANCH   1  63
TORSDOF 13
ENDMDL
MODEL 3
REMARK VINA RESULT:      -8.5      4.177     10.235
REMARK SMILES O=C(NCCCCCCNC(=O)[C@@H]1CSc2ccccc21)c1ccc(-c2c3nc(c(-c4c(F)cccc4F)c4ccc([nH]4)c(-c4c(F)cccc4F)c4nc(c(-c5c(F)cccc5F)c5ccc2[nH]5)C=C4)C=C3)cc1
REMARK SMILES IDX 5 1 4 2 3 3 1 4 2 5 22 7 23 8 75 9 24 10 74 11 25 12 26 13
REMARK SMILES IDX 27 14 68 15 28 16 73 17 67 18 69 19 29 20 72 21 66 22 65 23
REMARK SMILES IDX 30 25 56 26 39 27 55 28 40 29 43 30 54 31 70 32 41 33 42 34
REMARK SMILES IDX 53 36 71 37 44 38 31 39 32 40 37 41 33 42 34 43 36 44 38 45
REMARK SMILES IDX 35 46 57 47 58 48 63 49 59 50 60 51 62 52 64 53 61 54 45 55
REMARK SMILES IDX 46 56 51 57 47 58 48 59 50 60 52 61 49 62 6 63 7 64 8 65
REMARK SMILES IDX 9 66 10 67 11 68 12 70 13 71 14 72 21 73 15 74 16 75 20 76
REMARK SMILES IDX 17 77 19 78 18 79
REMARK H PARENT 3 6 69 24 43 35 10 69
REMARK Flexibility Score: inf
ROOT
ATOM      1  C   UNL A   1      39.299  22.060  26.520  1.00  0.00     0.021 C 
ENDROOT
BRANCH   1   2
ATOM      2  C   UNL A   1      39.660  23.488  26.918  1.00  0.00     0.116 C 
BRANCH   2   3
ATOM      3  N   UNL A   1      40.601  24.091  25.992  1.00  0.00    -0.352 N 
ATOM      4  O   UNL A   1      41.731  25.758  24.985  1.00  0.00    -0.269 OA
ATOM      5  C   UNL A   1      41.075  25.376  25.952  1.00  0.00     0.251 C 
ATOM      6  H   UNL A   1      40.949  23.492  25.292  1.00  0.00     0.163 HD
BRANCH   5   7
ATOM      7  C   UNL A   1      40.800  26.311  27.063  1.00  0.00     0.039 A 
ATOM      8  C   UNL A   1      41.445  27.551  27.071  1.00  0.00     0.014 A 
ATOM      9  C   UNL A   1      39.969  25.945  28.128  1.00  0.00     0.014 A 
ATOM     10  C   UNL A   1      41.249  28.431  28.136  1.00  0.00     0.010 A 
ATOM     11  C   UNL A   1      39.732  26.845  29.164  1.00  0.00     0.010 A 
ATOM     12  C   UNL A   1      40.391  28.084  29.190  1.00  0.00    -0.014 A 
BRANCH  12  13
ATOM     13  C   UNL A   1      40.235  28.967  30.370  1.00  0.00     0.031 A 
ATOM     14  C   UNL A   1      39.179  30.036  30.362  1.00  0.00     0.074 A 
ATOM     15  C   UNL A   1      41.059  28.838  31.425  1.00  0.00     0.049 A 
ATOM     16  N   UNL A   1      38.924  30.956  31.257  1.00  0.00    -0.248 NA
ATOM     17  C   UNL A   1      38.311  30.092  29.176  1.00  0.00     0.031 C 
ATOM     18  C   UNL A   1      42.138  27.857  31.543  1.00  0.00     0.029 A 
ATOM     19  N   UNL A   1      41.121  29.549  32.597  1.00  0.00    -0.354 N 
ATOM     20  C   UNL A   1      37.881  31.709  30.734  1.00  0.00     0.074 A 
ATOM     21  C   UNL A   1      37.582  31.168  29.426  1.00  0.00     0.031 C 
ATOM     22  C   UNL A   1      42.750  28.023  32.727  1.00  0.00     0.029 A 
ATOM     23  C   UNL A   1      42.125  29.135  33.436  1.00  0.00     0.049 A 
ATOM     24  H   UNL A   1      40.505  30.284  32.814  1.00  0.00     0.167 HD
ATOM     25  C   UNL A   1      37.217  32.746  31.299  1.00  0.00     0.037 A 
ATOM     26  C   UNL A   1      42.504  29.609  34.637  1.00  0.00     0.037 A 
ATOM     27  C   UNL A   1      37.494  33.265  32.611  1.00  0.00     0.049 A 
ATOM     28  C   UNL A   1      41.762  30.768  35.242  1.00  0.00     0.074 A 
ATOM     29  C   UNL A   1      36.832  34.262  33.306  1.00  0.00     0.029 A 
ATOM     30  N   UNL A   1      38.524  32.826  33.429  1.00  0.00    -0.354 N 
ATOM     31  N   UNL A   1      40.743  31.439  34.760  1.00  0.00    -0.248 NA
ATOM     32  C   UNL A   1      42.224  31.235  36.556  1.00  0.00     0.031 C 
ATOM     33  C   UNL A   1      37.484  34.450  34.530  1.00  0.00     0.029 A 
ATOM     34  C   UNL A   1      38.534  33.549  34.611  1.00  0.00     0.049 A 
ATOM     35  H   UNL A   1      39.156  32.105  33.203  1.00  0.00     0.167 HD
ATOM     36  C   UNL A   1      40.440  32.404  35.711  1.00  0.00     0.074 A 
ATOM     37  C   UNL A   1      41.368  32.217  36.808  1.00  0.00     0.031 C 
ATOM     38  C   UNL A   1      39.481  33.361  35.680  1.00  0.00     0.037 A 
BRANCH  25  39
ATOM     39  C   UNL A   1      36.131  33.382  30.484  1.00  0.00     0.057 A 
ATOM     40  C   UNL A   1      36.444  34.224  29.410  1.00  0.00     0.134 A 
ATOM     41  C   UNL A   1      34.776  33.149  30.750  1.00  0.00     0.134 A 
ATOM     42  F   UNL A   1      37.722  34.491  29.103  1.00  0.00    -0.206 F 
ATOM     43  C   UNL A   1      35.446  34.801  28.621  1.00  0.00     0.040 A 
ATOM     44  C   UNL A   1      33.770  33.700  29.954  1.00  0.00     0.040 A 
ATOM     45  F   UNL A   1      34.410  32.336  31.754  1.00  0.00    -0.206 F 
ATOM     46  C   UNL A   1      34.105  34.530  28.887  1.00  0.00     0.006 A 
ENDBRANCH  25  39
BRANCH  26  47
ATOM     47  C   UNL A   1      43.639  28.979  35.351  1.00  0.00     0.057 A 
ATOM     48  C   UNL A   1      44.960  29.375  35.113  1.00  0.00     0.134 A 
ATOM     49  C   UNL A   1      43.426  27.958  36.283  1.00  0.00     0.134 A 
ATOM     50  F   UNL A   1      45.226  30.346  34.227  1.00  0.00    -0.206 F 
ATOM     51  C   UNL A   1      46.032  28.769  35.768  1.00  0.00     0.040 A 
ATOM     52  C   UNL A   1      44.486  27.355  36.960  1.00  0.00     0.040 A 
ATOM     53  F   UNL A   1      42.178  27.553  36.567  1.00  0.00    -0.206 F 
ATOM     54  C   UNL A   1      45.795  27.757  36.698  1.00  0.00     0.006 A 
ENDBRANCH  26  47
BRANCH  38  55
ATOM     55  C   UNL A   1      39.400  34.278  36.861  1.00  0.00     0.057 A 
ATOM     56  C   UNL A   1      40.001  35.542  36.834  1.00  0.00     0.134 A 
ATOM     57  C   UNL A   1      38.739  33.898  38.037  1.00  0.00     0.134 A 
ATOM     58  F   UNL A   1      40.653  35.963  35.739  1.00  0.00    -0.206 F 
ATOM     59  C   UNL A   1      39.948  36.397  37.936  1.00  0.00     0.040 A 
ATOM     60  C   UNL A   1      38.662  34.753  39.137  1.00  0.00     0.040 A 
ATOM     61  F   UNL A   1      38.129  32.706  38.117  1.00  0.00    -0.206 F 
ATOM     62  C   UNL A   1      39.273  36.005  39.090  1.00  0.00     0.006 A 
ENDBRANCH  38  55
ENDBRANCH  12  13
ENDBRANCH   5   7
ENDBRANCH   2   3
ENDBRANCH   1   2
BRANCH   1  63
ATOM     63  C   UNL A   1      40.491  21.178  26.139  1.00  0.00     0.002 C 
BRANCH  63  64
ATOM     64  C   UNL A   1      40.990  20.244  27.245  1.00  0.00     0.002 C 
BRANCH  64  65
ATOM     65  C   UNL A   1      42.279  19.475  26.922  1.00  0.00     0.021 C 
BRANCH  65  66
ATOM     66  C   UNL A   1      42.922  19.848  25.585  1.00  0.00     0.116 C 
BRANCH  66  67
ATOM     67  N   UNL A   1      44.320  20.185  25.760  1.00  0.00    -0.356 N 
ATOM     68  C   UNL A   1      44.955  21.390  25.692  1.00  0.00     0.228 C 
ATOM     69  H   UNL A   1      44.906  19.420  25.961  1.00  0.00     0.163 HD
ATOM     70  O   UNL A   1      46.183  21.378  25.778  1.00  0.00    -0.274 OA
BRANCH  68  71
ATOM     71  C   UNL A   1      44.129  22.668  25.564  1.00  0.00     0.120 C 
ATOM     72  C   UNL A   1      44.792  23.658  24.591  1.00  0.00     0.093 C 
ATOM     73  C   UNL A   1      43.916  23.375  26.882  1.00  0.00    -0.021 A 
ATOM     74  S   UNL A   1      45.142  25.224  25.444  1.00  0.00    -0.125 SA
ATOM     75  C   UNL A   1      44.400  24.679  26.946  1.00  0.00     0.011 A 
ATOM     76  C   UNL A   1      43.300  22.807  27.998  1.00  0.00     0.006 A 
ATOM     77  C   UNL A   1      44.292  25.429  28.109  1.00  0.00     0.015 A 
ATOM     78  C   UNL A   1      43.195  23.550  29.175  1.00  0.00     0.000 A 
ATOM     79  C   UNL A   1      43.690  24.857  29.231  1.00  0.00     0.001 A 
ENDBRANCH  68  71
ENDBRANCH  66  67
ENDBRANCH  65  66
ENDBRANCH  64  65
ENDBRANCH  63  64
ENDBRANCH   1  63
TORSDOF 13
ENDMDL
