MODEL 1
REMARK VINA RESULT:     -10.1      0.000      0.000
REMARK SMILES C#CC[C@@]1(C(=O)NCCCCCCNC(=O)c2ccc(-c3c4nc(c(-c5c(F)cccc5F)c5ccc([nH]5)c(-c5c(F)cccc5F)c5nc(c(-c6c(F)cccc6F)c6ccc3[nH]6)C=C5)C=C4)cc2)CCCN1C(=O)OC(C)(C)C
REMARK SMILES IDX 10 1 9 2 8 3 7 4 5 5 6 6 4 8 71 9 74 10 72 11 73 12 3 13
REMARK SMILES IDX 2 14 1 15 75 16 76 17 77 18 78 19 79 20 80 21 81 22 11 23
REMARK SMILES IDX 12 24 13 25 14 26 15 27 16 29 17 30 18 31 70 32 19 33 69 34
REMARK SMILES IDX 20 35 21 36 22 37 63 38 23 39 68 40 62 41 64 42 24 43 67 44
REMARK SMILES IDX 61 45 60 46 25 48 51 49 34 50 50 51 35 52 38 53 49 54 65 55
REMARK SMILES IDX 36 56 37 57 48 59 66 60 39 61 26 62 27 63 32 64 28 65 29 66
REMARK SMILES IDX 31 67 33 68 30 69 52 70 53 71 58 72 54 73 55 74 57 75 59 76
REMARK SMILES IDX 56 77 40 78 41 79 46 80 42 81 43 82 45 83 47 84 44 85
REMARK H PARENT 7 7 14 28 64 47 38 58
REMARK Flexibility Score: inf
ROOT
ATOM      1  C   UNL A   1      37.603  22.195  25.272  1.00  0.00     0.002 C 
ENDROOT
BRANCH   1   2
ATOM      2  C   UNL A   1      36.989  23.459  24.655  1.00  0.00     0.021 C 
BRANCH   2   3
ATOM      3  C   UNL A   1      35.958  24.137  25.566  1.00  0.00     0.116 C 
BRANCH   3   4
ATOM      4  N   UNL A   1      35.228  23.132  26.308  1.00  0.00    -0.354 N 
ATOM      5  C   UNL A   1      33.889  22.861  26.323  1.00  0.00     0.247 C 
ATOM      6  O   UNL A   1      33.468  22.514  27.430  1.00  0.00    -0.272 OA
ATOM      7  H   UNL A   1      35.777  22.558  26.888  1.00  0.00     0.163 HD
BRANCH   5   8
ATOM      8  C   UNL A   1      33.027  22.842  25.012  1.00  0.00     0.136 C 
ATOM      9  C   UNL A   1      33.896  22.371  23.807  1.00  0.00     0.042 C 
ATOM     10  N   UNL A   1      32.622  24.212  24.523  1.00  0.00    -0.292 N 
ATOM     11  C   UNL A   1      33.424  23.114  22.570  1.00  0.00     0.025 C 
ATOM     12  C   UNL A   1      32.877  24.409  23.106  1.00  0.00     0.124 C 
BRANCH   8  13
ATOM     13  C   UNL A   1      31.812  21.863  25.262  1.00  0.00     0.128 C 
BRANCH  13  14
ATOM     14  C   UNL A   1      32.262  20.450  24.928  1.00  0.00    -0.104 C 
ATOM     15  C   UNL A   1      32.647  19.238  24.641  1.00  0.00     0.004 C 
ENDBRANCH  13  14
ENDBRANCH   8  13
BRANCH  10  16
ATOM     16  C   UNL A   1      31.960  25.256  25.147  1.00  0.00     0.411 C 
ATOM     17  O   UNL A   1      31.379  25.100  26.215  1.00  0.00    -0.224 OA
BRANCH  16  18
ATOM     18  O   UNL A   1      31.923  26.409  24.440  1.00  0.00    -0.444 OA
BRANCH  18  19
ATOM     19  C   UNL A   1      32.684  27.552  24.931  1.00  0.00     0.106 C 
ATOM     20  C   UNL A   1      31.786  28.653  25.530  1.00  0.00     0.056 C 
ATOM     21  C   UNL A   1      33.758  27.105  25.929  1.00  0.00     0.056 C 
ATOM     22  C   UNL A   1      33.375  28.150  23.696  1.00  0.00     0.056 C 
ENDBRANCH  18  19
ENDBRANCH  16  18
ENDBRANCH  10  16
ENDBRANCH   5   8
ENDBRANCH   3   4
ENDBRANCH   2   3
ENDBRANCH   1   2
BRANCH   1  23
ATOM     23  C   UNL A   1      37.273  20.901  24.522  1.00  0.00     0.002 C 
BRANCH  23  24
ATOM     24  C   UNL A   1      38.129  19.698  24.927  1.00  0.00     0.021 C 
BRANCH  24  25
ATOM     25  C   UNL A   1      39.143  20.001  26.021  1.00  0.00     0.116 C 
BRANCH  25  26
ATOM     26  N   UNL A   1      40.324  19.162  25.902  1.00  0.00    -0.352 N 
ATOM     27  C   UNL A   1      41.644  19.517  26.002  1.00  0.00     0.251 C 
ATOM     28  H   UNL A   1      40.151  18.209  25.724  1.00  0.00     0.163 HD
ATOM     29  O   UNL A   1      42.525  18.743  25.645  1.00  0.00    -0.269 OA
BRANCH  27  30
ATOM     30  C   UNL A   1      41.998  20.847  26.533  1.00  0.00     0.039 A 
ATOM     31  C   UNL A   1      42.338  21.865  25.640  1.00  0.00     0.014 A 
ATOM     32  C   UNL A   1      41.997  21.086  27.912  1.00  0.00     0.014 A 
ATOM     33  C   UNL A   1      42.635  23.138  26.128  1.00  0.00     0.010 A 
ATOM     34  C   UNL A   1      42.222  22.371  28.391  1.00  0.00     0.010 A 
ATOM     35  C   UNL A   1      42.553  23.407  27.504  1.00  0.00    -0.014 A 
BRANCH  35  36
ATOM     36  C   UNL A   1      42.823  24.765  28.037  1.00  0.00     0.031 A 
ATOM     37  C   UNL A   1      44.213  25.142  28.466  1.00  0.00     0.074 A 
ATOM     38  C   UNL A   1      41.805  25.633  28.193  1.00  0.00     0.049 A 
ATOM     39  N   UNL A   1      44.636  26.252  29.016  1.00  0.00    -0.248 NA
ATOM     40  C   UNL A   1      45.263  24.128  28.276  1.00  0.00     0.031 C 
ATOM     41  C   UNL A   1      40.406  25.366  27.856  1.00  0.00     0.029 A 
ATOM     42  N   UNL A   1      41.791  26.914  28.683  1.00  0.00    -0.354 N 
ATOM     43  C   UNL A   1      45.993  26.063  29.249  1.00  0.00     0.074 A 
ATOM     44  C   UNL A   1      46.311  24.715  28.832  1.00  0.00     0.031 C 
ATOM     45  C   UNL A   1      39.673  26.457  28.130  1.00  0.00     0.029 A 
ATOM     46  C   UNL A   1      40.543  27.485  28.693  1.00  0.00     0.049 A 
ATOM     47  H   UNL A   1      42.600  27.380  28.998  1.00  0.00     0.167 HD
ATOM     48  C   UNL A   1      46.896  26.944  29.744  1.00  0.00     0.037 A 
ATOM     49  C   UNL A   1      40.144  28.701  29.114  1.00  0.00     0.037 A 
ATOM     50  C   UNL A   1      46.579  28.292  30.133  1.00  0.00     0.049 A 
ATOM     51  C   UNL A   1      41.165  29.657  29.663  1.00  0.00     0.074 A 
ATOM     52  C   UNL A   1      47.432  29.280  30.591  1.00  0.00     0.029 A 
ATOM     53  N   UNL A   1      45.305  28.840  30.111  1.00  0.00    -0.354 N 
ATOM     54  N   UNL A   1      42.456  29.489  29.817  1.00  0.00    -0.248 NA
ATOM     55  C   UNL A   1      40.674  30.975  30.091  1.00  0.00     0.031 C 
ATOM     56  C   UNL A   1      46.668  30.414  30.887  1.00  0.00     0.029 A 
ATOM     57  C   UNL A   1      45.346  30.147  30.567  1.00  0.00     0.049 A 
ATOM     58  H   UNL A   1      44.492  28.371  29.815  1.00  0.00     0.167 HD
ATOM     59  C   UNL A   1      42.936  30.687  30.331  1.00  0.00     0.074 A 
ATOM     60  C   UNL A   1      41.800  31.577  30.451  1.00  0.00     0.031 C 
ATOM     61  C   UNL A   1      44.205  31.022  30.672  1.00  0.00     0.037 A 
BRANCH  48  62
ATOM     62  C   UNL A   1      48.313  26.473  29.887  1.00  0.00     0.057 A 
ATOM     63  C   UNL A   1      49.269  26.691  28.886  1.00  0.00     0.134 A 
ATOM     64  C   UNL A   1      48.738  25.821  31.052  1.00  0.00     0.134 A 
ATOM     65  F   UNL A   1      48.927  27.299  27.740  1.00  0.00    -0.206 F 
ATOM     66  C   UNL A   1      50.588  26.255  29.027  1.00  0.00     0.040 A 
ATOM     67  C   UNL A   1      50.060  25.405  31.216  1.00  0.00     0.040 A 
ATOM     68  F   UNL A   1      47.876  25.584  32.053  1.00  0.00    -0.206 F 
ATOM     69  C   UNL A   1      50.988  25.616  30.198  1.00  0.00     0.006 A 
ENDBRANCH  48  62
BRANCH  49  70
ATOM     70  C   UNL A   1      38.716  29.091  29.010  1.00  0.00     0.057 A 
ATOM     71  C   UNL A   1      38.181  29.553  27.802  1.00  0.00     0.134 A 
ATOM     72  C   UNL A   1      37.854  29.018  30.111  1.00  0.00     0.134 A 
ATOM     73  F   UNL A   1      38.961  29.662  26.717  1.00  0.00    -0.206 F 
ATOM     74  C   UNL A   1      36.846  29.949  27.697  1.00  0.00     0.040 A 
ATOM     75  C   UNL A   1      36.511  29.385  30.014  1.00  0.00     0.040 A 
ATOM     76  F   UNL A   1      38.303  28.574  31.295  1.00  0.00    -0.206 F 
ATOM     77  C   UNL A   1      36.006  29.859  28.805  1.00  0.00     0.006 A 
ENDBRANCH  49  70
BRANCH  61  78
ATOM     78  C   UNL A   1      44.436  32.418  31.171  1.00  0.00     0.057 A 
ATOM     79  C   UNL A   1      44.407  32.730  32.536  1.00  0.00     0.134 A 
ATOM     80  C   UNL A   1      44.733  33.453  30.275  1.00  0.00     0.134 A 
ATOM     81  F   UNL A   1      44.116  31.785  33.443  1.00  0.00    -0.206 F 
ATOM     82  C   UNL A   1      44.642  34.028  32.990  1.00  0.00     0.040 A 
ATOM     83  C   UNL A   1      44.996  34.749  30.719  1.00  0.00     0.040 A 
ATOM     84  F   UNL A   1      44.785  33.218  28.956  1.00  0.00    -0.206 F 
ATOM     85  C   UNL A   1      44.945  35.040  32.081  1.00  0.00     0.006 A 
ENDBRANCH  61  78
ENDBRANCH  35  36
ENDBRANCH  27  30
ENDBRANCH  25  26
ENDBRANCH  24  25
ENDBRANCH  23  24
ENDBRANCH   1  23
TORSDOF 18
ENDMDL
MODEL 2
REMARK VINA RESULT:     -10.1      1.073      1.938
REMARK SMILES C#CC[C@@]1(C(=O)NCCCCCCNC(=O)c2ccc(-c3c4nc(c(-c5c(F)cccc5F)c5ccc([nH]5)c(-c5c(F)cccc5F)c5nc(c(-c6c(F)cccc6F)c6ccc3[nH]6)C=C5)C=C4)cc2)CCCN1C(=O)OC(C)(C)C
REMARK SMILES IDX 10 1 9 2 8 3 7 4 5 5 6 6 4 8 71 9 74 10 72 11 73 12 3 13
REMARK SMILES IDX 2 14 1 15 75 16 76 17 77 18 78 19 79 20 80 21 81 22 11 23
REMARK SMILES IDX 12 24 13 25 14 26 15 27 16 29 17 30 18 31 70 32 19 33 69 34
REMARK SMILES IDX 20 35 21 36 22 37 63 38 23 39 68 40 62 41 64 42 24 43 67 44
REMARK SMILES IDX 61 45 60 46 25 48 51 49 34 50 50 51 35 52 38 53 49 54 65 55
REMARK SMILES IDX 36 56 37 57 48 59 66 60 39 61 26 62 27 63 32 64 28 65 29 66
REMARK SMILES IDX 31 67 33 68 30 69 52 70 53 71 58 72 54 73 55 74 57 75 59 76
REMARK SMILES IDX 56 77 40 78 41 79 46 80 42 81 43 82 45 83 47 84 44 85
REMARK H PARENT 7 7 14 28 64 47 38 58
REMARK Flexibility Score: inf
ROOT
ATOM      1  C   UNL A   1      36.908  21.959  24.804  1.00  0.00     0.002 C 
ENDROOT
BRANCH   1   2
ATOM      2  C   UNL A   1      36.554  22.583  23.447  1.00  0.00     0.021 C 
BRANCH   2   3
ATOM      3  C   UNL A   1      35.417  23.608  23.532  1.00  0.00     0.116 C 
BRANCH   3   4
ATOM      4  N   UNL A   1      34.148  22.951  23.304  1.00  0.00    -0.354 N 
ATOM      5  C   UNL A   1      33.102  22.754  24.160  1.00  0.00     0.247 C 
ATOM      6  O   UNL A   1      32.526  21.676  23.995  1.00  0.00    -0.272 OA
ATOM      7  H   UNL A   1      34.020  22.594  22.396  1.00  0.00     0.163 HD
BRANCH   5   8
ATOM      8  C   UNL A   1      32.601  23.876  25.136  1.00  0.00     0.136 C 
ATOM      9  C   UNL A   1      31.270  23.439  25.818  1.00  0.00     0.042 C 
ATOM     10  N   UNL A   1      32.139  25.135  24.442  1.00  0.00    -0.292 N 
ATOM     11  C   UNL A   1      30.418  24.678  26.020  1.00  0.00     0.025 C 
ATOM     12  C   UNL A   1      30.848  25.604  24.915  1.00  0.00     0.124 C 
BRANCH   8  13
ATOM     13  C   UNL A   1      33.743  24.112  26.204  1.00  0.00     0.128 C 
BRANCH  13  14
ATOM     14  C   UNL A   1      33.961  22.814  26.964  1.00  0.00    -0.104 C 
ATOM     15  C   UNL A   1      34.147  21.701  27.616  1.00  0.00     0.004 C 
ENDBRANCH  13  14
ENDBRANCH   8  13
BRANCH  10  16
ATOM     16  C   UNL A   1      32.765  25.968  23.530  1.00  0.00     0.411 C 
ATOM     17  O   UNL A   1      32.777  25.714  22.332  1.00  0.00    -0.224 OA
BRANCH  16  18
ATOM     18  O   UNL A   1      33.437  27.007  24.078  1.00  0.00    -0.444 OA
BRANCH  18  19
ATOM     19  C   UNL A   1      33.061  28.361  23.690  1.00  0.00     0.106 C 
ATOM     20  C   UNL A   1      31.750  28.407  22.879  1.00  0.00     0.056 C 
ATOM     21  C   UNL A   1      32.992  29.281  24.912  1.00  0.00     0.056 C 
ATOM     22  C   UNL A   1      34.185  28.853  22.765  1.00  0.00     0.056 C 
ENDBRANCH  18  19
ENDBRANCH  16  18
ENDBRANCH  10  16
ENDBRANCH   5   8
ENDBRANCH   3   4
ENDBRANCH   2   3
ENDBRANCH   1   2
BRANCH   1  23
ATOM     23  C   UNL A   1      36.566  20.470  24.924  1.00  0.00     0.002 C 
BRANCH  23  24
ATOM     24  C   UNL A   1      37.783  19.544  24.988  1.00  0.00     0.021 C 
BRANCH  24  25
ATOM     25  C   UNL A   1      39.053  20.224  25.483  1.00  0.00     0.116 C 
BRANCH  25  26
ATOM     26  N   UNL A   1      40.113  19.260  25.727  1.00  0.00    -0.352 N 
ATOM     27  C   UNL A   1      41.402  19.486  26.137  1.00  0.00     0.251 C 
ATOM     28  H   UNL A   1      39.873  18.317  25.579  1.00  0.00     0.163 HD
ATOM     29  O   UNL A   1      42.240  18.595  26.072  1.00  0.00    -0.269 OA
BRANCH  27  30
ATOM     30  C   UNL A   1      41.776  20.820  26.647  1.00  0.00     0.039 A 
ATOM     31  C   UNL A   1      42.194  21.798  25.743  1.00  0.00     0.014 A 
ATOM     32  C   UNL A   1      41.718  21.099  28.017  1.00  0.00     0.014 A 
ATOM     33  C   UNL A   1      42.512  23.075  26.209  1.00  0.00     0.010 A 
ATOM     34  C   UNL A   1      41.965  22.390  28.470  1.00  0.00     0.010 A 
ATOM     35  C   UNL A   1      42.375  23.387  27.570  1.00  0.00    -0.014 A 
BRANCH  35  36
ATOM     36  C   UNL A   1      42.666  24.750  28.078  1.00  0.00     0.031 A 
ATOM     37  C   UNL A   1      44.065  25.118  28.487  1.00  0.00     0.074 A 
ATOM     38  C   UNL A   1      41.660  25.633  28.228  1.00  0.00     0.049 A 
ATOM     39  N   UNL A   1      44.507  26.231  29.014  1.00  0.00    -0.248 NA
ATOM     40  C   UNL A   1      45.100  24.087  28.305  1.00  0.00     0.031 C 
ATOM     41  C   UNL A   1      40.255  25.378  27.909  1.00  0.00     0.029 A 
ATOM     42  N   UNL A   1      41.667  26.923  28.696  1.00  0.00    -0.354 N 
ATOM     43  C   UNL A   1      45.863  26.029  29.238  1.00  0.00     0.074 A 
ATOM     44  C   UNL A   1      46.161  24.671  28.841  1.00  0.00     0.031 C 
ATOM     45  C   UNL A   1      39.539  26.483  28.170  1.00  0.00     0.029 A 
ATOM     46  C   UNL A   1      40.426  27.510  28.707  1.00  0.00     0.049 A 
ATOM     47  H   UNL A   1      42.484  27.384  28.995  1.00  0.00     0.167 HD
ATOM     48  C   UNL A   1      46.781  26.907  29.710  1.00  0.00     0.037 A 
ATOM     49  C   UNL A   1      40.046  28.737  29.111  1.00  0.00     0.037 A 
ATOM     50  C   UNL A   1      46.485  28.265  30.078  1.00  0.00     0.049 A 
ATOM     51  C   UNL A   1      41.084  29.690  29.635  1.00  0.00     0.074 A 
ATOM     52  C   UNL A   1      47.354  29.251  30.511  1.00  0.00     0.029 A 
ATOM     53  N   UNL A   1      45.217  28.829  30.058  1.00  0.00    -0.354 N 
ATOM     54  N   UNL A   1      42.375  29.509  29.780  1.00  0.00    -0.248 NA
ATOM     55  C   UNL A   1      40.613  31.021  30.044  1.00  0.00     0.031 C 
ATOM     56  C   UNL A   1      46.607  30.399  30.794  1.00  0.00     0.029 A 
ATOM     57  C   UNL A   1      45.279  30.143  30.492  1.00  0.00     0.049 A 
ATOM     58  H   UNL A   1      44.396  28.365  29.778  1.00  0.00     0.167 HD
ATOM     59  C   UNL A   1      42.874  30.709  30.268  1.00  0.00     0.074 A 
ATOM     60  C   UNL A   1      41.750  31.615  30.383  1.00  0.00     0.031 C 
ATOM     61  C   UNL A   1      44.150  31.033  30.591  1.00  0.00     0.037 A 
BRANCH  48  62
ATOM     62  C   UNL A   1      48.194  26.420  29.848  1.00  0.00     0.057 A 
ATOM     63  C   UNL A   1      48.659  25.823  31.027  1.00  0.00     0.134 A 
ATOM     64  C   UNL A   1      49.093  26.520  28.779  1.00  0.00     0.134 A 
ATOM     65  F   UNL A   1      47.852  25.707  32.094  1.00  0.00    -0.206 F 
ATOM     66  C   UNL A   1      49.973  25.368  31.148  1.00  0.00     0.040 A 
ATOM     67  C   UNL A   1      50.402  26.044  28.878  1.00  0.00     0.040 A 
ATOM     68  F   UNL A   1      48.714  27.077  27.618  1.00  0.00    -0.206 F 
ATOM     69  C   UNL A   1      50.847  25.472  30.068  1.00  0.00     0.006 A 
ENDBRANCH  48  62
BRANCH  49  70
ATOM     70  C   UNL A   1      38.622  29.144  29.014  1.00  0.00     0.057 A 
ATOM     71  C   UNL A   1      38.088  29.615  27.809  1.00  0.00     0.134 A 
ATOM     72  C   UNL A   1      37.763  29.076  30.118  1.00  0.00     0.134 A 
ATOM     73  F   UNL A   1      38.866  29.718  26.722  1.00  0.00    -0.206 F 
ATOM     74  C   UNL A   1      36.757  30.026  27.710  1.00  0.00     0.040 A 
ATOM     75  C   UNL A   1      36.424  29.459  30.026  1.00  0.00     0.040 A 
ATOM     76  F   UNL A   1      38.212  28.624  31.298  1.00  0.00    -0.206 F 
ATOM     77  C   UNL A   1      35.920  29.942  28.821  1.00  0.00     0.006 A 
ENDBRANCH  49  70
BRANCH  61  78
ATOM     78  C   UNL A   1      44.403  32.435  31.064  1.00  0.00     0.057 A 
ATOM     79  C   UNL A   1      44.655  33.483  30.170  1.00  0.00     0.134 A 
ATOM     80  C   UNL A   1      44.354  32.744  32.429  1.00  0.00     0.134 A 
ATOM     81  F   UNL A   1      44.728  33.249  28.851  1.00  0.00    -0.206 F 
ATOM     82  C   UNL A   1      44.871  34.786  30.620  1.00  0.00     0.040 A 
ATOM     83  C   UNL A   1      44.541  34.049  32.889  1.00  0.00     0.040 A 
ATOM     84  F   UNL A   1      44.108  31.788  33.337  1.00  0.00    -0.206 F 
ATOM     85  C   UNL A   1      44.806  35.073  31.982  1.00  0.00     0.006 A 
ENDBRANCH  61  78
ENDBRANCH  35  36
ENDBRANCH  27  30
ENDBRANCH  25  26
ENDBRANCH  24  25
ENDBRANCH  23  24
ENDBRANCH   1  23
TORSDOF 18
ENDMDL
MODEL 3
REMARK VINA RESULT:     -10.1      1.590      6.394
REMARK SMILES C#CC[C@@]1(C(=O)NCCCCCCNC(=O)c2ccc(-c3c4nc(c(-c5c(F)cccc5F)c5ccc([nH]5)c(-c5c(F)cccc5F)c5nc(c(-c6c(F)cccc6F)c6ccc3[nH]6)C=C5)C=C4)cc2)CCCN1C(=O)OC(C)(C)C
REMARK SMILES IDX 10 1 9 2 8 3 7 4 5 5 6 6 4 8 71 9 74 10 72 11 73 12 3 13
REMARK SMILES IDX 2 14 1 15 75 16 76 17 77 18 78 19 79 20 80 21 81 22 11 23
REMARK SMILES IDX 12 24 13 25 14 26 15 27 16 29 17 30 18 31 70 32 19 33 69 34
REMARK SMILES IDX 20 35 21 36 22 37 63 38 23 39 68 40 62 41 64 42 24 43 67 44
REMARK SMILES IDX 61 45 60 46 25 48 51 49 34 50 50 51 35 52 38 53 49 54 65 55
REMARK SMILES IDX 36 56 37 57 48 59 66 60 39 61 26 62 27 63 32 64 28 65 29 66
REMARK SMILES IDX 31 67 33 68 30 69 52 70 53 71 58 72 54 73 55 74 57 75 59 76
REMARK SMILES IDX 56 77 40 78 41 79 46 80 42 81 43 82 45 83 47 84 44 85
REMARK H PARENT 7 7 14 28 64 47 38 58
REMARK Flexibility Score: inf
ROOT
ATOM      1  C   UNL A   1      37.088  22.132  24.616  1.00  0.00     0.002 C 
ENDROOT
BRANCH   1   2
ATOM      2  C   UNL A   1      36.579  22.830  23.347  1.00  0.00     0.021 C 
BRANCH   2   3
ATOM      3  C   UNL A   1      35.374  23.742  23.600  1.00  0.00     0.116 C 
BRANCH   3   4
ATOM      4  N   UNL A   1      34.151  23.032  23.296  1.00  0.00    -0.354 N 
ATOM      5  C   UNL A   1      33.105  22.706  24.112  1.00  0.00     0.247 C 
ATOM      6  O   UNL A   1      32.598  21.612  23.852  1.00  0.00    -0.272 OA
ATOM      7  H   UNL A   1      34.058  22.740  22.360  1.00  0.00     0.163 HD
BRANCH   5   8
ATOM      8  C   UNL A   1      32.523  23.715  25.163  1.00  0.00     0.136 C 
ATOM      9  C   UNL A   1      31.289  23.090  25.881  1.00  0.00     0.042 C 
ATOM     10  N   UNL A   1      31.879  24.937  24.551  1.00  0.00    -0.292 N 
ATOM     11  C   UNL A   1      30.305  24.206  26.180  1.00  0.00     0.025 C 
ATOM     12  C   UNL A   1      30.566  25.224  25.103  1.00  0.00     0.124 C 
BRANCH   8  13
ATOM     13  C   UNL A   1      33.679  24.043  26.190  1.00  0.00     0.128 C 
BRANCH  13  14
ATOM     14  C   UNL A   1      34.016  22.770  26.950  1.00  0.00    -0.104 C 
ATOM     15  C   UNL A   1      34.305  21.679  27.601  1.00  0.00     0.004 C 
ENDBRANCH  13  14
ENDBRANCH   8  13
BRANCH  10  16
ATOM     16  C   UNL A   1      32.355  25.879  23.655  1.00  0.00     0.411 C 
ATOM     17  O   UNL A   1      31.931  25.943  22.507  1.00  0.00    -0.224 OA
BRANCH  16  18
ATOM     18  O   UNL A   1      33.378  26.635  24.115  1.00  0.00    -0.444 OA
BRANCH  18  19
ATOM     19  C   UNL A   1      33.199  28.080  24.187  1.00  0.00     0.106 C 
ATOM     20  C   UNL A   1      33.894  28.826  23.030  1.00  0.00     0.056 C 
ATOM     21  C   UNL A   1      31.713  28.442  24.271  1.00  0.00     0.056 C 
ATOM     22  C   UNL A   1      33.887  28.517  25.490  1.00  0.00     0.056 C 
ENDBRANCH  18  19
ENDBRANCH  16  18
ENDBRANCH  10  16
ENDBRANCH   5   8
ENDBRANCH   3   4
ENDBRANCH   2   3
ENDBRANCH   1   2
BRANCH   1  23
ATOM     23  C   UNL A   1      36.571  20.702  24.803  1.00  0.00     0.002 C 
BRANCH  23  24
ATOM     24  C   UNL A   1      37.667  19.653  24.998  1.00  0.00     0.021 C 
BRANCH  24  25
ATOM     25  C   UNL A   1      38.965  20.212  25.567  1.00  0.00     0.116 C 
BRANCH  25  26
ATOM     26  N   UNL A   1      39.943  19.162  25.796  1.00  0.00    -0.352 N 
ATOM     27  C   UNL A   1      41.278  19.279  26.086  1.00  0.00     0.251 C 
ATOM     28  H   UNL A   1      39.600  18.241  25.734  1.00  0.00     0.163 HD
ATOM     29  O   UNL A   1      42.017  18.304  26.019  1.00  0.00    -0.269 OA
BRANCH  27  30
ATOM     30  C   UNL A   1      41.822  20.596  26.470  1.00  0.00     0.039 A 
ATOM     31  C   UNL A   1      42.233  21.477  25.468  1.00  0.00     0.014 A 
ATOM     32  C   UNL A   1      41.929  20.956  27.817  1.00  0.00     0.014 A 
ATOM     33  C   UNL A   1      42.712  22.741  25.816  1.00  0.00     0.010 A 
ATOM     34  C   UNL A   1      42.338  22.241  28.159  1.00  0.00     0.010 A 
ATOM     35  C   UNL A   1      42.743  23.141  27.161  1.00  0.00    -0.014 A 
BRANCH  35  36
ATOM     36  C   UNL A   1      43.207  24.496  27.548  1.00  0.00     0.031 A 
ATOM     37  C   UNL A   1      42.210  25.550  27.941  1.00  0.00     0.074 A 
ATOM     38  C   UNL A   1      44.519  24.793  27.485  1.00  0.00     0.049 A 
ATOM     39  N   UNL A   1      42.412  26.806  28.248  1.00  0.00    -0.248 NA
ATOM     40  C   UNL A   1      40.795  25.144  27.968  1.00  0.00     0.031 C 
ATOM     41  C   UNL A   1      45.578  23.868  27.074  1.00  0.00     0.029 A 
ATOM     42  N   UNL A   1      45.185  25.960  27.759  1.00  0.00    -0.354 N 
ATOM     43  C   UNL A   1      41.153  27.341  28.488  1.00  0.00     0.074 A 
ATOM     44  C   UNL A   1      40.190  26.291  28.240  1.00  0.00     0.031 C 
ATOM     45  C   UNL A   1      46.761  24.498  27.144  1.00  0.00     0.029 A 
ATOM     46  C   UNL A   1      46.542  25.877  27.568  1.00  0.00     0.049 A 
ATOM     47  H   UNL A   1      44.732  26.780  28.063  1.00  0.00     0.167 HD
ATOM     48  C   UNL A   1      40.831  28.591  28.902  1.00  0.00     0.037 A 
ATOM     49  C   UNL A   1      47.501  26.811  27.715  1.00  0.00     0.037 A 
ATOM     50  C   UNL A   1      41.794  29.625  29.172  1.00  0.00     0.049 A 
ATOM     51  C   UNL A   1      47.117  28.191  28.170  1.00  0.00     0.074 A 
ATOM     52  C   UNL A   1      41.574  30.904  29.651  1.00  0.00     0.029 A 
ATOM     53  N   UNL A   1      43.163  29.496  28.985  1.00  0.00    -0.354 N 
ATOM     54  N   UNL A   1      45.929  28.666  28.458  1.00  0.00    -0.248 NA
ATOM     55  C   UNL A   1      48.208  29.163  28.329  1.00  0.00     0.031 C 
ATOM     56  C   UNL A   1      42.805  31.565  29.713  1.00  0.00     0.029 A 
ATOM     57  C   UNL A   1      43.798  30.681  29.318  1.00  0.00     0.049 A 
ATOM     58  H   UNL A   1      43.616  28.684  28.662  1.00  0.00     0.167 HD
ATOM     59  C   UNL A   1      46.132  29.980  28.858  1.00  0.00     0.074 A 
ATOM     60  C   UNL A   1      47.558  30.223  28.789  1.00  0.00     0.031 C 
ATOM     61  C   UNL A   1      45.220  30.903  29.251  1.00  0.00     0.037 A 
BRANCH  48  62
ATOM     62  C   UNL A   1      39.375  28.903  29.091  1.00  0.00     0.057 A 
ATOM     63  C   UNL A   1      38.578  29.378  28.040  1.00  0.00     0.134 A 
ATOM     64  C   UNL A   1      38.753  28.695  30.328  1.00  0.00     0.134 A 
ATOM     65  F   UNL A   1      39.114  29.610  26.832  1.00  0.00    -0.206 F 
ATOM     66  C   UNL A   1      37.223  29.661  28.221  1.00  0.00     0.040 A 
ATOM     67  C   UNL A   1      37.393  28.949  30.514  1.00  0.00     0.040 A 
ATOM     68  F   UNL A   1      39.456  28.237  31.376  1.00  0.00    -0.206 F 
ATOM     69  C   UNL A   1      36.626  29.440  29.459  1.00  0.00     0.006 A 
ENDBRANCH  48  62
BRANCH  49  70
ATOM     70  C   UNL A   1      48.921  26.466  27.450  1.00  0.00     0.057 A 
ATOM     71  C   UNL A   1      49.474  26.620  26.174  1.00  0.00     0.134 A 
ATOM     72  C   UNL A   1      49.755  25.972  28.460  1.00  0.00     0.134 A 
ATOM     73  F   UNL A   1      48.719  27.073  25.162  1.00  0.00    -0.206 F 
ATOM     74  C   UNL A   1      50.799  26.275  25.905  1.00  0.00     0.040 A 
ATOM     75  C   UNL A   1      51.090  25.648  28.211  1.00  0.00     0.040 A 
ATOM     76  F   UNL A   1      49.288  25.812  29.707  1.00  0.00    -0.206 F 
ATOM     77  C   UNL A   1      51.613  25.792  26.928  1.00  0.00     0.006 A 
ENDBRANCH  49  70
BRANCH  61  78
ATOM     78  C   UNL A   1      45.739  32.247  29.670  1.00  0.00     0.057 A 
ATOM     79  C   UNL A   1      45.863  33.308  28.764  1.00  0.00     0.134 A 
ATOM     80  C   UNL A   1      46.081  32.492  31.006  1.00  0.00     0.134 A 
ATOM     81  F   UNL A   1      45.564  33.133  27.467  1.00  0.00    -0.206 F 
ATOM     82  C   UNL A   1      46.330  34.559  29.168  1.00  0.00     0.040 A 
ATOM     83  C   UNL A   1      46.523  33.747  31.427  1.00  0.00     0.040 A 
ATOM     84  F   UNL A   1      45.977  31.521  31.925  1.00  0.00    -0.206 F 
ATOM     85  C   UNL A   1      46.654  34.783  30.505  1.00  0.00     0.006 A 
ENDBRANCH  61  78
ENDBRANCH  35  36
ENDBRANCH  27  30
ENDBRANCH  25  26
ENDBRANCH  24  25
ENDBRANCH  23  24
ENDBRANCH   1  23
TORSDOF 18
ENDMDL
