MODEL 1
REMARK VINA RESULT:     -11.4      0.000      0.000
REMARK SMILES C[NH+](C)CCc1nc(Nc2ccc(O)c(C(=O)NCCCCCCNC(=O)c3ccc(-c4c5nc(c(-c6c(F)cccc6F)c6ccc([nH]6)c(-c6c(F)cccc6F)c6nc(c(-c7c(F)cccc7F)c7ccc4[nH]7)C=C6)C=C5)cc3)c2)c2ccccc2n1
REMARK SMILES IDX 20 1 19 2 18 3 16 4 17 5 15 7 10 8 11 9 82 10 12 11 13 12
REMARK SMILES IDX 9 13 8 15 6 16 7 17 89 18 88 19 83 20 87 21 84 22 86 23
REMARK SMILES IDX 85 24 5 25 4 26 2 27 1 28 3 29 14 31 21 33 22 34 23 35 24 36
REMARK SMILES IDX 25 37 26 38 27 40 28 41 29 42 81 43 30 44 80 45 31 46 32 47
REMARK SMILES IDX 33 48 74 49 34 50 79 51 73 52 75 53 35 54 78 55 72 56 71 57
REMARK SMILES IDX 36 59 62 60 45 61 61 62 46 63 49 64 60 65 76 66 47 67 48 68
REMARK SMILES IDX 59 70 77 71 50 72 37 73 38 74 43 75 39 76 40 77 42 78 44 79
REMARK SMILES IDX 41 80 63 81 64 82 69 83 65 84 66 85 68 86 70 87 67 88 51 89
REMARK SMILES IDX 52 90 57 91 53 92 54 93 56 94 58 95 55 96
REMARK H PARENT 18 6 9 14 2 30 14 32 25 39 75 58 49 69
REMARK Flexibility Score: inf
ROOT
ATOM      1  C   UNL A   1      34.107  28.953  26.155  1.00  0.00     0.021 C 
ENDROOT
BRANCH   1   2
ATOM      2  C   UNL A   1      33.086  29.370  25.092  1.00  0.00     0.116 C 
BRANCH   2   3
ATOM      3  N   UNL A   1      33.648  29.141  23.780  1.00  0.00    -0.352 N 
ATOM      4  C   UNL A   1      33.667  28.034  22.976  1.00  0.00     0.255 C 
ATOM      5  O   UNL A   1      34.390  28.093  21.976  1.00  0.00    -0.269 OA
ATOM      6  H   UNL A   1      34.100  29.926  23.393  1.00  0.00     0.163 HD
BRANCH   4   7
ATOM      7  C   UNL A   1      32.795  26.837  23.149  1.00  0.00     0.083 A 
ATOM      8  C   UNL A   1      32.591  24.758  24.449  1.00  0.00     0.041 A 
ATOM      9  C   UNL A   1      31.458  24.425  23.709  1.00  0.00     0.030 A 
ATOM     10  C   UNL A   1      33.252  25.952  24.146  1.00  0.00     0.043 A 
ATOM     11  C   UNL A   1      30.955  25.303  22.749  1.00  0.00     0.049 A 
ATOM     12  C   UNL A   1      31.603  26.518  22.490  1.00  0.00     0.128 A 
BRANCH   8  13
ATOM     13  N   UNL A   1      33.118  23.915  25.439  1.00  0.00    -0.340 N 
ATOM     14  H   UNL A   1      33.072  24.249  26.363  1.00  0.00     0.168 HD
BRANCH  13  15
ATOM     15  C   UNL A   1      33.704  22.646  25.265  1.00  0.00     0.142 A 
ATOM     16  C   UNL A   1      33.439  20.402  24.855  1.00  0.00     0.137 A 
ATOM     17  N   UNL A   1      32.880  21.600  25.065  1.00  0.00    -0.215 NA
ATOM     18  N   UNL A   1      34.757  20.164  24.891  1.00  0.00    -0.233 NA
ATOM     19  C   UNL A   1      35.570  21.207  25.066  1.00  0.00     0.076 A 
ATOM     20  C   UNL A   1      35.102  22.510  25.269  1.00  0.00     0.043 A 
ATOM     21  C   UNL A   1      36.939  20.989  25.007  1.00  0.00     0.029 A 
ATOM     22  C   UNL A   1      36.037  23.564  25.444  1.00  0.00     0.014 A 
ATOM     23  C   UNL A   1      37.860  22.030  25.146  1.00  0.00     0.002 A 
ATOM     24  C   UNL A   1      37.407  23.322  25.373  1.00  0.00     0.001 A 
BRANCH  16  25
ATOM     25  C   UNL A   1      32.526  19.273  24.483  1.00  0.00     0.138 C 
BRANCH  25  26
ATOM     26  C   UNL A   1      32.728  18.011  25.344  1.00  0.00     0.269 C 
BRANCH  26  27
ATOM     27  N   UNL A   1      33.623  16.927  24.898  1.00  0.00    -0.339 N 
ATOM     28  C   UNL A   1      33.221  15.608  25.375  1.00  0.00     0.332 C 
ATOM     29  C   UNL A   1      33.857  16.915  23.458  1.00  0.00     0.332 C 
ATOM     30  H   UNL A   1      34.516  17.145  25.340  1.00  0.00     0.347 HD
ENDBRANCH  26  27
ENDBRANCH  25  26
ENDBRANCH  16  25
ENDBRANCH  13  15
ENDBRANCH   8  13
BRANCH  12  31
ATOM     31  O   UNL A   1      30.993  27.378  21.624  1.00  0.00    -0.507 OA
ATOM     32  H   UNL A   1      30.101  27.236  21.373  1.00  0.00     0.293 HD
ENDBRANCH  12  31
ENDBRANCH   4   7
ENDBRANCH   2   3
ENDBRANCH   1   2
BRANCH   1  33
ATOM     33  C   UNL A   1      33.846  29.584  27.528  1.00  0.00     0.002 C 
BRANCH  33  34
ATOM     34  C   UNL A   1      34.172  31.079  27.612  1.00  0.00     0.002 C 
BRANCH  34  35
ATOM     35  C   UNL A   1      32.955  32.008  27.633  1.00  0.00     0.021 C 
BRANCH  35  36
ATOM     36  C   UNL A   1      33.239  33.437  27.178  1.00  0.00     0.116 C 
BRANCH  36  37
ATOM     37  N   UNL A   1      32.804  34.412  28.166  1.00  0.00    -0.352 N 
ATOM     38  C   UNL A   1      33.256  34.618  29.442  1.00  0.00     0.251 C 
ATOM     39  H   UNL A   1      32.080  35.011  27.875  1.00  0.00     0.163 HD
ATOM     40  O   UNL A   1      32.614  35.328  30.216  1.00  0.00    -0.269 OA
BRANCH  38  41
ATOM     41  C   UNL A   1      34.510  33.985  29.900  1.00  0.00     0.039 A 
ATOM     42  C   UNL A   1      34.444  32.998  30.888  1.00  0.00     0.014 A 
ATOM     43  C   UNL A   1      35.747  34.384  29.387  1.00  0.00     0.014 A 
ATOM     44  C   UNL A   1      35.616  32.380  31.326  1.00  0.00     0.010 A 
ATOM     45  C   UNL A   1      36.909  33.723  29.778  1.00  0.00     0.010 A 
ATOM     46  C   UNL A   1      36.854  32.720  30.757  1.00  0.00    -0.014 A 
BRANCH  46  47
ATOM     47  C   UNL A   1      38.095  32.021  31.173  1.00  0.00     0.031 A 
ATOM     48  C   UNL A   1      38.849  32.463  32.394  1.00  0.00     0.074 A 
ATOM     49  C   UNL A   1      38.567  31.011  30.418  1.00  0.00     0.049 A 
ATOM     50  N   UNL A   1      39.948  31.973  32.909  1.00  0.00    -0.248 NA
ATOM     51  C   UNL A   1      38.311  33.623  33.121  1.00  0.00     0.031 C 
ATOM     52  C   UNL A   1      37.957  30.527  29.178  1.00  0.00     0.029 A 
ATOM     53  N   UNL A   1      39.668  30.210  30.583  1.00  0.00    -0.354 N 
ATOM     54  C   UNL A   1      40.238  32.766  34.010  1.00  0.00     0.074 A 
ATOM     55  C   UNL A   1      39.229  33.803  34.060  1.00  0.00     0.031 C 
ATOM     56  C   UNL A   1      38.672  29.490  28.714  1.00  0.00     0.029 A 
ATOM     57  C   UNL A   1      39.803  29.255  29.605  1.00  0.00     0.049 A 
ATOM     58  H   UNL A   1      40.301  30.310  31.331  1.00  0.00     0.167 HD
ATOM     59  C   UNL A   1      41.239  32.632  34.913  1.00  0.00     0.037 A 
ATOM     60  C   UNL A   1      40.731  28.293  29.451  1.00  0.00     0.037 A 
ATOM     61  C   UNL A   1      42.229  31.587  34.874  1.00  0.00     0.049 A 
ATOM     62  C   UNL A   1      41.826  28.156  30.469  1.00  0.00     0.074 A 
ATOM     63  C   UNL A   1      43.243  31.323  35.779  1.00  0.00     0.029 A 
ATOM     64  N   UNL A   1      42.334  30.636  33.870  1.00  0.00    -0.354 N 
ATOM     65  N   UNL A   1      42.044  28.867  31.547  1.00  0.00    -0.248 NA
ATOM     66  C   UNL A   1      42.799  27.077  30.250  1.00  0.00     0.031 C 
ATOM     67  C   UNL A   1      43.984  30.236  35.301  1.00  0.00     0.029 A 
ATOM     68  C   UNL A   1      43.408  29.798  34.119  1.00  0.00     0.049 A 
ATOM     69  H   UNL A   1      41.732  30.567  33.094  1.00  0.00     0.167 HD
ATOM     70  C   UNL A   1      43.168  28.314  32.147  1.00  0.00     0.074 A 
ATOM     71  C   UNL A   1      43.573  27.196  31.319  1.00  0.00     0.031 C 
ATOM     72  C   UNL A   1      43.806  28.697  33.279  1.00  0.00     0.037 A 
BRANCH  59  73
ATOM     73  C   UNL A   1      41.306  33.642  36.021  1.00  0.00     0.057 A 
ATOM     74  C   UNL A   1      42.049  34.824  35.898  1.00  0.00     0.134 A 
ATOM     75  C   UNL A   1      40.608  33.440  37.219  1.00  0.00     0.134 A 
ATOM     76  F   UNL A   1      42.750  35.074  34.782  1.00  0.00    -0.206 F 
ATOM     77  C   UNL A   1      42.122  35.752  36.939  1.00  0.00     0.040 A 
ATOM     78  C   UNL A   1      40.654  34.373  38.256  1.00  0.00     0.040 A 
ATOM     79  F   UNL A   1      39.873  32.333  37.400  1.00  0.00    -0.206 F 
ATOM     80  C   UNL A   1      41.419  35.530  38.121  1.00  0.00     0.006 A 
ENDBRANCH  59  73
BRANCH  60  81
ATOM     81  C   UNL A   1      40.633  27.354  28.306  1.00  0.00     0.057 A 
ATOM     82  C   UNL A   1      39.818  26.218  28.379  1.00  0.00     0.134 A 
ATOM     83  C   UNL A   1      41.330  27.577  27.113  1.00  0.00     0.134 A 
ATOM     84  F   UNL A   1      39.140  25.946  29.502  1.00  0.00    -0.206 F 
ATOM     85  C   UNL A   1      39.709  25.330  27.309  1.00  0.00     0.040 A 
ATOM     86  C   UNL A   1      41.213  26.708  26.028  1.00  0.00     0.040 A 
ATOM     87  F   UNL A   1      42.119  28.653  26.981  1.00  0.00    -0.206 F 
ATOM     88  C   UNL A   1      40.403  25.578  26.126  1.00  0.00     0.006 A 
ENDBRANCH  60  81
BRANCH  72  89
ATOM     89  C   UNL A   1      45.004  27.892  33.689  1.00  0.00     0.057 A 
ATOM     90  C   UNL A   1      46.299  28.245  33.289  1.00  0.00     0.134 A 
ATOM     91  C   UNL A   1      44.862  26.762  34.503  1.00  0.00     0.134 A 
ATOM     92  F   UNL A   1      46.499  29.308  32.496  1.00  0.00    -0.206 F 
ATOM     93  C   UNL A   1      47.409  27.487  33.665  1.00  0.00     0.040 A 
ATOM     94  C   UNL A   1      45.966  26.011  34.905  1.00  0.00     0.040 A 
ATOM     95  F   UNL A   1      43.649  26.374  34.926  1.00  0.00    -0.206 F 
ATOM     96  C   UNL A   1      47.244  26.369  34.480  1.00  0.00     0.006 A 
ENDBRANCH  72  89
ENDBRANCH  46  47
ENDBRANCH  38  41
ENDBRANCH  36  37
ENDBRANCH  35  36
ENDBRANCH  34  35
ENDBRANCH  33  34
ENDBRANCH   1  33
TORSDOF 19
ENDMDL
MODEL 2
REMARK VINA RESULT:     -11.3      4.496      9.635
REMARK SMILES C[NH+](C)CCc1nc(Nc2ccc(O)c(C(=O)NCCCCCCNC(=O)c3ccc(-c4c5nc(c(-c6c(F)cccc6F)c6ccc([nH]6)c(-c6c(F)cccc6F)c6nc(c(-c7c(F)cccc7F)c7ccc4[nH]7)C=C6)C=C5)cc3)c2)c2ccccc2n1
REMARK SMILES IDX 20 1 19 2 18 3 16 4 17 5 15 7 10 8 11 9 82 10 12 11 13 12
REMARK SMILES IDX 9 13 8 15 6 16 7 17 89 18 88 19 83 20 87 21 84 22 86 23
REMARK SMILES IDX 85 24 5 25 4 26 2 27 1 28 3 29 14 31 21 33 22 34 23 35 24 36
REMARK SMILES IDX 25 37 26 38 27 40 28 41 29 42 81 43 30 44 80 45 31 46 32 47
REMARK SMILES IDX 33 48 74 49 34 50 79 51 73 52 75 53 35 54 78 55 72 56 71 57
REMARK SMILES IDX 36 59 62 60 45 61 61 62 46 63 49 64 60 65 76 66 47 67 48 68
REMARK SMILES IDX 59 70 77 71 50 72 37 73 38 74 43 75 39 76 40 77 42 78 44 79
REMARK SMILES IDX 41 80 63 81 64 82 69 83 65 84 66 85 68 86 70 87 67 88 51 89
REMARK SMILES IDX 52 90 57 91 53 92 54 93 56 94 58 95 55 96
REMARK H PARENT 18 6 9 14 2 30 14 32 25 39 75 58 49 69
REMARK Flexibility Score: inf
ROOT
ATOM      1  C   UNL A   1      35.506  22.518  26.253  1.00  0.00     0.021 C 
ENDROOT
BRANCH   1   2
ATOM      2  C   UNL A   1      34.641  21.448  26.928  1.00  0.00     0.116 C 
BRANCH   2   3
ATOM      3  N   UNL A   1      33.440  22.066  27.442  1.00  0.00    -0.352 N 
ATOM      4  C   UNL A   1      32.531  22.913  26.867  1.00  0.00     0.255 C 
ATOM      5  O   UNL A   1      31.697  23.420  27.623  1.00  0.00    -0.269 OA
ATOM      6  H   UNL A   1      33.237  21.835  28.377  1.00  0.00     0.163 HD
BRANCH   4   7
ATOM      7  C   UNL A   1      32.401  23.158  25.402  1.00  0.00     0.083 A 
ATOM      8  C   UNL A   1      32.692  24.907  23.695  1.00  0.00     0.041 A 
ATOM      9  C   UNL A   1      32.207  24.024  22.731  1.00  0.00     0.030 A 
ATOM     10  C   UNL A   1      32.765  24.466  25.020  1.00  0.00     0.043 A 
ATOM     11  C   UNL A   1      31.884  22.710  23.071  1.00  0.00     0.049 A 
ATOM     12  C   UNL A   1      32.008  22.270  24.395  1.00  0.00     0.128 A 
BRANCH   8  13
ATOM     13  N   UNL A   1      33.049  26.229  23.393  1.00  0.00    -0.340 N 
ATOM     14  H   UNL A   1      33.896  26.349  22.906  1.00  0.00     0.168 HD
BRANCH  13  15
ATOM     15  C   UNL A   1      32.338  27.405  23.703  1.00  0.00     0.142 A 
ATOM     16  C   UNL A   1      30.610  28.838  23.221  1.00  0.00     0.137 A 
ATOM     17  N   UNL A   1      31.313  27.746  22.900  1.00  0.00    -0.215 NA
ATOM     18  N   UNL A   1      30.894  29.647  24.251  1.00  0.00    -0.233 NA
ATOM     19  C   UNL A   1      31.896  29.293  25.057  1.00  0.00     0.076 A 
ATOM     20  C   UNL A   1      32.685  28.158  24.837  1.00  0.00     0.043 A 
ATOM     21  C   UNL A   1      32.139  30.069  26.182  1.00  0.00     0.029 A 
ATOM     22  C   UNL A   1      33.731  27.852  25.748  1.00  0.00     0.014 A 
ATOM     23  C   UNL A   1      33.145  29.750  27.097  1.00  0.00     0.002 A 
ATOM     24  C   UNL A   1      33.949  28.642  26.875  1.00  0.00     0.001 A 
BRANCH  16  25
ATOM     25  C   UNL A   1      29.381  29.127  22.414  1.00  0.00     0.138 C 
BRANCH  25  26
ATOM     26  C   UNL A   1      29.307  30.580  21.906  1.00  0.00     0.269 C 
BRANCH  26  27
ATOM     27  N   UNL A   1      28.026  31.311  21.890  1.00  0.00    -0.339 N 
ATOM     28  C   UNL A   1      27.702  31.942  23.166  1.00  0.00     0.332 C 
ATOM     29  C   UNL A   1      27.906  32.260  20.790  1.00  0.00     0.332 C 
ATOM     30  H   UNL A   1      27.328  30.584  21.731  1.00  0.00     0.347 HD
ENDBRANCH  26  27
ENDBRANCH  25  26
ENDBRANCH  16  25
ENDBRANCH  13  15
ENDBRANCH   8  13
BRANCH  12  31
ATOM     31  O   UNL A   1      31.787  20.945  24.635  1.00  0.00    -0.507 OA
ATOM     32  H   UNL A   1      31.389  20.674  25.438  1.00  0.00     0.293 HD
ENDBRANCH  12  31
ENDBRANCH   4   7
ENDBRANCH   2   3
ENDBRANCH   1   2
BRANCH   1  33
ATOM     33  C   UNL A   1      36.673  21.935  25.448  1.00  0.00     0.002 C 
BRANCH  33  34
ATOM     34  C   UNL A   1      36.410  20.544  24.863  1.00  0.00     0.002 C 
BRANCH  34  35
ATOM     35  C   UNL A   1      37.564  19.549  25.016  1.00  0.00     0.021 C 
BRANCH  35  36
ATOM     36  C   UNL A   1      38.869  20.162  25.518  1.00  0.00     0.116 C 
BRANCH  36  37
ATOM     37  N   UNL A   1      39.885  19.148  25.750  1.00  0.00    -0.352 N 
ATOM     38  C   UNL A   1      41.218  19.300  26.025  1.00  0.00     0.251 C 
ATOM     39  H   UNL A   1      39.569  18.218  25.703  1.00  0.00     0.163 HD
ATOM     40  O   UNL A   1      41.976  18.332  25.957  1.00  0.00    -0.269 OA
BRANCH  38  41
ATOM     41  C   UNL A   1      41.757  20.625  26.394  1.00  0.00     0.039 A 
ATOM     42  C   UNL A   1      42.144  21.502  25.377  1.00  0.00     0.014 A 
ATOM     43  C   UNL A   1      41.915  20.990  27.734  1.00  0.00     0.014 A 
ATOM     44  C   UNL A   1      42.645  22.763  25.704  1.00  0.00     0.010 A 
ATOM     45  C   UNL A   1      42.355  22.271  28.059  1.00  0.00     0.010 A 
ATOM     46  C   UNL A   1      42.730  23.166  27.047  1.00  0.00    -0.014 A 
BRANCH  46  47
ATOM     47  C   UNL A   1      43.202  24.528  27.400  1.00  0.00     0.031 A 
ATOM     48  C   UNL A   1      42.226  25.592  27.815  1.00  0.00     0.074 A 
ATOM     49  C   UNL A   1      44.513  24.818  27.302  1.00  0.00     0.049 A 
ATOM     50  N   UNL A   1      42.455  26.834  28.159  1.00  0.00    -0.248 NA
ATOM     51  C   UNL A   1      40.803  25.219  27.823  1.00  0.00     0.031 C 
ATOM     52  C   UNL A   1      45.551  23.887  26.854  1.00  0.00     0.029 A 
ATOM     53  N   UNL A   1      45.196  25.975  27.571  1.00  0.00    -0.354 N 
ATOM     54  C   UNL A   1      41.210  27.392  28.415  1.00  0.00     0.074 A 
ATOM     55  C   UNL A   1      40.224  26.369  28.135  1.00  0.00     0.031 C 
ATOM     56  C   UNL A   1      46.744  24.501  26.914  1.00  0.00     0.029 A 
ATOM     57  C   UNL A   1      46.552  25.872  27.376  1.00  0.00     0.049 A 
ATOM     58  H   UNL A   1      44.757  26.803  27.876  1.00  0.00     0.167 HD
ATOM     59  C   UNL A   1      40.914  28.636  28.863  1.00  0.00     0.037 A 
ATOM     60  C   UNL A   1      47.529  26.778  27.557  1.00  0.00     0.037 A 
ATOM     61  C   UNL A   1      41.897  29.644  29.160  1.00  0.00     0.049 A 
ATOM     62  C   UNL A   1      47.179  28.147  28.065  1.00  0.00     0.074 A 
ATOM     63  C   UNL A   1      41.704  30.911  29.684  1.00  0.00     0.029 A 
ATOM     64  N   UNL A   1      43.261  29.503  28.952  1.00  0.00    -0.354 N 
ATOM     65  N   UNL A   1      46.004  28.637  28.374  1.00  0.00    -0.248 NA
ATOM     66  C   UNL A   1      48.293  29.086  28.253  1.00  0.00     0.031 C 
ATOM     67  C   UNL A   1      42.948  31.548  29.757  1.00  0.00     0.029 A 
ATOM     68  C   UNL A   1      43.920  30.665  29.315  1.00  0.00     0.049 A 
ATOM     69  H   UNL A   1      43.696  28.693  28.599  1.00  0.00     0.167 HD
ATOM     70  C   UNL A   1      46.236  29.934  28.811  1.00  0.00     0.074 A 
ATOM     71  C   UNL A   1      47.668  30.147  28.743  1.00  0.00     0.031 C 
ATOM     72  C   UNL A   1      45.344  30.865  29.229  1.00  0.00     0.037 A 
BRANCH  59  73
ATOM     73  C   UNL A   1      39.463  28.967  29.061  1.00  0.00     0.057 A 
ATOM     74  C   UNL A   1      38.657  29.413  28.005  1.00  0.00     0.134 A 
ATOM     75  C   UNL A   1      38.860  28.826  30.318  1.00  0.00     0.134 A 
ATOM     76  F   UNL A   1      39.175  29.583  26.779  1.00  0.00    -0.206 F 
ATOM     77  C   UNL A   1      37.313  29.738  28.198  1.00  0.00     0.040 A 
ATOM     78  C   UNL A   1      37.511  29.123  30.517  1.00  0.00     0.040 A 
ATOM     79  F   UNL A   1      39.573  28.397  31.370  1.00  0.00    -0.206 F 
ATOM     80  C   UNL A   1      36.735  29.588  29.457  1.00  0.00     0.006 A 
ENDBRANCH  59  73
BRANCH  60  81
ATOM     81  C   UNL A   1      48.940  26.399  27.298  1.00  0.00     0.057 A 
ATOM     82  C   UNL A   1      49.496  26.536  26.021  1.00  0.00     0.134 A 
ATOM     83  C   UNL A   1      49.766  25.911  28.317  1.00  0.00     0.134 A 
ATOM     84  F   UNL A   1      48.747  26.983  25.004  1.00  0.00    -0.206 F 
ATOM     85  C   UNL A   1      50.823  26.192  25.763  1.00  0.00     0.040 A 
ATOM     86  C   UNL A   1      51.101  25.583  28.077  1.00  0.00     0.040 A 
ATOM     87  F   UNL A   1      49.292  25.766  29.563  1.00  0.00    -0.206 F 
ATOM     88  C   UNL A   1      51.632  25.719  26.795  1.00  0.00     0.006 A 
ENDBRANCH  60  81
BRANCH  72  89
ATOM     89  C   UNL A   1      45.899  32.193  29.654  1.00  0.00     0.057 A 
ATOM     90  C   UNL A   1      46.308  32.431  30.972  1.00  0.00     0.134 A 
ATOM     91  C   UNL A   1      46.038  33.239  28.732  1.00  0.00     0.134 A 
ATOM     92  F   UNL A   1      46.186  31.476  31.905  1.00  0.00    -0.206 F 
ATOM     93  C   UNL A   1      46.814  33.672  31.365  1.00  0.00     0.040 A 
ATOM     94  C   UNL A   1      46.564  34.474  29.107  1.00  0.00     0.040 A 
ATOM     95  F   UNL A   1      45.670  33.073  27.453  1.00  0.00    -0.206 F 
ATOM     96  C   UNL A   1      46.948  34.696  30.429  1.00  0.00     0.006 A 
ENDBRANCH  72  89
ENDBRANCH  46  47
ENDBRANCH  38  41
ENDBRANCH  36  37
ENDBRANCH  35  36
ENDBRANCH  34  35
ENDBRANCH  33  34
ENDBRANCH   1  33
TORSDOF 19
ENDMDL
MODEL 3
REMARK VINA RESULT:     -11.3      4.076      9.551
REMARK SMILES C[NH+](C)CCc1nc(Nc2ccc(O)c(C(=O)NCCCCCCNC(=O)c3ccc(-c4c5nc(c(-c6c(F)cccc6F)c6ccc([nH]6)c(-c6c(F)cccc6F)c6nc(c(-c7c(F)cccc7F)c7ccc4[nH]7)C=C6)C=C5)cc3)c2)c2ccccc2n1
REMARK SMILES IDX 20 1 19 2 18 3 16 4 17 5 15 7 10 8 11 9 82 10 12 11 13 12
REMARK SMILES IDX 9 13 8 15 6 16 7 17 89 18 88 19 83 20 87 21 84 22 86 23
REMARK SMILES IDX 85 24 5 25 4 26 2 27 1 28 3 29 14 31 21 33 22 34 23 35 24 36
REMARK SMILES IDX 25 37 26 38 27 40 28 41 29 42 81 43 30 44 80 45 31 46 32 47
REMARK SMILES IDX 33 48 74 49 34 50 79 51 73 52 75 53 35 54 78 55 72 56 71 57
REMARK SMILES IDX 36 59 62 60 45 61 61 62 46 63 49 64 60 65 76 66 47 67 48 68
REMARK SMILES IDX 59 70 77 71 50 72 37 73 38 74 43 75 39 76 40 77 42 78 44 79
REMARK SMILES IDX 41 80 63 81 64 82 69 83 65 84 66 85 68 86 70 87 67 88 51 89
REMARK SMILES IDX 52 90 57 91 53 92 54 93 56 94 58 95 55 96
REMARK H PARENT 18 6 9 14 2 30 14 32 25 39 75 58 49 69
REMARK Flexibility Score: inf
ROOT
ATOM      1  C   UNL A   1      37.486  22.924  25.579  1.00  0.00     0.021 C 
ENDROOT
BRANCH   1   2
ATOM      2  C   UNL A   1      36.163  23.665  25.801  1.00  0.00     0.116 C 
BRANCH   2   3
ATOM      3  N   UNL A   1      35.348  22.911  26.726  1.00  0.00    -0.352 N 
ATOM      4  C   UNL A   1      33.995  22.717  26.802  1.00  0.00     0.255 C 
ATOM      5  O   UNL A   1      33.576  22.163  27.823  1.00  0.00    -0.269 OA
ATOM      6  H   UNL A   1      35.859  22.451  27.431  1.00  0.00     0.163 HD
BRANCH   4   7
ATOM      7  C   UNL A   1      33.029  23.003  25.704  1.00  0.00     0.083 A 
ATOM      8  C   UNL A   1      31.224  24.548  25.063  1.00  0.00     0.041 A 
ATOM      9  C   UNL A   1      31.024  23.807  23.900  1.00  0.00     0.030 A 
ATOM     10  C   UNL A   1      32.212  24.124  25.957  1.00  0.00     0.043 A 
ATOM     11  C   UNL A   1      31.848  22.722  23.600  1.00  0.00     0.049 A 
ATOM     12  C   UNL A   1      32.865  22.338  24.484  1.00  0.00     0.128 A 
BRANCH   8  13
ATOM     13  N   UNL A   1      30.433  25.659  25.392  1.00  0.00    -0.340 N 
ATOM     14  H   UNL A   1      29.672  25.488  25.993  1.00  0.00     0.168 HD
BRANCH  13  15
ATOM     15  C   UNL A   1      30.600  26.991  24.965  1.00  0.00     0.142 A 
ATOM     16  C   UNL A   1      30.068  28.654  23.475  1.00  0.00     0.137 A 
ATOM     17  N   UNL A   1      29.945  27.378  23.854  1.00  0.00    -0.215 NA
ATOM     18  N   UNL A   1      30.845  29.557  24.089  1.00  0.00    -0.233 NA
ATOM     19  C   UNL A   1      31.474  29.175  25.201  1.00  0.00     0.076 A 
ATOM     20  C   UNL A   1      31.399  27.874  25.710  1.00  0.00     0.043 A 
ATOM     21  C   UNL A   1      32.204  30.126  25.901  1.00  0.00     0.029 A 
ATOM     22  C   UNL A   1      32.099  27.553  26.904  1.00  0.00     0.014 A 
ATOM     23  C   UNL A   1      32.865  29.821  27.093  1.00  0.00     0.002 A 
ATOM     24  C   UNL A   1      32.818  28.527  27.593  1.00  0.00     0.001 A 
BRANCH  16  25
ATOM     25  C   UNL A   1      29.219  29.117  22.330  1.00  0.00     0.138 C 
BRANCH  25  26
ATOM     26  C   UNL A   1      28.508  30.458  22.594  1.00  0.00     0.269 C 
BRANCH  26  27
ATOM     27  N   UNL A   1      28.876  31.670  21.839  1.00  0.00    -0.339 N 
ATOM     28  C   UNL A   1      28.110  31.843  20.608  1.00  0.00     0.332 C 
ATOM     29  C   UNL A   1      28.860  32.888  22.641  1.00  0.00     0.332 C 
ATOM     30  H   UNL A   1      29.845  31.508  21.567  1.00  0.00     0.347 HD
ENDBRANCH  26  27
ENDBRANCH  25  26
ENDBRANCH  16  25
ENDBRANCH  13  15
ENDBRANCH   8  13
BRANCH  12  31
ATOM     31  O   UNL A   1      33.704  21.344  24.074  1.00  0.00    -0.507 OA
ATOM     32  H   UNL A   1      33.896  21.239  23.163  1.00  0.00     0.293 HD
ENDBRANCH  12  31
ENDBRANCH   4   7
ENDBRANCH   2   3
ENDBRANCH   1   2
BRANCH   1  33
ATOM     33  C   UNL A   1      38.662  23.539  26.347  1.00  0.00     0.002 C 
BRANCH  33  34
ATOM     34  C   UNL A   1      39.664  22.520  26.898  1.00  0.00     0.002 C 
BRANCH  34  35
ATOM     35  C   UNL A   1      39.823  21.249  26.059  1.00  0.00     0.021 C 
BRANCH  35  36
ATOM     36  C   UNL A   1      40.543  20.105  26.769  1.00  0.00     0.116 C 
BRANCH  36  37
ATOM     37  N   UNL A   1      41.753  19.712  26.065  1.00  0.00    -0.352 N 
ATOM     38  C   UNL A   1      42.838  20.469  25.711  1.00  0.00     0.251 C 
ATOM     39  H   UNL A   1      41.799  18.764  25.805  1.00  0.00     0.163 HD
ATOM     40  O   UNL A   1      43.664  20.027  24.912  1.00  0.00    -0.269 OA
BRANCH  38  41
ATOM     41  C   UNL A   1      43.019  21.822  26.276  1.00  0.00     0.039 A 
ATOM     42  C   UNL A   1      43.093  22.912  25.405  1.00  0.00     0.014 A 
ATOM     43  C   UNL A   1      43.152  22.014  27.655  1.00  0.00     0.014 A 
ATOM     44  C   UNL A   1      43.253  24.199  25.919  1.00  0.00     0.010 A 
ATOM     45  C   UNL A   1      43.248  23.304  28.171  1.00  0.00     0.010 A 
ATOM     46  C   UNL A   1      43.306  24.407  27.308  1.00  0.00    -0.014 A 
BRANCH  46  47
ATOM     47  C   UNL A   1      43.412  25.779  27.864  1.00  0.00     0.031 A 
ATOM     48  C   UNL A   1      44.755  26.384  28.157  1.00  0.00     0.074 A 
ATOM     49  C   UNL A   1      42.288  26.464  28.145  1.00  0.00     0.049 A 
ATOM     50  N   UNL A   1      45.041  27.566  28.641  1.00  0.00    -0.248 NA
ATOM     51  C   UNL A   1      45.932  25.542  27.895  1.00  0.00     0.031 C 
ATOM     52  C   UNL A   1      40.925  25.963  27.959  1.00  0.00     0.029 A 
ATOM     53  N   UNL A   1      42.113  27.727  28.648  1.00  0.00    -0.354 N 
ATOM     54  C   UNL A   1      46.424  27.607  28.750  1.00  0.00     0.074 A 
ATOM     55  C   UNL A   1      46.918  26.313  28.331  1.00  0.00     0.031 C 
ATOM     56  C   UNL A   1      40.054  26.923  28.309  1.00  0.00     0.029 A 
ATOM     57  C   UNL A   1      40.794  28.093  28.769  1.00  0.00     0.049 A 
ATOM     58  H   UNL A   1      42.861  28.318  28.897  1.00  0.00     0.167 HD
ATOM     59  C   UNL A   1      47.213  28.637  29.141  1.00  0.00     0.037 A 
ATOM     60  C   UNL A   1      40.246  29.245  29.196  1.00  0.00     0.037 A 
ATOM     61  C   UNL A   1      46.720  29.930  29.538  1.00  0.00     0.049 A 
ATOM     62  C   UNL A   1      41.140  30.376  29.614  1.00  0.00     0.074 A 
ATOM     63  C   UNL A   1      47.440  31.059  29.885  1.00  0.00     0.029 A 
ATOM     64  N   UNL A   1      45.379  30.264  29.646  1.00  0.00    -0.354 N 
ATOM     65  N   UNL A   1      42.450  30.426  29.641  1.00  0.00    -0.248 NA
ATOM     66  C   UNL A   1      40.479  31.611  30.057  1.00  0.00     0.031 C 
ATOM     67  C   UNL A   1      46.534  32.065  30.240  1.00  0.00     0.029 A 
ATOM     68  C   UNL A   1      45.248  31.573  30.077  1.00  0.00     0.049 A 
ATOM     69  H   UNL A   1      44.629  29.657  29.446  1.00  0.00     0.167 HD
ATOM     70  C   UNL A   1      42.772  31.702  30.085  1.00  0.00     0.074 A 
ATOM     71  C   UNL A   1      41.519  32.397  30.298  1.00  0.00     0.031 C 
ATOM     72  C   UNL A   1      43.994  32.247  30.297  1.00  0.00     0.037 A 
BRANCH  59  73
ATOM     73  C   UNL A   1      48.695  28.399  29.154  1.00  0.00     0.057 A 
ATOM     74  C   UNL A   1      49.359  27.936  30.298  1.00  0.00     0.134 A 
ATOM     75  C   UNL A   1      49.467  28.621  28.005  1.00  0.00     0.134 A 
ATOM     76  F   UNL A   1      48.681  27.716  31.435  1.00  0.00    -0.206 F 
ATOM     77  C   UNL A   1      50.741  27.734  30.309  1.00  0.00     0.040 A 
ATOM     78  C   UNL A   1      50.845  28.397  27.998  1.00  0.00     0.040 A 
ATOM     79  F   UNL A   1      48.894  29.058  26.874  1.00  0.00    -0.206 F 
ATOM     80  C   UNL A   1      51.487  27.960  29.155  1.00  0.00     0.006 A 
ENDBRANCH  59  73
BRANCH  60  81
ATOM     81  C   UNL A   1      38.770  29.398  29.202  1.00  0.00     0.057 A 
ATOM     82  C   UNL A   1      38.073  29.666  28.019  1.00  0.00     0.134 A 
ATOM     83  C   UNL A   1      38.024  29.262  30.378  1.00  0.00     0.134 A 
ATOM     84  F   UNL A   1      38.737  29.822  26.865  1.00  0.00    -0.206 F 
ATOM     85  C   UNL A   1      36.685  29.805  28.006  1.00  0.00     0.040 A 
ATOM     86  C   UNL A   1      36.633  29.378  30.376  1.00  0.00     0.040 A 
ATOM     87  F   UNL A   1      38.636  28.997  31.542  1.00  0.00    -0.206 F 
ATOM     88  C   UNL A   1      35.960  29.655  29.187  1.00  0.00     0.006 A 
ENDBRANCH  60  81
BRANCH  72  89
ATOM     89  C   UNL A   1      44.029  33.668  30.776  1.00  0.00     0.057 A 
ATOM     90  C   UNL A   1      44.036  34.746  29.882  1.00  0.00     0.134 A 
ATOM     91  C   UNL A   1      44.042  33.962  32.146  1.00  0.00     0.134 A 
ATOM     92  F   UNL A   1      44.040  34.530  28.558  1.00  0.00    -0.206 F 
ATOM     93  C   UNL A   1      44.078  36.066  30.332  1.00  0.00     0.040 A 
ATOM     94  C   UNL A   1      44.060  35.278  32.608  1.00  0.00     0.040 A 
ATOM     95  F   UNL A   1      44.031  32.975  33.054  1.00  0.00    -0.206 F 
ATOM     96  C   UNL A   1      44.086  36.334  31.699  1.00  0.00     0.006 A 
ENDBRANCH  72  89
ENDBRANCH  46  47
ENDBRANCH  38  41
ENDBRANCH  36  37
ENDBRANCH  35  36
ENDBRANCH  34  35
ENDBRANCH  33  34
ENDBRANCH   1  33
TORSDOF 19
ENDMDL
