MODEL 1
REMARK VINA RESULT:     -11.7      0.000      0.000
REMARK SMILES O=C(NCCCCCCNC(=O)[C@H]1C[C@](O)(c2ccc(Cl)cc2)[C@@H](c2ccc(Cl)cc2)O1)c1ccc(-c2c3nc(c(-c4c(F)cccc4F)c4ccc([nH]4)c(-c4c(F)cccc4F)c4nc(c(-c5c(F)cccc5F)c5ccc2[nH]5)C=C4)C=C3)cc1
REMARK SMILES IDX 6 1 5 2 4 3 3 4 1 5 2 6 33 8 34 9 86 10 35 11 85 12 36 13
REMARK SMILES IDX 37 14 38 15 79 16 39 17 84 18 78 19 80 20 40 21 83 22 77 23
REMARK SMILES IDX 76 24 41 26 67 27 50 28 66 29 51 30 54 31 65 32 81 33 52 34
REMARK SMILES IDX 53 35 64 37 82 38 55 39 42 40 43 41 48 42 44 43 45 44 47 45
REMARK SMILES IDX 49 46 46 47 68 48 69 49 74 50 70 51 71 52 73 53 75 54 72 55
REMARK SMILES IDX 56 56 57 57 62 58 58 59 59 60 61 61 63 62 60 63 7 64 8 65
REMARK SMILES IDX 9 66 10 67 11 68 12 70 13 71 14 72 32 73 15 74 24 75 17 76
REMARK SMILES IDX 18 77 23 78 19 79 22 80 20 81 21 82 16 83 25 85 26 86 31 87
REMARK SMILES IDX 27 88 30 89 28 90 29 91
REMARK H PARENT 3 7 80 25 54 36 10 69 16 84
REMARK Flexibility Score: inf
ROOT
ATOM      1  C   UNL A   1      31.306  30.266  25.163  1.00  0.00     0.002 C 
ENDROOT
BRANCH   1   2
ATOM      2  C   UNL A   1      31.055  31.621  25.823  1.00  0.00     0.021 C 
BRANCH   2   3
ATOM      3  C   UNL A   1      32.076  32.031  26.876  1.00  0.00     0.116 C 
BRANCH   3   4
ATOM      4  N   UNL A   1      31.981  33.432  27.248  1.00  0.00    -0.352 N 
ATOM      5  O   UNL A   1      32.521  35.318  28.367  1.00  0.00    -0.269 OA
ATOM      6  C   UNL A   1      32.815  34.168  28.054  1.00  0.00     0.251 C 
ATOM      7  H   UNL A   1      31.214  33.920  26.870  1.00  0.00     0.163 HD
BRANCH   6   8
ATOM      8  C   UNL A   1      34.057  33.556  28.571  1.00  0.00     0.039 A 
ATOM      9  C   UNL A   1      34.053  32.824  29.761  1.00  0.00     0.014 A 
ATOM     10  C   UNL A   1      35.244  33.724  27.851  1.00  0.00     0.014 A 
ATOM     11  C   UNL A   1      35.254  32.372  30.298  1.00  0.00     0.010 A 
ATOM     12  C   UNL A   1      36.439  33.204  28.354  1.00  0.00     0.010 A 
ATOM     13  C   UNL A   1      36.457  32.549  29.595  1.00  0.00    -0.014 A 
BRANCH  13  14
ATOM     14  C   UNL A   1      37.719  31.995  30.146  1.00  0.00     0.031 A 
ATOM     15  C   UNL A   1      38.337  30.752  29.572  1.00  0.00     0.074 A 
ATOM     16  C   UNL A   1      38.309  32.630  31.177  1.00  0.00     0.049 A 
ATOM     17  N   UNL A   1      39.422  30.121  29.947  1.00  0.00    -0.248 NA
ATOM     18  C   UNL A   1      37.646  30.131  28.431  1.00  0.00     0.031 C 
ATOM     19  C   UNL A   1      37.797  33.840  31.824  1.00  0.00     0.029 A 
ATOM     20  N   UNL A   1      39.465  32.352  31.858  1.00  0.00    -0.354 N 
ATOM     21  C   UNL A   1      39.533  29.022  29.107  1.00  0.00     0.074 A 
ATOM     22  C   UNL A   1      38.394  29.058  28.214  1.00  0.00     0.031 C 
ATOM     23  C   UNL A   1      38.650  34.218  32.787  1.00  0.00     0.029 A 
ATOM     24  C   UNL A   1      39.735  33.246  32.864  1.00  0.00     0.049 A 
ATOM     25  H   UNL A   1      40.046  31.586  31.646  1.00  0.00     0.167 HD
ATOM     26  C   UNL A   1      40.501  28.074  29.081  1.00  0.00     0.037 A 
ATOM     27  C   UNL A   1      40.733  33.271  33.766  1.00  0.00     0.037 A 
ATOM     28  C   UNL A   1      41.638  28.050  29.966  1.00  0.00     0.049 A 
ATOM     29  C   UNL A   1      41.776  32.194  33.733  1.00  0.00     0.074 A 
ATOM     30  C   UNL A   1      42.691  27.151  29.995  1.00  0.00     0.029 A 
ATOM     31  N   UNL A   1      41.867  28.962  30.986  1.00  0.00    -0.354 N 
ATOM     32  N   UNL A   1      41.887  31.178  32.912  1.00  0.00    -0.248 NA
ATOM     33  C   UNL A   1      42.830  32.263  34.754  1.00  0.00     0.031 C 
ATOM     34  C   UNL A   1      43.534  27.495  31.057  1.00  0.00     0.029 A 
ATOM     35  C   UNL A   1      43.031  28.636  31.662  1.00  0.00     0.049 A 
ATOM     36  H   UNL A   1      41.286  29.729  31.198  1.00  0.00     0.167 HD
ATOM     37  C   UNL A   1      43.031  30.497  33.303  1.00  0.00     0.074 A 
ATOM     38  C   UNL A   1      43.587  31.225  34.426  1.00  0.00     0.031 C 
ATOM     39  C   UNL A   1      43.571  29.371  32.779  1.00  0.00     0.037 A 
BRANCH  26  40
ATOM     40  C   UNL A   1      40.363  26.969  28.073  1.00  0.00     0.057 A 
ATOM     41  C   UNL A   1      41.014  27.009  26.834  1.00  0.00     0.134 A 
ATOM     42  C   UNL A   1      39.600  25.831  28.364  1.00  0.00     0.134 A 
ATOM     43  F   UNL A   1      41.752  28.075  26.488  1.00  0.00    -0.206 F 
ATOM     44  C   UNL A   1      40.893  25.969  25.910  1.00  0.00     0.040 A 
ATOM     45  C   UNL A   1      39.489  24.773  27.459  1.00  0.00     0.040 A 
ATOM     46  F   UNL A   1      38.955  25.723  29.536  1.00  0.00    -0.206 F 
ATOM     47  C   UNL A   1      40.133  24.843  26.225  1.00  0.00     0.006 A 
ENDBRANCH  26  40
BRANCH  27  48
ATOM     48  C   UNL A   1      40.781  34.357  34.775  1.00  0.00     0.057 A 
ATOM     49  C   UNL A   1      41.434  35.564  34.506  1.00  0.00     0.134 A 
ATOM     50  C   UNL A   1      40.151  34.224  36.018  1.00  0.00     0.134 A 
ATOM     51  F   UNL A   1      42.068  35.744  33.338  1.00  0.00    -0.206 F 
ATOM     52  C   UNL A   1      41.468  36.598  35.443  1.00  0.00     0.040 A 
ATOM     53  C   UNL A   1      40.154  35.258  36.953  1.00  0.00     0.040 A 
ATOM     54  F   UNL A   1      39.500  33.093  36.329  1.00  0.00    -0.206 F 
ATOM     55  C   UNL A   1      40.819  36.449  36.668  1.00  0.00     0.006 A 
ENDBRANCH  27  48
BRANCH  39  56
ATOM     56  C   UNL A   1      44.844  28.875  33.397  1.00  0.00     0.057 A 
ATOM     57  C   UNL A   1      46.098  29.317  32.959  1.00  0.00     0.134 A 
ATOM     58  C   UNL A   1      44.812  27.966  34.462  1.00  0.00     0.134 A 
ATOM     59  F   UNL A   1      46.197  30.176  31.933  1.00  0.00    -0.206 F 
ATOM     60  C   UNL A   1      47.278  28.856  33.544  1.00  0.00     0.040 A 
ATOM     61  C   UNL A   1      45.983  27.516  35.071  1.00  0.00     0.040 A 
ATOM     62  F   UNL A   1      43.642  27.509  34.933  1.00  0.00    -0.206 F 
ATOM     63  C   UNL A   1      47.222  27.957  34.609  1.00  0.00     0.006 A 
ENDBRANCH  39  56
ENDBRANCH  13  14
ENDBRANCH   6   8
ENDBRANCH   3   4
ENDBRANCH   2   3
ENDBRANCH   1   2
BRANCH   1  64
ATOM     64  C   UNL A   1      30.334  29.887  24.042  1.00  0.00     0.002 C 
BRANCH  64  65
ATOM     65  C   UNL A   1      30.071  28.384  23.861  1.00  0.00     0.021 C 
BRANCH  65  66
ATOM     66  C   UNL A   1      30.306  27.847  22.450  1.00  0.00     0.116 C 
BRANCH  66  67
ATOM     67  N   UNL A   1      31.697  27.958  22.067  1.00  0.00    -0.354 N 
ATOM     68  C   UNL A   1      32.696  27.036  22.045  1.00  0.00     0.249 C 
ATOM     69  H   UNL A   1      31.967  28.857  21.769  1.00  0.00     0.163 HD
ATOM     70  O   UNL A   1      33.823  27.472  21.795  1.00  0.00    -0.272 OA
BRANCH  68  71
ATOM     71  C   UNL A   1      32.433  25.539  22.339  1.00  0.00     0.211 C 
ATOM     72  C   UNL A   1      33.676  24.691  22.612  1.00  0.00     0.085 C 
ATOM     73  O   UNL A   1      31.590  25.432  23.503  1.00  0.00    -0.357 OA
ATOM     74  C   UNL A   1      33.449  24.038  23.977  1.00  0.00     0.123 C 
ATOM     75  C   UNL A   1      32.391  24.979  24.612  1.00  0.00     0.186 C 
BRANCH  74  76
ATOM     76  C   UNL A   1      33.050  22.558  23.819  1.00  0.00    -0.013 A 
ATOM     77  C   UNL A   1      32.414  22.138  22.629  1.00  0.00     0.008 A 
ATOM     78  C   UNL A   1      33.317  21.570  24.783  1.00  0.00     0.008 A 
ATOM     79  C   UNL A   1      32.100  20.794  22.398  1.00  0.00     0.021 A 
ATOM     80  C   UNL A   1      33.015  20.221  24.548  1.00  0.00     0.021 A 
ATOM     81  C   UNL A   1      32.415  19.839  23.355  1.00  0.00     0.041 A 
ATOM     82  Cl  UNL A   1      32.064  18.181  23.062  1.00  0.00    -0.084 Cl
ENDBRANCH  74  76
BRANCH  74  83
ATOM     83  O   UNL A   1      34.651  24.036  24.756  1.00  0.00    -0.382 OA
ATOM     84  H   UNL A   1      35.197  23.274  24.508  1.00  0.00     0.212 HD
ENDBRANCH  74  83
BRANCH  75  85
ATOM     85  C   UNL A   1      32.861  26.170  25.450  1.00  0.00    -0.016 A 
ATOM     86  C   UNL A   1      34.054  26.873  25.210  1.00  0.00     0.008 A 
ATOM     87  C   UNL A   1      32.053  26.603  26.517  1.00  0.00     0.008 A 
ATOM     88  C   UNL A   1      34.418  27.972  25.992  1.00  0.00     0.021 A 
ATOM     89  C   UNL A   1      32.425  27.688  27.317  1.00  0.00     0.021 A 
ATOM     90  C   UNL A   1      33.604  28.373  27.046  1.00  0.00     0.041 A 
ATOM     91  Cl  UNL A   1      34.063  29.716  28.017  1.00  0.00    -0.084 Cl
ENDBRANCH  75  85
ENDBRANCH  68  71
ENDBRANCH  66  67
ENDBRANCH  65  66
ENDBRANCH  64  65
ENDBRANCH   1  64
TORSDOF 16
ENDMDL
MODEL 2
REMARK VINA RESULT:     -11.7      2.555      6.985
REMARK SMILES O=C(NCCCCCCNC(=O)[C@H]1C[C@](O)(c2ccc(Cl)cc2)[C@@H](c2ccc(Cl)cc2)O1)c1ccc(-c2c3nc(c(-c4c(F)cccc4F)c4ccc([nH]4)c(-c4c(F)cccc4F)c4nc(c(-c5c(F)cccc5F)c5ccc2[nH]5)C=C4)C=C3)cc1
REMARK SMILES IDX 6 1 5 2 4 3 3 4 1 5 2 6 33 8 34 9 86 10 35 11 85 12 36 13
REMARK SMILES IDX 37 14 38 15 79 16 39 17 84 18 78 19 80 20 40 21 83 22 77 23
REMARK SMILES IDX 76 24 41 26 67 27 50 28 66 29 51 30 54 31 65 32 81 33 52 34
REMARK SMILES IDX 53 35 64 37 82 38 55 39 42 40 43 41 48 42 44 43 45 44 47 45
REMARK SMILES IDX 49 46 46 47 68 48 69 49 74 50 70 51 71 52 73 53 75 54 72 55
REMARK SMILES IDX 56 56 57 57 62 58 58 59 59 60 61 61 63 62 60 63 7 64 8 65
REMARK SMILES IDX 9 66 10 67 11 68 12 70 13 71 14 72 32 73 15 74 24 75 17 76
REMARK SMILES IDX 18 77 23 78 19 79 22 80 20 81 21 82 16 83 25 85 26 86 31 87
REMARK SMILES IDX 27 88 30 89 28 90 29 91
REMARK H PARENT 3 7 80 25 54 36 10 69 16 84
REMARK Flexibility Score: inf
ROOT
ATOM      1  C   UNL A   1      34.542  33.852  28.770  1.00  0.00     0.002 C 
ENDROOT
BRANCH   1   2
ATOM      2  C   UNL A   1      33.243  34.649  28.885  1.00  0.00     0.021 C 
BRANCH   2   3
ATOM      3  C   UNL A   1      33.371  36.007  29.562  1.00  0.00     0.116 C 
BRANCH   3   4
ATOM      4  N   UNL A   1      32.452  36.179  30.675  1.00  0.00    -0.352 N 
ATOM      5  O   UNL A   1      31.626  35.837  32.749  1.00  0.00    -0.269 OA
ATOM      6  C   UNL A   1      32.557  35.705  31.959  1.00  0.00     0.251 C 
ATOM      7  H   UNL A   1      31.645  36.707  30.480  1.00  0.00     0.163 HD
BRANCH   6   8
ATOM      8  C   UNL A   1      33.788  35.003  32.380  1.00  0.00     0.039 A 
ATOM      9  C   UNL A   1      35.032  35.635  32.310  1.00  0.00     0.014 A 
ATOM     10  C   UNL A   1      33.691  33.690  32.849  1.00  0.00     0.014 A 
ATOM     11  C   UNL A   1      36.190  34.915  32.582  1.00  0.00     0.010 A 
ATOM     12  C   UNL A   1      34.850  32.991  33.195  1.00  0.00     0.010 A 
ATOM     13  C   UNL A   1      36.110  33.589  33.037  1.00  0.00    -0.014 A 
BRANCH  13  14
ATOM     14  C   UNL A   1      37.351  32.858  33.396  1.00  0.00     0.031 A 
ATOM     15  C   UNL A   1      38.069  33.134  34.686  1.00  0.00     0.074 A 
ATOM     16  C   UNL A   1      37.828  31.933  32.540  1.00  0.00     0.049 A 
ATOM     17  N   UNL A   1      39.176  32.604  35.143  1.00  0.00    -0.248 NA
ATOM     18  C   UNL A   1      37.472  34.140  35.578  1.00  0.00     0.031 C 
ATOM     19  C   UNL A   1      37.221  31.586  31.253  1.00  0.00     0.029 A 
ATOM     20  N   UNL A   1      38.924  31.115  32.624  1.00  0.00    -0.354 N 
ATOM     21  C   UNL A   1      39.420  33.223  36.362  1.00  0.00     0.074 A 
ATOM     22  C   UNL A   1      38.357  34.185  36.564  1.00  0.00     0.031 C 
ATOM     23  C   UNL A   1      37.935  30.605  30.682  1.00  0.00     0.029 A 
ATOM     24  C   UNL A   1      39.079  30.297  31.532  1.00  0.00     0.049 A 
ATOM     25  H   UNL A   1      39.540  31.113  33.392  1.00  0.00     0.167 HD
ATOM     26  C   UNL A   1      40.435  33.003  37.232  1.00  0.00     0.037 A 
ATOM     27  C   UNL A   1      40.048  29.412  31.235  1.00  0.00     0.037 A 
ATOM     28  C   UNL A   1      41.484  32.037  37.029  1.00  0.00     0.049 A 
ATOM     29  C   UNL A   1      41.176  29.209  32.203  1.00  0.00     0.074 A 
ATOM     30  C   UNL A   1      42.537  31.715  37.869  1.00  0.00     0.029 A 
ATOM     31  N   UNL A   1      41.619  31.240  35.901  1.00  0.00    -0.354 N 
ATOM     32  N   UNL A   1      41.376  29.778  33.367  1.00  0.00    -0.248 NA
ATOM     33  C   UNL A   1      42.213  28.244  31.816  1.00  0.00     0.031 C 
ATOM     34  C   UNL A   1      43.331  30.756  37.232  1.00  0.00     0.029 A 
ATOM     35  C   UNL A   1      42.748  30.445  36.014  1.00  0.00     0.049 A 
ATOM     36  H   UNL A   1      41.002  31.241  35.132  1.00  0.00     0.167 HD
ATOM     37  C   UNL A   1      42.550  29.228  33.861  1.00  0.00     0.074 A 
ATOM     38  C   UNL A   1      43.009  28.269  32.875  1.00  0.00     0.031 C 
ATOM     39  C   UNL A   1      43.191  29.495  35.024  1.00  0.00     0.037 A 
BRANCH  26  40
ATOM     40  C   UNL A   1      40.472  33.839  38.479  1.00  0.00     0.057 A 
ATOM     41  C   UNL A   1      41.211  35.026  38.557  1.00  0.00     0.134 A 
ATOM     42  C   UNL A   1      39.723  33.471  39.606  1.00  0.00     0.134 A 
ATOM     43  F   UNL A   1      41.958  35.430  37.517  1.00  0.00    -0.206 F 
ATOM     44  C   UNL A   1      41.225  35.805  39.715  1.00  0.00     0.040 A 
ATOM     45  C   UNL A   1      39.710  34.253  40.762  1.00  0.00     0.040 A 
ATOM     46  F   UNL A   1      38.987  32.350  39.598  1.00  0.00    -0.206 F 
ATOM     47  C   UNL A   1      40.467  35.422  40.821  1.00  0.00     0.006 A 
ENDBRANCH  26  40
BRANCH  27  48
ATOM     48  C   UNL A   1      39.986  28.660  29.958  1.00  0.00     0.057 A 
ATOM     49  C   UNL A   1      40.631  29.131  28.810  1.00  0.00     0.134 A 
ATOM     50  C   UNL A   1      39.306  27.439  29.865  1.00  0.00     0.134 A 
ATOM     51  F   UNL A   1      41.285  30.302  28.835  1.00  0.00    -0.206 F 
ATOM     52  C   UNL A   1      40.593  28.421  27.610  1.00  0.00     0.040 A 
ATOM     53  C   UNL A   1      39.282  26.706  28.679  1.00  0.00     0.040 A 
ATOM     54  F   UNL A   1      38.678  26.932  30.935  1.00  0.00    -0.206 F 
ATOM     55  C   UNL A   1      39.924  27.199  27.545  1.00  0.00     0.006 A 
ENDBRANCH  27  48
BRANCH  39  56
ATOM     56  C   UNL A   1      44.440  28.716  35.307  1.00  0.00     0.057 A 
ATOM     57  C   UNL A   1      45.704  29.185  34.931  1.00  0.00     0.134 A 
ATOM     58  C   UNL A   1      44.378  27.495  35.990  1.00  0.00     0.134 A 
ATOM     59  F   UNL A   1      45.829  30.341  34.261  1.00  0.00    -0.206 F 
ATOM     60  C   UNL A   1      46.862  28.456  35.205  1.00  0.00     0.040 A 
ATOM     61  C   UNL A   1      45.531  26.768  36.291  1.00  0.00     0.040 A 
ATOM     62  F   UNL A   1      43.198  26.992  36.383  1.00  0.00    -0.206 F 
ATOM     63  C   UNL A   1      46.778  27.247  35.894  1.00  0.00     0.006 A 
ENDBRANCH  39  56
ENDBRANCH  13  14
ENDBRANCH   6   8
ENDBRANCH   3   4
ENDBRANCH   2   3
ENDBRANCH   1   2
BRANCH   1  64
ATOM     64  C   UNL A   1      34.392  32.330  28.847  1.00  0.00     0.002 C 
BRANCH  64  65
ATOM     65  C   UNL A   1      35.186  31.524  27.809  1.00  0.00     0.021 C 
BRANCH  65  66
ATOM     66  C   UNL A   1      34.839  30.037  27.735  1.00  0.00     0.116 C 
BRANCH  66  67
ATOM     67  N   UNL A   1      33.462  29.835  27.338  1.00  0.00    -0.354 N 
ATOM     68  C   UNL A   1      32.879  28.858  26.593  1.00  0.00     0.249 C 
ATOM     69  H   UNL A   1      32.839  30.524  27.665  1.00  0.00     0.163 HD
ATOM     70  O   UNL A   1      31.691  29.035  26.311  1.00  0.00    -0.272 OA
BRANCH  68  71
ATOM     71  C   UNL A   1      33.668  27.615  26.114  1.00  0.00     0.211 C 
ATOM     72  C   UNL A   1      32.991  26.267  26.361  1.00  0.00     0.085 C 
ATOM     73  O   UNL A   1      33.887  27.719  24.693  1.00  0.00    -0.357 OA
ATOM     74  C   UNL A   1      32.906  25.581  24.996  1.00  0.00     0.123 C 
ATOM     75  C   UNL A   1      33.017  26.786  24.024  1.00  0.00     0.186 C 
BRANCH  74  76
ATOM     76  C   UNL A   1      33.982  24.487  24.862  1.00  0.00    -0.013 A 
ATOM     77  C   UNL A   1      34.346  24.030  23.576  1.00  0.00     0.008 A 
ATOM     78  C   UNL A   1      34.670  23.930  25.956  1.00  0.00     0.008 A 
ATOM     79  C   UNL A   1      35.372  23.095  23.390  1.00  0.00     0.021 A 
ATOM     80  C   UNL A   1      35.706  23.003  25.771  1.00  0.00     0.021 A 
ATOM     81  C   UNL A   1      36.056  22.596  24.490  1.00  0.00     0.041 A 
ATOM     82  Cl  UNL A   1      37.341  21.475  24.266  1.00  0.00    -0.084 Cl
ENDBRANCH  74  76
BRANCH  74  83
ATOM     83  O   UNL A   1      31.650  24.916  24.829  1.00  0.00    -0.382 OA
ATOM     84  H   UNL A   1      31.495  24.746  23.886  1.00  0.00     0.212 HD
ENDBRANCH  74  83
BRANCH  75  85
ATOM     85  C   UNL A   1      31.738  27.489  23.561  1.00  0.00    -0.016 A 
ATOM     86  C   UNL A   1      30.444  27.016  23.833  1.00  0.00     0.008 A 
ATOM     87  C   UNL A   1      31.855  28.686  22.831  1.00  0.00     0.008 A 
ATOM     88  C   UNL A   1      29.311  27.717  23.408  1.00  0.00     0.021 A 
ATOM     89  C   UNL A   1      30.725  29.378  22.384  1.00  0.00     0.021 A 
ATOM     90  C   UNL A   1      29.456  28.893  22.681  1.00  0.00     0.041 A 
ATOM     91  Cl  UNL A   1      28.061  29.744  22.146  1.00  0.00    -0.084 Cl
ENDBRANCH  75  85
ENDBRANCH  68  71
ENDBRANCH  66  67
ENDBRANCH  65  66
ENDBRANCH  64  65
ENDBRANCH   1  64
TORSDOF 16
ENDMDL
MODEL 3
REMARK VINA RESULT:     -11.6      4.470      9.605
REMARK SMILES O=C(NCCCCCCNC(=O)[C@H]1C[C@](O)(c2ccc(Cl)cc2)[C@@H](c2ccc(Cl)cc2)O1)c1ccc(-c2c3nc(c(-c4c(F)cccc4F)c4ccc([nH]4)c(-c4c(F)cccc4F)c4nc(c(-c5c(F)cccc5F)c5ccc2[nH]5)C=C4)C=C3)cc1
REMARK SMILES IDX 6 1 5 2 4 3 3 4 1 5 2 6 33 8 34 9 86 10 35 11 85 12 36 13
REMARK SMILES IDX 37 14 38 15 79 16 39 17 84 18 78 19 80 20 40 21 83 22 77 23
REMARK SMILES IDX 76 24 41 26 67 27 50 28 66 29 51 30 54 31 65 32 81 33 52 34
REMARK SMILES IDX 53 35 64 37 82 38 55 39 42 40 43 41 48 42 44 43 45 44 47 45
REMARK SMILES IDX 49 46 46 47 68 48 69 49 74 50 70 51 71 52 73 53 75 54 72 55
REMARK SMILES IDX 56 56 57 57 62 58 58 59 59 60 61 61 63 62 60 63 7 64 8 65
REMARK SMILES IDX 9 66 10 67 11 68 12 70 13 71 14 72 32 73 15 74 24 75 17 76
REMARK SMILES IDX 18 77 23 78 19 79 22 80 20 81 21 82 16 83 25 85 26 86 31 87
REMARK SMILES IDX 27 88 30 89 28 90 29 91
REMARK H PARENT 3 7 80 25 54 36 10 69 16 84
REMARK Flexibility Score: inf
ROOT
ATOM      1  C   UNL A   1      36.561  20.226  25.042  1.00  0.00     0.002 C 
ENDROOT
BRANCH   1   2
ATOM      2  C   UNL A   1      37.957  19.697  24.711  1.00  0.00     0.021 C 
BRANCH   2   3
ATOM      3  C   UNL A   1      39.028  19.994  25.753  1.00  0.00     0.116 C 
BRANCH   3   4
ATOM      4  N   UNL A   1      40.091  19.004  25.776  1.00  0.00    -0.352 N 
ATOM      5  O   UNL A   1      42.219  18.252  25.863  1.00  0.00    -0.269 OA
ATOM      6  C   UNL A   1      41.433  19.186  26.001  1.00  0.00     0.251 C 
ATOM      7  H   UNL A   1      39.809  18.075  25.608  1.00  0.00     0.163 HD
BRANCH   6   8
ATOM      8  C   UNL A   1      41.935  20.523  26.381  1.00  0.00     0.039 A 
ATOM      9  C   UNL A   1      42.024  20.900  27.724  1.00  0.00     0.014 A 
ATOM     10  C   UNL A   1      42.317  21.413  25.374  1.00  0.00     0.014 A 
ATOM     11  C   UNL A   1      42.369  22.206  28.054  1.00  0.00     0.010 A 
ATOM     12  C   UNL A   1      42.737  22.702  25.710  1.00  0.00     0.010 A 
ATOM     13  C   UNL A   1      42.739  23.117  27.051  1.00  0.00    -0.014 A 
BRANCH  13  14
ATOM     14  C   UNL A   1      43.178  24.484  27.426  1.00  0.00     0.031 A 
ATOM     15  C   UNL A   1      42.188  25.524  27.868  1.00  0.00     0.074 A 
ATOM     16  C   UNL A   1      44.490  24.782  27.365  1.00  0.00     0.049 A 
ATOM     17  N   UNL A   1      42.398  26.771  28.208  1.00  0.00    -0.248 NA
ATOM     18  C   UNL A   1      40.777  25.114  27.932  1.00  0.00     0.031 C 
ATOM     19  C   UNL A   1      45.544  23.856  26.942  1.00  0.00     0.029 A 
ATOM     20  N   UNL A   1      45.162  25.938  27.663  1.00  0.00    -0.354 N 
ATOM     21  C   UNL A   1      41.149  27.300  28.505  1.00  0.00     0.074 A 
ATOM     22  C   UNL A   1      40.183  26.245  28.285  1.00  0.00     0.031 C 
ATOM     23  C   UNL A   1      46.732  24.472  27.037  1.00  0.00     0.029 A 
ATOM     24  C   UNL A   1      46.518  25.848  27.469  1.00  0.00     0.049 A 
ATOM     25  H   UNL A   1      44.716  26.755  27.986  1.00  0.00     0.167 HD
ATOM     26  C   UNL A   1      40.842  28.551  28.928  1.00  0.00     0.037 A 
ATOM     27  C   UNL A   1      47.483  26.776  27.601  1.00  0.00     0.037 A 
ATOM     28  C   UNL A   1      41.811  29.593  29.155  1.00  0.00     0.049 A 
ATOM     29  C   UNL A   1      47.111  28.161  28.043  1.00  0.00     0.074 A 
ATOM     30  C   UNL A   1      41.601  30.881  29.617  1.00  0.00     0.029 A 
ATOM     31  N   UNL A   1      43.174  29.469  28.928  1.00  0.00    -0.354 N 
ATOM     32  N   UNL A   1      45.930  28.638  28.352  1.00  0.00    -0.248 NA
ATOM     33  C   UNL A   1      48.204  29.136  28.152  1.00  0.00     0.031 C 
ATOM     34  C   UNL A   1      42.830  31.549  29.630  1.00  0.00     0.029 A 
ATOM     35  C   UNL A   1      43.813  30.663  29.219  1.00  0.00     0.049 A 
ATOM     36  H   UNL A   1      43.621  28.652  28.606  1.00  0.00     0.167 HD
ATOM     37  C   UNL A   1      46.139  29.963  28.710  1.00  0.00     0.074 A 
ATOM     38  C   UNL A   1      47.562  30.208  28.593  1.00  0.00     0.031 C 
ATOM     39  C   UNL A   1      45.232  30.891  29.099  1.00  0.00     0.037 A 
BRANCH  26  40
ATOM     40  C   UNL A   1      39.392  28.868  29.155  1.00  0.00     0.057 A 
ATOM     41  C   UNL A   1      38.788  28.725  30.411  1.00  0.00     0.134 A 
ATOM     42  C   UNL A   1      38.599  29.363  28.111  1.00  0.00     0.134 A 
ATOM     43  F   UNL A   1      39.488  28.246  31.451  1.00  0.00    -0.206 F 
ATOM     44  C   UNL A   1      37.443  29.039  30.616  1.00  0.00     0.040 A 
ATOM     45  C   UNL A   1      37.259  29.703  28.308  1.00  0.00     0.040 A 
ATOM     46  F   UNL A   1      39.115  29.532  26.885  1.00  0.00    -0.206 F 
ATOM     47  C   UNL A   1      36.676  29.536  29.563  1.00  0.00     0.006 A 
ENDBRANCH  26  40
BRANCH  27  48
ATOM     48  C   UNL A   1      48.890  26.417  27.304  1.00  0.00     0.057 A 
ATOM     49  C   UNL A   1      49.742  25.945  28.308  1.00  0.00     0.134 A 
ATOM     50  C   UNL A   1      49.407  26.508  26.005  1.00  0.00     0.134 A 
ATOM     51  F   UNL A   1      49.308  25.850  29.573  1.00  0.00    -0.206 F 
ATOM     52  C   UNL A   1      51.063  25.586  28.033  1.00  0.00     0.040 A 
ATOM     53  C   UNL A   1      50.716  26.128  25.712  1.00  0.00     0.040 A 
ATOM     54  F   UNL A   1      48.635  26.944  25.000  1.00  0.00    -0.206 F 
ATOM     55  C   UNL A   1      51.550  25.670  26.730  1.00  0.00     0.006 A 
ENDBRANCH  27  48
BRANCH  39  56
ATOM     56  C   UNL A   1      45.758  32.249  29.455  1.00  0.00     0.057 A 
ATOM     57  C   UNL A   1      46.230  32.543  30.740  1.00  0.00     0.134 A 
ATOM     58  C   UNL A   1      45.820  33.264  28.492  1.00  0.00     0.134 A 
ATOM     59  F   UNL A   1      46.184  31.618  31.710  1.00  0.00    -0.206 F 
ATOM     60  C   UNL A   1      46.725  33.808  31.062  1.00  0.00     0.040 A 
ATOM     61  C   UNL A   1      46.335  34.525  28.795  1.00  0.00     0.040 A 
ATOM     62  F   UNL A   1      45.389  33.045  27.241  1.00  0.00    -0.206 F 
ATOM     63  C   UNL A   1      46.784  34.802  30.085  1.00  0.00     0.006 A 
ENDBRANCH  39  56
ENDBRANCH  13  14
ENDBRANCH   6   8
ENDBRANCH   3   4
ENDBRANCH   2   3
ENDBRANCH   1   2
BRANCH   1  64
ATOM     64  C   UNL A   1      36.180  21.549  24.372  1.00  0.00     0.002 C 
BRANCH  64  65
ATOM     65  C   UNL A   1      36.940  22.791  24.860  1.00  0.00     0.021 C 
BRANCH  65  66
ATOM     66  C   UNL A   1      36.206  23.637  25.899  1.00  0.00     0.116 C 
BRANCH  66  67
ATOM     67  N   UNL A   1      35.388  22.816  26.766  1.00  0.00    -0.354 N 
ATOM     68  C   UNL A   1      34.055  22.852  27.037  1.00  0.00     0.249 C 
ATOM     69  H   UNL A   1      35.881  22.108  27.240  1.00  0.00     0.163 HD
ATOM     70  O   UNL A   1      33.670  22.097  27.934  1.00  0.00    -0.272 OA
BRANCH  68  71
ATOM     71  C   UNL A   1      33.092  23.799  26.281  1.00  0.00     0.211 C 
ATOM     72  C   UNL A   1      33.568  24.263  24.904  1.00  0.00     0.085 C 
ATOM     73  O   UNL A   1      31.833  23.127  26.084  1.00  0.00    -0.357 OA
ATOM     74  C   UNL A   1      32.461  23.874  23.922  1.00  0.00     0.123 C 
ATOM     75  C   UNL A   1      31.726  22.748  24.698  1.00  0.00     0.186 C 
BRANCH  74  76
ATOM     76  C   UNL A   1      31.620  25.102  23.527  1.00  0.00    -0.013 A 
ATOM     77  C   UNL A   1      30.354  25.294  24.125  1.00  0.00     0.008 A 
ATOM     78  C   UNL A   1      32.054  26.087  22.621  1.00  0.00     0.008 A 
ATOM     79  C   UNL A   1      29.582  26.432  23.863  1.00  0.00     0.021 A 
ATOM     80  C   UNL A   1      31.287  27.233  22.367  1.00  0.00     0.021 A 
ATOM     81  C   UNL A   1      30.060  27.403  22.994  1.00  0.00     0.041 A 
ATOM     82  Cl  UNL A   1      29.131  28.819  22.696  1.00  0.00    -0.084 Cl
ENDBRANCH  74  76
BRANCH  74  83
ATOM     83  O   UNL A   1      33.008  23.365  22.701  1.00  0.00    -0.382 OA
ATOM     84  H   UNL A   1      32.952  24.046  22.012  1.00  0.00     0.212 HD
ENDBRANCH  74  83
BRANCH  75  85
ATOM     85  C   UNL A   1      32.172  21.297  24.506  1.00  0.00    -0.016 A 
ATOM     86  C   UNL A   1      32.597  20.465  25.555  1.00  0.00     0.008 A 
ATOM     87  C   UNL A   1      32.148  20.751  23.209  1.00  0.00     0.008 A 
ATOM     88  C   UNL A   1      32.967  19.137  25.323  1.00  0.00     0.021 A 
ATOM     89  C   UNL A   1      32.539  19.430  22.970  1.00  0.00     0.021 A 
ATOM     90  C   UNL A   1      32.941  18.626  24.031  1.00  0.00     0.041 A 
ATOM     91  Cl  UNL A   1      33.412  16.996  23.746  1.00  0.00    -0.084 Cl
ENDBRANCH  75  85
ENDBRANCH  68  71
ENDBRANCH  66  67
ENDBRANCH  65  66
ENDBRANCH  64  65
ENDBRANCH   1  64
TORSDOF 16
ENDMDL
