MODEL 1
REMARK VINA RESULT:     -10.6      0.000      0.000
REMARK SMILES Cc1csc(=O)n1CC(=O)N[C@@H](C(=O)NCCCCCCNC(=O)c1ccc(-c2c3nc(c(-c4c(F)cccc4F)c4ccc([nH]4)c(-c4c(F)cccc4F)c4nc(c(-c5c(F)cccc5F)c5ccc2[nH]5)C=C4)C=C3)cc1)[C@@H](C)O
REMARK SMILES IDX 18 1 17 2 16 3 15 4 13 5 14 6 12 8 11 9 9 10 10 11 8 13 7 14
REMARK SMILES IDX 1 15 2 16 3 17 4 18 5 19 6 20 79 21 80 22 81 23 19 25 20 26
REMARK SMILES IDX 21 27 22 28 23 29 24 31 25 32 26 33 78 34 27 35 77 36 28 37
REMARK SMILES IDX 29 38 30 39 71 40 31 41 76 42 70 43 72 44 32 45 75 46 69 47
REMARK SMILES IDX 68 48 33 50 59 51 42 52 58 53 43 54 46 55 57 56 73 57 44 58
REMARK SMILES IDX 45 59 56 61 74 62 47 63 34 64 35 65 40 66 36 67 37 68 39 69
REMARK SMILES IDX 41 70 38 71 60 72 61 73 66 74 62 75 63 76 65 77 67 78 64 79
REMARK SMILES IDX 48 80 49 81 54 82 50 83 51 84 53 85 55 86 52 87
REMARK H PARENT 15 7 11 12 81 24 22 30 72 49 46 60
REMARK Flexibility Score: inf
ROOT
ATOM      1  C   UNL A   1      39.550  22.130  26.148  1.00  0.00     0.002 C 
ENDROOT
BRANCH   1   2
ATOM      2  C   UNL A   1      38.301  21.474  25.558  1.00  0.00     0.021 C 
BRANCH   2   3
ATOM      3  C   UNL A   1      37.065  22.363  25.588  1.00  0.00     0.116 C 
BRANCH   3   4
ATOM      4  N   UNL A   1      36.053  21.885  26.501  1.00  0.00    -0.354 N 
ATOM      5  C   UNL A   1      34.732  22.231  26.599  1.00  0.00     0.245 C 
ATOM      6  O   UNL A   1      34.050  21.571  27.383  1.00  0.00    -0.273 OA
ATOM      7  H   UNL A   1      36.358  21.210  27.149  1.00  0.00     0.163 HD
BRANCH   5   8
ATOM      8  C   UNL A   1      34.126  23.309  25.650  1.00  0.00     0.200 C 
BRANCH   8   9
ATOM      9  N   UNL A   1      33.036  24.031  26.316  1.00  0.00    -0.340 N 
ATOM     10  C   UNL A   1      32.527  25.282  26.126  1.00  0.00     0.240 C 
ATOM     11  O   UNL A   1      31.565  25.594  26.834  1.00  0.00    -0.273 OA
ATOM     12  H   UNL A   1      32.591  23.519  27.031  1.00  0.00     0.164 HD
BRANCH  10  13
ATOM     13  C   UNL A   1      33.034  26.240  25.026  1.00  0.00     0.226 C 
BRANCH  13  14
ATOM     14  N   UNL A   1      32.034  27.018  24.302  1.00  0.00    -0.294 N 
ATOM     15  C   UNL A   1      31.028  25.080  22.999  1.00  0.00     0.065 C 
ATOM     16  C   UNL A   1      31.121  26.519  23.376  1.00  0.00     0.029 A 
ATOM     17  C   UNL A   1      30.291  27.453  22.890  1.00  0.00     0.091 A 
ATOM     18  S   UNL A   1      30.505  28.982  23.663  1.00  0.00    -0.082 S 
ATOM     19  C   UNL A   1      31.839  28.354  24.637  1.00  0.00     0.307 A 
ATOM     20  O   UNL A   1      32.477  29.042  25.427  1.00  0.00    -0.257 OA
ENDBRANCH  13  14
ENDBRANCH  10  13
ENDBRANCH   8   9
BRANCH   8  21
ATOM     21  C   UNL A   1      33.662  22.649  24.319  1.00  0.00     0.143 C 
ATOM     22  C   UNL A   1      34.363  23.190  23.073  1.00  0.00     0.041 C 
BRANCH  21  23
ATOM     23  O   UNL A   1      33.897  21.235  24.337  1.00  0.00    -0.391 OA
ATOM     24  H   UNL A   1      34.219  20.948  23.468  1.00  0.00     0.211 HD
ENDBRANCH  21  23
ENDBRANCH   8  21
ENDBRANCH   5   8
ENDBRANCH   3   4
ENDBRANCH   2   3
ENDBRANCH   1   2
BRANCH   1  25
ATOM     25  C   UNL A   1      40.488  21.206  26.943  1.00  0.00     0.002 C 
BRANCH  25  26
ATOM     26  C   UNL A   1      41.144  20.056  26.170  1.00  0.00     0.021 C 
BRANCH  26  27
ATOM     27  C   UNL A   1      42.431  19.524  26.772  1.00  0.00     0.116 C 
BRANCH  27  28
ATOM     28  N   UNL A   1      43.484  19.307  25.782  1.00  0.00    -0.352 N 
ATOM     29  C   UNL A   1      44.092  20.249  24.974  1.00  0.00     0.251 C 
ATOM     30  H   UNL A   1      43.797  18.379  25.678  1.00  0.00     0.163 HD
ATOM     31  O   UNL A   1      44.674  19.921  23.946  1.00  0.00    -0.269 OA
BRANCH  29  32
ATOM     32  C   UNL A   1      44.021  21.667  25.372  1.00  0.00     0.039 A 
ATOM     33  C   UNL A   1      43.209  22.577  24.697  1.00  0.00     0.014 A 
ATOM     34  C   UNL A   1      44.749  22.061  26.489  1.00  0.00     0.014 A 
ATOM     35  C   UNL A   1      43.073  23.861  25.219  1.00  0.00     0.010 A 
ATOM     36  C   UNL A   1      44.451  23.246  27.112  1.00  0.00     0.010 A 
ATOM     37  C   UNL A   1      43.672  24.182  26.454  1.00  0.00    -0.014 A 
BRANCH  37  38
ATOM     38  C   UNL A   1      43.405  25.461  27.107  1.00  0.00     0.031 A 
ATOM     39  C   UNL A   1      44.382  26.530  26.769  1.00  0.00     0.074 A 
ATOM     40  C   UNL A   1      42.303  25.733  27.842  1.00  0.00     0.049 A 
ATOM     41  N   UNL A   1      45.293  27.016  27.542  1.00  0.00    -0.248 NA
ATOM     42  C   UNL A   1      44.467  26.997  25.376  1.00  0.00     0.031 C 
ATOM     43  C   UNL A   1      41.102  24.915  28.051  1.00  0.00     0.029 A 
ATOM     44  N   UNL A   1      41.997  26.873  28.524  1.00  0.00    -0.354 N 
ATOM     45  C   UNL A   1      45.934  28.006  26.806  1.00  0.00     0.074 A 
ATOM     46  C   UNL A   1      45.509  27.831  25.442  1.00  0.00     0.031 C 
ATOM     47  C   UNL A   1      40.123  25.665  28.604  1.00  0.00     0.029 A 
ATOM     48  C   UNL A   1      40.681  26.954  28.965  1.00  0.00     0.049 A 
ATOM     49  H   UNL A   1      42.657  27.584  28.690  1.00  0.00     0.167 HD
ATOM     50  C   UNL A   1      46.567  29.033  27.436  1.00  0.00     0.037 A 
ATOM     51  C   UNL A   1      40.092  28.001  29.596  1.00  0.00     0.037 A 
ATOM     52  C   UNL A   1      46.813  28.716  28.823  1.00  0.00     0.049 A 
ATOM     53  C   UNL A   1      41.177  28.822  30.182  1.00  0.00     0.074 A 
ATOM     54  C   UNL A   1      47.509  27.724  29.488  1.00  0.00     0.029 A 
ATOM     55  N   UNL A   1      45.966  29.260  29.757  1.00  0.00    -0.354 N 
ATOM     56  N   UNL A   1      41.926  28.432  31.173  1.00  0.00    -0.248 NA
ATOM     57  C   UNL A   1      41.725  29.891  29.365  1.00  0.00     0.031 C 
ATOM     58  C   UNL A   1      46.700  27.400  30.618  1.00  0.00     0.029 A 
ATOM     59  C   UNL A   1      45.602  28.260  30.623  1.00  0.00     0.049 A 
ATOM     60  H   UNL A   1      45.671  30.198  29.798  1.00  0.00     0.167 HD
ATOM     61  C   UNL A   1      43.199  28.863  30.837  1.00  0.00     0.074 A 
ATOM     62  C   UNL A   1      42.998  29.837  29.764  1.00  0.00     0.031 C 
ATOM     63  C   UNL A   1      44.305  28.182  31.257  1.00  0.00     0.037 A 
BRANCH  50  64
ATOM     64  C   UNL A   1      46.592  30.453  26.923  1.00  0.00     0.057 A 
ATOM     65  C   UNL A   1      47.803  31.169  26.951  1.00  0.00     0.134 A 
ATOM     66  C   UNL A   1      45.441  31.236  26.699  1.00  0.00     0.134 A 
ATOM     67  F   UNL A   1      48.969  30.541  27.164  1.00  0.00    -0.206 F 
ATOM     68  C   UNL A   1      47.853  32.565  26.853  1.00  0.00     0.040 A 
ATOM     69  C   UNL A   1      45.485  32.624  26.551  1.00  0.00     0.040 A 
ATOM     70  F   UNL A   1      44.206  30.723  26.716  1.00  0.00    -0.206 F 
ATOM     71  C   UNL A   1      46.690  33.298  26.664  1.00  0.00     0.006 A 
ENDBRANCH  50  64
BRANCH  51  72
ATOM     72  C   UNL A   1      38.705  28.505  29.494  1.00  0.00     0.057 A 
ATOM     73  C   UNL A   1      37.877  28.579  30.624  1.00  0.00     0.134 A 
ATOM     74  C   UNL A   1      38.268  29.216  28.363  1.00  0.00     0.134 A 
ATOM     75  F   UNL A   1      38.225  27.960  31.764  1.00  0.00    -0.206 F 
ATOM     76  C   UNL A   1      36.710  29.353  30.647  1.00  0.00     0.040 A 
ATOM     77  C   UNL A   1      37.102  29.991  28.371  1.00  0.00     0.040 A 
ATOM     78  F   UNL A   1      39.009  29.260  27.246  1.00  0.00    -0.206 F 
ATOM     79  C   UNL A   1      36.329  30.077  29.522  1.00  0.00     0.006 A 
ENDBRANCH  51  72
BRANCH  63  80
ATOM     80  C   UNL A   1      44.117  27.118  32.308  1.00  0.00     0.057 A 
ATOM     81  C   UNL A   1      44.055  25.740  32.047  1.00  0.00     0.134 A 
ATOM     82  C   UNL A   1      44.115  27.501  33.654  1.00  0.00     0.134 A 
ATOM     83  F   UNL A   1      44.145  25.261  30.800  1.00  0.00    -0.206 F 
ATOM     84  C   UNL A   1      43.947  24.795  33.075  1.00  0.00     0.040 A 
ATOM     85  C   UNL A   1      44.043  26.568  34.691  1.00  0.00     0.040 A 
ATOM     86  F   UNL A   1      44.224  28.798  33.987  1.00  0.00    -0.206 F 
ATOM     87  C   UNL A   1      43.945  25.210  34.403  1.00  0.00     0.006 A 
ENDBRANCH  63  80
ENDBRANCH  37  38
ENDBRANCH  29  32
ENDBRANCH  27  28
ENDBRANCH  26  27
ENDBRANCH  25  26
ENDBRANCH   1  25
TORSDOF 18
ENDMDL
MODEL 2
REMARK VINA RESULT:     -10.2      4.103      9.603
REMARK SMILES Cc1csc(=O)n1CC(=O)N[C@@H](C(=O)NCCCCCCNC(=O)c1ccc(-c2c3nc(c(-c4c(F)cccc4F)c4ccc([nH]4)c(-c4c(F)cccc4F)c4nc(c(-c5c(F)cccc5F)c5ccc2[nH]5)C=C4)C=C3)cc1)[C@@H](C)O
REMARK SMILES IDX 18 1 17 2 16 3 15 4 13 5 14 6 12 8 11 9 9 10 10 11 8 13 7 14
REMARK SMILES IDX 1 15 2 16 3 17 4 18 5 19 6 20 79 21 80 22 81 23 19 25 20 26
REMARK SMILES IDX 21 27 22 28 23 29 24 31 25 32 26 33 78 34 27 35 77 36 28 37
REMARK SMILES IDX 29 38 30 39 71 40 31 41 76 42 70 43 72 44 32 45 75 46 69 47
REMARK SMILES IDX 68 48 33 50 59 51 42 52 58 53 43 54 46 55 57 56 73 57 44 58
REMARK SMILES IDX 45 59 56 61 74 62 47 63 34 64 35 65 40 66 36 67 37 68 39 69
REMARK SMILES IDX 41 70 38 71 60 72 61 73 66 74 62 75 63 76 65 77 67 78 64 79
REMARK SMILES IDX 48 80 49 81 54 82 50 83 51 84 53 85 55 86 52 87
REMARK H PARENT 15 7 11 12 81 24 22 30 72 49 46 60
REMARK Flexibility Score: inf
ROOT
ATOM      1  C   UNL A   1      33.752  31.692  27.839  1.00  0.00     0.002 C 
ENDROOT
BRANCH   1   2
ATOM      2  C   UNL A   1      34.802  30.588  27.959  1.00  0.00     0.021 C 
BRANCH   2   3
ATOM      3  C   UNL A   1      34.495  29.350  27.127  1.00  0.00     0.116 C 
BRANCH   3   4
ATOM      4  N   UNL A   1      33.918  29.668  25.842  1.00  0.00    -0.354 N 
ATOM      5  C   UNL A   1      33.268  28.855  24.952  1.00  0.00     0.245 C 
ATOM      6  O   UNL A   1      32.752  29.410  23.981  1.00  0.00    -0.273 OA
ATOM      7  H   UNL A   1      34.005  30.608  25.564  1.00  0.00     0.163 HD
BRANCH   5   8
ATOM      8  C   UNL A   1      33.086  27.338  25.256  1.00  0.00     0.200 C 
BRANCH   8   9
ATOM      9  N   UNL A   1      33.324  26.536  24.050  1.00  0.00    -0.340 N 
ATOM     10  C   UNL A   1      34.059  25.407  23.841  1.00  0.00     0.240 C 
ATOM     11  O   UNL A   1      34.031  24.939  22.699  1.00  0.00    -0.273 OA
ATOM     12  H   UNL A   1      32.870  26.876  23.244  1.00  0.00     0.164 HD
BRANCH  10  13
ATOM     13  C   UNL A   1      34.812  24.670  24.971  1.00  0.00     0.226 C 
BRANCH  13  14
ATOM     14  N   UNL A   1      34.612  23.229  25.081  1.00  0.00    -0.294 N 
ATOM     15  C   UNL A   1      36.723  22.538  23.842  1.00  0.00     0.065 C 
ATOM     16  C   UNL A   1      35.457  22.245  24.573  1.00  0.00     0.029 A 
ATOM     17  C   UNL A   1      35.051  20.998  24.852  1.00  0.00     0.091 A 
ATOM     18  S   UNL A   1      33.667  20.979  25.884  1.00  0.00    -0.082 S 
ATOM     19  C   UNL A   1      33.580  22.744  25.876  1.00  0.00     0.307 A 
ATOM     20  O   UNL A   1      32.705  23.376  26.458  1.00  0.00    -0.257 OA
ENDBRANCH  13  14
ENDBRANCH  10  13
ENDBRANCH   8   9
BRANCH   8  21
ATOM     21  C   UNL A   1      31.675  27.079  25.861  1.00  0.00     0.143 C 
ATOM     22  C   UNL A   1      30.620  26.664  24.836  1.00  0.00     0.041 C 
BRANCH  21  23
ATOM     23  O   UNL A   1      31.721  26.038  26.844  1.00  0.00    -0.391 OA
ATOM     24  H   UNL A   1      31.897  26.423  27.717  1.00  0.00     0.211 HD
ENDBRANCH  21  23
ENDBRANCH   8  21
ENDBRANCH   5   8
ENDBRANCH   3   4
ENDBRANCH   2   3
ENDBRANCH   1   2
BRANCH   1  25
ATOM     25  C   UNL A   1      34.252  33.129  28.064  1.00  0.00     0.002 C 
BRANCH  25  26
ATOM     26  C   UNL A   1      33.203  34.173  28.460  1.00  0.00     0.021 C 
BRANCH  26  27
ATOM     27  C   UNL A   1      33.745  35.395  29.178  1.00  0.00     0.116 C 
BRANCH  27  28
ATOM     28  N   UNL A   1      33.069  35.668  30.444  1.00  0.00    -0.352 N 
ATOM     29  C   UNL A   1      33.223  35.001  31.645  1.00  0.00     0.251 C 
ATOM     30  H   UNL A   1      32.428  36.415  30.442  1.00  0.00     0.163 HD
ATOM     31  O   UNL A   1      32.363  35.060  32.517  1.00  0.00    -0.269 OA
BRANCH  29  32
ATOM     32  C   UNL A   1      34.447  34.206  31.855  1.00  0.00     0.039 A 
ATOM     33  C   UNL A   1      34.457  32.821  31.695  1.00  0.00     0.014 A 
ATOM     34  C   UNL A   1      35.617  34.891  32.162  1.00  0.00     0.014 A 
ATOM     35  C   UNL A   1      35.678  32.153  31.760  1.00  0.00     0.010 A 
ATOM     36  C   UNL A   1      36.829  34.267  32.017  1.00  0.00     0.010 A 
ATOM     37  C   UNL A   1      36.872  32.889  31.887  1.00  0.00    -0.014 A 
BRANCH  37  38
ATOM     38  C   UNL A   1      38.173  32.232  31.784  1.00  0.00     0.031 A 
ATOM     39  C   UNL A   1      38.905  32.133  33.074  1.00  0.00     0.074 A 
ATOM     40  C   UNL A   1      38.642  31.626  30.669  1.00  0.00     0.049 A 
ATOM     41  N   UNL A   1      39.951  32.803  33.423  1.00  0.00    -0.248 NA
ATOM     42  C   UNL A   1      38.324  31.324  34.158  1.00  0.00     0.031 C 
ATOM     43  C   UNL A   1      37.958  31.370  29.396  1.00  0.00     0.029 A 
ATOM     44  N   UNL A   1      39.854  31.037  30.470  1.00  0.00    -0.354 N 
ATOM     45  C   UNL A   1      40.293  32.349  34.691  1.00  0.00     0.074 A 
ATOM     46  C   UNL A   1      39.171  31.578  35.159  1.00  0.00     0.031 C 
ATOM     47  C   UNL A   1      38.673  30.491  28.658  1.00  0.00     0.029 A 
ATOM     48  C   UNL A   1      39.948  30.271  29.312  1.00  0.00     0.049 A 
ATOM     49  H   UNL A   1      40.605  31.144  31.097  1.00  0.00     0.167 HD
ATOM     50  C   UNL A   1      41.575  32.449  35.136  1.00  0.00     0.037 A 
ATOM     51  C   UNL A   1      41.003  29.519  28.912  1.00  0.00     0.037 A 
ATOM     52  C   UNL A   1      42.326  33.395  34.344  1.00  0.00     0.049 A 
ATOM     53  C   UNL A   1      42.198  30.033  29.622  1.00  0.00     0.074 A 
ATOM     54  C   UNL A   1      42.198  34.740  34.052  1.00  0.00     0.029 A 
ATOM     55  N   UNL A   1      43.173  32.890  33.389  1.00  0.00    -0.354 N 
ATOM     56  N   UNL A   1      42.730  31.199  29.394  1.00  0.00    -0.248 NA
ATOM     57  C   UNL A   1      42.525  29.433  30.904  1.00  0.00     0.031 C 
ATOM     58  C   UNL A   1      42.563  34.855  32.676  1.00  0.00     0.029 A 
ATOM     59  C   UNL A   1      42.965  33.596  32.231  1.00  0.00     0.049 A 
ATOM     60  H   UNL A   1      43.815  32.153  33.511  1.00  0.00     0.167 HD
ATOM     61  C   UNL A   1      43.065  31.678  30.650  1.00  0.00     0.074 A 
ATOM     62  C   UNL A   1      43.005  30.511  31.529  1.00  0.00     0.031 C 
ATOM     63  C   UNL A   1      43.077  33.019  30.910  1.00  0.00     0.037 A 
BRANCH  50  64
ATOM     64  C   UNL A   1      42.254  31.414  36.001  1.00  0.00     0.057 A 
ATOM     65  C   UNL A   1      42.980  31.835  37.130  1.00  0.00     0.134 A 
ATOM     66  C   UNL A   1      42.484  30.079  35.608  1.00  0.00     0.134 A 
ATOM     67  F   UNL A   1      42.857  33.086  37.600  1.00  0.00    -0.206 F 
ATOM     68  C   UNL A   1      43.926  31.019  37.763  1.00  0.00     0.040 A 
ATOM     69  C   UNL A   1      43.390  29.241  36.262  1.00  0.00     0.040 A 
ATOM     70  F   UNL A   1      41.931  29.545  34.514  1.00  0.00    -0.206 F 
ATOM     71  C   UNL A   1      44.142  29.721  37.322  1.00  0.00     0.006 A 
ENDBRANCH  50  64
BRANCH  51  72
ATOM     72  C   UNL A   1      41.022  28.225  28.196  1.00  0.00     0.057 A 
ATOM     73  C   UNL A   1      40.325  27.113  28.693  1.00  0.00     0.134 A 
ATOM     74  C   UNL A   1      41.453  28.135  26.861  1.00  0.00     0.134 A 
ATOM     75  F   UNL A   1      39.844  27.116  29.946  1.00  0.00    -0.206 F 
ATOM     76  C   UNL A   1      40.030  25.999  27.897  1.00  0.00     0.040 A 
ATOM     77  C   UNL A   1      41.168  27.026  26.057  1.00  0.00     0.040 A 
ATOM     78  F   UNL A   1      42.080  29.161  26.268  1.00  0.00    -0.206 F 
ATOM     79  C   UNL A   1      40.438  25.960  26.568  1.00  0.00     0.006 A 
ENDBRANCH  51  72
BRANCH  63  80
ATOM     80  C   UNL A   1      42.982  33.962  29.737  1.00  0.00     0.057 A 
ATOM     81  C   UNL A   1      41.796  34.573  29.299  1.00  0.00     0.134 A 
ATOM     82  C   UNL A   1      44.163  34.357  29.100  1.00  0.00     0.134 A 
ATOM     83  F   UNL A   1      40.625  34.337  29.903  1.00  0.00    -0.206 F 
ATOM     84  C   UNL A   1      41.784  35.494  28.244  1.00  0.00     0.040 A 
ATOM     85  C   UNL A   1      44.169  35.301  28.070  1.00  0.00     0.040 A 
ATOM     86  F   UNL A   1      45.344  33.857  29.497  1.00  0.00    -0.206 F 
ATOM     87  C   UNL A   1      42.976  35.864  27.630  1.00  0.00     0.006 A 
ENDBRANCH  63  80
ENDBRANCH  37  38
ENDBRANCH  29  32
ENDBRANCH  27  28
ENDBRANCH  26  27
ENDBRANCH  25  26
ENDBRANCH   1  25
TORSDOF 18
ENDMDL
MODEL 3
REMARK VINA RESULT:     -10.1      4.984      8.576
REMARK SMILES Cc1csc(=O)n1CC(=O)N[C@@H](C(=O)NCCCCCCNC(=O)c1ccc(-c2c3nc(c(-c4c(F)cccc4F)c4ccc([nH]4)c(-c4c(F)cccc4F)c4nc(c(-c5c(F)cccc5F)c5ccc2[nH]5)C=C4)C=C3)cc1)[C@@H](C)O
REMARK SMILES IDX 18 1 17 2 16 3 15 4 13 5 14 6 12 8 11 9 9 10 10 11 8 13 7 14
REMARK SMILES IDX 1 15 2 16 3 17 4 18 5 19 6 20 79 21 80 22 81 23 19 25 20 26
REMARK SMILES IDX 21 27 22 28 23 29 24 31 25 32 26 33 78 34 27 35 77 36 28 37
REMARK SMILES IDX 29 38 30 39 71 40 31 41 76 42 70 43 72 44 32 45 75 46 69 47
REMARK SMILES IDX 68 48 33 50 59 51 42 52 58 53 43 54 46 55 57 56 73 57 44 58
REMARK SMILES IDX 45 59 56 61 74 62 47 63 34 64 35 65 40 66 36 67 37 68 39 69
REMARK SMILES IDX 41 70 38 71 60 72 61 73 66 74 62 75 63 76 65 77 67 78 64 79
REMARK SMILES IDX 48 80 49 81 54 82 50 83 51 84 53 85 55 86 52 87
REMARK H PARENT 15 7 11 12 81 24 22 30 72 49 46 60
REMARK Flexibility Score: inf
ROOT
ATOM      1  C   UNL A   1      41.532  27.829  33.667  1.00  0.00     0.002 C 
ENDROOT
BRANCH   1   2
ATOM      2  C   UNL A   1      41.710  29.323  33.391  1.00  0.00     0.021 C 
BRANCH   2   3
ATOM      3  C   UNL A   1      40.399  30.081  33.228  1.00  0.00     0.116 C 
BRANCH   3   4
ATOM      4  N   UNL A   1      39.239  29.244  33.429  1.00  0.00    -0.354 N 
ATOM      5  C   UNL A   1      37.922  29.498  33.154  1.00  0.00     0.245 C 
ATOM      6  O   UNL A   1      37.142  28.555  33.299  1.00  0.00    -0.273 OA
ATOM      7  H   UNL A   1      39.422  28.360  33.823  1.00  0.00     0.163 HD
BRANCH   5   8
ATOM      8  C   UNL A   1      37.490  30.869  32.555  1.00  0.00     0.200 C 
BRANCH   8   9
ATOM      9  N   UNL A   1      36.465  31.501  33.392  1.00  0.00    -0.340 N 
ATOM     10  C   UNL A   1      35.887  32.735  33.343  1.00  0.00     0.240 C 
ATOM     11  O   UNL A   1      35.009  32.962  34.182  1.00  0.00    -0.273 OA
ATOM     12  H   UNL A   1      36.133  30.930  34.123  1.00  0.00     0.164 HD
BRANCH  10  13
ATOM     13  C   UNL A   1      36.213  33.776  32.250  1.00  0.00     0.226 C 
BRANCH  13  14
ATOM     14  N   UNL A   1      35.101  34.542  31.700  1.00  0.00    -0.294 N 
ATOM     15  C   UNL A   1      34.604  32.991  29.746  1.00  0.00     0.065 C 
ATOM     16  C   UNL A   1      34.362  34.213  30.566  1.00  0.00     0.029 A 
ATOM     17  C   UNL A   1      33.369  35.076  30.307  1.00  0.00     0.091 A 
ATOM     18  S   UNL A   1      33.207  36.272  31.542  1.00  0.00    -0.082 S 
ATOM     19  C   UNL A   1      34.602  35.626  32.413  1.00  0.00     0.307 A 
ATOM     20  O   UNL A   1      35.037  36.123  33.447  1.00  0.00    -0.257 OA
ENDBRANCH  13  14
ENDBRANCH  10  13
ENDBRANCH   8   9
BRANCH   8  21
ATOM     21  C   UNL A   1      37.012  30.683  31.085  1.00  0.00     0.143 C 
ATOM     22  C   UNL A   1      38.146  30.559  30.068  1.00  0.00     0.041 C 
BRANCH  21  23
ATOM     23  O   UNL A   1      36.211  29.502  30.950  1.00  0.00    -0.391 OA
ATOM     24  H   UNL A   1      36.556  28.957  30.226  1.00  0.00     0.211 HD
ENDBRANCH  21  23
ENDBRANCH   8  21
ENDBRANCH   5   8
ENDBRANCH   3   4
ENDBRANCH   2   3
ENDBRANCH   1   2
BRANCH   1  25
ATOM     25  C   UNL A   1      41.795  27.373  35.112  1.00  0.00     0.002 C 
BRANCH  25  26
ATOM     26  C   UNL A   1      41.295  25.976  35.498  1.00  0.00     0.021 C 
BRANCH  26  27
ATOM     27  C   UNL A   1      42.380  24.938  35.717  1.00  0.00     0.116 C 
BRANCH  27  28
ATOM     28  N   UNL A   1      43.510  25.440  36.495  1.00  0.00    -0.352 N 
ATOM     29  C   UNL A   1      44.842  25.471  36.126  1.00  0.00     0.251 C 
ATOM     30  H   UNL A   1      43.299  25.799  37.387  1.00  0.00     0.163 HD
ATOM     31  O   UNL A   1      45.730  25.557  36.967  1.00  0.00    -0.269 OA
BRANCH  29  32
ATOM     32  C   UNL A   1      45.177  25.390  34.692  1.00  0.00     0.039 A 
ATOM     33  C   UNL A   1      45.453  24.172  34.073  1.00  0.00     0.014 A 
ATOM     34  C   UNL A   1      45.150  26.568  33.956  1.00  0.00     0.014 A 
ATOM     35  C   UNL A   1      45.610  24.151  32.689  1.00  0.00     0.010 A 
ATOM     36  C   UNL A   1      45.096  26.514  32.586  1.00  0.00     0.010 A 
ATOM     37  C   UNL A   1      45.395  25.326  31.941  1.00  0.00    -0.014 A 
BRANCH  37  38
ATOM     38  C   UNL A   1      45.383  25.295  30.481  1.00  0.00     0.031 A 
ATOM     39  C   UNL A   1      46.472  26.086  29.850  1.00  0.00     0.074 A 
ATOM     40  C   UNL A   1      44.567  24.516  29.735  1.00  0.00     0.049 A 
ATOM     41  N   UNL A   1      46.349  27.207  29.222  1.00  0.00    -0.248 NA
ATOM     42  C   UNL A   1      47.868  25.678  30.077  1.00  0.00     0.031 C 
ATOM     43  C   UNL A   1      43.634  23.468  30.168  1.00  0.00     0.029 A 
ATOM     44  N   UNL A   1      44.454  24.460  28.378  1.00  0.00    -0.354 N 
ATOM     45  C   UNL A   1      47.624  27.544  28.785  1.00  0.00     0.074 A 
ATOM     46  C   UNL A   1      48.533  26.672  29.482  1.00  0.00     0.031 C 
ATOM     47  C   UNL A   1      43.234  22.738  29.104  1.00  0.00     0.029 A 
ATOM     48  C   UNL A   1      43.722  23.379  27.898  1.00  0.00     0.049 A 
ATOM     49  H   UNL A   1      44.860  25.132  27.785  1.00  0.00     0.167 HD
ATOM     50  C   UNL A   1      47.791  28.351  27.701  1.00  0.00     0.037 A 
ATOM     51  C   UNL A   1      43.520  23.040  26.600  1.00  0.00     0.037 A 
ATOM     52  C   UNL A   1      46.574  29.066  27.397  1.00  0.00     0.049 A 
ATOM     53  C   UNL A   1      43.764  24.256  25.790  1.00  0.00     0.074 A 
ATOM     54  C   UNL A   1      45.769  29.957  28.083  1.00  0.00     0.029 A 
ATOM     55  N   UNL A   1      45.802  28.594  26.364  1.00  0.00    -0.354 N 
ATOM     56  N   UNL A   1      42.993  25.305  25.809  1.00  0.00    -0.248 NA
ATOM     57  C   UNL A   1      45.115  24.478  25.303  1.00  0.00     0.031 C 
ATOM     58  C   UNL A   1      44.434  29.594  27.731  1.00  0.00     0.029 A 
ATOM     59  C   UNL A   1      44.501  28.561  26.796  1.00  0.00     0.049 A 
ATOM     60  H   UNL A   1      46.124  28.326  25.473  1.00  0.00     0.167 HD
ATOM     61  C   UNL A   1      43.869  26.379  25.784  1.00  0.00     0.074 A 
ATOM     62  C   UNL A   1      45.154  25.811  25.377  1.00  0.00     0.031 C 
ATOM     63  C   UNL A   1      43.540  27.567  26.373  1.00  0.00     0.037 A 
BRANCH  50  64
ATOM     64  C   UNL A   1      48.897  28.187  26.686  1.00  0.00     0.057 A 
ATOM     65  C   UNL A   1      49.080  26.936  26.070  1.00  0.00     0.134 A 
ATOM     66  C   UNL A   1      49.965  29.094  26.522  1.00  0.00     0.134 A 
ATOM     67  F   UNL A   1      48.141  25.980  26.160  1.00  0.00    -0.206 F 
ATOM     68  C   UNL A   1      50.269  26.585  25.419  1.00  0.00     0.040 A 
ATOM     69  C   UNL A   1      51.135  28.771  25.832  1.00  0.00     0.040 A 
ATOM     70  F   UNL A   1      49.983  30.298  27.104  1.00  0.00    -0.206 F 
ATOM     71  C   UNL A   1      51.306  27.500  25.308  1.00  0.00     0.006 A 
ENDBRANCH  50  64
BRANCH  51  72
ATOM     72  C   UNL A   1      43.415  21.701  25.980  1.00  0.00     0.057 A 
ATOM     73  C   UNL A   1      44.560  21.012  25.550  1.00  0.00     0.134 A 
ATOM     74  C   UNL A   1      42.239  20.938  26.083  1.00  0.00     0.134 A 
ATOM     75  F   UNL A   1      45.739  21.645  25.452  1.00  0.00    -0.206 F 
ATOM     76  C   UNL A   1      44.549  19.636  25.286  1.00  0.00     0.040 A 
ATOM     77  C   UNL A   1      42.214  19.564  25.818  1.00  0.00     0.040 A 
ATOM     78  F   UNL A   1      41.101  21.483  26.536  1.00  0.00    -0.206 F 
ATOM     79  C   UNL A   1      43.375  18.904  25.437  1.00  0.00     0.006 A 
ENDBRANCH  51  72
BRANCH  63  80
ATOM     80  C   UNL A   1      42.110  27.763  26.807  1.00  0.00     0.057 A 
ATOM     81  C   UNL A   1      41.544  27.205  27.964  1.00  0.00     0.134 A 
ATOM     82  C   UNL A   1      41.308  28.650  26.081  1.00  0.00     0.134 A 
ATOM     83  F   UNL A   1      42.256  26.419  28.780  1.00  0.00    -0.206 F 
ATOM     84  C   UNL A   1      40.226  27.480  28.350  1.00  0.00     0.040 A 
ATOM     85  C   UNL A   1      40.004  28.961  26.474  1.00  0.00     0.040 A 
ATOM     86  F   UNL A   1      41.795  29.264  24.991  1.00  0.00    -0.206 F 
ATOM     87  C   UNL A   1      39.453  28.365  27.605  1.00  0.00     0.006 A 
ENDBRANCH  63  80
ENDBRANCH  37  38
ENDBRANCH  29  32
ENDBRANCH  27  28
ENDBRANCH  26  27
ENDBRANCH  25  26
ENDBRANCH   1  25
TORSDOF 18
ENDMDL
