MODEL 1
REMARK VINA RESULT:     -12.0      0.000      0.000
REMARK SMILES O=C(NCCCCCCNC(=O)c1c(F)cccc1N1CC[C@@H]([NH+]2CCCCC2)C1)c1ccc(-c2c3nc(c(-c4c(F)cccc4F)c4ccc([nH]4)c(-c4c(F)cccc4F)c4nc(c(-c5c(F)cccc5F)c5ccc2[nH]5)C=C4)C=C3)cc1
REMARK SMILES IDX 6 1 5 2 4 3 3 4 1 5 2 6 31 8 32 9 84 10 33 11 83 12 34 13
REMARK SMILES IDX 35 14 36 15 77 16 37 17 82 18 76 19 78 20 38 21 81 22 75 23
REMARK SMILES IDX 74 24 39 26 65 27 48 28 64 29 49 30 52 31 63 32 79 33 50 34
REMARK SMILES IDX 51 35 62 37 80 38 53 39 40 40 41 41 46 42 42 43 43 44 45 45
REMARK SMILES IDX 47 46 44 47 66 48 67 49 72 50 68 51 69 52 71 53 73 54 70 55
REMARK SMILES IDX 54 56 55 57 60 58 56 59 57 60 59 61 61 62 58 63 7 64 8 65
REMARK SMILES IDX 9 66 10 67 11 68 12 70 13 71 14 72 19 73 15 74 16 75 18 76
REMARK SMILES IDX 17 77 20 78 21 79 30 80 22 81 23 82 24 83 25 84 29 85 26 87
REMARK SMILES IDX 28 88 27 89
REMARK H PARENT 3 7 78 25 52 36 10 69 24 86
REMARK Flexibility Score: inf
ROOT
ATOM      1  C   UNL A   1      31.189  30.770  25.600  1.00  0.00     0.002 C 
ENDROOT
BRANCH   1   2
ATOM      2  C   UNL A   1      31.111  31.996  26.511  1.00  0.00     0.021 C 
BRANCH   2   3
ATOM      3  C   UNL A   1      32.456  32.555  26.953  1.00  0.00     0.116 C 
BRANCH   3   4
ATOM      4  N   UNL A   1      32.360  33.920  27.443  1.00  0.00    -0.352 N 
ATOM      5  O   UNL A   1      32.761  35.657  28.829  1.00  0.00    -0.269 OA
ATOM      6  C   UNL A   1      33.083  34.541  28.430  1.00  0.00     0.251 C 
ATOM      7  H   UNL A   1      31.679  34.479  27.004  1.00  0.00     0.163 HD
BRANCH   6   8
ATOM      8  C   UNL A   1      34.246  33.853  29.031  1.00  0.00     0.039 A 
ATOM      9  C   UNL A   1      34.066  32.796  29.925  1.00  0.00     0.014 A 
ATOM     10  C   UNL A   1      35.535  34.266  28.681  1.00  0.00     0.014 A 
ATOM     11  C   UNL A   1      35.165  32.238  30.567  1.00  0.00     0.010 A 
ATOM     12  C   UNL A   1      36.643  33.645  29.262  1.00  0.00     0.010 A 
ATOM     13  C   UNL A   1      36.466  32.642  30.227  1.00  0.00    -0.014 A 
BRANCH  13  14
ATOM     14  C   UNL A   1      37.629  31.939  30.823  1.00  0.00     0.031 A 
ATOM     15  C   UNL A   1      38.387  30.894  30.058  1.00  0.00     0.074 A 
ATOM     16  C   UNL A   1      37.993  32.255  32.081  1.00  0.00     0.049 A 
ATOM     17  N   UNL A   1      39.411  30.177  30.444  1.00  0.00    -0.248 NA
ATOM     18  C   UNL A   1      37.939  30.611  28.686  1.00  0.00     0.031 C 
ATOM     19  C   UNL A   1      37.320  33.246  32.924  1.00  0.00     0.029 A 
ATOM     20  N   UNL A   1      39.013  31.786  32.867  1.00  0.00    -0.354 N 
ATOM     21  C   UNL A   1      39.716  29.342  29.376  1.00  0.00     0.074 A 
ATOM     22  C   UNL A   1      38.756  29.629  28.332  1.00  0.00     0.031 C 
ATOM     23  C   UNL A   1      37.965  33.337  34.095  1.00  0.00     0.029 A 
ATOM     24  C   UNL A   1      39.053  32.365  34.111  1.00  0.00     0.049 A 
ATOM     25  H   UNL A   1      39.655  31.102  32.568  1.00  0.00     0.167 HD
ATOM     26  C   UNL A   1      40.711  28.428  29.282  1.00  0.00     0.037 A 
ATOM     27  C   UNL A   1      39.855  32.126  35.165  1.00  0.00     0.037 A 
ATOM     28  C   UNL A   1      41.670  28.164  30.325  1.00  0.00     0.049 A 
ATOM     29  C   UNL A   1      40.928  31.087  35.046  1.00  0.00     0.074 A 
ATOM     30  C   UNL A   1      42.752  27.301  30.296  1.00  0.00     0.029 A 
ATOM     31  N   UNL A   1      41.657  28.748  31.583  1.00  0.00    -0.354 N 
ATOM     32  N   UNL A   1      41.235  30.338  34.015  1.00  0.00    -0.248 NA
ATOM     33  C   UNL A   1      41.761  30.851  36.233  1.00  0.00     0.031 C 
ATOM     34  C   UNL A   1      43.355  27.315  31.557  1.00  0.00     0.029 A 
ATOM     35  C   UNL A   1      42.689  28.235  32.352  1.00  0.00     0.049 A 
ATOM     36  H   UNL A   1      41.010  29.427  31.884  1.00  0.00     0.167 HD
ATOM     37  C   UNL A   1      42.302  29.550  34.420  1.00  0.00     0.074 A 
ATOM     38  C   UNL A   1      42.599  29.922  35.789  1.00  0.00     0.031 C 
ATOM     39  C   UNL A   1      42.972  28.606  33.717  1.00  0.00     0.037 A 
BRANCH  26  40
ATOM     40  C   UNL A   1      40.809  27.622  28.018  1.00  0.00     0.057 A 
ATOM     41  C   UNL A   1      40.185  26.370  27.924  1.00  0.00     0.134 A 
ATOM     42  C   UNL A   1      41.575  28.042  26.924  1.00  0.00     0.134 A 
ATOM     43  F   UNL A   1      39.444  25.900  28.939  1.00  0.00    -0.206 F 
ATOM     44  C   UNL A   1      40.330  25.563  26.795  1.00  0.00     0.040 A 
ATOM     45  C   UNL A   1      41.705  27.256  25.777  1.00  0.00     0.040 A 
ATOM     46  F   UNL A   1      42.193  29.234  26.944  1.00  0.00    -0.206 F 
ATOM     47  C   UNL A   1      41.089  26.008  25.714  1.00  0.00     0.006 A 
ENDBRANCH  26  40
BRANCH  27  48
ATOM     48  C   UNL A   1      39.650  32.901  36.412  1.00  0.00     0.057 A 
ATOM     49  C   UNL A   1      38.691  32.514  37.358  1.00  0.00     0.134 A 
ATOM     50  C   UNL A   1      40.340  34.095  36.643  1.00  0.00     0.134 A 
ATOM     51  F   UNL A   1      37.985  31.387  37.184  1.00  0.00    -0.206 F 
ATOM     52  C   UNL A   1      38.401  33.304  38.470  1.00  0.00     0.040 A 
ATOM     53  C   UNL A   1      40.079  34.883  37.766  1.00  0.00     0.040 A 
ATOM     54  F   UNL A   1      41.278  34.510  35.779  1.00  0.00    -0.206 F 
ATOM     55  C   UNL A   1      39.097  34.494  38.676  1.00  0.00     0.006 A 
ENDBRANCH  27  48
BRANCH  39  56
ATOM     56  C   UNL A   1      44.107  27.903  34.402  1.00  0.00     0.057 A 
ATOM     57  C   UNL A   1      45.406  28.424  34.345  1.00  0.00     0.134 A 
ATOM     58  C   UNL A   1      43.931  26.669  35.037  1.00  0.00     0.134 A 
ATOM     59  F   UNL A   1      45.644  29.600  33.742  1.00  0.00    -0.206 F 
ATOM     60  C   UNL A   1      46.495  27.729  34.873  1.00  0.00     0.040 A 
ATOM     61  C   UNL A   1      45.008  25.976  35.592  1.00  0.00     0.040 A 
ATOM     62  F   UNL A   1      42.710  26.122  35.137  1.00  0.00    -0.206 F 
ATOM     63  C   UNL A   1      46.297  26.500  35.499  1.00  0.00     0.006 A 
ENDBRANCH  39  56
ENDBRANCH  13  14
ENDBRANCH   6   8
ENDBRANCH   3   4
ENDBRANCH   2   3
ENDBRANCH   1   2
BRANCH   1  64
ATOM     64  C   UNL A   1      32.004  29.594  26.144  1.00  0.00     0.002 C 
BRANCH  64  65
ATOM     65  C   UNL A   1      33.374  29.374  25.495  1.00  0.00     0.021 C 
BRANCH  65  66
ATOM     66  C   UNL A   1      33.749  27.916  25.233  1.00  0.00     0.116 C 
BRANCH  66  67
ATOM     67  N   UNL A   1      34.017  27.650  23.832  1.00  0.00    -0.352 N 
ATOM     68  C   UNL A   1      33.139  27.245  22.852  1.00  0.00     0.256 C 
ATOM     69  H   UNL A   1      34.949  27.777  23.545  1.00  0.00     0.163 HD
ATOM     70  O   UNL A   1      33.540  27.072  21.704  1.00  0.00    -0.269 OA
BRANCH  68  71
ATOM     71  C   UNL A   1      31.729  26.996  23.198  1.00  0.00     0.098 A 
ATOM     72  C   UNL A   1      30.827  28.045  22.974  1.00  0.00     0.138 A 
ATOM     73  C   UNL A   1      31.274  25.742  23.654  1.00  0.00     0.053 A 
ATOM     74  F   UNL A   1      31.259  29.234  22.521  1.00  0.00    -0.206 F 
ATOM     75  C   UNL A   1      29.472  27.900  23.239  1.00  0.00     0.040 A 
ATOM     76  C   UNL A   1      29.890  25.611  23.879  1.00  0.00     0.027 A 
ATOM     77  C   UNL A   1      28.999  26.676  23.693  1.00  0.00     0.005 A 
BRANCH  73  78
ATOM     78  N   UNL A   1      32.068  24.642  23.903  1.00  0.00    -0.365 N 
ATOM     79  C   UNL A   1      32.675  23.812  22.877  1.00  0.00     0.123 C 
ATOM     80  C   UNL A   1      31.910  23.908  25.166  1.00  0.00     0.181 C 
ATOM     81  C   UNL A   1      32.539  22.392  23.409  1.00  0.00     0.088 C 
ATOM     82  C   UNL A   1      32.588  22.522  24.934  1.00  0.00     0.205 C 
BRANCH  82  83
ATOM     83  N   UNL A   1      33.882  22.352  25.620  1.00  0.00    -0.331 N 
ATOM     84  C   UNL A   1      34.480  23.507  26.284  1.00  0.00     0.262 C 
ATOM     85  C   UNL A   1      34.867  21.543  24.898  1.00  0.00     0.262 C 
ATOM     86  H   UNL A   1      33.562  21.796  26.413  1.00  0.00     0.348 HD
ATOM     87  C   UNL A   1      35.402  24.353  25.401  1.00  0.00     0.062 C 
ATOM     88  C   UNL A   1      35.781  22.328  23.958  1.00  0.00     0.062 C 
ATOM     89  C   UNL A   1      36.436  23.505  24.670  1.00  0.00     0.012 C 
ENDBRANCH  82  83
ENDBRANCH  73  78
ENDBRANCH  68  71
ENDBRANCH  66  67
ENDBRANCH  65  66
ENDBRANCH  64  65
ENDBRANCH   1  64
TORSDOF 15
ENDMDL
MODEL 2
REMARK VINA RESULT:     -11.9      1.044      1.655
REMARK SMILES O=C(NCCCCCCNC(=O)c1c(F)cccc1N1CC[C@@H]([NH+]2CCCCC2)C1)c1ccc(-c2c3nc(c(-c4c(F)cccc4F)c4ccc([nH]4)c(-c4c(F)cccc4F)c4nc(c(-c5c(F)cccc5F)c5ccc2[nH]5)C=C4)C=C3)cc1
REMARK SMILES IDX 6 1 5 2 4 3 3 4 1 5 2 6 31 8 32 9 84 10 33 11 83 12 34 13
REMARK SMILES IDX 35 14 36 15 77 16 37 17 82 18 76 19 78 20 38 21 81 22 75 23
REMARK SMILES IDX 74 24 39 26 65 27 48 28 64 29 49 30 52 31 63 32 79 33 50 34
REMARK SMILES IDX 51 35 62 37 80 38 53 39 40 40 41 41 46 42 42 43 43 44 45 45
REMARK SMILES IDX 47 46 44 47 66 48 67 49 72 50 68 51 69 52 71 53 73 54 70 55
REMARK SMILES IDX 54 56 55 57 60 58 56 59 57 60 59 61 61 62 58 63 7 64 8 65
REMARK SMILES IDX 9 66 10 67 11 68 12 70 13 71 14 72 19 73 15 74 16 75 18 76
REMARK SMILES IDX 17 77 20 78 21 79 30 80 22 81 23 82 24 83 25 84 29 85 26 87
REMARK SMILES IDX 28 88 27 89
REMARK H PARENT 3 7 78 25 52 36 10 69 24 86
REMARK Flexibility Score: inf
ROOT
ATOM      1  C   UNL A   1      31.387  30.881  25.971  1.00  0.00     0.002 C 
ENDROOT
BRANCH   1   2
ATOM      2  C   UNL A   1      31.306  32.300  26.535  1.00  0.00     0.021 C 
BRANCH   2   3
ATOM      3  C   UNL A   1      32.618  32.852  27.076  1.00  0.00     0.116 C 
BRANCH   3   4
ATOM      4  N   UNL A   1      32.469  34.175  27.659  1.00  0.00    -0.352 N 
ATOM      5  O   UNL A   1      32.784  35.818  29.175  1.00  0.00    -0.269 OA
ATOM      6  C   UNL A   1      33.149  34.743  28.707  1.00  0.00     0.251 C 
ATOM      7  H   UNL A   1      31.783  34.745  27.243  1.00  0.00     0.163 HD
BRANCH   6   8
ATOM      8  C   UNL A   1      34.318  34.047  29.287  1.00  0.00     0.039 A 
ATOM      9  C   UNL A   1      34.146  33.037  30.237  1.00  0.00     0.014 A 
ATOM     10  C   UNL A   1      35.601  34.402  28.863  1.00  0.00     0.014 A 
ATOM     11  C   UNL A   1      35.256  32.474  30.856  1.00  0.00     0.010 A 
ATOM     12  C   UNL A   1      36.715  33.773  29.424  1.00  0.00     0.010 A 
ATOM     13  C   UNL A   1      36.552  32.820  30.441  1.00  0.00    -0.014 A 
BRANCH  13  14
ATOM     14  C   UNL A   1      37.719  32.108  31.017  1.00  0.00     0.031 A 
ATOM     15  C   UNL A   1      38.431  31.029  30.256  1.00  0.00     0.074 A 
ATOM     16  C   UNL A   1      38.130  32.449  32.254  1.00  0.00     0.049 A 
ATOM     17  N   UNL A   1      39.452  30.300  30.628  1.00  0.00    -0.248 NA
ATOM     18  C   UNL A   1      37.932  30.720  28.908  1.00  0.00     0.031 C 
ATOM     19  C   UNL A   1      37.506  33.475  33.092  1.00  0.00     0.029 A 
ATOM     20  N   UNL A   1      39.166  31.979  33.020  1.00  0.00    -0.354 N 
ATOM     21  C   UNL A   1      39.705  29.432  29.574  1.00  0.00     0.074 A 
ATOM     22  C   UNL A   1      38.717  29.712  28.553  1.00  0.00     0.031 C 
ATOM     23  C   UNL A   1      38.191  33.583  34.239  1.00  0.00     0.029 A 
ATOM     24  C   UNL A   1      39.258  32.589  34.246  1.00  0.00     0.049 A 
ATOM     25  H   UNL A   1      39.784  31.274  32.718  1.00  0.00     0.167 HD
ATOM     26  C   UNL A   1      40.677  28.495  29.471  1.00  0.00     0.037 A 
ATOM     27  C   UNL A   1      40.089  32.360  35.280  1.00  0.00     0.037 A 
ATOM     28  C   UNL A   1      41.664  28.237  30.489  1.00  0.00     0.049 A 
ATOM     29  C   UNL A   1      41.136  31.295  35.154  1.00  0.00     0.074 A 
ATOM     30  C   UNL A   1      42.727  27.351  30.449  1.00  0.00     0.029 A 
ATOM     31  N   UNL A   1      41.704  28.853  31.732  1.00  0.00    -0.354 N 
ATOM     32  N   UNL A   1      41.393  30.514  34.134  1.00  0.00    -0.248 NA
ATOM     33  C   UNL A   1      42.003  31.073  36.319  1.00  0.00     0.031 C 
ATOM     34  C   UNL A   1      43.370  27.385  31.689  1.00  0.00     0.029 A 
ATOM     35  C   UNL A   1      42.750  28.338  32.481  1.00  0.00     0.049 A 
ATOM     36  H   UNL A   1      41.081  29.553  32.036  1.00  0.00     0.167 HD
ATOM     37  C   UNL A   1      42.457  29.714  34.525  1.00  0.00     0.074 A 
ATOM     38  C   UNL A   1      42.806  30.115  35.873  1.00  0.00     0.031 C 
ATOM     39  C   UNL A   1      43.085  28.738  33.826  1.00  0.00     0.037 A 
BRANCH  26  40
ATOM     40  C   UNL A   1      40.717  27.654  28.227  1.00  0.00     0.057 A 
ATOM     41  C   UNL A   1      40.064  26.415  28.185  1.00  0.00     0.134 A 
ATOM     42  C   UNL A   1      41.458  28.029  27.099  1.00  0.00     0.134 A 
ATOM     43  F   UNL A   1      39.345  25.988  29.235  1.00  0.00    -0.206 F 
ATOM     44  C   UNL A   1      40.155  25.576  27.073  1.00  0.00     0.040 A 
ATOM     45  C   UNL A   1      41.534  27.211  25.969  1.00  0.00     0.040 A 
ATOM     46  F   UNL A   1      42.102  29.207  27.068  1.00  0.00    -0.206 F 
ATOM     47  C   UNL A   1      40.889  25.976  25.959  1.00  0.00     0.006 A 
ENDBRANCH  26  40
BRANCH  27  48
ATOM     48  C   UNL A   1      39.940  33.171  36.512  1.00  0.00     0.057 A 
ATOM     49  C   UNL A   1      39.014  32.822  37.504  1.00  0.00     0.134 A 
ATOM     50  C   UNL A   1      40.653  34.361  36.684  1.00  0.00     0.134 A 
ATOM     51  F   UNL A   1      38.289  31.699  37.387  1.00  0.00    -0.206 F 
ATOM     52  C   UNL A   1      38.776  33.645  38.603  1.00  0.00     0.040 A 
ATOM     53  C   UNL A   1      40.444  35.183  37.793  1.00  0.00     0.040 A 
ATOM     54  F   UNL A   1      41.562  34.741  35.774  1.00  0.00    -0.206 F 
ATOM     55  C   UNL A   1      39.493  34.831  38.750  1.00  0.00     0.006 A 
ENDBRANCH  27  48
BRANCH  39  56
ATOM     56  C   UNL A   1      44.227  28.029  34.492  1.00  0.00     0.057 A 
ATOM     57  C   UNL A   1      45.536  28.513  34.368  1.00  0.00     0.134 A 
ATOM     58  C   UNL A   1      44.044  26.822  35.176  1.00  0.00     0.134 A 
ATOM     59  F   UNL A   1      45.780  29.661  33.715  1.00  0.00    -0.206 F 
ATOM     60  C   UNL A   1      46.625  27.808  34.879  1.00  0.00     0.040 A 
ATOM     61  C   UNL A   1      45.124  26.120  35.715  1.00  0.00     0.040 A 
ATOM     62  F   UNL A   1      42.814  26.313  35.341  1.00  0.00    -0.206 F 
ATOM     63  C   UNL A   1      46.420  26.607  35.555  1.00  0.00     0.006 A 
ENDBRANCH  39  56
ENDBRANCH  13  14
ENDBRANCH   6   8
ENDBRANCH   3   4
ENDBRANCH   2   3
ENDBRANCH   1   2
BRANCH   1  64
ATOM     64  C   UNL A   1      32.253  29.902  26.767  1.00  0.00     0.002 C 
BRANCH  64  65
ATOM     65  C   UNL A   1      31.500  28.792  27.507  1.00  0.00     0.021 C 
BRANCH  65  66
ATOM     66  C   UNL A   1      31.930  27.367  27.166  1.00  0.00     0.116 C 
BRANCH  66  67
ATOM     67  N   UNL A   1      30.879  26.604  26.519  1.00  0.00    -0.352 N 
ATOM     68  C   UNL A   1      30.677  26.389  25.175  1.00  0.00     0.256 C 
ATOM     69  H   UNL A   1      30.225  26.184  27.122  1.00  0.00     0.163 HD
ATOM     70  O   UNL A   1      29.730  25.704  24.800  1.00  0.00    -0.269 OA
BRANCH  68  71
ATOM     71  C   UNL A   1      31.587  27.009  24.195  1.00  0.00     0.098 A 
ATOM     72  C   UNL A   1      31.170  28.215  23.619  1.00  0.00     0.138 A 
ATOM     73  C   UNL A   1      32.858  26.472  23.903  1.00  0.00     0.053 A 
ATOM     74  F   UNL A   1      29.968  28.736  23.913  1.00  0.00    -0.206 F 
ATOM     75  C   UNL A   1      31.970  28.892  22.708  1.00  0.00     0.040 A 
ATOM     76  C   UNL A   1      33.663  27.199  23.004  1.00  0.00     0.027 A 
ATOM     77  C   UNL A   1      33.224  28.383  22.399  1.00  0.00     0.005 A 
BRANCH  73  78
ATOM     78  N   UNL A   1      33.372  25.298  24.414  1.00  0.00    -0.365 N 
ATOM     79  C   UNL A   1      34.467  25.221  25.365  1.00  0.00     0.123 C 
ATOM     80  C   UNL A   1      33.240  24.055  23.642  1.00  0.00     0.181 C 
ATOM     81  C   UNL A   1      35.289  24.027  24.900  1.00  0.00     0.088 C 
ATOM     82  C   UNL A   1      34.285  23.069  24.251  1.00  0.00     0.205 C 
BRANCH  82  83
ATOM     83  N   UNL A   1      33.702  21.991  25.070  1.00  0.00    -0.331 N 
ATOM     84  C   UNL A   1      32.316  22.116  25.511  1.00  0.00     0.262 C 
ATOM     85  C   UNL A   1      34.581  21.458  26.114  1.00  0.00     0.262 C 
ATOM     86  H   UNL A   1      33.628  21.274  24.347  1.00  0.00     0.348 HD
ATOM     87  C   UNL A   1      32.129  22.827  26.855  1.00  0.00     0.062 C 
ATOM     88  C   UNL A   1      34.477  22.164  27.465  1.00  0.00     0.062 C 
ATOM     89  C   UNL A   1      33.032  22.252  27.940  1.00  0.00     0.012 C 
ENDBRANCH  82  83
ENDBRANCH  73  78
ENDBRANCH  68  71
ENDBRANCH  66  67
ENDBRANCH  65  66
ENDBRANCH  64  65
ENDBRANCH   1  64
TORSDOF 15
ENDMDL
MODEL 3
REMARK VINA RESULT:     -11.8      4.297      9.224
REMARK SMILES O=C(NCCCCCCNC(=O)c1c(F)cccc1N1CC[C@@H]([NH+]2CCCCC2)C1)c1ccc(-c2c3nc(c(-c4c(F)cccc4F)c4ccc([nH]4)c(-c4c(F)cccc4F)c4nc(c(-c5c(F)cccc5F)c5ccc2[nH]5)C=C4)C=C3)cc1
REMARK SMILES IDX 6 1 5 2 4 3 3 4 1 5 2 6 31 8 32 9 84 10 33 11 83 12 34 13
REMARK SMILES IDX 35 14 36 15 77 16 37 17 82 18 76 19 78 20 38 21 81 22 75 23
REMARK SMILES IDX 74 24 39 26 65 27 48 28 64 29 49 30 52 31 63 32 79 33 50 34
REMARK SMILES IDX 51 35 62 37 80 38 53 39 40 40 41 41 46 42 42 43 43 44 45 45
REMARK SMILES IDX 47 46 44 47 66 48 67 49 72 50 68 51 69 52 71 53 73 54 70 55
REMARK SMILES IDX 54 56 55 57 60 58 56 59 57 60 59 61 61 62 58 63 7 64 8 65
REMARK SMILES IDX 9 66 10 67 11 68 12 70 13 71 14 72 19 73 15 74 16 75 18 76
REMARK SMILES IDX 17 77 20 78 21 79 30 80 22 81 23 82 24 83 25 84 29 85 26 87
REMARK SMILES IDX 28 88 27 89
REMARK H PARENT 3 7 78 25 52 36 10 69 24 86
REMARK Flexibility Score: inf
ROOT
ATOM      1  C   UNL A   1      36.502  20.241  24.929  1.00  0.00     0.002 C 
ENDROOT
BRANCH   1   2
ATOM      2  C   UNL A   1      37.774  19.394  24.944  1.00  0.00     0.021 C 
BRANCH   2   3
ATOM      3  C   UNL A   1      38.951  20.013  25.685  1.00  0.00     0.116 C 
BRANCH   3   4
ATOM      4  N   UNL A   1      40.107  19.133  25.734  1.00  0.00    -0.352 N 
ATOM      5  O   UNL A   1      42.294  18.594  25.882  1.00  0.00    -0.269 OA
ATOM      6  C   UNL A   1      41.410  19.429  26.047  1.00  0.00     0.251 C 
ATOM      7  H   UNL A   1      39.930  18.191  25.511  1.00  0.00     0.163 HD
BRANCH   6   8
ATOM      8  C   UNL A   1      41.753  20.769  26.569  1.00  0.00     0.039 A 
ATOM      9  C   UNL A   1      41.696  21.038  27.939  1.00  0.00     0.014 A 
ATOM     10  C   UNL A   1      42.152  21.766  25.674  1.00  0.00     0.014 A 
ATOM     11  C   UNL A   1      41.910  22.331  28.400  1.00  0.00     0.010 A 
ATOM     12  C   UNL A   1      42.452  23.045  26.149  1.00  0.00     0.010 A 
ATOM     13  C   UNL A   1      42.311  23.343  27.513  1.00  0.00    -0.014 A 
BRANCH  13  14
ATOM     14  C   UNL A   1      42.667  24.682  28.045  1.00  0.00     0.031 A 
ATOM     15  C   UNL A   1      41.622  25.729  28.294  1.00  0.00     0.074 A 
ATOM     16  C   UNL A   1      43.964  24.945  28.298  1.00  0.00     0.049 A 
ATOM     17  N   UNL A   1      41.773  26.950  28.737  1.00  0.00    -0.248 NA
ATOM     18  C   UNL A   1      40.227  25.363  28.005  1.00  0.00     0.031 C 
ATOM     19  C   UNL A   1      45.068  24.008  28.081  1.00  0.00     0.029 A 
ATOM     20  N   UNL A   1      44.574  26.069  28.794  1.00  0.00    -0.354 N 
ATOM     21  C   UNL A   1      40.502  27.509  28.758  1.00  0.00     0.074 A 
ATOM     22  C   UNL A   1      39.591  26.498  28.266  1.00  0.00     0.031 C 
ATOM     23  C   UNL A   1      46.214  24.580  28.475  1.00  0.00     0.029 A 
ATOM     24  C   UNL A   1      45.936  25.946  28.907  1.00  0.00     0.049 A 
ATOM     25  H   UNL A   1      44.082  26.884  29.047  1.00  0.00     0.167 HD
ATOM     26  C   UNL A   1      40.135  28.749  29.159  1.00  0.00     0.037 A 
ATOM     27  C   UNL A   1      46.870  26.837  29.288  1.00  0.00     0.037 A 
ATOM     28  C   UNL A   1      41.052  29.741  29.663  1.00  0.00     0.049 A 
ATOM     29  C   UNL A   1      46.442  28.214  29.696  1.00  0.00     0.074 A 
ATOM     30  C   UNL A   1      40.765  31.004  30.152  1.00  0.00     0.029 A 
ATOM     31  N   UNL A   1      42.429  29.590  29.730  1.00  0.00    -0.354 N 
ATOM     32  N   UNL A   1      45.232  28.713  29.756  1.00  0.00    -0.248 NA
ATOM     33  C   UNL A   1      47.503  29.153  30.082  1.00  0.00     0.031 C 
ATOM     34  C   UNL A   1      41.973  31.639  30.455  1.00  0.00     0.029 A 
ATOM     35  C   UNL A   1      43.009  30.751  30.217  1.00  0.00     0.049 A 
ATOM     36  H   UNL A   1      42.921  28.777  29.471  1.00  0.00     0.167 HD
ATOM     37  C   UNL A   1      45.380  30.020  30.196  1.00  0.00     0.074 A 
ATOM     38  C   UNL A   1      46.799  30.232  30.402  1.00  0.00     0.031 C 
ATOM     39  C   UNL A   1      44.423  30.955  30.411  1.00  0.00     0.037 A 
BRANCH  26  40
ATOM     40  C   UNL A   1      38.685  29.125  29.053  1.00  0.00     0.057 A 
ATOM     41  C   UNL A   1      38.162  29.603  27.844  1.00  0.00     0.134 A 
ATOM     42  C   UNL A   1      37.823  29.085  30.156  1.00  0.00     0.134 A 
ATOM     43  F   UNL A   1      38.934  29.677  26.749  1.00  0.00    -0.206 F 
ATOM     44  C   UNL A   1      36.839  30.038  27.739  1.00  0.00     0.040 A 
ATOM     45  C   UNL A   1      36.490  29.491  30.057  1.00  0.00     0.040 A 
ATOM     46  F   UNL A   1      38.256  28.630  31.342  1.00  0.00    -0.206 F 
ATOM     47  C   UNL A   1      35.998  29.979  28.848  1.00  0.00     0.006 A 
ENDBRANCH  26  40
BRANCH  27  48
ATOM     48  C   UNL A   1      48.294  26.426  29.290  1.00  0.00     0.057 A 
ATOM     49  C   UNL A   1      48.875  25.824  30.414  1.00  0.00     0.134 A 
ATOM     50  C   UNL A   1      49.129  26.708  28.205  1.00  0.00     0.134 A 
ATOM     51  F   UNL A   1      48.128  25.542  31.492  1.00  0.00    -0.206 F 
ATOM     52  C   UNL A   1      50.241  25.551  30.473  1.00  0.00     0.040 A 
ATOM     53  C   UNL A   1      50.494  26.417  28.240  1.00  0.00     0.040 A 
ATOM     54  F   UNL A   1      48.628  27.273  27.096  1.00  0.00    -0.206 F 
ATOM     55  C   UNL A   1      51.055  25.848  29.382  1.00  0.00     0.006 A 
ENDBRANCH  27  48
BRANCH  39  56
ATOM     56  C   UNL A   1      44.865  32.302  30.904  1.00  0.00     0.057 A 
ATOM     57  C   UNL A   1      45.208  33.314  29.999  1.00  0.00     0.134 A 
ATOM     58  C   UNL A   1      45.039  32.564  32.267  1.00  0.00     0.134 A 
ATOM     59  F   UNL A   1      45.074  33.122  28.677  1.00  0.00    -0.206 F 
ATOM     60  C   UNL A   1      45.732  34.532  30.431  1.00  0.00     0.040 A 
ATOM     61  C   UNL A   1      45.538  33.789  32.714  1.00  0.00     0.040 A 
ATOM     62  F   UNL A   1      44.716  31.641  33.185  1.00  0.00    -0.206 F 
ATOM     63  C   UNL A   1      45.899  34.772  31.794  1.00  0.00     0.006 A 
ENDBRANCH  39  56
ENDBRANCH  13  14
ENDBRANCH   6   8
ENDBRANCH   3   4
ENDBRANCH   2   3
ENDBRANCH   1   2
BRANCH   1  64
ATOM     64  C   UNL A   1      36.699  21.723  24.602  1.00  0.00     0.002 C 
BRANCH  64  65
ATOM     65  C   UNL A   1      36.421  22.702  25.746  1.00  0.00     0.021 C 
BRANCH  65  66
ATOM     66  C   UNL A   1      35.552  23.905  25.384  1.00  0.00     0.116 C 
BRANCH  66  67
ATOM     67  N   UNL A   1      34.392  24.036  26.246  1.00  0.00    -0.352 N 
ATOM     68  C   UNL A   1      33.151  23.456  26.110  1.00  0.00     0.256 C 
ATOM     69  H   UNL A   1      34.508  24.617  27.032  1.00  0.00     0.163 HD
ATOM     70  O   UNL A   1      32.279  23.673  26.946  1.00  0.00    -0.269 OA
BRANCH  68  71
ATOM     71  C   UNL A   1      32.874  22.598  24.945  1.00  0.00     0.098 A 
ATOM     72  C   UNL A   1      32.949  21.213  25.145  1.00  0.00     0.138 A 
ATOM     73  C   UNL A   1      32.470  23.124  23.701  1.00  0.00     0.053 A 
ATOM     74  F   UNL A   1      33.316  20.713  26.336  1.00  0.00    -0.206 F 
ATOM     75  C   UNL A   1      32.677  20.321  24.117  1.00  0.00     0.040 A 
ATOM     76  C   UNL A   1      32.163  22.195  22.687  1.00  0.00     0.027 A 
ATOM     77  C   UNL A   1      32.280  20.813  22.881  1.00  0.00     0.005 A 
BRANCH  73  78
ATOM     78  N   UNL A   1      32.357  24.464  23.393  1.00  0.00    -0.365 N 
ATOM     79  C   UNL A   1      31.106  25.141  23.094  1.00  0.00     0.123 C 
ATOM     80  C   UNL A   1      33.504  25.171  22.808  1.00  0.00     0.181 C 
ATOM     81  C   UNL A   1      31.453  26.094  21.959  1.00  0.00     0.088 C 
ATOM     82  C   UNL A   1      32.920  26.474  22.180  1.00  0.00     0.205 C 
BRANCH  82  83
ATOM     83  N   UNL A   1      33.229  27.705  22.930  1.00  0.00    -0.331 N 
ATOM     84  C   UNL A   1      33.745  27.587  24.290  1.00  0.00     0.262 C 
ATOM     85  C   UNL A   1      32.244  28.781  22.791  1.00  0.00     0.262 C 
ATOM     86  H   UNL A   1      34.061  27.993  22.413  1.00  0.00     0.348 HD
ATOM     87  C   UNL A   1      32.675  27.548  25.386  1.00  0.00     0.062 C 
ATOM     88  C   UNL A   1      31.120  28.762  23.826  1.00  0.00     0.062 C 
ATOM     89  C   UNL A   1      31.668  28.683  25.245  1.00  0.00     0.012 C 
ENDBRANCH  82  83
ENDBRANCH  73  78
ENDBRANCH  68  71
ENDBRANCH  66  67
ENDBRANCH  65  66
ENDBRANCH  64  65
ENDBRANCH   1  64
TORSDOF 15
ENDMDL
