MODEL 1
REMARK VINA RESULT:     -11.6      0.000      0.000
REMARK SMILES O=C(NCCCCCCNC(=O)[C@H]1Cc2cc(O)ccc2C[NH2+]1)c1ccc(-c2c3nc(c(-c4c(F)cccc4F)c4ccc([nH]4)c(-c4c(F)cccc4F)c4nc(c(-c5c(F)cccc5F)c5ccc2[nH]5)C=C4)C=C3)cc1
REMARK SMILES IDX 6 1 5 2 4 3 3 4 1 5 2 6 24 8 25 9 77 10 26 11 76 12 27 13
REMARK SMILES IDX 28 14 29 15 70 16 30 17 75 18 69 19 71 20 31 21 74 22 68 23
REMARK SMILES IDX 67 24 32 26 58 27 41 28 57 29 42 30 45 31 56 32 72 33 43 34
REMARK SMILES IDX 44 35 55 37 73 38 46 39 33 40 34 41 39 42 35 43 36 44 38 45
REMARK SMILES IDX 40 46 37 47 59 48 60 49 65 50 61 51 62 52 64 53 66 54 63 55
REMARK SMILES IDX 47 56 48 57 53 58 49 59 50 60 52 61 54 62 51 63 7 64 8 65
REMARK SMILES IDX 9 66 10 67 11 68 12 70 13 71 14 72 23 73 15 74 22 75 16 78
REMARK SMILES IDX 21 79 17 80 20 81 19 82 18 83
REMARK H PARENT 3 7 71 25 45 36 10 69 23 76 23 77 18 84
REMARK Flexibility Score: inf
ROOT
ATOM      1  C   UNL A   1      31.682  30.351  26.058  1.00  0.00     0.002 C 
ENDROOT
BRANCH   1   2
ATOM      2  C   UNL A   1      31.451  31.790  26.531  1.00  0.00     0.021 C 
BRANCH   2   3
ATOM      3  C   UNL A   1      32.630  32.439  27.250  1.00  0.00     0.116 C 
BRANCH   3   4
ATOM      4  N   UNL A   1      32.386  33.836  27.563  1.00  0.00    -0.352 N 
ATOM      5  O   UNL A   1      32.528  35.759  28.723  1.00  0.00    -0.269 OA
ATOM      6  C   UNL A   1      32.983  34.638  28.500  1.00  0.00     0.251 C 
ATOM      7  H   UNL A   1      31.689  34.272  27.022  1.00  0.00     0.163 HD
BRANCH   6   8
ATOM      8  C   UNL A   1      34.167  34.173  29.255  1.00  0.00     0.039 A 
ATOM      9  C   UNL A   1      35.439  34.463  28.751  1.00  0.00     0.014 A 
ATOM     10  C   UNL A   1      34.034  33.391  30.406  1.00  0.00     0.014 A 
ATOM     11  C   UNL A   1      36.578  33.989  29.407  1.00  0.00     0.010 A 
ATOM     12  C   UNL A   1      35.170  32.958  31.088  1.00  0.00     0.010 A 
ATOM     13  C   UNL A   1      36.450  33.236  30.582  1.00  0.00    -0.014 A 
BRANCH  13  14
ATOM     14  C   UNL A   1      37.637  32.661  31.261  1.00  0.00     0.031 A 
ATOM     15  C   UNL A   1      38.329  31.470  30.658  1.00  0.00     0.074 A 
ATOM     16  C   UNL A   1      38.057  33.161  32.437  1.00  0.00     0.049 A 
ATOM     17  N   UNL A   1      39.296  30.738  31.147  1.00  0.00    -0.248 NA
ATOM     18  C   UNL A   1      37.847  31.033  29.338  1.00  0.00     0.031 C 
ATOM     19  C   UNL A   1      37.462  34.302  33.132  1.00  0.00     0.029 A 
ATOM     20  N   UNL A   1      39.072  32.753  33.264  1.00  0.00    -0.354 N 
ATOM     21  C   UNL A   1      39.522  29.739  30.208  1.00  0.00     0.074 A 
ATOM     22  C   UNL A   1      38.568  29.940  29.138  1.00  0.00     0.031 C 
ATOM     23  C   UNL A   1      38.120  34.499  34.287  1.00  0.00     0.029 A 
ATOM     24  C   UNL A   1      39.157  33.480  34.425  1.00  0.00     0.049 A 
ATOM     25  H   UNL A   1      39.681  32.010  33.047  1.00  0.00     0.167 HD
ATOM     26  C   UNL A   1      40.452  28.754  30.228  1.00  0.00     0.037 A 
ATOM     27  C   UNL A   1      39.964  33.325  35.491  1.00  0.00     0.037 A 
ATOM     28  C   UNL A   1      41.422  28.576  31.274  1.00  0.00     0.049 A 
ATOM     29  C   UNL A   1      40.970  32.209  35.505  1.00  0.00     0.074 A 
ATOM     30  C   UNL A   1      42.463  27.665  31.342  1.00  0.00     0.029 A 
ATOM     31  N   UNL A   1      41.469  29.325  32.439  1.00  0.00    -0.354 N 
ATOM     32  N   UNL A   1      41.207  31.301  34.591  1.00  0.00    -0.248 NA
ATOM     33  C   UNL A   1      41.812  32.091  36.705  1.00  0.00     0.031 C 
ATOM     34  C   UNL A   1      43.115  27.840  32.568  1.00  0.00     0.029 A 
ATOM     35  C   UNL A   1      42.498  28.877  33.249  1.00  0.00     0.049 A 
ATOM     36  H   UNL A   1      40.859  30.067  32.658  1.00  0.00     0.167 HD
ATOM     37  C   UNL A   1      42.223  30.503  35.101  1.00  0.00     0.074 A 
ATOM     38  C   UNL A   1      42.572  31.049  36.397  1.00  0.00     0.031 C 
ATOM     39  C   UNL A   1      42.811  29.415  34.547  1.00  0.00     0.037 A 
BRANCH  26  40
ATOM     40  C   UNL A   1      40.445  27.790  29.080  1.00  0.00     0.057 A 
ATOM     41  C   UNL A   1      39.657  26.633  29.125  1.00  0.00     0.134 A 
ATOM     42  C   UNL A   1      41.210  28.009  27.928  1.00  0.00     0.134 A 
ATOM     43  F   UNL A   1      38.903  26.364  30.202  1.00  0.00    -0.206 F 
ATOM     44  C   UNL A   1      39.624  25.732  28.060  1.00  0.00     0.040 A 
ATOM     45  C   UNL A   1      41.168  27.128  26.846  1.00  0.00     0.040 A 
ATOM     46  F   UNL A   1      41.973  29.107  27.817  1.00  0.00    -0.206 F 
ATOM     47  C   UNL A   1      40.374  25.984  26.912  1.00  0.00     0.006 A 
ENDBRANCH  26  40
BRANCH  27  48
ATOM     48  C   UNL A   1      39.836  34.243  36.649  1.00  0.00     0.057 A 
ATOM     49  C   UNL A   1      39.040  33.915  37.752  1.00  0.00     0.134 A 
ATOM     50  C   UNL A   1      40.503  35.471  36.672  1.00  0.00     0.134 A 
ATOM     51  F   UNL A   1      38.376  32.751  37.785  1.00  0.00    -0.206 F 
ATOM     52  C   UNL A   1      38.903  34.784  38.835  1.00  0.00     0.040 A 
ATOM     53  C   UNL A   1      40.389  36.342  37.756  1.00  0.00     0.040 A 
ATOM     54  F   UNL A   1      41.297  35.827  35.651  1.00  0.00    -0.206 F 
ATOM     55  C   UNL A   1      39.581  36.001  38.840  1.00  0.00     0.006 A 
ENDBRANCH  27  48
BRANCH  39  56
ATOM     56  C   UNL A   1      43.877  28.736  35.353  1.00  0.00     0.057 A 
ATOM     57  C   UNL A   1      43.553  27.742  36.283  1.00  0.00     0.134 A 
ATOM     58  C   UNL A   1      45.225  29.094  35.223  1.00  0.00     0.134 A 
ATOM     59  F   UNL A   1      42.280  27.358  36.456  1.00  0.00    -0.206 F 
ATOM     60  C   UNL A   1      44.536  27.126  37.061  1.00  0.00     0.040 A 
ATOM     61  C   UNL A   1      46.219  28.473  35.982  1.00  0.00     0.040 A 
ATOM     62  F   UNL A   1      45.598  30.030  34.338  1.00  0.00    -0.206 F 
ATOM     63  C   UNL A   1      45.874  27.490  36.909  1.00  0.00     0.006 A 
ENDBRANCH  39  56
ENDBRANCH  13  14
ENDBRANCH   6   8
ENDBRANCH   3   4
ENDBRANCH   2   3
ENDBRANCH   1   2
BRANCH   1  64
ATOM     64  C   UNL A   1      31.889  29.315  27.166  1.00  0.00     0.002 C 
BRANCH  64  65
ATOM     65  C   UNL A   1      33.127  28.422  27.016  1.00  0.00     0.021 C 
BRANCH  65  66
ATOM     66  C   UNL A   1      33.704  28.346  25.604  1.00  0.00     0.116 C 
BRANCH  66  67
ATOM     67  N   UNL A   1      33.630  27.005  25.056  1.00  0.00    -0.351 N 
ATOM     68  C   UNL A   1      32.636  26.423  24.314  1.00  0.00     0.278 C 
ATOM     69  H   UNL A   1      34.406  26.430  25.245  1.00  0.00     0.163 HD
ATOM     70  O   UNL A   1      32.850  25.306  23.842  1.00  0.00    -0.268 OA
BRANCH  68  71
ATOM     71  C   UNL A   1      31.320  27.191  24.116  1.00  0.00     0.277 C 
ATOM     72  C   UNL A   1      31.427  28.155  22.927  1.00  0.00     0.111 C 
ATOM     73  N   UNL A   1      30.220  26.233  23.865  1.00  0.00    -0.332 N 
ATOM     74  C   UNL A   1      30.106  28.843  22.682  1.00  0.00    -0.029 A 
ATOM     75  C   UNL A   1      28.929  26.926  23.876  1.00  0.00     0.298 C 
ATOM     76  H   UNL A   1      30.223  25.519  24.593  1.00  0.00     0.347 HD
ATOM     77  H   UNL A   1      30.357  25.801  22.951  1.00  0.00     0.347 HD
ATOM     78  C   UNL A   1      30.064  30.067  22.004  1.00  0.00     0.050 A 
ATOM     79  C   UNL A   1      28.911  28.226  23.099  1.00  0.00     0.010 A 
ATOM     80  C   UNL A   1      28.841  30.686  21.772  1.00  0.00     0.115 A 
ATOM     81  C   UNL A   1      27.688  28.869  22.852  1.00  0.00     0.013 A 
ATOM     82  C   UNL A   1      27.653  30.098  22.189  1.00  0.00     0.046 A 
BRANCH  80  83
ATOM     83  O   UNL A   1      28.852  31.887  21.128  1.00  0.00    -0.508 OA
ATOM     84  H   UNL A   1      29.213  32.643  21.549  1.00  0.00     0.293 HD
ENDBRANCH  80  83
ENDBRANCH  68  71
ENDBRANCH  66  67
ENDBRANCH  65  66
ENDBRANCH  64  65
ENDBRANCH   1  64
TORSDOF 14
ENDMDL
MODEL 2
REMARK VINA RESULT:     -11.5      4.419      8.884
REMARK SMILES O=C(NCCCCCCNC(=O)[C@H]1Cc2cc(O)ccc2C[NH2+]1)c1ccc(-c2c3nc(c(-c4c(F)cccc4F)c4ccc([nH]4)c(-c4c(F)cccc4F)c4nc(c(-c5c(F)cccc5F)c5ccc2[nH]5)C=C4)C=C3)cc1
REMARK SMILES IDX 6 1 5 2 4 3 3 4 1 5 2 6 24 8 25 9 77 10 26 11 76 12 27 13
REMARK SMILES IDX 28 14 29 15 70 16 30 17 75 18 69 19 71 20 31 21 74 22 68 23
REMARK SMILES IDX 67 24 32 26 58 27 41 28 57 29 42 30 45 31 56 32 72 33 43 34
REMARK SMILES IDX 44 35 55 37 73 38 46 39 33 40 34 41 39 42 35 43 36 44 38 45
REMARK SMILES IDX 40 46 37 47 59 48 60 49 65 50 61 51 62 52 64 53 66 54 63 55
REMARK SMILES IDX 47 56 48 57 53 58 49 59 50 60 52 61 54 62 51 63 7 64 8 65
REMARK SMILES IDX 9 66 10 67 11 68 12 70 13 71 14 72 23 73 15 74 22 75 16 78
REMARK SMILES IDX 21 79 17 80 20 81 19 82 18 83
REMARK H PARENT 3 7 71 25 45 36 10 69 23 76 23 77 18 84
REMARK Flexibility Score: inf
ROOT
ATOM      1  C   UNL A   1      33.714  27.196  25.096  1.00  0.00     0.002 C 
ENDROOT
BRANCH   1   2
ATOM      2  C   UNL A   1      33.658  28.602  25.703  1.00  0.00     0.021 C 
BRANCH   2   3
ATOM      3  C   UNL A   1      33.794  28.665  27.222  1.00  0.00     0.116 C 
BRANCH   3   4
ATOM      4  N   UNL A   1      33.783  30.027  27.723  1.00  0.00    -0.352 N 
ATOM      5  O   UNL A   1      34.503  31.822  28.874  1.00  0.00    -0.269 OA
ATOM      6  C   UNL A   1      34.760  30.721  28.389  1.00  0.00     0.251 C 
ATOM      7  H   UNL A   1      32.952  30.527  27.561  1.00  0.00     0.163 HD
BRANCH   6   8
ATOM      8  C   UNL A   1      36.121  30.162  28.540  1.00  0.00     0.039 A 
ATOM      9  C   UNL A   1      36.479  29.593  29.766  1.00  0.00     0.014 A 
ATOM     10  C   UNL A   1      37.066  30.264  27.514  1.00  0.00     0.014 A 
ATOM     11  C   UNL A   1      37.775  29.107  29.961  1.00  0.00     0.010 A 
ATOM     12  C   UNL A   1      38.345  29.737  27.692  1.00  0.00     0.010 A 
ATOM     13  C   UNL A   1      38.715  29.174  28.924  1.00  0.00    -0.014 A 
BRANCH  13  14
ATOM     14  C   UNL A   1      40.116  28.731  29.125  1.00  0.00     0.031 A 
ATOM     15  C   UNL A   1      41.123  29.698  29.682  1.00  0.00     0.074 A 
ATOM     16  C   UNL A   1      40.499  27.496  28.755  1.00  0.00     0.049 A 
ATOM     17  N   UNL A   1      42.417  29.560  29.818  1.00  0.00    -0.248 NA
ATOM     18  C   UNL A   1      40.605  31.002  30.123  1.00  0.00     0.031 C 
ATOM     19  C   UNL A   1      39.622  26.472  28.188  1.00  0.00     0.029 A 
ATOM     20  N   UNL A   1      41.735  26.904  28.784  1.00  0.00    -0.354 N 
ATOM     21  C   UNL A   1      42.871  30.767  30.336  1.00  0.00     0.074 A 
ATOM     22  C   UNL A   1      41.719  31.635  30.457  1.00  0.00     0.031 C 
ATOM     23  C   UNL A   1      40.351  25.377  27.914  1.00  0.00     0.029 A 
ATOM     24  C   UNL A   1      41.747  25.636  28.257  1.00  0.00     0.049 A 
ATOM     25  H   UNL A   1      42.537  27.344  29.147  1.00  0.00     0.167 HD
ATOM     26  C   UNL A   1      44.130  31.115  30.693  1.00  0.00     0.037 A 
ATOM     27  C   UNL A   1      42.773  24.789  28.050  1.00  0.00     0.037 A 
ATOM     28  C   UNL A   1      45.268  30.240  30.605  1.00  0.00     0.049 A 
ATOM     29  C   UNL A   1      44.166  25.205  28.428  1.00  0.00     0.074 A 
ATOM     30  C   UNL A   1      46.567  30.466  31.027  1.00  0.00     0.029 A 
ATOM     31  N   UNL A   1      45.242  28.968  30.055  1.00  0.00    -0.354 N 
ATOM     32  N   UNL A   1      44.575  26.330  28.961  1.00  0.00    -0.248 NA
ATOM     33  C   UNL A   1      45.240  24.236  28.165  1.00  0.00     0.031 C 
ATOM     34  C   UNL A   1      47.335  29.344  30.695  1.00  0.00     0.029 A 
ATOM     35  C   UNL A   1      46.508  28.409  30.094  1.00  0.00     0.049 A 
ATOM     36  H   UNL A   1      44.440  28.527  29.690  1.00  0.00     0.167 HD
ATOM     37  C   UNL A   1      45.952  26.208  29.098  1.00  0.00     0.074 A 
ATOM     38  C   UNL A   1      46.305  24.889  28.612  1.00  0.00     0.031 C 
ATOM     39  C   UNL A   1      46.843  27.107  29.580  1.00  0.00     0.037 A 
BRANCH  26  40
ATOM     40  C   UNL A   1      44.332  32.510  31.201  1.00  0.00     0.057 A 
ATOM     41  C   UNL A   1      44.627  33.555  30.316  1.00  0.00     0.134 A 
ATOM     42  C   UNL A   1      44.227  32.823  32.562  1.00  0.00     0.134 A 
ATOM     43  F   UNL A   1      44.743  33.321  29.000  1.00  0.00    -0.206 F 
ATOM     44  C   UNL A   1      44.801  34.864  30.767  1.00  0.00     0.040 A 
ATOM     45  C   UNL A   1      44.377  34.132  33.023  1.00  0.00     0.040 A 
ATOM     46  F   UNL A   1      43.931  31.869  33.458  1.00  0.00    -0.206 F 
ATOM     47  C   UNL A   1      44.666  35.156  32.123  1.00  0.00     0.006 A 
ENDBRANCH  26  40
BRANCH  27  48
ATOM     48  C   UNL A   1      42.519  23.466  27.431  1.00  0.00     0.057 A 
ATOM     49  C   UNL A   1      42.615  23.281  26.046  1.00  0.00     0.134 A 
ATOM     50  C   UNL A   1      42.169  22.360  28.211  1.00  0.00     0.134 A 
ATOM     51  F   UNL A   1      42.946  24.305  25.248  1.00  0.00    -0.206 F 
ATOM     52  C   UNL A   1      42.360  22.042  25.459  1.00  0.00     0.040 A 
ATOM     53  C   UNL A   1      41.927  21.111  27.638  1.00  0.00     0.040 A 
ATOM     54  F   UNL A   1      42.084  22.476  29.544  1.00  0.00    -0.206 F 
ATOM     55  C   UNL A   1      42.017  20.952  26.255  1.00  0.00     0.006 A 
ENDBRANCH  27  48
BRANCH  39  56
ATOM     56  C   UNL A   1      48.285  26.698  29.583  1.00  0.00     0.057 A 
ATOM     57  C   UNL A   1      48.824  25.964  30.646  1.00  0.00     0.134 A 
ATOM     58  C   UNL A   1      49.146  27.060  28.538  1.00  0.00     0.134 A 
ATOM     59  F   UNL A   1      48.052  25.590  31.677  1.00  0.00    -0.206 F 
ATOM     60  C   UNL A   1      50.173  25.606  30.672  1.00  0.00     0.040 A 
ATOM     61  C   UNL A   1      50.492  26.693  28.545  1.00  0.00     0.040 A 
ATOM     62  F   UNL A   1      48.684  27.750  27.485  1.00  0.00    -0.206 F 
ATOM     63  C   UNL A   1      51.010  25.968  29.618  1.00  0.00     0.006 A 
ENDBRANCH  39  56
ENDBRANCH  13  14
ENDBRANCH   6   8
ENDBRANCH   3   4
ENDBRANCH   2   3
ENDBRANCH   1   2
BRANCH   1  64
ATOM     64  C   UNL A   1      32.486  26.777  24.284  1.00  0.00     0.002 C 
BRANCH  64  65
ATOM     65  C   UNL A   1      31.180  26.646  25.076  1.00  0.00     0.021 C 
BRANCH  65  66
ATOM     66  C   UNL A   1      30.313  25.446  24.706  1.00  0.00     0.116 C 
BRANCH  66  67
ATOM     67  N   UNL A   1      29.926  24.672  25.870  1.00  0.00    -0.351 N 
ATOM     68  C   UNL A   1      30.578  23.632  26.478  1.00  0.00     0.278 C 
ATOM     69  H   UNL A   1      29.070  24.931  26.282  1.00  0.00     0.163 HD
ATOM     70  O   UNL A   1      30.120  23.209  27.540  1.00  0.00    -0.268 OA
BRANCH  68  71
ATOM     71  C   UNL A   1      31.832  23.054  25.803  1.00  0.00     0.277 C 
ATOM     72  C   UNL A   1      33.102  23.692  26.381  1.00  0.00     0.111 C 
ATOM     73  N   UNL A   1      31.882  21.591  26.020  1.00  0.00    -0.332 N 
ATOM     74  C   UNL A   1      34.333  23.060  25.778  1.00  0.00    -0.029 A 
ATOM     75  C   UNL A   1      32.954  20.994  25.218  1.00  0.00     0.298 C 
ATOM     76  H   UNL A   1      30.990  21.179  25.747  1.00  0.00     0.347 HD
ATOM     77  H   UNL A   1      32.065  21.407  27.007  1.00  0.00     0.347 HD
ATOM     78  C   UNL A   1      35.549  23.754  25.769  1.00  0.00     0.050 A 
ATOM     79  C   UNL A   1      34.265  21.751  25.264  1.00  0.00     0.010 A 
ATOM     80  C   UNL A   1      36.680  23.159  25.223  1.00  0.00     0.115 A 
ATOM     81  C   UNL A   1      35.421  21.170  24.720  1.00  0.00     0.013 A 
ATOM     82  C   UNL A   1      36.627  21.872  24.699  1.00  0.00     0.046 A 
BRANCH  80  83
ATOM     83  O   UNL A   1      37.835  23.882  25.217  1.00  0.00    -0.508 OA
ATOM     84  H   UNL A   1      38.325  23.991  26.008  1.00  0.00     0.293 HD
ENDBRANCH  80  83
ENDBRANCH  68  71
ENDBRANCH  66  67
ENDBRANCH  65  66
ENDBRANCH  64  65
ENDBRANCH   1  64
TORSDOF 14
ENDMDL
MODEL 3
REMARK VINA RESULT:     -11.5      6.172     11.801
REMARK SMILES O=C(NCCCCCCNC(=O)[C@H]1Cc2cc(O)ccc2C[NH2+]1)c1ccc(-c2c3nc(c(-c4c(F)cccc4F)c4ccc([nH]4)c(-c4c(F)cccc4F)c4nc(c(-c5c(F)cccc5F)c5ccc2[nH]5)C=C4)C=C3)cc1
REMARK SMILES IDX 6 1 5 2 4 3 3 4 1 5 2 6 24 8 25 9 77 10 26 11 76 12 27 13
REMARK SMILES IDX 28 14 29 15 70 16 30 17 75 18 69 19 71 20 31 21 74 22 68 23
REMARK SMILES IDX 67 24 32 26 58 27 41 28 57 29 42 30 45 31 56 32 72 33 43 34
REMARK SMILES IDX 44 35 55 37 73 38 46 39 33 40 34 41 39 42 35 43 36 44 38 45
REMARK SMILES IDX 40 46 37 47 59 48 60 49 65 50 61 51 62 52 64 53 66 54 63 55
REMARK SMILES IDX 47 56 48 57 53 58 49 59 50 60 52 61 54 62 51 63 7 64 8 65
REMARK SMILES IDX 9 66 10 67 11 68 12 70 13 71 14 72 23 73 15 74 22 75 16 78
REMARK SMILES IDX 21 79 17 80 20 81 19 82 18 83
REMARK H PARENT 3 7 71 25 45 36 10 69 23 76 23 77 18 84
REMARK Flexibility Score: inf
ROOT
ATOM      1  C   UNL A   1      45.979  19.772  24.645  1.00  0.00     0.002 C 
ENDROOT
BRANCH   1   2
ATOM      2  C   UNL A   1      44.710  18.919  24.551  1.00  0.00     0.021 C 
BRANCH   2   3
ATOM      3  C   UNL A   1      43.934  18.756  25.855  1.00  0.00     0.116 C 
BRANCH   3   4
ATOM      4  N   UNL A   1      42.498  18.723  25.645  1.00  0.00    -0.352 N 
ATOM      5  O   UNL A   1      40.352  19.364  25.863  1.00  0.00    -0.269 OA
ATOM      6  C   UNL A   1      41.543  19.645  25.985  1.00  0.00     0.251 C 
ATOM      7  H   UNL A   1      42.159  17.918  25.191  1.00  0.00     0.163 HD
BRANCH   6   8
ATOM      8  C   UNL A   1      41.924  20.977  26.505  1.00  0.00     0.039 A 
ATOM      9  C   UNL A   1      41.890  21.192  27.886  1.00  0.00     0.014 A 
ATOM     10  C   UNL A   1      42.237  22.031  25.641  1.00  0.00     0.014 A 
ATOM     11  C   UNL A   1      42.189  22.454  28.406  1.00  0.00     0.010 A 
ATOM     12  C   UNL A   1      42.581  23.278  26.162  1.00  0.00     0.010 A 
ATOM     13  C   UNL A   1      42.539  23.504  27.548  1.00  0.00    -0.014 A 
BRANCH  13  14
ATOM     14  C   UNL A   1      42.791  24.870  28.066  1.00  0.00     0.031 A 
ATOM     15  C   UNL A   1      44.175  25.248  28.515  1.00  0.00     0.074 A 
ATOM     16  C   UNL A   1      41.779  25.747  28.192  1.00  0.00     0.049 A 
ATOM     17  N   UNL A   1      44.585  26.336  29.114  1.00  0.00    -0.248 NA
ATOM     18  C   UNL A   1      45.233  24.253  28.278  1.00  0.00     0.031 C 
ATOM     19  C   UNL A   1      40.390  25.498  27.808  1.00  0.00     0.029 A 
ATOM     20  N   UNL A   1      41.765  27.021  28.701  1.00  0.00    -0.354 N 
ATOM     21  C   UNL A   1      45.942  26.148  29.347  1.00  0.00     0.074 A 
ATOM     22  C   UNL A   1      46.277  24.828  28.857  1.00  0.00     0.031 C 
ATOM     23  C   UNL A   1      39.655  26.584  28.102  1.00  0.00     0.029 A 
ATOM     24  C   UNL A   1      40.515  27.587  28.723  1.00  0.00     0.049 A 
ATOM     25  H   UNL A   1      42.573  27.484  29.020  1.00  0.00     0.167 HD
ATOM     26  C   UNL A   1      46.831  27.003  29.906  1.00  0.00     0.037 A 
ATOM     27  C   UNL A   1      40.106  28.773  29.213  1.00  0.00     0.037 A 
ATOM     28  C   UNL A   1      46.505  28.328  30.360  1.00  0.00     0.049 A 
ATOM     29  C   UNL A   1      41.103  29.696  29.853  1.00  0.00     0.074 A 
ATOM     30  C   UNL A   1      47.352  29.305  30.856  1.00  0.00     0.029 A 
ATOM     31  N   UNL A   1      45.226  28.861  30.377  1.00  0.00    -0.354 N 
ATOM     32  N   UNL A   1      42.392  29.527  30.024  1.00  0.00    -0.248 NA
ATOM     33  C   UNL A   1      40.587  30.969  30.376  1.00  0.00     0.031 C 
ATOM     34  C   UNL A   1      46.577  30.416  31.208  1.00  0.00     0.029 A 
ATOM     35  C   UNL A   1      45.253  30.140  30.906  1.00  0.00     0.049 A 
ATOM     36  H   UNL A   1      44.417  28.398  30.060  1.00  0.00     0.167 HD
ATOM     37  C   UNL A   1      42.842  30.669  30.675  1.00  0.00     0.074 A 
ATOM     38  C   UNL A   1      41.691  31.533  30.847  1.00  0.00     0.031 C 
ATOM     39  C   UNL A   1      44.093  30.973  31.094  1.00  0.00     0.037 A 
BRANCH  26  40
ATOM     40  C   UNL A   1      48.240  26.516  30.059  1.00  0.00     0.057 A 
ATOM     41  C   UNL A   1      48.617  25.770  31.183  1.00  0.00     0.134 A 
ATOM     42  C   UNL A   1      49.220  26.775  29.094  1.00  0.00     0.134 A 
ATOM     43  F   UNL A   1      47.725  25.488  32.145  1.00  0.00    -0.206 F 
ATOM     44  C   UNL A   1      49.919  25.291  31.336  1.00  0.00     0.040 A 
ATOM     45  C   UNL A   1      50.520  26.282  29.225  1.00  0.00     0.040 A 
ATOM     46  F   UNL A   1      48.918  27.470  27.987  1.00  0.00    -0.206 F 
ATOM     47  C   UNL A   1      50.872  25.539  30.350  1.00  0.00     0.006 A 
ENDBRANCH  26  40
BRANCH  27  48
ATOM     48  C   UNL A   1      38.673  29.144  29.136  1.00  0.00     0.057 A 
ATOM     49  C   UNL A   1      37.834  29.039  30.252  1.00  0.00     0.134 A 
ATOM     50  C   UNL A   1      38.110  29.604  27.942  1.00  0.00     0.134 A 
ATOM     51  F   UNL A   1      38.317  28.603  31.424  1.00  0.00    -0.206 F 
ATOM     52  C   UNL A   1      36.480  29.370  30.179  1.00  0.00     0.040 A 
ATOM     53  C   UNL A   1      36.762  29.955  27.859  1.00  0.00     0.040 A 
ATOM     54  F   UNL A   1      38.872  29.744  26.848  1.00  0.00    -0.206 F 
ATOM     55  C   UNL A   1      35.941  29.832  28.980  1.00  0.00     0.006 A 
ENDBRANCH  27  48
BRANCH  39  56
ATOM     56  C   UNL A   1      44.274  32.285  31.796  1.00  0.00     0.057 A 
ATOM     57  C   UNL A   1      44.278  32.360  33.193  1.00  0.00     0.134 A 
ATOM     58  C   UNL A   1      44.417  33.480  31.078  1.00  0.00     0.134 A 
ATOM     59  F   UNL A   1      44.142  31.252  33.936  1.00  0.00    -0.206 F 
ATOM     60  C   UNL A   1      44.414  33.582  33.855  1.00  0.00     0.040 A 
ATOM     61  C   UNL A   1      44.572  34.705  31.728  1.00  0.00     0.040 A 
ATOM     62  F   UNL A   1      44.437  33.469  29.737  1.00  0.00    -0.206 F 
ATOM     63  C   UNL A   1      44.565  34.758  33.121  1.00  0.00     0.006 A 
ENDBRANCH  39  56
ENDBRANCH  13  14
ENDBRANCH   6   8
ENDBRANCH   3   4
ENDBRANCH   2   3
ENDBRANCH   1   2
BRANCH   1  64
ATOM     64  C   UNL A   1      45.809  21.145  25.299  1.00  0.00     0.002 C 
BRANCH  64  65
ATOM     65  C   UNL A   1      45.776  22.338  24.336  1.00  0.00     0.021 C 
BRANCH  65  66
ATOM     66  C   UNL A   1      45.978  23.704  24.988  1.00  0.00     0.116 C 
BRANCH  66  67
ATOM     67  N   UNL A   1      47.174  24.367  24.506  1.00  0.00    -0.351 N 
ATOM     68  C   UNL A   1      47.622  25.639  24.751  1.00  0.00     0.278 C 
ATOM     69  H   UNL A   1      47.747  23.825  23.917  1.00  0.00     0.163 HD
ATOM     70  O   UNL A   1      48.741  25.944  24.336  1.00  0.00    -0.268 OA
BRANCH  68  71
ATOM     71  C   UNL A   1      46.708  26.605  25.520  1.00  0.00     0.277 C 
ATOM     72  C   UNL A   1      47.330  28.006  25.582  1.00  0.00     0.111 C 
ATOM     73  N   UNL A   1      45.393  26.687  24.846  1.00  0.00    -0.332 N 
ATOM     74  C   UNL A   1      46.390  28.973  26.262  1.00  0.00    -0.029 A 
ATOM     75  C   UNL A   1      44.444  27.440  25.671  1.00  0.00     0.298 C 
ATOM     76  H   UNL A   1      45.032  25.745  24.696  1.00  0.00     0.347 HD
ATOM     77  H   UNL A   1      45.507  27.164  23.952  1.00  0.00     0.347 HD
ATOM     78  C   UNL A   1      46.887  30.140  26.854  1.00  0.00     0.050 A 
ATOM     79  C   UNL A   1      45.005  28.717  26.261  1.00  0.00     0.010 A 
ATOM     80  C   UNL A   1      46.012  31.030  27.467  1.00  0.00     0.115 A 
ATOM     81  C   UNL A   1      44.142  29.631  26.884  1.00  0.00     0.013 A 
ATOM     82  C   UNL A   1      44.644  30.787  27.486  1.00  0.00     0.046 A 
BRANCH  80  83
ATOM     83  O   UNL A   1      46.545  32.142  28.048  1.00  0.00    -0.508 OA
ATOM     84  H   UNL A   1      46.874  32.102  28.924  1.00  0.00     0.293 HD
ENDBRANCH  80  83
ENDBRANCH  68  71
ENDBRANCH  66  67
ENDBRANCH  65  66
ENDBRANCH  64  65
ENDBRANCH   1  64
TORSDOF 14
ENDMDL
