MODEL 1
REMARK VINA RESULT:     -11.4      0.000      0.000
REMARK SMILES Cc1nc(-c2ccc(C(F)(F)F)cc2)nc(SCC(=O)NCCCCCCNC(=O)c2ccc(-c3c4nc(c(-c5c(F)cccc5F)c5ccc([nH]5)c(-c5c(F)cccc5F)c5nc(c(-c6c(F)cccc6F)c6ccc3[nH]6)C=C5)C=C4)cc2)c1C
REMARK SMILES IDX 23 1 22 2 21 3 19 4 20 5 18 7 17 8 16 9 1 10 2 11 3 12 85 13
REMARK SMILES IDX 4 14 86 15 15 16 5 17 6 18 14 19 7 20 13 21 8 22 9 23 10 24
REMARK SMILES IDX 11 25 12 26 24 27 25 28 26 29 27 30 28 31 29 32 30 34 31 35
REMARK SMILES IDX 32 36 84 37 33 38 83 39 34 40 35 41 36 42 77 43 37 44 82 45
REMARK SMILES IDX 76 46 78 47 38 48 81 49 75 50 74 51 39 53 65 54 48 55 64 56
REMARK SMILES IDX 49 57 52 58 63 59 79 60 50 61 51 62 62 64 80 65 53 66 40 67
REMARK SMILES IDX 41 68 46 69 42 70 43 71 45 72 47 73 44 74 66 75 67 76 72 77
REMARK SMILES IDX 68 78 69 79 71 80 73 81 70 82 54 83 55 84 60 85 56 86 57 87
REMARK SMILES IDX 59 88 61 89 58 90
REMARK H PARENT 21 6 28 33 78 52 52 63
REMARK Flexibility Score: inf
ROOT
ATOM      1  C   UNL A   1      34.079  25.588  25.587  1.00  0.00     0.021 C 
ENDROOT
BRANCH   1   2
ATOM      2  C   UNL A   1      33.162  26.774  25.878  1.00  0.00     0.116 C 
BRANCH   2   3
ATOM      3  N   UNL A   1      33.900  27.911  26.387  1.00  0.00    -0.355 N 
ATOM      4  C   UNL A   1      33.452  29.083  26.904  1.00  0.00     0.230 C 
ATOM      5  O   UNL A   1      34.295  29.821  27.426  1.00  0.00    -0.274 OA
ATOM      6  H   UNL A   1      34.879  27.818  26.352  1.00  0.00     0.163 HD
BRANCH   4   7
ATOM      7  C   UNL A   1      31.981  29.436  26.967  1.00  0.00     0.176 C 
BRANCH   7   8
ATOM      8  S   UNL A   1      31.390  30.723  25.839  1.00  0.00    -0.096 SA
BRANCH   8   9
ATOM      9  C   UNL A   1      30.544  30.068  24.416  1.00  0.00     0.104 A 
ATOM     10  C   UNL A   1      28.129  30.188  21.505  1.00  0.00     0.067 C 
ATOM     11  C   UNL A   1      29.161  29.777  22.520  1.00  0.00     0.045 A 
ATOM     12  N   UNL A   1      29.727  28.587  22.257  1.00  0.00    -0.233 NA
ATOM     13  C   UNL A   1      29.528  30.579  23.611  1.00  0.00     0.003 A 
ATOM     14  C   UNL A   1      30.654  28.153  23.111  1.00  0.00     0.160 A 
ATOM     15  C   UNL A   1      28.875  31.910  23.782  1.00  0.00     0.049 C 
ATOM     16  N   UNL A   1      31.076  28.840  24.176  1.00  0.00    -0.221 NA
BRANCH  14  17
ATOM     17  C   UNL A   1      31.242  26.839  22.839  1.00  0.00     0.019 A 
ATOM     18  C   UNL A   1      30.673  25.677  23.386  1.00  0.00     0.012 A 
ATOM     19  C   UNL A   1      32.409  26.701  22.069  1.00  0.00     0.012 A 
ATOM     20  C   UNL A   1      31.255  24.421  23.188  1.00  0.00     0.014 A 
ATOM     21  C   UNL A   1      33.006  25.447  21.884  1.00  0.00     0.014 A 
ATOM     22  C   UNL A   1      32.438  24.296  22.448  1.00  0.00     0.056 A 
BRANCH  22  23
ATOM     23  C   UNL A   1      33.075  22.938  22.281  1.00  0.00     0.416 C 
ATOM     24  F   UNL A   1      34.339  22.889  22.787  1.00  0.00    -0.166 F 
ATOM     25  F   UNL A   1      32.381  21.955  22.919  1.00  0.00    -0.166 F 
ATOM     26  F   UNL A   1      33.180  22.538  20.982  1.00  0.00    -0.166 F 
ENDBRANCH  22  23
ENDBRANCH  14  17
ENDBRANCH   8   9
ENDBRANCH   7   8
ENDBRANCH   4   7
ENDBRANCH   2   3
ENDBRANCH   1   2
BRANCH   1  27
ATOM     27  C   UNL A   1      33.531  24.225  26.031  1.00  0.00     0.002 C 
BRANCH  27  28
ATOM     28  C   UNL A   1      34.528  23.303  26.743  1.00  0.00     0.002 C 
BRANCH  28  29
ATOM     29  C   UNL A   1      35.528  22.591  25.832  1.00  0.00     0.021 C 
BRANCH  29  30
ATOM     30  C   UNL A   1      36.881  23.279  25.707  1.00  0.00     0.116 C 
BRANCH  30  31
ATOM     31  N   UNL A   1      37.987  22.374  25.973  1.00  0.00    -0.352 N 
ATOM     32  C   UNL A   1      39.255  22.661  26.420  1.00  0.00     0.251 C 
ATOM     33  H   UNL A   1      37.802  21.421  25.811  1.00  0.00     0.163 HD
ATOM     34  O   UNL A   1      40.122  21.800  26.426  1.00  0.00    -0.269 OA
BRANCH  32  35
ATOM     35  C   UNL A   1      39.573  24.034  26.872  1.00  0.00     0.039 A 
ATOM     36  C   UNL A   1      39.363  24.368  28.212  1.00  0.00     0.014 A 
ATOM     37  C   UNL A   1      40.082  24.982  25.980  1.00  0.00     0.014 A 
ATOM     38  C   UNL A   1      39.723  25.637  28.670  1.00  0.00     0.010 A 
ATOM     39  C   UNL A   1      40.510  26.219  26.454  1.00  0.00     0.010 A 
ATOM     40  C   UNL A   1      40.328  26.560  27.803  1.00  0.00    -0.014 A 
BRANCH  40  41
ATOM     41  C   UNL A   1      40.764  27.893  28.289  1.00  0.00     0.031 A 
ATOM     42  C   UNL A   1      42.225  28.242  28.321  1.00  0.00     0.074 A 
ATOM     43  C   UNL A   1      39.848  28.775  28.734  1.00  0.00     0.049 A 
ATOM     44  N   UNL A   1      42.803  29.341  28.734  1.00  0.00    -0.248 NA
ATOM     45  C   UNL A   1      43.165  27.213  27.845  1.00  0.00     0.031 C 
ATOM     46  C   UNL A   1      38.404  28.540  28.786  1.00  0.00     0.029 A 
ATOM     47  N   UNL A   1      39.995  30.049  29.225  1.00  0.00    -0.354 N 
ATOM     48  C   UNL A   1      44.166  29.135  28.569  1.00  0.00     0.074 A 
ATOM     49  C   UNL A   1      44.336  27.786  28.077  1.00  0.00     0.031 C 
ATOM     50  C   UNL A   1      37.796  29.645  29.247  1.00  0.00     0.029 A 
ATOM     51  C   UNL A   1      38.807  30.652  29.557  1.00  0.00     0.049 A 
ATOM     52  H   UNL A   1      40.870  30.488  29.329  1.00  0.00     0.167 HD
ATOM     53  C   UNL A   1      45.182  30.005  28.776  1.00  0.00     0.037 A 
ATOM     54  C   UNL A   1      38.560  31.879  30.055  1.00  0.00     0.037 A 
ATOM     55  C   UNL A   1      45.010  31.354  29.246  1.00  0.00     0.049 A 
ATOM     56  C   UNL A   1      39.709  32.815  30.308  1.00  0.00     0.074 A 
ATOM     57  C   UNL A   1      45.975  32.324  29.445  1.00  0.00     0.029 A 
ATOM     58  N   UNL A   1      43.792  31.920  29.588  1.00  0.00    -0.354 N 
ATOM     59  N   UNL A   1      40.989  32.627  30.094  1.00  0.00    -0.248 NA
ATOM     60  C   UNL A   1      39.383  34.132  30.874  1.00  0.00     0.031 C 
ATOM     61  C   UNL A   1      45.346  33.465  29.951  1.00  0.00     0.029 A 
ATOM     62  C   UNL A   1      43.984  33.222  30.021  1.00  0.00     0.049 A 
ATOM     63  H   UNL A   1      42.921  31.466  29.531  1.00  0.00     0.167 HD
ATOM     64  C   UNL A   1      41.616  33.806  30.475  1.00  0.00     0.074 A 
ATOM     65  C   UNL A   1      40.576  34.708  30.920  1.00  0.00     0.031 C 
ATOM     66  C   UNL A   1      42.937  34.110  30.458  1.00  0.00     0.037 A 
BRANCH  53  67
ATOM     67  C   UNL A   1      46.574  29.531  28.478  1.00  0.00     0.057 A 
ATOM     68  C   UNL A   1      47.150  29.696  27.211  1.00  0.00     0.134 A 
ATOM     69  C   UNL A   1      47.368  28.956  29.478  1.00  0.00     0.134 A 
ATOM     70  F   UNL A   1      46.439  30.230  26.206  1.00  0.00    -0.206 F 
ATOM     71  C   UNL A   1      48.458  29.291  26.944  1.00  0.00     0.040 A 
ATOM     72  C   UNL A   1      48.686  28.571  29.231  1.00  0.00     0.040 A 
ATOM     73  F   UNL A   1      46.881  28.774  30.715  1.00  0.00    -0.206 F 
ATOM     74  C   UNL A   1      49.234  28.735  27.960  1.00  0.00     0.006 A 
ENDBRANCH  53  67
BRANCH  54  75
ATOM     75  C   UNL A   1      37.160  32.306  30.309  1.00  0.00     0.057 A 
ATOM     76  C   UNL A   1      36.427  32.985  29.328  1.00  0.00     0.134 A 
ATOM     77  C   UNL A   1      36.518  32.036  31.523  1.00  0.00     0.134 A 
ATOM     78  F   UNL A   1      36.994  33.288  28.152  1.00  0.00    -0.206 F 
ATOM     79  C   UNL A   1      35.109  33.387  29.548  1.00  0.00     0.040 A 
ATOM     80  C   UNL A   1      35.192  32.411  31.748  1.00  0.00     0.040 A 
ATOM     81  F   UNL A   1      37.163  31.383  32.501  1.00  0.00    -0.206 F 
ATOM     82  C   UNL A   1      34.485  33.094  30.759  1.00  0.00     0.006 A 
ENDBRANCH  54  75
BRANCH  66  83
ATOM     83  C   UNL A   1      43.342  35.478  30.921  1.00  0.00     0.057 A 
ATOM     84  C   UNL A   1      43.636  35.741  32.265  1.00  0.00     0.134 A 
ATOM     85  C   UNL A   1      43.523  36.520  30.003  1.00  0.00     0.134 A 
ATOM     86  F   UNL A   1      43.473  34.789  33.195  1.00  0.00    -0.206 F 
ATOM     87  C   UNL A   1      44.088  36.995  32.679  1.00  0.00     0.040 A 
ATOM     88  C   UNL A   1      43.998  37.770  30.401  1.00  0.00     0.040 A 
ATOM     89  F   UNL A   1      43.268  36.330  28.699  1.00  0.00    -0.206 F 
ATOM     90  C   UNL A   1      44.280  38.010  31.744  1.00  0.00     0.006 A 
ENDBRANCH  66  83
ENDBRANCH  40  41
ENDBRANCH  32  35
ENDBRANCH  30  31
ENDBRANCH  29  30
ENDBRANCH  28  29
ENDBRANCH  27  28
ENDBRANCH   1  27
TORSDOF 17
ENDMDL
MODEL 2
REMARK VINA RESULT:     -11.2      0.454      6.148
REMARK SMILES Cc1nc(-c2ccc(C(F)(F)F)cc2)nc(SCC(=O)NCCCCCCNC(=O)c2ccc(-c3c4nc(c(-c5c(F)cccc5F)c5ccc([nH]5)c(-c5c(F)cccc5F)c5nc(c(-c6c(F)cccc6F)c6ccc3[nH]6)C=C5)C=C4)cc2)c1C
REMARK SMILES IDX 23 1 22 2 21 3 19 4 20 5 18 7 17 8 16 9 1 10 2 11 3 12 85 13
REMARK SMILES IDX 4 14 86 15 15 16 5 17 6 18 14 19 7 20 13 21 8 22 9 23 10 24
REMARK SMILES IDX 11 25 12 26 24 27 25 28 26 29 27 30 28 31 29 32 30 34 31 35
REMARK SMILES IDX 32 36 84 37 33 38 83 39 34 40 35 41 36 42 77 43 37 44 82 45
REMARK SMILES IDX 76 46 78 47 38 48 81 49 75 50 74 51 39 53 65 54 48 55 64 56
REMARK SMILES IDX 49 57 52 58 63 59 79 60 50 61 51 62 62 64 80 65 53 66 40 67
REMARK SMILES IDX 41 68 46 69 42 70 43 71 45 72 47 73 44 74 66 75 67 76 72 77
REMARK SMILES IDX 68 78 69 79 71 80 73 81 70 82 54 83 55 84 60 85 56 86 57 87
REMARK SMILES IDX 59 88 61 89 58 90
REMARK H PARENT 21 6 28 33 78 52 52 63
REMARK Flexibility Score: inf
ROOT
ATOM      1  C   UNL A   1      33.947  25.121  25.727  1.00  0.00     0.021 C 
ENDROOT
BRANCH   1   2
ATOM      2  C   UNL A   1      33.158  26.402  25.991  1.00  0.00     0.116 C 
BRANCH   2   3
ATOM      3  N   UNL A   1      34.026  27.504  26.348  1.00  0.00    -0.355 N 
ATOM      4  C   UNL A   1      33.720  28.746  26.803  1.00  0.00     0.230 C 
ATOM      5  O   UNL A   1      34.662  29.443  27.195  1.00  0.00    -0.274 OA
ATOM      6  H   UNL A   1      34.988  27.324  26.243  1.00  0.00     0.163 HD
BRANCH   4   7
ATOM      7  C   UNL A   1      32.294  29.229  26.954  1.00  0.00     0.176 C 
BRANCH   7   8
ATOM      8  S   UNL A   1      31.705  30.454  25.757  1.00  0.00    -0.096 SA
BRANCH   8   9
ATOM      9  C   UNL A   1      30.681  29.747  24.483  1.00  0.00     0.104 A 
ATOM     10  C   UNL A   1      28.048  29.817  21.767  1.00  0.00     0.067 C 
ATOM     11  C   UNL A   1      29.119  29.409  22.740  1.00  0.00     0.045 A 
ATOM     12  N   UNL A   1      29.545  28.145  22.569  1.00  0.00    -0.233 NA
ATOM     13  C   UNL A   1      29.653  30.276  23.706  1.00  0.00     0.003 A 
ATOM     14  C   UNL A   1      30.496  27.708  23.394  1.00  0.00     0.160 A 
ATOM     15  C   UNL A   1      29.147  31.677  23.776  1.00  0.00     0.049 C 
ATOM     16  N   UNL A   1      31.071  28.453  24.341  1.00  0.00    -0.221 NA
BRANCH  14  17
ATOM     17  C   UNL A   1      30.931  26.319  23.225  1.00  0.00     0.019 A 
ATOM     18  C   UNL A   1      30.281  25.281  23.912  1.00  0.00     0.012 A 
ATOM     19  C   UNL A   1      32.031  25.986  22.416  1.00  0.00     0.012 A 
ATOM     20  C   UNL A   1      30.720  23.957  23.813  1.00  0.00     0.014 A 
ATOM     21  C   UNL A   1      32.486  24.664  22.328  1.00  0.00     0.014 A 
ATOM     22  C   UNL A   1      31.839  23.637  23.031  1.00  0.00     0.056 A 
BRANCH  22  23
ATOM     23  C   UNL A   1      32.324  22.210  22.969  1.00  0.00     0.416 C 
ATOM     24  F   UNL A   1      31.743  21.505  21.959  1.00  0.00    -0.166 F 
ATOM     25  F   UNL A   1      33.667  22.125  22.756  1.00  0.00    -0.166 F 
ATOM     26  F   UNL A   1      32.081  21.498  24.105  1.00  0.00    -0.166 F 
ENDBRANCH  22  23
ENDBRANCH  14  17
ENDBRANCH   8   9
ENDBRANCH   7   8
ENDBRANCH   4   7
ENDBRANCH   2   3
ENDBRANCH   1   2
BRANCH   1  27
ATOM     27  C   UNL A   1      33.403  23.871  26.432  1.00  0.00     0.002 C 
BRANCH  27  28
ATOM     28  C   UNL A   1      34.299  22.628  26.375  1.00  0.00     0.002 C 
BRANCH  28  29
ATOM     29  C   UNL A   1      35.453  22.698  25.375  1.00  0.00     0.021 C 
BRANCH  29  30
ATOM     30  C   UNL A   1      36.706  23.392  25.892  1.00  0.00     0.116 C 
BRANCH  30  31
ATOM     31  N   UNL A   1      37.799  22.461  26.122  1.00  0.00    -0.352 N 
ATOM     32  C   UNL A   1      39.092  22.718  26.512  1.00  0.00     0.251 C 
ATOM     33  H   UNL A   1      37.582  21.511  25.979  1.00  0.00     0.163 HD
ATOM     34  O   UNL A   1      39.935  21.834  26.492  1.00  0.00    -0.269 OA
BRANCH  32  35
ATOM     35  C   UNL A   1      39.464  24.087  26.934  1.00  0.00     0.039 A 
ATOM     36  C   UNL A   1      39.295  24.449  28.272  1.00  0.00     0.014 A 
ATOM     37  C   UNL A   1      39.985  25.003  26.016  1.00  0.00     0.014 A 
ATOM     38  C   UNL A   1      39.706  25.712  28.702  1.00  0.00     0.010 A 
ATOM     39  C   UNL A   1      40.464  26.232  26.460  1.00  0.00     0.010 A 
ATOM     40  C   UNL A   1      40.323  26.600  27.806  1.00  0.00    -0.014 A 
BRANCH  40  41
ATOM     41  C   UNL A   1      40.813  27.925  28.261  1.00  0.00     0.031 A 
ATOM     42  C   UNL A   1      39.839  28.969  28.730  1.00  0.00     0.074 A 
ATOM     43  C   UNL A   1      42.132  28.201  28.219  1.00  0.00     0.049 A 
ATOM     44  N   UNL A   1      40.069  30.190  29.140  1.00  0.00    -0.248 NA
ATOM     45  C   UNL A   1      38.414  28.599  28.719  1.00  0.00     0.031 C 
ATOM     46  C   UNL A   1      43.172  27.285  27.751  1.00  0.00     0.029 A 
ATOM     47  N   UNL A   1      42.822  29.333  28.578  1.00  0.00    -0.354 N 
ATOM     48  C   UNL A   1      38.825  30.731  29.432  1.00  0.00     0.074 A 
ATOM     49  C   UNL A   1      37.837  29.731  29.095  1.00  0.00     0.031 C 
ATOM     50  C   UNL A   1      44.370  27.876  27.885  1.00  0.00     0.029 A 
ATOM     51  C   UNL A   1      44.181  29.224  28.412  1.00  0.00     0.049 A 
ATOM     52  H   UNL A   1      42.384  30.145  28.921  1.00  0.00     0.167 HD
ATOM     53  C   UNL A   1      38.534  31.941  29.965  1.00  0.00     0.037 A 
ATOM     54  C   UNL A   1      45.164  30.112  28.660  1.00  0.00     0.037 A 
ATOM     55  C   UNL A   1      39.520  32.927  30.319  1.00  0.00     0.049 A 
ATOM     56  C   UNL A   1      44.812  31.461  29.220  1.00  0.00     0.074 A 
ATOM     57  C   UNL A   1      39.326  34.164  30.905  1.00  0.00     0.029 A 
ATOM     58  N   UNL A   1      40.885  32.785  30.119  1.00  0.00    -0.354 N 
ATOM     59  N   UNL A   1      43.635  31.939  29.546  1.00  0.00    -0.248 NA
ATOM     60  C   UNL A   1      45.923  32.397  29.448  1.00  0.00     0.031 C 
ATOM     61  C   UNL A   1      40.569  34.791  31.019  1.00  0.00     0.029 A 
ATOM     62  C   UNL A   1      41.543  33.925  30.550  1.00  0.00     0.049 A 
ATOM     63  H   UNL A   1      41.320  31.993  29.730  1.00  0.00     0.167 HD
ATOM     64  C   UNL A   1      43.865  33.218  30.037  1.00  0.00     0.074 A 
ATOM     65  C   UNL A   1      45.295  33.437  29.980  1.00  0.00     0.031 C 
ATOM     66  C   UNL A   1      42.969  34.128  30.490  1.00  0.00     0.037 A 
BRANCH  53  67
ATOM     67  C   UNL A   1      37.090  32.260  30.218  1.00  0.00     0.057 A 
ATOM     68  C   UNL A   1      36.485  31.991  31.454  1.00  0.00     0.134 A 
ATOM     69  C   UNL A   1      36.311  32.892  29.241  1.00  0.00     0.134 A 
ATOM     70  F   UNL A   1      37.172  31.378  32.428  1.00  0.00    -0.206 F 
ATOM     71  C   UNL A   1      35.153  32.325  31.702  1.00  0.00     0.040 A 
ATOM     72  C   UNL A   1      34.986  33.253  29.486  1.00  0.00     0.040 A 
ATOM     73  F   UNL A   1      36.831  33.182  28.038  1.00  0.00    -0.206 F 
ATOM     74  C   UNL A   1      34.402  32.967  30.719  1.00  0.00     0.006 A 
ENDBRANCH  53  67
BRANCH  54  75
ATOM     75  C   UNL A   1      46.579  29.734  28.414  1.00  0.00     0.057 A 
ATOM     76  C   UNL A   1      47.361  29.174  29.432  1.00  0.00     0.134 A 
ATOM     77  C   UNL A   1      47.180  29.908  27.162  1.00  0.00     0.134 A 
ATOM     78  F   UNL A   1      46.846  28.999  30.658  1.00  0.00    -0.206 F 
ATOM     79  C   UNL A   1      48.689  28.808  29.216  1.00  0.00     0.040 A 
ATOM     80  C   UNL A   1      48.501  29.524  26.925  1.00  0.00     0.040 A 
ATOM     81  F   UNL A   1      46.484  30.434  26.143  1.00  0.00    -0.206 F 
ATOM     82  C   UNL A   1      49.262  28.976  27.957  1.00  0.00     0.006 A 
ENDBRANCH  54  75
BRANCH  66  83
ATOM     83  C   UNL A   1      43.499  35.444  30.977  1.00  0.00     0.057 A 
ATOM     84  C   UNL A   1      43.561  36.565  30.140  1.00  0.00     0.134 A 
ATOM     85  C   UNL A   1      43.870  35.614  32.317  1.00  0.00     0.134 A 
ATOM     86  F   UNL A   1      43.230  36.465  28.845  1.00  0.00    -0.206 F 
ATOM     87  C   UNL A   1      43.982  37.807  30.618  1.00  0.00     0.040 A 
ATOM     88  C   UNL A   1      44.268  36.856  32.812  1.00  0.00     0.040 A 
ATOM     89  F   UNL A   1      43.823  34.581  33.173  1.00  0.00    -0.206 F 
ATOM     90  C   UNL A   1      44.326  37.957  31.960  1.00  0.00     0.006 A 
ENDBRANCH  66  83
ENDBRANCH  40  41
ENDBRANCH  32  35
ENDBRANCH  30  31
ENDBRANCH  29  30
ENDBRANCH  28  29
ENDBRANCH  27  28
ENDBRANCH   1  27
TORSDOF 17
ENDMDL
MODEL 3
REMARK VINA RESULT:     -11.1      4.788      9.375
REMARK SMILES Cc1nc(-c2ccc(C(F)(F)F)cc2)nc(SCC(=O)NCCCCCCNC(=O)c2ccc(-c3c4nc(c(-c5c(F)cccc5F)c5ccc([nH]5)c(-c5c(F)cccc5F)c5nc(c(-c6c(F)cccc6F)c6ccc3[nH]6)C=C5)C=C4)cc2)c1C
REMARK SMILES IDX 23 1 22 2 21 3 19 4 20 5 18 7 17 8 16 9 1 10 2 11 3 12 85 13
REMARK SMILES IDX 4 14 86 15 15 16 5 17 6 18 14 19 7 20 13 21 8 22 9 23 10 24
REMARK SMILES IDX 11 25 12 26 24 27 25 28 26 29 27 30 28 31 29 32 30 34 31 35
REMARK SMILES IDX 32 36 84 37 33 38 83 39 34 40 35 41 36 42 77 43 37 44 82 45
REMARK SMILES IDX 76 46 78 47 38 48 81 49 75 50 74 51 39 53 65 54 48 55 64 56
REMARK SMILES IDX 49 57 52 58 63 59 79 60 50 61 51 62 62 64 80 65 53 66 40 67
REMARK SMILES IDX 41 68 46 69 42 70 43 71 45 72 47 73 44 74 66 75 67 76 72 77
REMARK SMILES IDX 68 78 69 79 71 80 73 81 70 82 54 83 55 84 60 85 56 86 57 87
REMARK SMILES IDX 59 88 61 89 58 90
REMARK H PARENT 21 6 28 33 78 52 52 63
REMARK Flexibility Score: inf
ROOT
ATOM      1  C   UNL A   1      45.957  20.448  24.995  1.00  0.00     0.021 C 
ENDROOT
BRANCH   1   2
ATOM      2  C   UNL A   1      45.117  19.622  24.022  1.00  0.00     0.116 C 
BRANCH   2   3
ATOM      3  N   UNL A   1      44.342  18.610  24.708  1.00  0.00    -0.355 N 
ATOM      4  C   UNL A   1      43.262  18.739  25.521  1.00  0.00     0.230 C 
ATOM      5  O   UNL A   1      42.680  17.698  25.844  1.00  0.00    -0.274 OA
ATOM      6  H   UNL A   1      44.646  17.686  24.563  1.00  0.00     0.163 HD
BRANCH   4   7
ATOM      7  C   UNL A   1      42.699  20.086  25.920  1.00  0.00     0.176 C 
BRANCH   7   8
ATOM      8  S   UNL A   1      41.181  20.088  26.907  1.00  0.00    -0.096 SA
BRANCH   8   9
ATOM      9  C   UNL A   1      40.410  21.690  26.999  1.00  0.00     0.104 A 
ATOM     10  C   UNL A   1      40.221  25.357  27.914  1.00  0.00     0.067 C 
ATOM     11  C   UNL A   1      39.939  23.973  27.397  1.00  0.00     0.045 A 
ATOM     12  N   UNL A   1      38.802  23.889  26.683  1.00  0.00    -0.233 NA
ATOM     13  C   UNL A   1      40.800  22.885  27.602  1.00  0.00     0.003 A 
ATOM     14  C   UNL A   1      38.482  22.693  26.189  1.00  0.00     0.160 A 
ATOM     15  C   UNL A   1      42.065  23.099  28.363  1.00  0.00     0.049 C 
ATOM     16  N   UNL A   1      39.235  21.598  26.325  1.00  0.00    -0.221 NA
BRANCH  14  17
ATOM     17  C   UNL A   1      37.225  22.600  25.443  1.00  0.00     0.019 A 
ATOM     18  C   UNL A   1      36.567  23.763  25.011  1.00  0.00     0.012 A 
ATOM     19  C   UNL A   1      36.616  21.362  25.179  1.00  0.00     0.012 A 
ATOM     20  C   UNL A   1      35.335  23.698  24.352  1.00  0.00     0.014 A 
ATOM     21  C   UNL A   1      35.374  21.293  24.535  1.00  0.00     0.014 A 
ATOM     22  C   UNL A   1      34.717  22.461  24.122  1.00  0.00     0.056 A 
BRANCH  22  23
ATOM     23  C   UNL A   1      33.369  22.412  23.448  1.00  0.00     0.416 C 
ATOM     24  F   UNL A   1      32.426  23.136  24.114  1.00  0.00    -0.166 F 
ATOM     25  F   UNL A   1      33.400  22.918  22.183  1.00  0.00    -0.166 F 
ATOM     26  F   UNL A   1      32.857  21.154  23.333  1.00  0.00    -0.166 F 
ENDBRANCH  22  23
ENDBRANCH  14  17
ENDBRANCH   8   9
ENDBRANCH   7   8
ENDBRANCH   4   7
ENDBRANCH   2   3
ENDBRANCH   1   2
BRANCH   1  27
ATOM     27  C   UNL A   1      46.123  21.925  24.610  1.00  0.00     0.002 C 
BRANCH  27  28
ATOM     28  C   UNL A   1      44.905  22.587  23.955  1.00  0.00     0.002 C 
BRANCH  28  29
ATOM     29  C   UNL A   1      43.827  23.076  24.922  1.00  0.00     0.021 C 
BRANCH  29  30
ATOM     30  C   UNL A   1      43.745  24.590  25.075  1.00  0.00     0.116 C 
BRANCH  30  31
ATOM     31  N   UNL A   1      45.039  25.232  24.913  1.00  0.00    -0.352 N 
ATOM     32  C   UNL A   1      45.521  26.375  25.506  1.00  0.00     0.251 C 
ATOM     33  H   UNL A   1      45.658  24.785  24.292  1.00  0.00     0.163 HD
ATOM     34  O   UNL A   1      46.569  26.877  25.128  1.00  0.00    -0.269 OA
BRANCH  32  35
ATOM     35  C   UNL A   1      44.745  27.013  26.592  1.00  0.00     0.039 A 
ATOM     36  C   UNL A   1      44.188  26.205  27.587  1.00  0.00     0.014 A 
ATOM     37  C   UNL A   1      44.574  28.399  26.633  1.00  0.00     0.014 A 
ATOM     38  C   UNL A   1      43.513  26.795  28.657  1.00  0.00     0.010 A 
ATOM     39  C   UNL A   1      43.967  28.990  27.737  1.00  0.00     0.010 A 
ATOM     40  C   UNL A   1      43.425  28.193  28.756  1.00  0.00    -0.014 A 
BRANCH  40  41
ATOM     41  C   UNL A   1      42.756  28.835  29.915  1.00  0.00     0.031 A 
ATOM     42  C   UNL A   1      41.374  29.404  29.766  1.00  0.00     0.074 A 
ATOM     43  C   UNL A   1      43.407  28.938  31.091  1.00  0.00     0.049 A 
ATOM     44  N   UNL A   1      40.636  30.024  30.651  1.00  0.00    -0.248 NA
ATOM     45  C   UNL A   1      40.742  29.277  28.442  1.00  0.00     0.031 C 
ATOM     46  C   UNL A   1      44.764  28.457  31.350  1.00  0.00     0.029 A 
ATOM     47  N   UNL A   1      43.012  29.479  32.289  1.00  0.00    -0.354 N 
ATOM     48  C   UNL A   1      39.460  30.360  29.993  1.00  0.00     0.074 A 
ATOM     49  C   UNL A   1      39.605  29.933  28.620  1.00  0.00     0.031 C 
ATOM     50  C   UNL A   1      45.075  28.691  32.635  1.00  0.00     0.029 A 
ATOM     51  C   UNL A   1      43.956  29.371  33.281  1.00  0.00     0.049 A 
ATOM     52  H   UNL A   1      42.134  29.904  32.425  1.00  0.00     0.167 HD
ATOM     53  C   UNL A   1      38.347  30.943  30.498  1.00  0.00     0.037 A 
ATOM     54  C   UNL A   1      43.923  29.774  34.566  1.00  0.00     0.037 A 
ATOM     55  C   UNL A   1      38.197  31.349  31.869  1.00  0.00     0.049 A 
ATOM     56  C   UNL A   1      42.687  30.449  35.093  1.00  0.00     0.074 A 
ATOM     57  C   UNL A   1      37.092  31.908  32.484  1.00  0.00     0.029 A 
ATOM     58  N   UNL A   1      39.184  31.239  32.837  1.00  0.00    -0.354 N 
ATOM     59  N   UNL A   1      41.561  30.709  34.474  1.00  0.00    -0.248 NA
ATOM     60  C   UNL A   1      42.716  30.888  36.495  1.00  0.00     0.031 C 
ATOM     61  C   UNL A   1      37.424  32.178  33.814  1.00  0.00     0.029 A 
ATOM     62  C   UNL A   1      38.719  31.742  34.041  1.00  0.00     0.049 A 
ATOM     63  H   UNL A   1      40.080  30.859  32.690  1.00  0.00     0.167 HD
ATOM     64  C   UNL A   1      40.741  31.319  35.414  1.00  0.00     0.074 A 
ATOM     65  C   UNL A   1      41.494  31.378  36.650  1.00  0.00     0.031 C 
ATOM     66  C   UNL A   1      39.480  31.791  35.264  1.00  0.00     0.037 A 
BRANCH  53  67
ATOM     67  C   UNL A   1      37.193  31.159  29.564  1.00  0.00     0.057 A 
ATOM     68  C   UNL A   1      37.009  32.377  28.894  1.00  0.00     0.134 A 
ATOM     69  C   UNL A   1      36.288  30.127  29.287  1.00  0.00     0.134 A 
ATOM     70  F   UNL A   1      37.834  33.410  29.123  1.00  0.00    -0.206 F 
ATOM     71  C   UNL A   1      35.958  32.565  27.996  1.00  0.00     0.040 A 
ATOM     72  C   UNL A   1      35.249  30.294  28.372  1.00  0.00     0.040 A 
ATOM     73  F   UNL A   1      36.409  28.935  29.890  1.00  0.00    -0.206 F 
ATOM     74  C   UNL A   1      35.080  31.517  27.725  1.00  0.00     0.006 A 
ENDBRANCH  53  67
BRANCH  54  75
ATOM     75  C   UNL A   1      45.085  29.512  35.452  1.00  0.00     0.057 A 
ATOM     76  C   UNL A   1      46.063  30.491  35.664  1.00  0.00     0.134 A 
ATOM     77  C   UNL A   1      45.241  28.291  36.119  1.00  0.00     0.134 A 
ATOM     78  F   UNL A   1      45.978  31.675  35.039  1.00  0.00    -0.206 F 
ATOM     79  C   UNL A   1      47.157  30.264  36.499  1.00  0.00     0.040 A 
ATOM     80  C   UNL A   1      46.317  28.058  36.976  1.00  0.00     0.040 A 
ATOM     81  F   UNL A   1      44.336  27.313  35.964  1.00  0.00    -0.206 F 
ATOM     82  C   UNL A   1      47.283  29.046  37.165  1.00  0.00     0.006 A 
ENDBRANCH  54  75
BRANCH  66  83
ATOM     83  C   UNL A   1      38.817  32.401  36.464  1.00  0.00     0.057 A 
ATOM     84  C   UNL A   1      37.994  31.648  37.310  1.00  0.00     0.134 A 
ATOM     85  C   UNL A   1      39.074  33.730  36.824  1.00  0.00     0.134 A 
ATOM     86  F   UNL A   1      37.701  30.373  37.015  1.00  0.00    -0.206 F 
ATOM     87  C   UNL A   1      37.442  32.200  38.468  1.00  0.00     0.040 A 
ATOM     88  C   UNL A   1      38.549  34.285  37.991  1.00  0.00     0.040 A 
ATOM     89  F   UNL A   1      39.863  34.502  36.060  1.00  0.00    -0.206 F 
ATOM     90  C   UNL A   1      37.729  33.518  38.817  1.00  0.00     0.006 A 
ENDBRANCH  66  83
ENDBRANCH  40  41
ENDBRANCH  32  35
ENDBRANCH  30  31
ENDBRANCH  29  30
ENDBRANCH  28  29
ENDBRANCH  27  28
ENDBRANCH   1  27
TORSDOF 17
ENDMDL
