MODEL 1
REMARK VINA RESULT:     -12.4      0.000      0.000
REMARK SMILES CC(C)c1ccc(NC(=O)C(=O)N/N=C/c2ccccc2C(=O)NCCCCCCNC(=O)c2ccc(-c3c4nc(c(-c5c(F)cccc5F)c5ccc([nH]5)c(-c5c(F)cccc5F)c5nc(c(-c6c(F)cccc6F)c6ccc3[nH]6)C=C5)C=C4)cc2)cc1
REMARK SMILES IDX 26 1 25 2 24 3 22 4 23 5 21 7 16 8 17 9 18 10 20 11 19 12
REMARK SMILES IDX 15 13 14 14 13 15 11 16 12 17 9 19 8 20 10 22 7 23 4 24 5 25
REMARK SMILES IDX 89 26 6 27 88 28 2 29 1 30 3 31 27 32 28 33 29 34 30 35
REMARK SMILES IDX 31 36 32 37 33 39 34 40 35 41 87 42 36 43 86 44 37 45 38 46
REMARK SMILES IDX 39 47 80 48 40 49 85 50 79 51 81 52 41 53 84 54 78 55 77 56
REMARK SMILES IDX 42 58 68 59 51 60 67 61 52 62 55 63 66 64 82 65 53 66 54 67
REMARK SMILES IDX 65 69 83 70 56 71 43 72 44 73 49 74 45 75 46 76 48 77 50 78
REMARK SMILES IDX 47 79 69 80 70 81 75 82 71 83 72 84 74 85 76 86 73 87 57 88
REMARK SMILES IDX 58 89 63 90 59 91 60 92 62 93 64 94 61 95
REMARK H PARENT 24 6 13 18 8 21 31 38 81 57 55 68
REMARK Flexibility Score: inf
ROOT
ATOM      1  C   UNL A   1      36.366  22.233  26.018  1.00  0.00     0.021 C 
ENDROOT
BRANCH   1   2
ATOM      2  C   UNL A   1      35.492  23.484  26.116  1.00  0.00     0.116 C 
BRANCH   2   3
ATOM      3  N   UNL A   1      34.171  23.264  26.649  1.00  0.00    -0.352 N 
ATOM      4  C   UNL A   1      33.111  22.427  26.408  1.00  0.00     0.251 C 
ATOM      5  O   UNL A   1      32.233  22.539  27.280  1.00  0.00    -0.269 OA
ATOM      6  H   UNL A   1      33.976  23.886  27.387  1.00  0.00     0.163 HD
BRANCH   4   7
ATOM      7  C   UNL A   1      32.845  21.431  25.297  1.00  0.00     0.048 A 
ATOM      8  C   UNL A   1      32.526  21.581  23.937  1.00  0.00     0.007 A 
ATOM      9  C   UNL A   1      32.382  20.469  23.073  1.00  0.00     0.010 A 
ATOM     10  C   UNL A   1      32.522  19.171  23.549  1.00  0.00     0.001 A 
ATOM     11  C   UNL A   1      32.971  20.081  25.733  1.00  0.00     0.014 A 
ATOM     12  C   UNL A   1      32.807  18.975  24.889  1.00  0.00     0.001 A 
BRANCH   8  13
ATOM     13  C   UNL A   1      32.219  22.840  23.271  1.00  0.00     0.142 C 
ATOM     14  N   UNL A   1      33.008  23.318  22.366  1.00  0.00    -0.180 NA
BRANCH  14  15
ATOM     15  N   UNL A   1      32.800  24.572  21.865  1.00  0.00    -0.239 N 
ATOM     16  C   UNL A   1      33.226  25.839  22.246  1.00  0.00     0.329 C 
ATOM     17  O   UNL A   1      33.315  26.705  21.381  1.00  0.00    -0.262 OA
ATOM     18  H   UNL A   1      32.227  24.579  21.063  1.00  0.00     0.194 HD
BRANCH  16  19
ATOM     19  C   UNL A   1      33.387  26.180  23.748  1.00  0.00     0.315 C 
ATOM     20  N   UNL A   1      32.401  26.863  24.436  1.00  0.00    -0.318 N 
ATOM     21  H   UNL A   1      32.447  26.725  25.410  1.00  0.00     0.170 HD
ATOM     22  O   UNL A   1      34.311  25.696  24.400  1.00  0.00    -0.263 OA
BRANCH  20  23
ATOM     23  C   UNL A   1      31.346  27.709  24.054  1.00  0.00     0.041 A 
ATOM     24  C   UNL A   1      29.094  29.248  23.239  1.00  0.00    -0.045 A 
ATOM     25  C   UNL A   1      30.237  29.857  23.776  1.00  0.00     0.006 A 
ATOM     26  C   UNL A   1      29.080  27.846  23.175  1.00  0.00     0.006 A 
ATOM     27  C   UNL A   1      31.353  29.096  24.171  1.00  0.00     0.026 A 
ATOM     28  C   UNL A   1      30.178  27.090  23.600  1.00  0.00     0.026 A 
BRANCH  24  29
ATOM     29  C   UNL A   1      27.916  30.016  22.653  1.00  0.00     0.013 C 
ATOM     30  C   UNL A   1      27.522  31.230  23.501  1.00  0.00     0.012 C 
ATOM     31  C   UNL A   1      28.045  30.453  21.190  1.00  0.00     0.012 C 
ENDBRANCH  24  29
ENDBRANCH  20  23
ENDBRANCH  16  19
ENDBRANCH  14  15
ENDBRANCH   8  13
ENDBRANCH   4   7
ENDBRANCH   2   3
ENDBRANCH   1   2
BRANCH   1  32
ATOM     32  C   UNL A   1      36.374  21.444  24.708  1.00  0.00     0.002 C 
BRANCH  32  33
ATOM     33  C   UNL A   1      36.475  19.916  24.757  1.00  0.00     0.002 C 
BRANCH  33  34
ATOM     34  C   UNL A   1      37.860  19.258  24.735  1.00  0.00     0.021 C 
BRANCH  34  35
ATOM     35  C   UNL A   1      38.890  19.697  25.777  1.00  0.00     0.116 C 
BRANCH  35  36
ATOM     36  N   UNL A   1      40.117  18.926  25.751  1.00  0.00    -0.352 N 
ATOM     37  C   UNL A   1      41.427  19.244  26.023  1.00  0.00     0.251 C 
ATOM     38  H   UNL A   1      39.987  17.987  25.483  1.00  0.00     0.163 HD
ATOM     39  O   UNL A   1      42.252  18.340  25.863  1.00  0.00    -0.269 OA
BRANCH  37  40
ATOM     40  C   UNL A   1      41.924  20.578  26.500  1.00  0.00     0.039 A 
ATOM     41  C   UNL A   1      42.154  21.565  25.518  1.00  0.00     0.014 A 
ATOM     42  C   UNL A   1      42.253  20.896  27.818  1.00  0.00     0.014 A 
ATOM     43  C   UNL A   1      42.679  22.825  25.845  1.00  0.00     0.010 A 
ATOM     44  C   UNL A   1      42.777  22.156  28.152  1.00  0.00     0.010 A 
ATOM     45  C   UNL A   1      42.995  23.132  27.171  1.00  0.00    -0.014 A 
BRANCH  45  46
ATOM     46  C   UNL A   1      43.437  24.490  27.578  1.00  0.00     0.031 A 
ATOM     47  C   UNL A   1      42.469  25.535  28.048  1.00  0.00     0.074 A 
ATOM     48  C   UNL A   1      44.733  24.808  27.408  1.00  0.00     0.049 A 
ATOM     49  N   UNL A   1      42.666  26.813  28.262  1.00  0.00    -0.248 NA
ATOM     50  C   UNL A   1      41.089  25.096  28.279  1.00  0.00     0.031 C 
ATOM     51  C   UNL A   1      45.765  23.888  26.930  1.00  0.00     0.029 A 
ATOM     52  N   UNL A   1      45.393  25.996  27.585  1.00  0.00    -0.354 N 
ATOM     53  C   UNL A   1      41.425  27.343  28.592  1.00  0.00     0.074 A 
ATOM     54  C   UNL A   1      40.479  26.246  28.543  1.00  0.00     0.031 C 
ATOM     55  C   UNL A   1      46.925  24.553  26.823  1.00  0.00     0.029 A 
ATOM     56  C   UNL A   1      46.714  25.943  27.221  1.00  0.00     0.049 A 
ATOM     57  H   UNL A   1      44.962  26.807  27.940  1.00  0.00     0.167 HD
ATOM     58  C   UNL A   1      41.111  28.624  28.913  1.00  0.00     0.037 A 
ATOM     59  C   UNL A   1      47.655  26.904  27.206  1.00  0.00     0.037 A 
ATOM     60  C   UNL A   1      42.079  29.685  29.054  1.00  0.00     0.049 A 
ATOM     61  C   UNL A   1      47.311  28.281  27.688  1.00  0.00     0.074 A 
ATOM     62  C   UNL A   1      41.879  30.985  29.494  1.00  0.00     0.029 A 
ATOM     63  N   UNL A   1      43.432  29.567  28.777  1.00  0.00    -0.354 N 
ATOM     64  N   UNL A   1      46.144  28.763  28.037  1.00  0.00    -0.248 NA
ATOM     65  C   UNL A   1      48.420  29.238  27.805  1.00  0.00     0.031 C 
ATOM     66  C   UNL A   1      43.106  31.656  29.465  1.00  0.00     0.029 A 
ATOM     67  C   UNL A   1      44.078  30.765  29.040  1.00  0.00     0.049 A 
ATOM     68  H   UNL A   1      43.872  28.751  28.443  1.00  0.00     0.167 HD
ATOM     69  C   UNL A   1      46.379  30.068  28.442  1.00  0.00     0.074 A 
ATOM     70  C   UNL A   1      47.802  30.302  28.300  1.00  0.00     0.031 C 
ATOM     71  C   UNL A   1      45.493  30.987  28.897  1.00  0.00     0.037 A 
BRANCH  58  72
ATOM     72  C   UNL A   1      39.668  28.967  29.155  1.00  0.00     0.057 A 
ATOM     73  C   UNL A   1      38.806  29.345  28.119  1.00  0.00     0.134 A 
ATOM     74  C   UNL A   1      39.109  28.823  30.434  1.00  0.00     0.134 A 
ATOM     75  F   UNL A   1      39.272  29.503  26.871  1.00  0.00    -0.206 F 
ATOM     76  C   UNL A   1      37.447  29.584  28.345  1.00  0.00     0.040 A 
ATOM     77  C   UNL A   1      37.748  29.033  30.668  1.00  0.00     0.040 A 
ATOM     78  F   UNL A   1      39.872  28.449  31.473  1.00  0.00    -0.206 F 
ATOM     79  C   UNL A   1      36.913  29.418  29.622  1.00  0.00     0.006 A 
ENDBRANCH  58  72
BRANCH  59  80
ATOM     80  C   UNL A   1      49.029  26.557  26.780  1.00  0.00     0.057 A 
ATOM     81  C   UNL A   1      49.934  25.992  27.684  1.00  0.00     0.134 A 
ATOM     82  C   UNL A   1      49.444  26.715  25.454  1.00  0.00     0.134 A 
ATOM     83  F   UNL A   1      49.589  25.829  28.970  1.00  0.00    -0.206 F 
ATOM     84  C   UNL A   1      51.210  25.595  27.285  1.00  0.00     0.040 A 
ATOM     85  C   UNL A   1      50.712  26.308  25.037  1.00  0.00     0.040 A 
ATOM     86  F   UNL A   1      48.613  27.237  24.541  1.00  0.00    -0.206 F 
ATOM     87  C   UNL A   1      51.598  25.746  25.955  1.00  0.00     0.006 A 
ENDBRANCH  59  80
BRANCH  71  88
ATOM     88  C   UNL A   1      46.046  32.319  29.305  1.00  0.00     0.057 A 
ATOM     89  C   UNL A   1      46.142  33.385  28.403  1.00  0.00     0.134 A 
ATOM     90  C   UNL A   1      46.476  32.538  30.619  1.00  0.00     0.134 A 
ATOM     91  F   UNL A   1      45.758  33.233  27.127  1.00  0.00    -0.206 F 
ATOM     92  C   UNL A   1      46.668  34.619  28.790  1.00  0.00     0.040 A 
ATOM     93  C   UNL A   1      46.986  33.773  31.022  1.00  0.00     0.040 A 
ATOM     94  F   UNL A   1      46.405  31.558  31.533  1.00  0.00    -0.206 F 
ATOM     95  C   UNL A   1      47.089  34.816  30.104  1.00  0.00     0.006 A 
ENDBRANCH  71  88
ENDBRANCH  45  46
ENDBRANCH  37  40
ENDBRANCH  35  36
ENDBRANCH  34  35
ENDBRANCH  33  34
ENDBRANCH  32  33
ENDBRANCH   1  32
TORSDOF 18
ENDMDL
MODEL 2
REMARK VINA RESULT:     -12.2      1.437      6.033
REMARK SMILES CC(C)c1ccc(NC(=O)C(=O)N/N=C/c2ccccc2C(=O)NCCCCCCNC(=O)c2ccc(-c3c4nc(c(-c5c(F)cccc5F)c5ccc([nH]5)c(-c5c(F)cccc5F)c5nc(c(-c6c(F)cccc6F)c6ccc3[nH]6)C=C5)C=C4)cc2)cc1
REMARK SMILES IDX 26 1 25 2 24 3 22 4 23 5 21 7 16 8 17 9 18 10 20 11 19 12
REMARK SMILES IDX 15 13 14 14 13 15 11 16 12 17 9 19 8 20 10 22 7 23 4 24 5 25
REMARK SMILES IDX 89 26 6 27 88 28 2 29 1 30 3 31 27 32 28 33 29 34 30 35
REMARK SMILES IDX 31 36 32 37 33 39 34 40 35 41 87 42 36 43 86 44 37 45 38 46
REMARK SMILES IDX 39 47 80 48 40 49 85 50 79 51 81 52 41 53 84 54 78 55 77 56
REMARK SMILES IDX 42 58 68 59 51 60 67 61 52 62 55 63 66 64 82 65 53 66 54 67
REMARK SMILES IDX 65 69 83 70 56 71 43 72 44 73 49 74 45 75 46 76 48 77 50 78
REMARK SMILES IDX 47 79 69 80 70 81 75 82 71 83 72 84 74 85 76 86 73 87 57 88
REMARK SMILES IDX 58 89 63 90 59 91 60 92 62 93 64 94 61 95
REMARK H PARENT 24 6 13 18 8 21 31 38 81 57 55 68
REMARK Flexibility Score: inf
ROOT
ATOM      1  C   UNL A   1      36.357  22.200  25.925  1.00  0.00     0.021 C 
ENDROOT
BRANCH   1   2
ATOM      2  C   UNL A   1      35.486  23.457  25.942  1.00  0.00     0.116 C 
BRANCH   2   3
ATOM      3  N   UNL A   1      34.176  23.283  26.516  1.00  0.00    -0.352 N 
ATOM      4  C   UNL A   1      33.121  22.415  26.383  1.00  0.00     0.251 C 
ATOM      5  O   UNL A   1      32.256  22.611  27.252  1.00  0.00    -0.269 OA
ATOM      6  H   UNL A   1      33.984  23.977  27.187  1.00  0.00     0.163 HD
BRANCH   4   7
ATOM      7  C   UNL A   1      32.849  21.304  25.388  1.00  0.00     0.048 A 
ATOM      8  C   UNL A   1      32.508  21.305  24.025  1.00  0.00     0.007 A 
ATOM      9  C   UNL A   1      32.363  20.107  23.287  1.00  0.00     0.010 A 
ATOM     10  C   UNL A   1      32.524  18.868  23.895  1.00  0.00     0.001 A 
ATOM     11  C   UNL A   1      32.996  20.010  25.963  1.00  0.00     0.014 A 
ATOM     12  C   UNL A   1      32.832  18.819  25.243  1.00  0.00     0.001 A 
BRANCH   8  13
ATOM     13  C   UNL A   1      32.178  22.484  23.234  1.00  0.00     0.142 C 
ATOM     14  N   UNL A   1      32.989  22.920  22.328  1.00  0.00    -0.180 NA
BRANCH  14  15
ATOM     15  N   UNL A   1      32.748  24.113  21.706  1.00  0.00    -0.239 N 
ATOM     16  C   UNL A   1      33.168  25.416  21.940  1.00  0.00     0.329 C 
ATOM     17  O   UNL A   1      33.219  26.188  20.988  1.00  0.00    -0.262 OA
ATOM     18  H   UNL A   1      32.151  24.031  20.927  1.00  0.00     0.194 HD
BRANCH  16  19
ATOM     19  C   UNL A   1      33.370  25.914  23.393  1.00  0.00     0.315 C 
ATOM     20  N   UNL A   1      32.364  26.581  24.066  1.00  0.00    -0.318 N 
ATOM     21  H   UNL A   1      32.467  26.543  25.044  1.00  0.00     0.170 HD
ATOM     22  O   UNL A   1      34.360  25.569  24.035  1.00  0.00    -0.263 OA
BRANCH  20  23
ATOM     23  C   UNL A   1      31.226  27.301  23.665  1.00  0.00     0.041 A 
ATOM     24  C   UNL A   1      29.051  28.905  22.767  1.00  0.00    -0.045 A 
ATOM     25  C   UNL A   1      28.837  27.653  23.362  1.00  0.00     0.006 A 
ATOM     26  C   UNL A   1      30.382  29.308  22.578  1.00  0.00     0.006 A 
ATOM     27  C   UNL A   1      29.913  26.864  23.813  1.00  0.00     0.026 A 
ATOM     28  C   UNL A   1      31.450  28.508  22.996  1.00  0.00     0.026 A 
BRANCH  24  29
ATOM     29  C   UNL A   1      27.936  29.872  22.396  1.00  0.00     0.013 C 
ATOM     30  C   UNL A   1      27.632  30.879  23.510  1.00  0.00     0.012 C 
ATOM     31  C   UNL A   1      28.099  30.630  21.073  1.00  0.00     0.012 C 
ENDBRANCH  24  29
ENDBRANCH  20  23
ENDBRANCH  16  19
ENDBRANCH  14  15
ENDBRANCH   8  13
ENDBRANCH   4   7
ENDBRANCH   2   3
ENDBRANCH   1   2
BRANCH   1  32
ATOM     32  C   UNL A   1      36.382  21.341  24.661  1.00  0.00     0.002 C 
BRANCH  32  33
ATOM     33  C   UNL A   1      36.602  19.830  24.788  1.00  0.00     0.002 C 
BRANCH  33  34
ATOM     34  C   UNL A   1      38.035  19.284  24.812  1.00  0.00     0.021 C 
BRANCH  34  35
ATOM     35  C   UNL A   1      38.997  19.812  25.878  1.00  0.00     0.116 C 
BRANCH  35  36
ATOM     36  N   UNL A   1      40.292  19.162  25.872  1.00  0.00    -0.352 N 
ATOM     37  C   UNL A   1      41.557  19.594  26.199  1.00  0.00     0.251 C 
ATOM     38  H   UNL A   1      40.262  18.224  25.574  1.00  0.00     0.163 HD
ATOM     39  O   UNL A   1      42.470  18.779  26.042  1.00  0.00    -0.269 OA
BRANCH  37  40
ATOM     40  C   UNL A   1      41.908  20.954  26.730  1.00  0.00     0.039 A 
ATOM     41  C   UNL A   1      42.299  21.929  25.788  1.00  0.00     0.014 A 
ATOM     42  C   UNL A   1      41.956  21.310  28.078  1.00  0.00     0.014 A 
ATOM     43  C   UNL A   1      42.710  23.213  26.179  1.00  0.00     0.010 A 
ATOM     44  C   UNL A   1      42.365  22.593  28.476  1.00  0.00     0.010 A 
ATOM     45  C   UNL A   1      42.745  23.557  27.533  1.00  0.00    -0.014 A 
BRANCH  45  46
ATOM     46  C   UNL A   1      43.056  24.937  27.984  1.00  0.00     0.031 A 
ATOM     47  C   UNL A   1      44.444  25.353  28.376  1.00  0.00     0.074 A 
ATOM     48  C   UNL A   1      42.032  25.793  28.145  1.00  0.00     0.049 A 
ATOM     49  N   UNL A   1      44.845  26.455  28.961  1.00  0.00    -0.248 NA
ATOM     50  C   UNL A   1      45.518  24.393  28.105  1.00  0.00     0.031 C 
ATOM     51  C   UNL A   1      40.635  25.497  27.827  1.00  0.00     0.029 A 
ATOM     52  N   UNL A   1      42.002  27.070  28.644  1.00  0.00    -0.354 N 
ATOM     53  C   UNL A   1      46.208  26.295  29.184  1.00  0.00     0.074 A 
ATOM     54  C   UNL A   1      46.561  24.985  28.676  1.00  0.00     0.031 C 
ATOM     55  C   UNL A   1      39.878  26.551  28.166  1.00  0.00     0.029 A 
ATOM     56  C   UNL A   1      40.737  27.591  28.727  1.00  0.00     0.049 A 
ATOM     57  H   UNL A   1      42.810  27.564  28.915  1.00  0.00     0.167 HD
ATOM     58  C   UNL A   1      47.078  27.168  29.752  1.00  0.00     0.037 A 
ATOM     59  C   UNL A   1      40.310  28.775  29.203  1.00  0.00     0.037 A 
ATOM     60  C   UNL A   1      46.732  28.508  30.163  1.00  0.00     0.049 A 
ATOM     61  C   UNL A   1      41.310  29.771  29.707  1.00  0.00     0.074 A 
ATOM     62  C   UNL A   1      47.567  29.509  30.635  1.00  0.00     0.029 A 
ATOM     63  N   UNL A   1      45.453  29.041  30.134  1.00  0.00    -0.354 N 
ATOM     64  N   UNL A   1      42.601  29.628  29.877  1.00  0.00    -0.248 NA
ATOM     65  C   UNL A   1      40.798  31.104  30.056  1.00  0.00     0.031 C 
ATOM     66  C   UNL A   1      46.790  30.641  30.908  1.00  0.00     0.029 A 
ATOM     67  C   UNL A   1      45.476  30.356  30.575  1.00  0.00     0.049 A 
ATOM     68  H   UNL A   1      44.645  28.558  29.844  1.00  0.00     0.167 HD
ATOM     69  C   UNL A   1      43.063  30.856  30.324  1.00  0.00     0.074 A 
ATOM     70  C   UNL A   1      41.913  31.736  30.395  1.00  0.00     0.031 C 
ATOM     71  C   UNL A   1      44.328  31.222  30.640  1.00  0.00     0.037 A 
BRANCH  58  72
ATOM     72  C   UNL A   1      48.501  26.727  29.956  1.00  0.00     0.057 A 
ATOM     73  C   UNL A   1      48.918  26.062  31.115  1.00  0.00     0.134 A 
ATOM     74  C   UNL A   1      49.447  26.887  28.933  1.00  0.00     0.134 A 
ATOM     75  F   UNL A   1      48.066  25.875  32.134  1.00  0.00    -0.206 F 
ATOM     76  C   UNL A   1      50.225  25.587  31.258  1.00  0.00     0.040 A 
ATOM     77  C   UNL A   1      50.749  26.394  29.053  1.00  0.00     0.040 A 
ATOM     78  F   UNL A   1      49.115  27.503  27.788  1.00  0.00    -0.206 F 
ATOM     79  C   UNL A   1      51.142  25.744  30.220  1.00  0.00     0.006 A 
ENDBRANCH  58  72
BRANCH  59  80
ATOM     80  C   UNL A   1      38.865  29.091  29.150  1.00  0.00     0.057 A 
ATOM     81  C   UNL A   1      38.058  28.925  30.280  1.00  0.00     0.134 A 
ATOM     82  C   UNL A   1      38.277  29.628  28.001  1.00  0.00     0.134 A 
ATOM     83  F   UNL A   1      38.571  28.404  31.404  1.00  0.00    -0.206 F 
ATOM     84  C   UNL A   1      36.710  29.281  30.269  1.00  0.00     0.040 A 
ATOM     85  C   UNL A   1      36.933  30.004  27.981  1.00  0.00     0.040 A 
ATOM     86  F   UNL A   1      39.007  29.823  26.893  1.00  0.00    -0.206 F 
ATOM     87  C   UNL A   1      36.147  29.830  29.120  1.00  0.00     0.006 A 
ENDBRANCH  59  80
BRANCH  71  88
ATOM     88  C   UNL A   1      44.539  32.646  31.060  1.00  0.00     0.057 A 
ATOM     89  C   UNL A   1      44.401  33.049  32.394  1.00  0.00     0.134 A 
ATOM     90  C   UNL A   1      44.896  33.619  30.120  1.00  0.00     0.134 A 
ATOM     91  F   UNL A   1      44.048  32.166  33.338  1.00  0.00    -0.206 F 
ATOM     92  C   UNL A   1      44.588  34.380  32.773  1.00  0.00     0.040 A 
ATOM     93  C   UNL A   1      45.105  34.948  30.491  1.00  0.00     0.040 A 
ATOM     94  F   UNL A   1      45.049  33.295  28.827  1.00  0.00    -0.206 F 
ATOM     95  C   UNL A   1      44.945  35.333  31.820  1.00  0.00     0.006 A 
ENDBRANCH  71  88
ENDBRANCH  45  46
ENDBRANCH  37  40
ENDBRANCH  35  36
ENDBRANCH  34  35
ENDBRANCH  33  34
ENDBRANCH  32  33
ENDBRANCH   1  32
TORSDOF 18
ENDMDL
MODEL 3
REMARK VINA RESULT:     -12.1      5.713     10.827
REMARK SMILES CC(C)c1ccc(NC(=O)C(=O)N/N=C/c2ccccc2C(=O)NCCCCCCNC(=O)c2ccc(-c3c4nc(c(-c5c(F)cccc5F)c5ccc([nH]5)c(-c5c(F)cccc5F)c5nc(c(-c6c(F)cccc6F)c6ccc3[nH]6)C=C5)C=C4)cc2)cc1
REMARK SMILES IDX 26 1 25 2 24 3 22 4 23 5 21 7 16 8 17 9 18 10 20 11 19 12
REMARK SMILES IDX 15 13 14 14 13 15 11 16 12 17 9 19 8 20 10 22 7 23 4 24 5 25
REMARK SMILES IDX 89 26 6 27 88 28 2 29 1 30 3 31 27 32 28 33 29 34 30 35
REMARK SMILES IDX 31 36 32 37 33 39 34 40 35 41 87 42 36 43 86 44 37 45 38 46
REMARK SMILES IDX 39 47 80 48 40 49 85 50 79 51 81 52 41 53 84 54 78 55 77 56
REMARK SMILES IDX 42 58 68 59 51 60 67 61 52 62 55 63 66 64 82 65 53 66 54 67
REMARK SMILES IDX 65 69 83 70 56 71 43 72 44 73 49 74 45 75 46 76 48 77 50 78
REMARK SMILES IDX 47 79 69 80 70 81 75 82 71 83 72 84 74 85 76 86 73 87 57 88
REMARK SMILES IDX 58 89 63 90 59 91 60 92 62 93 64 94 61 95
REMARK H PARENT 24 6 13 18 8 21 31 38 81 57 55 68
REMARK Flexibility Score: inf
ROOT
ATOM      1  C   UNL A   1      33.599  31.806  27.615  1.00  0.00     0.021 C 
ENDROOT
BRANCH   1   2
ATOM      2  C   UNL A   1      33.793  30.368  27.133  1.00  0.00     0.116 C 
BRANCH   2   3
ATOM      3  N   UNL A   1      32.836  29.420  27.645  1.00  0.00    -0.352 N 
ATOM      4  C   UNL A   1      31.878  28.578  27.138  1.00  0.00     0.251 C 
ATOM      5  O   UNL A   1      31.420  27.827  28.015  1.00  0.00    -0.269 OA
ATOM      6  H   UNL A   1      32.882  29.360  28.626  1.00  0.00     0.163 HD
BRANCH   4   7
ATOM      7  C   UNL A   1      31.309  28.423  25.742  1.00  0.00     0.048 A 
ATOM      8  C   UNL A   1      30.961  27.300  24.972  1.00  0.00     0.007 A 
ATOM      9  C   UNL A   1      30.378  27.423  23.689  1.00  0.00     0.010 A 
ATOM     10  C   UNL A   1      30.153  28.672  23.121  1.00  0.00     0.001 A 
ATOM     11  C   UNL A   1      31.063  29.676  25.112  1.00  0.00     0.014 A 
ATOM     12  C   UNL A   1      30.507  29.804  23.832  1.00  0.00     0.001 A 
BRANCH   8  13
ATOM     13  C   UNL A   1      31.224  25.912  25.328  1.00  0.00     0.142 C 
ATOM     14  N   UNL A   1      30.761  25.413  26.426  1.00  0.00    -0.180 NA
BRANCH  14  15
ATOM     15  N   UNL A   1      31.144  24.165  26.831  1.00  0.00    -0.239 N 
ATOM     16  C   UNL A   1      32.380  23.568  27.049  1.00  0.00     0.329 C 
ATOM     17  O   UNL A   1      32.442  22.646  27.856  1.00  0.00    -0.262 OA
ATOM     18  H   UNL A   1      30.384  23.562  27.003  1.00  0.00     0.194 HD
BRANCH  16  19
ATOM     19  C   UNL A   1      33.586  23.935  26.150  1.00  0.00     0.315 C 
ATOM     20  N   UNL A   1      33.992  23.102  25.124  1.00  0.00    -0.318 N 
ATOM     21  H   UNL A   1      34.515  23.571  24.434  1.00  0.00     0.170 HD
ATOM     22  O   UNL A   1      34.091  25.055  26.214  1.00  0.00    -0.263 OA
BRANCH  20  23
ATOM     23  C   UNL A   1      33.826  21.735  24.847  1.00  0.00     0.041 A 
ATOM     24  C   UNL A   1      33.310  19.015  24.180  1.00  0.00    -0.045 A 
ATOM     25  C   UNL A   1      34.488  19.393  24.840  1.00  0.00     0.006 A 
ATOM     26  C   UNL A   1      32.424  20.038  23.808  1.00  0.00     0.006 A 
ATOM     27  C   UNL A   1      34.738  20.737  25.177  1.00  0.00     0.026 A 
ATOM     28  C   UNL A   1      32.691  21.376  24.114  1.00  0.00     0.026 A 
BRANCH  24  29
ATOM     29  C   UNL A   1      32.906  17.570  23.921  1.00  0.00     0.013 C 
ATOM     30  C   UNL A   1      33.919  16.820  23.050  1.00  0.00     0.012 C 
ATOM     31  C   UNL A   1      32.585  16.718  25.154  1.00  0.00     0.012 C 
ENDBRANCH  24  29
ENDBRANCH  20  23
ENDBRANCH  16  19
ENDBRANCH  14  15
ENDBRANCH   8  13
ENDBRANCH   4   7
ENDBRANCH   2   3
ENDBRANCH   1   2
BRANCH   1  32
ATOM     32  C   UNL A   1      34.757  32.502  28.331  1.00  0.00     0.002 C 
BRANCH  32  33
ATOM     33  C   UNL A   1      34.622  33.982  28.708  1.00  0.00     0.002 C 
BRANCH  33  34
ATOM     34  C   UNL A   1      33.224  34.572  28.924  1.00  0.00     0.021 C 
BRANCH  34  35
ATOM     35  C   UNL A   1      33.108  36.056  29.278  1.00  0.00     0.116 C 
BRANCH  35  36
ATOM     36  N   UNL A   1      32.435  36.308  30.537  1.00  0.00    -0.352 N 
ATOM     37  C   UNL A   1      32.668  35.882  31.824  1.00  0.00     0.251 C 
ATOM     38  H   UNL A   1      31.654  36.902  30.455  1.00  0.00     0.163 HD
ATOM     39  O   UNL A   1      31.863  36.262  32.678  1.00  0.00    -0.269 OA
BRANCH  37  40
ATOM     40  C   UNL A   1      33.809  35.012  32.265  1.00  0.00     0.039 A 
ATOM     41  C   UNL A   1      35.113  35.475  31.991  1.00  0.00     0.014 A 
ATOM     42  C   UNL A   1      33.687  33.750  32.849  1.00  0.00     0.014 A 
ATOM     43  C   UNL A   1      36.250  34.712  32.301  1.00  0.00     0.010 A 
ATOM     44  C   UNL A   1      34.821  32.982  33.163  1.00  0.00     0.010 A 
ATOM     45  C   UNL A   1      36.112  33.454  32.894  1.00  0.00    -0.014 A 
BRANCH  45  46
ATOM     46  C   UNL A   1      37.286  32.668  33.349  1.00  0.00     0.031 A 
ATOM     47  C   UNL A   1      37.999  32.973  34.634  1.00  0.00     0.074 A 
ATOM     48  C   UNL A   1      37.778  31.732  32.518  1.00  0.00     0.049 A 
ATOM     49  N   UNL A   1      39.140  32.506  35.080  1.00  0.00    -0.248 NA
ATOM     50  C   UNL A   1      37.365  33.953  35.520  1.00  0.00     0.031 C 
ATOM     51  C   UNL A   1      37.191  31.365  31.229  1.00  0.00     0.029 A 
ATOM     52  N   UNL A   1      38.895  30.944  32.618  1.00  0.00    -0.354 N 
ATOM     53  C   UNL A   1      39.391  33.181  36.269  1.00  0.00     0.074 A 
ATOM     54  C   UNL A   1      38.284  34.095  36.469  1.00  0.00     0.031 C 
ATOM     55  C   UNL A   1      37.970  30.445  30.642  1.00  0.00     0.029 A 
ATOM     56  C   UNL A   1      39.109  30.162  31.512  1.00  0.00     0.049 A 
ATOM     57  H   UNL A   1      39.486  30.940  33.406  1.00  0.00     0.167 HD
ATOM     58  C   UNL A   1      40.443  33.041  37.114  1.00  0.00     0.037 A 
ATOM     59  C   UNL A   1      40.111  29.311  31.226  1.00  0.00     0.037 A 
ATOM     60  C   UNL A   1      41.488  32.057  36.953  1.00  0.00     0.049 A 
ATOM     61  C   UNL A   1      41.194  29.080  32.235  1.00  0.00     0.074 A 
ATOM     62  C   UNL A   1      42.529  31.754  37.816  1.00  0.00     0.029 A 
ATOM     63  N   UNL A   1      41.614  31.205  35.867  1.00  0.00    -0.354 N 
ATOM     64  N   UNL A   1      41.402  29.693  33.374  1.00  0.00    -0.248 NA
ATOM     65  C   UNL A   1      42.164  28.018  31.934  1.00  0.00     0.031 C 
ATOM     66  C   UNL A   1      43.295  30.731  37.244  1.00  0.00     0.029 A 
ATOM     67  C   UNL A   1      42.711  30.374  36.040  1.00  0.00     0.049 A 
ATOM     68  H   UNL A   1      41.014  31.191  35.086  1.00  0.00     0.167 HD
ATOM     69  C   UNL A   1      42.507  29.075  33.941  1.00  0.00     0.074 A 
ATOM     70  C   UNL A   1      42.923  28.035  33.021  1.00  0.00     0.031 C 
ATOM     71  C   UNL A   1      43.115  29.343  35.121  1.00  0.00     0.037 A 
BRANCH  58  72
ATOM     72  C   UNL A   1      40.529  33.952  38.306  1.00  0.00     0.057 A 
ATOM     73  C   UNL A   1      39.936  33.635  39.534  1.00  0.00     0.134 A 
ATOM     74  C   UNL A   1      41.299  35.124  38.250  1.00  0.00     0.134 A 
ATOM     75  F   UNL A   1      39.185  32.531  39.660  1.00  0.00    -0.206 F 
ATOM     76  C   UNL A   1      40.090  34.454  40.656  1.00  0.00     0.040 A 
ATOM     77  C   UNL A   1      41.483  35.936  39.371  1.00  0.00     0.040 A 
ATOM     78  F   UNL A   1      41.908  35.484  37.110  1.00  0.00    -0.206 F 
ATOM     79  C   UNL A   1      40.875  35.604  40.579  1.00  0.00     0.006 A 
ENDBRANCH  58  72
BRANCH  59  80
ATOM     80  C   UNL A   1      40.077  28.568  29.946  1.00  0.00     0.057 A 
ATOM     81  C   UNL A   1      40.816  29.013  28.845  1.00  0.00     0.134 A 
ATOM     82  C   UNL A   1      39.370  27.369  29.816  1.00  0.00     0.134 A 
ATOM     83  F   UNL A   1      41.504  30.162  28.915  1.00  0.00    -0.206 F 
ATOM     84  C   UNL A   1      40.852  28.291  27.653  1.00  0.00     0.040 A 
ATOM     85  C   UNL A   1      39.409  26.627  28.634  1.00  0.00     0.040 A 
ATOM     86  F   UNL A   1      38.656  26.888  30.844  1.00  0.00    -0.206 F 
ATOM     87  C   UNL A   1      40.153  27.090  27.549  1.00  0.00     0.006 A 
ENDBRANCH  59  80
BRANCH  71  88
ATOM     88  C   UNL A   1      44.277  28.474  35.498  1.00  0.00     0.057 A 
ATOM     89  C   UNL A   1      45.589  28.794  35.127  1.00  0.00     0.134 A 
ATOM     90  C   UNL A   1      44.081  27.311  36.253  1.00  0.00     0.134 A 
ATOM     91  F   UNL A   1      45.840  29.888  34.394  1.00  0.00    -0.206 F 
ATOM     92  C   UNL A   1      46.663  27.973  35.474  1.00  0.00     0.040 A 
ATOM     93  C   UNL A   1      45.149  26.493  36.622  1.00  0.00     0.040 A 
ATOM     94  F   UNL A   1      42.848  26.952  36.644  1.00  0.00    -0.206 F 
ATOM     95  C   UNL A   1      46.444  26.820  36.227  1.00  0.00     0.006 A 
ENDBRANCH  71  88
ENDBRANCH  45  46
ENDBRANCH  37  40
ENDBRANCH  35  36
ENDBRANCH  34  35
ENDBRANCH  33  34
ENDBRANCH  32  33
ENDBRANCH   1  32
TORSDOF 18
ENDMDL
