MODEL 1
REMARK VINA RESULT:     -11.1      0.000      0.000
REMARK SMILES COc1ccc(CSc2ncccc2C(=O)NCCCCCCNC(=O)c2ccc(-c3c4nc(c(-c5c(F)cccc5F)c5ccc([nH]5)c(-c5c(F)cccc5F)c5nc(c(-c6c(F)cccc6F)c6ccc3[nH]6)C=C5)C=C4)cc2)cc1
REMARK SMILES IDX 19 1 18 2 17 3 15 4 16 5 14 7 9 8 10 9 11 10 13 11 12 12
REMARK SMILES IDX 8 13 7 14 6 15 3 16 4 17 82 18 5 19 81 20 2 21 1 22 20 23
REMARK SMILES IDX 21 24 22 25 23 26 24 27 25 28 26 30 27 31 28 32 80 33 29 34
REMARK SMILES IDX 79 35 30 36 31 37 32 38 73 39 33 40 78 41 72 42 74 43 34 44
REMARK SMILES IDX 77 45 71 46 70 47 35 49 61 50 44 51 60 52 45 53 48 54 59 55
REMARK SMILES IDX 75 56 46 57 47 58 58 60 76 61 49 62 36 63 37 64 42 65 38 66
REMARK SMILES IDX 39 67 41 68 43 69 40 70 62 71 63 72 68 73 64 74 65 75 67 76
REMARK SMILES IDX 69 77 66 78 50 79 51 80 56 81 52 82 53 83 55 84 57 85 54 86
REMARK H PARENT 17 6 24 29 74 48 48 59
REMARK Flexibility Score: inf
ROOT
ATOM      1  C   UNL A   1      33.148  28.959  25.507  1.00  0.00     0.021 C 
ENDROOT
BRANCH   1   2
ATOM      2  C   UNL A   1      33.886  27.831  26.234  1.00  0.00     0.116 C 
BRANCH   2   3
ATOM      3  N   UNL A   1      32.974  26.722  26.442  1.00  0.00    -0.352 N 
ATOM      4  C   UNL A   1      32.765  25.496  25.865  1.00  0.00     0.254 C 
ATOM      5  O   UNL A   1      31.710  24.961  26.202  1.00  0.00    -0.269 OA
ATOM      6  H   UNL A   1      32.347  26.894  27.182  1.00  0.00     0.163 HD
BRANCH   4   7
ATOM      7  C   UNL A   1      33.737  24.797  24.966  1.00  0.00     0.072 A 
ATOM      8  C   UNL A   1      33.394  24.440  23.649  1.00  0.00     0.109 A 
ATOM      9  N   UNL A   1      34.220  23.707  22.848  1.00  0.00    -0.249 NA
ATOM     10  C   UNL A   1      35.417  23.328  23.325  1.00  0.00     0.112 A 
ATOM     11  C   UNL A   1      35.037  24.469  25.375  1.00  0.00     0.018 A 
ATOM     12  C   UNL A   1      35.877  23.703  24.566  1.00  0.00     0.021 A 
BRANCH   8  13
ATOM     13  S   UNL A   1      31.947  24.974  22.748  1.00  0.00    -0.101 SA
BRANCH  13  14
ATOM     14  C   UNL A   1      32.263  26.760  22.660  1.00  0.00     0.112 C 
BRANCH  14  15
ATOM     15  C   UNL A   1      31.026  27.612  22.810  1.00  0.00    -0.037 A 
ATOM     16  C   UNL A   1      28.721  29.212  23.070  1.00  0.00     0.118 A 
ATOM     17  C   UNL A   1      28.713  27.886  23.501  1.00  0.00     0.047 A 
ATOM     18  C   UNL A   1      29.883  29.741  22.507  1.00  0.00     0.047 A 
ATOM     19  C   UNL A   1      29.846  27.087  23.356  1.00  0.00     0.008 A 
ATOM     20  C   UNL A   1      31.028  28.945  22.378  1.00  0.00     0.008 A 
BRANCH  16  21
ATOM     21  O   UNL A   1      27.557  29.895  23.282  1.00  0.00    -0.497 OA
ATOM     22  C   UNL A   1      27.653  31.313  23.260  1.00  0.00     0.278 C 
ENDBRANCH  16  21
ENDBRANCH  14  15
ENDBRANCH  13  14
ENDBRANCH   8  13
ENDBRANCH   4   7
ENDBRANCH   2   3
ENDBRANCH   1   2
BRANCH   1  23
ATOM     23  C   UNL A   1      32.509  29.980  26.464  1.00  0.00     0.002 C 
BRANCH  23  24
ATOM     24  C   UNL A   1      31.403  30.843  25.843  1.00  0.00     0.002 C 
BRANCH  24  25
ATOM     25  C   UNL A   1      31.188  32.197  26.522  1.00  0.00     0.021 C 
BRANCH  25  26
ATOM     26  C   UNL A   1      32.426  32.750  27.220  1.00  0.00     0.116 C 
BRANCH  26  27
ATOM     27  N   UNL A   1      32.286  34.164  27.524  1.00  0.00    -0.352 N 
ATOM     28  C   UNL A   1      32.924  34.912  28.481  1.00  0.00     0.251 C 
ATOM     29  H   UNL A   1      31.643  34.655  26.963  1.00  0.00     0.163 HD
ATOM     30  O   UNL A   1      32.529  36.040  28.753  1.00  0.00    -0.269 OA
BRANCH  28  31
ATOM     31  C   UNL A   1      34.085  34.345  29.199  1.00  0.00     0.039 A 
ATOM     32  C   UNL A   1      33.878  33.699  30.420  1.00  0.00     0.014 A 
ATOM     33  C   UNL A   1      35.376  34.465  28.674  1.00  0.00     0.014 A 
ATOM     34  C   UNL A   1      34.961  33.128  31.091  1.00  0.00     0.010 A 
ATOM     35  C   UNL A   1      36.442  33.835  29.309  1.00  0.00     0.010 A 
ATOM     36  C   UNL A   1      36.247  33.167  30.527  1.00  0.00    -0.014 A 
BRANCH  36  37
ATOM     37  C   UNL A   1      37.400  32.522  31.200  1.00  0.00     0.031 A 
ATOM     38  C   UNL A   1      38.106  31.367  30.547  1.00  0.00     0.074 A 
ATOM     39  C   UNL A   1      37.772  32.935  32.427  1.00  0.00     0.049 A 
ATOM     40  N   UNL A   1      39.090  30.633  31.002  1.00  0.00    -0.248 NA
ATOM     41  C   UNL A   1      37.625  30.965  29.215  1.00  0.00     0.031 C 
ATOM     42  C   UNL A   1      37.136  34.015  33.184  1.00  0.00     0.029 A 
ATOM     43  N   UNL A   1      38.769  32.488  33.257  1.00  0.00    -0.354 N 
ATOM     44  C   UNL A   1      39.334  29.678  30.024  1.00  0.00     0.074 A 
ATOM     45  C   UNL A   1      38.362  29.890  28.974  1.00  0.00     0.031 C 
ATOM     46  C   UNL A   1      37.773  34.162  34.357  1.00  0.00     0.029 A 
ATOM     47  C   UNL A   1      38.836  33.165  34.450  1.00  0.00     0.049 A 
ATOM     48  H   UNL A   1      39.379  31.752  33.019  1.00  0.00     0.167 HD
ATOM     49  C   UNL A   1      40.296  28.726  29.992  1.00  0.00     0.037 A 
ATOM     50  C   UNL A   1      39.658  32.997  35.502  1.00  0.00     0.037 A 
ATOM     51  C   UNL A   1      41.277  28.533  31.028  1.00  0.00     0.049 A 
ATOM     52  C   UNL A   1      40.715  31.929  35.446  1.00  0.00     0.074 A 
ATOM     53  C   UNL A   1      42.332  27.638  31.061  1.00  0.00     0.029 A 
ATOM     54  N   UNL A   1      41.321  29.247  32.215  1.00  0.00    -0.354 N 
ATOM     55  N   UNL A   1      40.979  31.077  34.485  1.00  0.00    -0.248 NA
ATOM     56  C   UNL A   1      41.591  31.802  36.619  1.00  0.00     0.031 C 
ATOM     57  C   UNL A   1      42.987  27.780  32.289  1.00  0.00     0.029 A 
ATOM     58  C   UNL A   1      42.370  28.796  33.000  1.00  0.00     0.049 A 
ATOM     59  H   UNL A   1      40.699  29.968  32.464  1.00  0.00     0.167 HD
ATOM     60  C   UNL A   1      42.065  30.332  34.923  1.00  0.00     0.074 A 
ATOM     61  C   UNL A   1      42.420  30.843  36.232  1.00  0.00     0.031 C 
ATOM     62  C   UNL A   1      42.712  29.318  34.300  1.00  0.00     0.037 A 
BRANCH  49  63
ATOM     63  C   UNL A   1      40.332  27.820  28.795  1.00  0.00     0.057 A 
ATOM     64  C   UNL A   1      41.077  28.136  27.651  1.00  0.00     0.134 A 
ATOM     65  C   UNL A   1      39.635  26.605  28.795  1.00  0.00     0.134 A 
ATOM     66  F   UNL A   1      41.758  29.290  27.580  1.00  0.00    -0.206 F 
ATOM     67  C   UNL A   1      41.102  27.292  26.538  1.00  0.00     0.040 A 
ATOM     68  C   UNL A   1      39.676  25.741  27.700  1.00  0.00     0.040 A 
ATOM     69  F   UNL A   1      38.907  26.238  29.860  1.00  0.00    -0.206 F 
ATOM     70  C   UNL A   1      40.404  26.087  26.564  1.00  0.00     0.006 A 
ENDBRANCH  49  63
BRANCH  50  71
ATOM     71  C   UNL A   1      39.533  33.879  36.689  1.00  0.00     0.057 A 
ATOM     72  C   UNL A   1      38.784  33.484  37.805  1.00  0.00     0.134 A 
ATOM     73  C   UNL A   1      40.153  35.133  36.740  1.00  0.00     0.134 A 
ATOM     74  F   UNL A   1      38.152  32.301  37.808  1.00  0.00    -0.206 F 
ATOM     75  C   UNL A   1      38.644  34.309  38.921  1.00  0.00     0.040 A 
ATOM     76  C   UNL A   1      40.041  35.959  37.861  1.00  0.00     0.040 A 
ATOM     77  F   UNL A   1      40.891  35.566  35.708  1.00  0.00    -0.206 F 
ATOM     78  C   UNL A   1      39.278  35.550  38.952  1.00  0.00     0.006 A 
ENDBRANCH  50  71
BRANCH  62  79
ATOM     79  C   UNL A   1      43.886  28.713  35.011  1.00  0.00     0.057 A 
ATOM     80  C   UNL A   1      45.185  29.213  34.852  1.00  0.00     0.134 A 
ATOM     81  C   UNL A   1      43.709  27.642  35.896  1.00  0.00     0.134 A 
ATOM     82  F   UNL A   1      45.423  30.230  34.008  1.00  0.00    -0.206 F 
ATOM     83  C   UNL A   1      46.269  28.654  35.530  1.00  0.00     0.040 A 
ATOM     84  C   UNL A   1      44.781  27.092  36.600  1.00  0.00     0.040 A 
ATOM     85  F   UNL A   1      42.489  27.121  36.100  1.00  0.00    -0.206 F 
ATOM     86  C   UNL A   1      46.066  27.595  36.412  1.00  0.00     0.006 A 
ENDBRANCH  62  79
ENDBRANCH  36  37
ENDBRANCH  28  31
ENDBRANCH  26  27
ENDBRANCH  25  26
ENDBRANCH  24  25
ENDBRANCH  23  24
ENDBRANCH   1  23
TORSDOF 17
ENDMDL
MODEL 2
REMARK VINA RESULT:     -11.0      5.413     10.045
REMARK SMILES COc1ccc(CSc2ncccc2C(=O)NCCCCCCNC(=O)c2ccc(-c3c4nc(c(-c5c(F)cccc5F)c5ccc([nH]5)c(-c5c(F)cccc5F)c5nc(c(-c6c(F)cccc6F)c6ccc3[nH]6)C=C5)C=C4)cc2)cc1
REMARK SMILES IDX 19 1 18 2 17 3 15 4 16 5 14 7 9 8 10 9 11 10 13 11 12 12
REMARK SMILES IDX 8 13 7 14 6 15 3 16 4 17 82 18 5 19 81 20 2 21 1 22 20 23
REMARK SMILES IDX 21 24 22 25 23 26 24 27 25 28 26 30 27 31 28 32 80 33 29 34
REMARK SMILES IDX 79 35 30 36 31 37 32 38 73 39 33 40 78 41 72 42 74 43 34 44
REMARK SMILES IDX 77 45 71 46 70 47 35 49 61 50 44 51 60 52 45 53 48 54 59 55
REMARK SMILES IDX 75 56 46 57 47 58 58 60 76 61 49 62 36 63 37 64 42 65 38 66
REMARK SMILES IDX 39 67 41 68 43 69 40 70 62 71 63 72 68 73 64 74 65 75 67 76
REMARK SMILES IDX 69 77 66 78 50 79 51 80 56 81 52 82 53 83 55 84 57 85 54 86
REMARK H PARENT 17 6 24 29 74 48 48 59
REMARK Flexibility Score: inf
ROOT
ATOM      1  C   UNL A   1      36.999  23.129  24.737  1.00  0.00     0.021 C 
ENDROOT
BRANCH   1   2
ATOM      2  C   UNL A   1      36.182  23.831  25.826  1.00  0.00     0.116 C 
BRANCH   2   3
ATOM      3  N   UNL A   1      35.202  22.904  26.358  1.00  0.00    -0.352 N 
ATOM      4  C   UNL A   1      33.839  22.890  26.511  1.00  0.00     0.254 C 
ATOM      5  O   UNL A   1      33.430  21.989  27.242  1.00  0.00    -0.269 OA
ATOM      6  H   UNL A   1      35.620  22.078  26.696  1.00  0.00     0.163 HD
BRANCH   4   7
ATOM      7  C   UNL A   1      32.891  23.812  25.811  1.00  0.00     0.072 A 
ATOM      8  C   UNL A   1      32.760  23.808  24.410  1.00  0.00     0.109 A 
ATOM      9  N   UNL A   1      31.987  24.711  23.741  1.00  0.00    -0.249 NA
ATOM     10  C   UNL A   1      31.304  25.627  24.447  1.00  0.00     0.112 A 
ATOM     11  C   UNL A   1      32.075  24.719  26.503  1.00  0.00     0.018 A 
ATOM     12  C   UNL A   1      31.297  25.656  25.822  1.00  0.00     0.021 A 
BRANCH   8  13
ATOM     13  S   UNL A   1      33.426  22.589  23.286  1.00  0.00    -0.101 SA
BRANCH  13  14
ATOM     14  C   UNL A   1      32.196  21.266  23.480  1.00  0.00     0.112 C 
BRANCH  14  15
ATOM     15  C   UNL A   1      32.793  19.891  23.654  1.00  0.00    -0.037 A 
ATOM     16  C   UNL A   1      33.908  17.328  24.002  1.00  0.00     0.118 A 
ATOM     17  C   UNL A   1      32.916  17.543  23.046  1.00  0.00     0.047 A 
ATOM     18  C   UNL A   1      34.344  18.396  24.787  1.00  0.00     0.047 A 
ATOM     19  C   UNL A   1      32.349  18.807  22.885  1.00  0.00     0.008 A 
ATOM     20  C   UNL A   1      33.789  19.669  24.614  1.00  0.00     0.008 A 
BRANCH  16  21
ATOM     21  O   UNL A   1      34.396  16.052  24.051  1.00  0.00    -0.497 OA
ATOM     22  C   UNL A   1      35.192  15.731  25.184  1.00  0.00     0.278 C 
ENDBRANCH  16  21
ENDBRANCH  14  15
ENDBRANCH  13  14
ENDBRANCH   8  13
ENDBRANCH   4   7
ENDBRANCH   2   3
ENDBRANCH   1   2
BRANCH   1  23
ATOM     23  C   UNL A   1      37.789  21.916  25.260  1.00  0.00     0.002 C 
BRANCH  23  24
ATOM     24  C   UNL A   1      37.418  20.576  24.612  1.00  0.00     0.002 C 
BRANCH  24  25
ATOM     25  C   UNL A   1      38.342  19.411  24.974  1.00  0.00     0.021 C 
BRANCH  25  26
ATOM     26  C   UNL A   1      39.376  19.743  26.044  1.00  0.00     0.116 C 
BRANCH  26  27
ATOM     27  N   UNL A   1      40.523  18.852  25.979  1.00  0.00    -0.352 N 
ATOM     28  C   UNL A   1      41.860  19.156  26.022  1.00  0.00     0.251 C 
ATOM     29  H   UNL A   1      40.309  17.895  25.894  1.00  0.00     0.163 HD
ATOM     30  O   UNL A   1      42.698  18.310  25.732  1.00  0.00    -0.269 OA
BRANCH  28  31
ATOM     31  C   UNL A   1      42.289  20.517  26.406  1.00  0.00     0.039 A 
ATOM     32  C   UNL A   1      42.857  21.348  25.437  1.00  0.00     0.014 A 
ATOM     33  C   UNL A   1      42.145  20.965  27.723  1.00  0.00     0.014 A 
ATOM     34  C   UNL A   1      43.234  22.647  25.777  1.00  0.00     0.010 A 
ATOM     35  C   UNL A   1      42.456  22.283  28.043  1.00  0.00     0.010 A 
ATOM     36  C   UNL A   1      43.010  23.135  27.076  1.00  0.00    -0.014 A 
BRANCH  36  37
ATOM     37  C   UNL A   1      43.358  24.530  27.442  1.00  0.00     0.031 A 
ATOM     38  C   UNL A   1      44.794  24.974  27.444  1.00  0.00     0.074 A 
ATOM     39  C   UNL A   1      42.388  25.377  27.834  1.00  0.00     0.049 A 
ATOM     40  N   UNL A   1      45.303  26.128  27.794  1.00  0.00    -0.248 NA
ATOM     41  C   UNL A   1      45.795  23.980  27.022  1.00  0.00     0.031 C 
ATOM     42  C   UNL A   1      40.963  25.051  27.918  1.00  0.00     0.029 A 
ATOM     43  N   UNL A   1      42.454  26.685  28.244  1.00  0.00    -0.354 N 
ATOM     44  C   UNL A   1      46.678  25.994  27.649  1.00  0.00     0.074 A 
ATOM     45  C   UNL A   1      46.929  24.633  27.231  1.00  0.00     0.031 C 
ATOM     46  C   UNL A   1      40.288  26.136  28.330  1.00  0.00     0.029 A 
ATOM     47  C   UNL A   1      41.233  27.221  28.575  1.00  0.00     0.049 A 
ATOM     48  H   UNL A   1      43.298  27.191  28.296  1.00  0.00     0.167 HD
ATOM     49  C   UNL A   1      47.642  26.929  27.825  1.00  0.00     0.037 A 
ATOM     50  C   UNL A   1      40.915  28.447  29.029  1.00  0.00     0.037 A 
ATOM     51  C   UNL A   1      47.386  28.290  28.218  1.00  0.00     0.049 A 
ATOM     52  C   UNL A   1      42.003  29.465  29.222  1.00  0.00     0.074 A 
ATOM     53  C   UNL A   1      48.288  29.330  28.362  1.00  0.00     0.029 A 
ATOM     54  N   UNL A   1      46.135  28.799  28.531  1.00  0.00    -0.354 N 
ATOM     55  N   UNL A   1      43.292  29.346  29.016  1.00  0.00    -0.248 NA
ATOM     56  C   UNL A   1      41.592  30.790  29.708  1.00  0.00     0.031 C 
ATOM     57  C   UNL A   1      47.588  30.457  28.807  1.00  0.00     0.029 A 
ATOM     58  C   UNL A   1      46.244  30.132  28.893  1.00  0.00     0.049 A 
ATOM     59  H   UNL A   1      45.294  28.288  28.502  1.00  0.00     0.167 HD
ATOM     60  C   UNL A   1      43.843  30.584  29.319  1.00  0.00     0.074 A 
ATOM     61  C   UNL A   1      42.745  31.444  29.710  1.00  0.00     0.031 C 
ATOM     62  C   UNL A   1      45.140  30.975  29.277  1.00  0.00     0.037 A 
BRANCH  49  63
ATOM     63  C   UNL A   1      49.064  26.506  27.592  1.00  0.00     0.057 A 
ATOM     64  C   UNL A   1      49.871  26.023  28.632  1.00  0.00     0.134 A 
ATOM     65  C   UNL A   1      49.626  26.557  26.311  1.00  0.00     0.134 A 
ATOM     66  F   UNL A   1      49.398  25.959  29.886  1.00  0.00    -0.206 F 
ATOM     67  C   UNL A   1      51.194  25.636  28.411  1.00  0.00     0.040 A 
ATOM     68  C   UNL A   1      50.939  26.147  26.073  1.00  0.00     0.040 A 
ATOM     69  F   UNL A   1      48.908  27.004  25.269  1.00  0.00    -0.206 F 
ATOM     70  C   UNL A   1      51.729  25.693  27.126  1.00  0.00     0.006 A 
ENDBRANCH  49  63
BRANCH  50  71
ATOM     71  C   UNL A   1      39.497  28.788  29.307  1.00  0.00     0.057 A 
ATOM     72  C   UNL A   1      38.676  29.327  28.309  1.00  0.00     0.134 A 
ATOM     73  C   UNL A   1      38.929  28.587  30.571  1.00  0.00     0.134 A 
ATOM     74  F   UNL A   1      39.169  29.559  27.084  1.00  0.00    -0.206 F 
ATOM     75  C   UNL A   1      37.347  29.667  28.561  1.00  0.00     0.040 A 
ATOM     76  C   UNL A   1      37.593  28.901  30.830  1.00  0.00     0.040 A 
ATOM     77  F   UNL A   1      39.660  28.066  31.568  1.00  0.00    -0.206 F 
ATOM     78  C   UNL A   1      36.801  29.450  29.825  1.00  0.00     0.006 A 
ENDBRANCH  50  71
BRANCH  62  79
ATOM     79  C   UNL A   1      45.438  32.401  29.634  1.00  0.00     0.057 A 
ATOM     80  C   UNL A   1      45.389  33.428  28.682  1.00  0.00     0.134 A 
ATOM     81  C   UNL A   1      45.740  32.757  30.955  1.00  0.00     0.134 A 
ATOM     82  F   UNL A   1      45.119  33.151  27.398  1.00  0.00    -0.206 F 
ATOM     83  C   UNL A   1      45.654  34.754  29.028  1.00  0.00     0.040 A 
ATOM     84  C   UNL A   1      45.980  34.083  31.317  1.00  0.00     0.040 A 
ATOM     85  F   UNL A   1      45.795  31.822  31.917  1.00  0.00    -0.206 F 
ATOM     86  C   UNL A   1      45.942  35.085  30.350  1.00  0.00     0.006 A 
ENDBRANCH  62  79
ENDBRANCH  36  37
ENDBRANCH  28  31
ENDBRANCH  26  27
ENDBRANCH  25  26
ENDBRANCH  24  25
ENDBRANCH  23  24
ENDBRANCH   1  23
TORSDOF 17
ENDMDL
MODEL 3
REMARK VINA RESULT:     -11.0      5.152     10.052
REMARK SMILES COc1ccc(CSc2ncccc2C(=O)NCCCCCCNC(=O)c2ccc(-c3c4nc(c(-c5c(F)cccc5F)c5ccc([nH]5)c(-c5c(F)cccc5F)c5nc(c(-c6c(F)cccc6F)c6ccc3[nH]6)C=C5)C=C4)cc2)cc1
REMARK SMILES IDX 19 1 18 2 17 3 15 4 16 5 14 7 9 8 10 9 11 10 13 11 12 12
REMARK SMILES IDX 8 13 7 14 6 15 3 16 4 17 82 18 5 19 81 20 2 21 1 22 20 23
REMARK SMILES IDX 21 24 22 25 23 26 24 27 25 28 26 30 27 31 28 32 80 33 29 34
REMARK SMILES IDX 79 35 30 36 31 37 32 38 73 39 33 40 78 41 72 42 74 43 34 44
REMARK SMILES IDX 77 45 71 46 70 47 35 49 61 50 44 51 60 52 45 53 48 54 59 55
REMARK SMILES IDX 75 56 46 57 47 58 58 60 76 61 49 62 36 63 37 64 42 65 38 66
REMARK SMILES IDX 39 67 41 68 43 69 40 70 62 71 63 72 68 73 64 74 65 75 67 76
REMARK SMILES IDX 69 77 66 78 50 79 51 80 56 81 52 82 53 83 55 84 57 85 54 86
REMARK H PARENT 17 6 24 29 74 48 48 59
REMARK Flexibility Score: inf
ROOT
ATOM      1  C   UNL A   1      36.505  23.075  25.559  1.00  0.00     0.021 C 
ENDROOT
BRANCH   1   2
ATOM      2  C   UNL A   1      35.368  23.949  25.022  1.00  0.00     0.116 C 
BRANCH   2   3
ATOM      3  N   UNL A   1      34.224  23.841  25.908  1.00  0.00    -0.352 N 
ATOM      4  C   UNL A   1      33.133  23.018  26.012  1.00  0.00     0.254 C 
ATOM      5  O   UNL A   1      32.268  23.434  26.783  1.00  0.00    -0.269 OA
ATOM      6  H   UNL A   1      34.235  24.533  26.610  1.00  0.00     0.163 HD
BRANCH   4   7
ATOM      7  C   UNL A   1      32.995  21.690  25.336  1.00  0.00     0.072 A 
ATOM      8  C   UNL A   1      32.566  21.587  24.000  1.00  0.00     0.109 A 
ATOM      9  N   UNL A   1      32.326  20.386  23.396  1.00  0.00    -0.249 NA
ATOM     10  C   UNL A   1      32.530  19.258  24.095  1.00  0.00     0.112 A 
ATOM     11  C   UNL A   1      33.294  20.482  25.983  1.00  0.00     0.018 A 
ATOM     12  C   UNL A   1      33.033  19.254  25.375  1.00  0.00     0.021 A 
BRANCH   8  13
ATOM     13  S   UNL A   1      32.398  22.929  22.833  1.00  0.00    -0.101 SA
BRANCH  13  14
ATOM     14  C   UNL A   1      30.875  23.704  23.450  1.00  0.00     0.112 C 
BRANCH  14  15
ATOM     15  C   UNL A   1      30.982  25.196  23.649  1.00  0.00    -0.037 A 
ATOM     16  C   UNL A   1      31.198  27.982  24.005  1.00  0.00     0.118 A 
ATOM     17  C   UNL A   1      29.950  27.361  24.032  1.00  0.00     0.047 A 
ATOM     18  C   UNL A   1      32.341  27.210  23.799  1.00  0.00     0.047 A 
ATOM     19  C   UNL A   1      29.839  25.985  23.837  1.00  0.00     0.008 A 
ATOM     20  C   UNL A   1      32.233  25.825  23.622  1.00  0.00     0.008 A 
BRANCH  16  21
ATOM     21  O   UNL A   1      31.176  29.331  24.226  1.00  0.00    -0.497 OA
ATOM     22  C   UNL A   1      31.792  29.776  25.428  1.00  0.00     0.278 C 
ENDBRANCH  16  21
ENDBRANCH  14  15
ENDBRANCH  13  14
ENDBRANCH   8  13
ENDBRANCH   4   7
ENDBRANCH   2   3
ENDBRANCH   1   2
BRANCH   1  23
ATOM     23  C   UNL A   1      36.950  21.985  24.569  1.00  0.00     0.002 C 
BRANCH  23  24
ATOM     24  C   UNL A   1      36.623  20.549  25.001  1.00  0.00     0.002 C 
BRANCH  24  25
ATOM     25  C   UNL A   1      37.814  19.588  24.988  1.00  0.00     0.021 C 
BRANCH  25  26
ATOM     26  C   UNL A   1      39.038  20.102  25.737  1.00  0.00     0.116 C 
BRANCH  26  27
ATOM     27  N   UNL A   1      40.056  19.073  25.874  1.00  0.00    -0.352 N 
ATOM     28  C   UNL A   1      41.408  19.210  26.063  1.00  0.00     0.251 C 
ATOM     29  H   UNL A   1      39.728  18.146  25.825  1.00  0.00     0.163 HD
ATOM     30  O   UNL A   1      42.154  18.246  25.935  1.00  0.00    -0.269 OA
BRANCH  28  31
ATOM     31  C   UNL A   1      41.967  20.534  26.408  1.00  0.00     0.039 A 
ATOM     32  C   UNL A   1      42.288  21.423  25.379  1.00  0.00     0.014 A 
ATOM     33  C   UNL A   1      42.188  20.890  27.742  1.00  0.00     0.014 A 
ATOM     34  C   UNL A   1      42.784  22.690  25.692  1.00  0.00     0.010 A 
ATOM     35  C   UNL A   1      42.615  22.177  28.054  1.00  0.00     0.010 A 
ATOM     36  C   UNL A   1      42.925  23.087  27.032  1.00  0.00    -0.014 A 
BRANCH  36  37
ATOM     37  C   UNL A   1      43.402  24.447  27.384  1.00  0.00     0.031 A 
ATOM     38  C   UNL A   1      42.422  25.503  27.812  1.00  0.00     0.074 A 
ATOM     39  C   UNL A   1      44.708  24.748  27.257  1.00  0.00     0.049 A 
ATOM     40  N   UNL A   1      42.635  26.762  28.099  1.00  0.00    -0.248 NA
ATOM     41  C   UNL A   1      41.010  25.097  27.906  1.00  0.00     0.031 C 
ATOM     42  C   UNL A   1      45.750  23.822  26.807  1.00  0.00     0.029 A 
ATOM     43  N   UNL A   1      45.381  25.921  27.487  1.00  0.00    -0.354 N 
ATOM     44  C   UNL A   1      41.388  27.300  28.390  1.00  0.00     0.074 A 
ATOM     45  C   UNL A   1      40.416  26.246  28.195  1.00  0.00     0.031 C 
ATOM     46  C   UNL A   1      46.933  24.457  26.816  1.00  0.00     0.029 A 
ATOM     47  C   UNL A   1      46.730  25.840  27.235  1.00  0.00     0.049 A 
ATOM     48  H   UNL A   1      44.940  26.743  27.803  1.00  0.00     0.167 HD
ATOM     49  C   UNL A   1      41.082  28.552  28.806  1.00  0.00     0.037 A 
ATOM     50  C   UNL A   1      47.691  26.777  27.327  1.00  0.00     0.037 A 
ATOM     51  C   UNL A   1      42.054  29.591  29.022  1.00  0.00     0.049 A 
ATOM     52  C   UNL A   1      47.326  28.162  27.785  1.00  0.00     0.074 A 
ATOM     53  C   UNL A   1      41.853  30.874  29.502  1.00  0.00     0.029 A 
ATOM     54  N   UNL A   1      43.411  29.467  28.768  1.00  0.00    -0.354 N 
ATOM     55  N   UNL A   1      46.152  28.638  28.123  1.00  0.00    -0.248 NA
ATOM     56  C   UNL A   1      48.420  29.138  27.878  1.00  0.00     0.031 C 
ATOM     57  C   UNL A   1      43.083  31.541  29.497  1.00  0.00     0.029 A 
ATOM     58  C   UNL A   1      44.057  30.658  29.059  1.00  0.00     0.049 A 
ATOM     59  H   UNL A   1      43.851  28.654  28.432  1.00  0.00     0.167 HD
ATOM     60  C   UNL A   1      46.369  29.958  28.495  1.00  0.00     0.074 A 
ATOM     61  C   UNL A   1      47.790  30.203  28.354  1.00  0.00     0.031 C 
ATOM     62  C   UNL A   1      45.474  30.884  28.916  1.00  0.00     0.037 A 
BRANCH  49  63
ATOM     63  C   UNL A   1      39.634  28.863  29.054  1.00  0.00     0.057 A 
ATOM     64  C   UNL A   1      38.790  29.316  28.031  1.00  0.00     0.134 A 
ATOM     65  C   UNL A   1      39.070  28.684  30.323  1.00  0.00     0.134 A 
ATOM     66  F   UNL A   1      39.269  29.520  26.794  1.00  0.00    -0.206 F 
ATOM     67  C   UNL A   1      37.445  29.608  28.268  1.00  0.00     0.040 A 
ATOM     68  C   UNL A   1      37.720  28.946  30.565  1.00  0.00     0.040 A 
ATOM     69  F   UNL A   1      39.819  28.248  31.346  1.00  0.00    -0.206 F 
ATOM     70  C   UNL A   1      36.906  29.418  29.538  1.00  0.00     0.006 A 
ENDBRANCH  49  63
BRANCH  50  71
ATOM     71  C   UNL A   1      49.097  26.431  27.003  1.00  0.00     0.057 A 
ATOM     72  C   UNL A   1      49.588  26.555  25.698  1.00  0.00     0.134 A 
ATOM     73  C   UNL A   1      49.983  25.968  27.984  1.00  0.00     0.134 A 
ATOM     74  F   UNL A   1      48.782  26.976  24.712  1.00  0.00    -0.206 F 
ATOM     75  C   UNL A   1      50.902  26.218  25.376  1.00  0.00     0.040 A 
ATOM     76  C   UNL A   1      51.308  25.650  27.680  1.00  0.00     0.040 A 
ATOM     77  F   UNL A   1      49.577  25.835  29.255  1.00  0.00    -0.206 F 
ATOM     78  C   UNL A   1      51.768  25.767  26.371  1.00  0.00     0.006 A 
ENDBRANCH  50  71
BRANCH  62  79
ATOM     79  C   UNL A   1      46.008  32.238  29.282  1.00  0.00     0.057 A 
ATOM     80  C   UNL A   1      46.072  33.284  28.352  1.00  0.00     0.134 A 
ATOM     81  C   UNL A   1      46.426  32.509  30.591  1.00  0.00     0.134 A 
ATOM     82  F   UNL A   1      45.698  33.085  27.079  1.00  0.00    -0.206 F 
ATOM     83  C   UNL A   1      46.556  34.544  28.706  1.00  0.00     0.040 A 
ATOM     84  C   UNL A   1      46.886  33.772  30.963  1.00  0.00     0.040 A 
ATOM     85  F   UNL A   1      46.383  31.553  31.532  1.00  0.00    -0.206 F 
ATOM     86  C   UNL A   1      46.957  34.792  30.017  1.00  0.00     0.006 A 
ENDBRANCH  62  79
ENDBRANCH  36  37
ENDBRANCH  28  31
ENDBRANCH  26  27
ENDBRANCH  25  26
ENDBRANCH  24  25
ENDBRANCH  23  24
ENDBRANCH   1  23
TORSDOF 17
ENDMDL
