MODEL 1
REMARK VINA RESULT:     -10.4      0.000      0.000
REMARK SMILES [NH3+][C@H](CCC(=O)NCCCCCCNC(=O)c1ccc(-c2c3nc(c(-c4c(F)cccc4F)c4ccc([nH]4)c(-c4c(F)cccc4F)c4nc(c(-c5c(F)cccc5F)c5ccc2[nH]5)C=C4)C=C3)cc1)c1nccc2[nH]ccc12
REMARK SMILES IDX 10 1 9 2 8 3 7 4 5 5 6 6 4 8 3 9 2 10 1 11 71 15 72 16 79 17
REMARK SMILES IDX 73 18 75 19 78 20 74 21 76 22 77 23 11 25 12 26 13 27 14 28
REMARK SMILES IDX 15 29 16 31 17 32 18 33 70 34 19 35 69 36 20 37 21 38 22 39
REMARK SMILES IDX 63 40 23 41 68 42 62 43 64 44 24 45 67 46 61 47 60 48 25 50
REMARK SMILES IDX 51 51 34 52 50 53 35 54 38 55 49 56 65 57 36 58 37 59 48 61
REMARK SMILES IDX 66 62 39 63 26 64 27 65 32 66 28 67 29 68 31 69 33 70 30 71
REMARK SMILES IDX 52 72 53 73 58 74 54 75 55 76 57 77 59 78 56 79 40 80 41 81
REMARK SMILES IDX 46 82 42 83 43 84 45 85 47 86 44 87
REMARK H PARENT 7 7 1 12 1 13 1 14 76 24 14 30 64 49 38 60
REMARK Flexibility Score: inf
ROOT
ATOM      1  C   UNL A   1      42.206  21.149  27.141  1.00  0.00     0.002 C 
ENDROOT
BRANCH   1   2
ATOM      2  C   UNL A   1      41.325  21.867  26.116  1.00  0.00     0.021 C 
BRANCH   2   3
ATOM      3  C   UNL A   1      39.842  21.851  26.487  1.00  0.00     0.116 C 
BRANCH   3   4
ATOM      4  N   UNL A   1      39.462  23.099  27.107  1.00  0.00    -0.356 N 
ATOM      5  C   UNL A   1      38.586  24.043  26.663  1.00  0.00     0.220 C 
ATOM      6  O   UNL A   1      38.609  25.151  27.204  1.00  0.00    -0.275 OA
ATOM      7  H   UNL A   1      39.896  23.295  27.969  1.00  0.00     0.163 HD
BRANCH   5   8
ATOM      8  C   UNL A   1      37.559  23.720  25.588  1.00  0.00     0.106 C 
BRANCH   8   9
ATOM      9  C   UNL A   1      36.168  23.316  26.090  1.00  0.00     0.082 C 
BRANCH   9  10
ATOM     10  C   UNL A   1      35.723  21.832  26.029  1.00  0.00     0.232 C 
BRANCH  10  11
ATOM     11  N   UNL A   1      34.816  21.531  27.168  1.00  0.00    -0.350 N 
ATOM     12  H   UNL A   1      34.576  20.539  27.158  1.00  0.00     0.345 HD
ATOM     13  H   UNL A   1      33.966  22.088  27.081  1.00  0.00     0.345 HD
ATOM     14  H   UNL A   1      35.284  21.759  28.045  1.00  0.00     0.345 HD
ENDBRANCH  10  11
BRANCH  10  15
ATOM     15  C   UNL A   1      35.058  21.320  24.729  1.00  0.00     0.107 A 
ATOM     16  N   UNL A   1      34.526  22.336  23.967  1.00  0.00    -0.254 NA
ATOM     17  C   UNL A   1      34.348  20.092  24.666  1.00  0.00     0.027 A 
ATOM     18  C   UNL A   1      33.225  22.309  23.620  1.00  0.00     0.114 A 
ATOM     19  C   UNL A   1      32.973  20.158  24.417  1.00  0.00     0.049 A 
ATOM     20  C   UNL A   1      34.669  18.702  24.675  1.00  0.00     0.030 A 
ATOM     21  C   UNL A   1      32.344  21.318  23.990  1.00  0.00     0.047 A 
ATOM     22  N   UNL A   1      32.462  18.906  24.659  1.00  0.00    -0.361 N 
ATOM     23  C   UNL A   1      33.485  17.997  24.594  1.00  0.00     0.083 A 
ATOM     24  H   UNL A   1      31.518  18.698  24.847  1.00  0.00     0.166 HD
ENDBRANCH  10  15
ENDBRANCH   9  10
ENDBRANCH   8   9
ENDBRANCH   5   8
ENDBRANCH   3   4
ENDBRANCH   2   3
ENDBRANCH   1   2
BRANCH   1  25
ATOM     25  C   UNL A   1      41.879  19.661  27.325  1.00  0.00     0.002 C 
BRANCH  25  26
ATOM     26  C   UNL A   1      42.397  18.734  26.221  1.00  0.00     0.021 C 
BRANCH  26  27
ATOM     27  C   UNL A   1      43.917  18.636  26.138  1.00  0.00     0.116 C 
BRANCH  27  28
ATOM     28  N   UNL A   1      44.370  18.503  24.763  1.00  0.00    -0.352 N 
ATOM     29  C   UNL A   1      44.681  19.485  23.853  1.00  0.00     0.251 C 
ATOM     30  H   UNL A   1      44.466  17.578  24.437  1.00  0.00     0.163 HD
ATOM     31  O   UNL A   1      44.799  19.217  22.665  1.00  0.00    -0.269 OA
BRANCH  29  32
ATOM     32  C   UNL A   1      44.871  20.874  24.321  1.00  0.00     0.039 A 
ATOM     33  C   UNL A   1      44.421  21.930  23.524  1.00  0.00     0.014 A 
ATOM     34  C   UNL A   1      45.514  21.130  25.536  1.00  0.00     0.014 A 
ATOM     35  C   UNL A   1      44.570  23.244  23.972  1.00  0.00     0.010 A 
ATOM     36  C   UNL A   1      45.597  22.434  26.011  1.00  0.00     0.010 A 
ATOM     37  C   UNL A   1      45.137  23.506  25.230  1.00  0.00    -0.014 A 
BRANCH  37  38
ATOM     38  C   UNL A   1      45.282  24.891  25.743  1.00  0.00     0.031 A 
ATOM     39  C   UNL A   1      46.637  25.546  25.754  1.00  0.00     0.074 A 
ATOM     40  C   UNL A   1      44.215  25.531  26.259  1.00  0.00     0.049 A 
ATOM     41  N   UNL A   1      46.992  26.705  26.248  1.00  0.00    -0.248 NA
ATOM     42  C   UNL A   1      47.746  24.785  25.156  1.00  0.00     0.031 C 
ATOM     43  C   UNL A   1      42.858  24.989  26.338  1.00  0.00     0.029 A 
ATOM     44  N   UNL A   1      44.109  26.775  26.831  1.00  0.00    -0.354 N 
ATOM     45  C   UNL A   1      48.362  26.800  26.037  1.00  0.00     0.074 A 
ATOM     46  C   UNL A   1      48.784  25.564  25.417  1.00  0.00     0.031 C 
ATOM     47  C   UNL A   1      42.052  25.899  26.909  1.00  0.00     0.029 A 
ATOM     48  C   UNL A   1      42.842  27.072  27.273  1.00  0.00     0.049 A 
ATOM     49  H   UNL A   1      44.868  27.396  26.915  1.00  0.00     0.167 HD
ATOM     50  C   UNL A   1      49.189  27.836  26.316  1.00  0.00     0.037 A 
ATOM     51  C   UNL A   1      42.375  28.162  27.911  1.00  0.00     0.037 A 
ATOM     52  C   UNL A   1      48.760  29.077  26.905  1.00  0.00     0.049 A 
ATOM     53  C   UNL A   1      43.318  29.294  28.216  1.00  0.00     0.074 A 
ATOM     54  C   UNL A   1      49.510  30.208  27.173  1.00  0.00     0.029 A 
ATOM     55  N   UNL A   1      47.464  29.348  27.314  1.00  0.00    -0.354 N 
ATOM     56  N   UNL A   1      44.599  29.396  27.955  1.00  0.00    -0.248 NA
ATOM     57  C   UNL A   1      42.751  30.466  28.899  1.00  0.00     0.031 C 
ATOM     58  C   UNL A   1      48.678  31.147  27.789  1.00  0.00     0.029 A 
ATOM     59  C   UNL A   1      47.397  30.622  27.853  1.00  0.00     0.049 A 
ATOM     60  H   UNL A   1      46.703  28.728  27.234  1.00  0.00     0.167 HD
ATOM     61  C   UNL A   1      44.981  30.654  28.404  1.00  0.00     0.074 A 
ATOM     62  C   UNL A   1      43.795  31.282  28.947  1.00  0.00     0.031 C 
ATOM     63  C   UNL A   1      46.203  31.239  28.369  1.00  0.00     0.037 A 
BRANCH  50  64
ATOM     64  C   UNL A   1      50.645  27.677  25.982  1.00  0.00     0.057 A 
ATOM     65  C   UNL A   1      51.588  27.297  26.945  1.00  0.00     0.134 A 
ATOM     66  C   UNL A   1      51.100  27.855  24.669  1.00  0.00     0.134 A 
ATOM     67  F   UNL A   1      51.221  27.121  28.224  1.00  0.00    -0.206 F 
ATOM     68  C   UNL A   1      52.934  27.119  26.619  1.00  0.00     0.040 A 
ATOM     69  C   UNL A   1      52.437  27.652  24.325  1.00  0.00     0.040 A 
ATOM     70  F   UNL A   1      50.248  28.213  23.696  1.00  0.00    -0.206 F 
ATOM     71  C   UNL A   1      53.360  27.288  25.303  1.00  0.00     0.006 A 
ENDBRANCH  50  64
BRANCH  51  72
ATOM     72  C   UNL A   1      40.943  28.249  28.299  1.00  0.00     0.057 A 
ATOM     73  C   UNL A   1      39.995  28.814  27.437  1.00  0.00     0.134 A 
ATOM     74  C   UNL A   1      40.491  27.800  29.545  1.00  0.00     0.134 A 
ATOM     75  F   UNL A   1      40.368  29.278  26.234  1.00  0.00    -0.206 F 
ATOM     76  C   UNL A   1      38.658  28.959  27.812  1.00  0.00     0.040 A 
ATOM     77  C   UNL A   1      39.152  27.912  29.923  1.00  0.00     0.040 A 
ATOM     78  F   UNL A   1      41.346  27.239  30.415  1.00  0.00    -0.206 F 
ATOM     79  C   UNL A   1      38.233  28.504  29.058  1.00  0.00     0.006 A 
ENDBRANCH  51  72
BRANCH  63  80
ATOM     80  C   UNL A   1      46.311  32.646  28.881  1.00  0.00     0.057 A 
ATOM     81  C   UNL A   1      46.631  32.930  30.213  1.00  0.00     0.134 A 
ATOM     82  C   UNL A   1      46.141  33.731  28.010  1.00  0.00     0.134 A 
ATOM     83  F   UNL A   1      46.794  31.936  31.101  1.00  0.00    -0.206 F 
ATOM     84  C   UNL A   1      46.759  34.243  30.667  1.00  0.00     0.040 A 
ATOM     85  C   UNL A   1      46.295  35.046  28.444  1.00  0.00     0.040 A 
ATOM     86  F   UNL A   1      45.844  33.527  26.718  1.00  0.00    -0.206 F 
ATOM     87  C   UNL A   1      46.600  35.306  29.780  1.00  0.00     0.006 A 
ENDBRANCH  63  80
ENDBRANCH  37  38
ENDBRANCH  29  32
ENDBRANCH  27  28
ENDBRANCH  26  27
ENDBRANCH  25  26
ENDBRANCH   1  25
TORSDOF 17
ENDMDL
MODEL 2
REMARK VINA RESULT:     -10.3      3.632      8.635
REMARK SMILES [NH3+][C@H](CCC(=O)NCCCCCCNC(=O)c1ccc(-c2c3nc(c(-c4c(F)cccc4F)c4ccc([nH]4)c(-c4c(F)cccc4F)c4nc(c(-c5c(F)cccc5F)c5ccc2[nH]5)C=C4)C=C3)cc1)c1nccc2[nH]ccc12
REMARK SMILES IDX 10 1 9 2 8 3 7 4 5 5 6 6 4 8 3 9 2 10 1 11 71 15 72 16 79 17
REMARK SMILES IDX 73 18 75 19 78 20 74 21 76 22 77 23 11 25 12 26 13 27 14 28
REMARK SMILES IDX 15 29 16 31 17 32 18 33 70 34 19 35 69 36 20 37 21 38 22 39
REMARK SMILES IDX 63 40 23 41 68 42 62 43 64 44 24 45 67 46 61 47 60 48 25 50
REMARK SMILES IDX 51 51 34 52 50 53 35 54 38 55 49 56 65 57 36 58 37 59 48 61
REMARK SMILES IDX 66 62 39 63 26 64 27 65 32 66 28 67 29 68 31 69 33 70 30 71
REMARK SMILES IDX 52 72 53 73 58 74 54 75 55 76 57 77 59 78 56 79 40 80 41 81
REMARK SMILES IDX 46 82 42 83 43 84 45 85 47 86 44 87
REMARK H PARENT 7 7 1 12 1 13 1 14 76 24 14 30 64 49 38 60
REMARK Flexibility Score: inf
ROOT
ATOM      1  C   UNL A   1      31.057  27.892  24.782  1.00  0.00     0.002 C 
ENDROOT
BRANCH   1   2
ATOM      2  C   UNL A   1      31.465  28.891  23.697  1.00  0.00     0.021 C 
BRANCH   2   3
ATOM      3  C   UNL A   1      32.832  28.582  23.085  1.00  0.00     0.116 C 
BRANCH   3   4
ATOM      4  N   UNL A   1      32.706  27.604  22.030  1.00  0.00    -0.356 N 
ATOM      5  C   UNL A   1      33.254  26.360  21.948  1.00  0.00     0.220 C 
ATOM      6  O   UNL A   1      33.245  25.797  20.850  1.00  0.00    -0.275 OA
ATOM      7  H   UNL A   1      32.148  27.873  21.266  1.00  0.00     0.163 HD
BRANCH   5   8
ATOM      8  C   UNL A   1      33.793  25.653  23.183  1.00  0.00     0.106 C 
BRANCH   8   9
ATOM      9  C   UNL A   1      32.800  24.747  23.923  1.00  0.00     0.082 C 
BRANCH   9  10
ATOM     10  C   UNL A   1      32.797  23.220  23.654  1.00  0.00     0.232 C 
BRANCH  10  11
ATOM     11  N   UNL A   1      33.306  22.949  22.284  1.00  0.00    -0.350 N 
ATOM     12  H   UNL A   1      33.214  21.955  22.077  1.00  0.00     0.345 HD
ATOM     13  H   UNL A   1      34.288  23.219  22.227  1.00  0.00     0.345 HD
ATOM     14  H   UNL A   1      32.766  23.489  21.607  1.00  0.00     0.345 HD
ENDBRANCH  10  11
BRANCH  10  15
ATOM     15  C   UNL A   1      33.552  22.302  24.644  1.00  0.00     0.107 A 
ATOM     16  N   UNL A   1      32.774  21.915  25.712  1.00  0.00    -0.254 NA
ATOM     17  C   UNL A   1      34.931  22.467  24.940  1.00  0.00     0.027 A 
ATOM     18  C   UNL A   1      33.185  22.162  26.970  1.00  0.00     0.114 A 
ATOM     19  C   UNL A   1      35.269  22.840  26.245  1.00  0.00     0.049 A 
ATOM     20  C   UNL A   1      36.173  22.240  24.273  1.00  0.00     0.030 A 
ATOM     21  C   UNL A   1      34.359  22.806  27.291  1.00  0.00     0.047 A 
ATOM     22  N   UNL A   1      36.596  23.191  26.231  1.00  0.00    -0.361 N 
ATOM     23  C   UNL A   1      37.185  22.629  25.128  1.00  0.00     0.083 A 
ATOM     24  H   UNL A   1      37.048  23.753  26.901  1.00  0.00     0.166 HD
ENDBRANCH  10  15
ENDBRANCH   9  10
ENDBRANCH   8   9
ENDBRANCH   5   8
ENDBRANCH   3   4
ENDBRANCH   2   3
ENDBRANCH   1   2
BRANCH   1  25
ATOM     25  C   UNL A   1      31.604  28.216  26.179  1.00  0.00     0.002 C 
BRANCH  25  26
ATOM     26  C   UNL A   1      32.849  27.426  26.595  1.00  0.00     0.021 C 
BRANCH  26  27
ATOM     27  C   UNL A   1      34.132  28.248  26.643  1.00  0.00     0.116 C 
BRANCH  27  28
ATOM     28  N   UNL A   1      33.878  29.611  27.084  1.00  0.00    -0.352 N 
ATOM     29  C   UNL A   1      34.633  30.410  27.908  1.00  0.00     0.251 C 
ATOM     30  H   UNL A   1      33.047  30.017  26.745  1.00  0.00     0.163 HD
ATOM     31  O   UNL A   1      34.160  31.433  28.386  1.00  0.00    -0.269 OA
BRANCH  29  32
ATOM     32  C   UNL A   1      36.027  30.025  28.217  1.00  0.00     0.039 A 
ATOM     33  C   UNL A   1      36.325  29.492  29.473  1.00  0.00     0.014 A 
ATOM     34  C   UNL A   1      37.038  30.213  27.271  1.00  0.00     0.014 A 
ATOM     35  C   UNL A   1      37.633  29.099  29.763  1.00  0.00     0.010 A 
ATOM     36  C   UNL A   1      38.325  29.755  27.536  1.00  0.00     0.010 A 
ATOM     37  C   UNL A   1      38.639  29.204  28.787  1.00  0.00    -0.014 A 
BRANCH  37  38
ATOM     38  C   UNL A   1      40.031  28.768  29.059  1.00  0.00     0.031 A 
ATOM     39  C   UNL A   1      40.996  29.715  29.719  1.00  0.00     0.074 A 
ATOM     40  C   UNL A   1      40.445  27.553  28.651  1.00  0.00     0.049 A 
ATOM     41  N   UNL A   1      42.275  29.564  29.953  1.00  0.00    -0.248 NA
ATOM     42  C   UNL A   1      40.458  31.017  30.149  1.00  0.00     0.031 C 
ATOM     43  C   UNL A   1      39.615  26.559  27.968  1.00  0.00     0.029 A 
ATOM     44  N   UNL A   1      41.676  26.952  28.739  1.00  0.00    -0.354 N 
ATOM     45  C   UNL A   1      42.694  30.753  30.536  1.00  0.00     0.074 A 
ATOM     46  C   UNL A   1      41.548  31.634  30.576  1.00  0.00     0.031 C 
ATOM     47  C   UNL A   1      40.355  25.468  27.713  1.00  0.00     0.029 A 
ATOM     48  C   UNL A   1      41.720  25.698  28.177  1.00  0.00     0.049 A 
ATOM     49  H   UNL A   1      42.455  27.378  29.165  1.00  0.00     0.167 HD
ATOM     50  C   UNL A   1      43.920  31.073  31.016  1.00  0.00     0.037 A 
ATOM     51  C   UNL A   1      42.748  24.839  28.040  1.00  0.00     0.037 A 
ATOM     52  C   UNL A   1      45.050  30.182  31.003  1.00  0.00     0.049 A 
ATOM     53  C   UNL A   1      44.101  25.224  28.574  1.00  0.00     0.074 A 
ATOM     54  C   UNL A   1      46.317  30.390  31.517  1.00  0.00     0.029 A 
ATOM     55  N   UNL A   1      45.046  28.911  30.448  1.00  0.00    -0.354 N 
ATOM     56  N   UNL A   1      44.468  26.328  29.180  1.00  0.00    -0.248 NA
ATOM     57  C   UNL A   1      45.183  24.242  28.413  1.00  0.00     0.031 C 
ATOM     58  C   UNL A   1      47.094  29.265  31.231  1.00  0.00     0.029 A 
ATOM     59  C   UNL A   1      46.295  28.332  30.588  1.00  0.00     0.049 A 
ATOM     60  H   UNL A   1      44.269  28.484  30.018  1.00  0.00     0.167 HD
ATOM     61  C   UNL A   1      45.808  26.157  29.505  1.00  0.00     0.074 A 
ATOM     62  C   UNL A   1      46.186  24.840  29.038  1.00  0.00     0.031 C 
ATOM     63  C   UNL A   1      46.649  27.012  30.136  1.00  0.00     0.037 A 
BRANCH  50  64
ATOM     64  C   UNL A   1      44.105  32.443  31.603  1.00  0.00     0.057 A 
ATOM     65  C   UNL A   1      43.907  32.696  32.967  1.00  0.00     0.134 A 
ATOM     66  C   UNL A   1      44.538  33.509  30.805  1.00  0.00     0.134 A 
ATOM     67  F   UNL A   1      43.482  31.721  33.785  1.00  0.00    -0.206 F 
ATOM     68  C   UNL A   1      44.113  33.965  33.511  1.00  0.00     0.040 A 
ATOM     69  C   UNL A   1      44.775  34.775  31.343  1.00  0.00     0.040 A 
ATOM     70  F   UNL A   1      44.753  33.335  29.492  1.00  0.00    -0.206 F 
ATOM     71  C   UNL A   1      44.558  35.007  32.700  1.00  0.00     0.006 A 
ENDBRANCH  50  64
BRANCH  51  72
ATOM     72  C   UNL A   1      42.544  23.524  27.380  1.00  0.00     0.057 A 
ATOM     73  C   UNL A   1      42.168  22.395  28.119  1.00  0.00     0.134 A 
ATOM     74  C   UNL A   1      42.748  23.353  26.006  1.00  0.00     0.134 A 
ATOM     75  F   UNL A   1      41.974  22.491  29.443  1.00  0.00    -0.206 F 
ATOM     76  C   UNL A   1      42.033  21.141  27.523  1.00  0.00     0.040 A 
ATOM     77  C   UNL A   1      42.589  22.110  25.390  1.00  0.00     0.040 A 
ATOM     78  F   UNL A   1      43.100  24.396  25.237  1.00  0.00    -0.206 F 
ATOM     79  C   UNL A   1      42.242  20.997  26.153  1.00  0.00     0.006 A 
ENDBRANCH  51  72
BRANCH  63  80
ATOM     80  C   UNL A   1      48.045  26.533  30.408  1.00  0.00     0.057 A 
ATOM     81  C   UNL A   1      48.374  25.817  31.565  1.00  0.00     0.134 A 
ATOM     82  C   UNL A   1      49.063  26.750  29.469  1.00  0.00     0.134 A 
ATOM     83  F   UNL A   1      47.447  25.587  32.508  1.00  0.00    -0.206 F 
ATOM     84  C   UNL A   1      49.669  25.352  31.789  1.00  0.00     0.040 A 
ATOM     85  C   UNL A   1      50.355  26.264  29.668  1.00  0.00     0.040 A 
ATOM     86  F   UNL A   1      48.813  27.419  28.334  1.00  0.00    -0.206 F 
ATOM     87  C   UNL A   1      50.663  25.566  30.835  1.00  0.00     0.006 A 
ENDBRANCH  63  80
ENDBRANCH  37  38
ENDBRANCH  29  32
ENDBRANCH  27  28
ENDBRANCH  26  27
ENDBRANCH  25  26
ENDBRANCH   1  25
TORSDOF 17
ENDMDL
MODEL 3
REMARK VINA RESULT:     -10.2      7.337     12.644
REMARK SMILES [NH3+][C@H](CCC(=O)NCCCCCCNC(=O)c1ccc(-c2c3nc(c(-c4c(F)cccc4F)c4ccc([nH]4)c(-c4c(F)cccc4F)c4nc(c(-c5c(F)cccc5F)c5ccc2[nH]5)C=C4)C=C3)cc1)c1nccc2[nH]ccc12
REMARK SMILES IDX 10 1 9 2 8 3 7 4 5 5 6 6 4 8 3 9 2 10 1 11 71 15 72 16 79 17
REMARK SMILES IDX 73 18 75 19 78 20 74 21 76 22 77 23 11 25 12 26 13 27 14 28
REMARK SMILES IDX 15 29 16 31 17 32 18 33 70 34 19 35 69 36 20 37 21 38 22 39
REMARK SMILES IDX 63 40 23 41 68 42 62 43 64 44 24 45 67 46 61 47 60 48 25 50
REMARK SMILES IDX 51 51 34 52 50 53 35 54 38 55 49 56 65 57 36 58 37 59 48 61
REMARK SMILES IDX 66 62 39 63 26 64 27 65 32 66 28 67 29 68 31 69 33 70 30 71
REMARK SMILES IDX 52 72 53 73 58 74 54 75 55 76 57 77 59 78 56 79 40 80 41 81
REMARK SMILES IDX 46 82 42 83 43 84 45 85 47 86 44 87
REMARK H PARENT 7 7 1 12 1 13 1 14 76 24 14 30 64 49 38 60
REMARK Flexibility Score: inf
ROOT
ATOM      1  C   UNL A   1      34.261  32.967  27.742  1.00  0.00     0.002 C 
ENDROOT
BRANCH   1   2
ATOM      2  C   UNL A   1      34.407  31.470  28.024  1.00  0.00     0.021 C 
BRANCH   2   3
ATOM      3  C   UNL A   1      33.317  30.628  27.362  1.00  0.00     0.116 C 
BRANCH   3   4
ATOM      4  N   UNL A   1      33.812  30.021  26.148  1.00  0.00    -0.356 N 
ATOM      5  C   UNL A   1      33.203  29.114  25.335  1.00  0.00     0.220 C 
ATOM      6  O   UNL A   1      33.899  28.524  24.506  1.00  0.00    -0.275 OA
ATOM      7  H   UNL A   1      34.714  30.301  25.871  1.00  0.00     0.163 HD
BRANCH   5   8
ATOM      8  C   UNL A   1      31.699  28.890  25.394  1.00  0.00     0.106 C 
BRANCH   8   9
ATOM      9  C   UNL A   1      30.865  29.668  24.369  1.00  0.00     0.082 C 
BRANCH   9  10
ATOM     10  C   UNL A   1      30.708  29.125  22.925  1.00  0.00     0.232 C 
BRANCH  10  11
ATOM     11  N   UNL A   1      31.965  29.349  22.164  1.00  0.00    -0.350 N 
ATOM     12  H   UNL A   1      32.434  30.182  22.520  1.00  0.00     0.345 HD
ATOM     13  H   UNL A   1      31.746  29.477  21.176  1.00  0.00     0.345 HD
ATOM     14  H   UNL A   1      32.579  28.540  22.274  1.00  0.00     0.345 HD
ENDBRANCH  10  11
BRANCH  10  15
ATOM     15  C   UNL A   1      30.284  27.649  22.741  1.00  0.00     0.107 A 
ATOM     16  N   UNL A   1      29.145  27.329  23.444  1.00  0.00    -0.254 NA
ATOM     17  C   UNL A   1      31.226  26.593  22.619  1.00  0.00     0.027 A 
ATOM     18  C   UNL A   1      29.161  26.313  24.329  1.00  0.00     0.114 A 
ATOM     19  C   UNL A   1      31.259  25.640  23.642  1.00  0.00     0.049 A 
ATOM     20  C   UNL A   1      32.142  26.124  21.630  1.00  0.00     0.030 A 
ATOM     21  C   UNL A   1      30.269  25.546  24.610  1.00  0.00     0.047 A 
ATOM     22  N   UNL A   1      32.393  24.887  23.453  1.00  0.00    -0.361 N 
ATOM     23  C   UNL A   1      32.794  25.023  22.150  1.00  0.00     0.083 A 
ATOM     24  H   UNL A   1      32.840  24.342  24.140  1.00  0.00     0.166 HD
ENDBRANCH  10  15
ENDBRANCH   9  10
ENDBRANCH   8   9
ENDBRANCH   5   8
ENDBRANCH   3   4
ENDBRANCH   2   3
ENDBRANCH   1   2
BRANCH   1  25
ATOM     25  C   UNL A   1      34.093  33.834  28.997  1.00  0.00     0.002 C 
BRANCH  25  26
ATOM     26  C   UNL A   1      32.957  34.860  28.938  1.00  0.00     0.021 C 
BRANCH  26  27
ATOM     27  C   UNL A   1      33.279  36.199  29.595  1.00  0.00     0.116 C 
BRANCH  27  28
ATOM     28  N   UNL A   1      32.415  36.455  30.737  1.00  0.00    -0.352 N 
ATOM     29  C   UNL A   1      32.448  35.895  31.991  1.00  0.00     0.251 C 
ATOM     30  H   UNL A   1      31.707  37.124  30.590  1.00  0.00     0.163 HD
ATOM     31  O   UNL A   1      31.501  36.026  32.755  1.00  0.00    -0.269 OA
BRANCH  29  32
ATOM     32  C   UNL A   1      33.638  35.126  32.413  1.00  0.00     0.039 A 
ATOM     33  C   UNL A   1      33.477  33.818  32.876  1.00  0.00     0.014 A 
ATOM     34  C   UNL A   1      34.908  35.708  32.369  1.00  0.00     0.014 A 
ATOM     35  C   UNL A   1      34.598  33.075  33.249  1.00  0.00     0.010 A 
ATOM     36  C   UNL A   1      36.029  34.944  32.673  1.00  0.00     0.010 A 
ATOM     37  C   UNL A   1      35.886  33.623  33.127  1.00  0.00    -0.014 A 
BRANCH  37  38
ATOM     38  C   UNL A   1      37.097  32.847  33.490  1.00  0.00     0.031 A 
ATOM     39  C   UNL A   1      37.823  33.149  34.773  1.00  0.00     0.074 A 
ATOM     40  C   UNL A   1      37.583  31.923  32.638  1.00  0.00     0.049 A 
ATOM     41  N   UNL A   1      38.949  32.656  35.223  1.00  0.00    -0.248 NA
ATOM     42  C   UNL A   1      37.216  34.159  35.656  1.00  0.00     0.031 C 
ATOM     43  C   UNL A   1      36.990  31.566  31.348  1.00  0.00     0.029 A 
ATOM     44  N   UNL A   1      38.697  31.126  32.723  1.00  0.00    -0.354 N 
ATOM     45  C   UNL A   1      39.192  33.308  36.425  1.00  0.00     0.074 A 
ATOM     46  C   UNL A   1      38.126  34.267  36.611  1.00  0.00     0.031 C 
ATOM     47  C   UNL A   1      37.737  30.611  30.770  1.00  0.00     0.029 A 
ATOM     48  C   UNL A   1      38.881  30.316  31.628  1.00  0.00     0.049 A 
ATOM     49  H   UNL A   1      39.306  31.131  33.497  1.00  0.00     0.167 HD
ATOM     50  C   UNL A   1      40.202  33.110  37.305  1.00  0.00     0.037 A 
ATOM     51  C   UNL A   1      39.869  29.446  31.343  1.00  0.00     0.037 A 
ATOM     52  C   UNL A   1      41.244  32.133  37.131  1.00  0.00     0.049 A 
ATOM     53  C   UNL A   1      40.984  29.252  32.335  1.00  0.00     0.074 A 
ATOM     54  C   UNL A   1      42.279  31.815  37.992  1.00  0.00     0.029 A 
ATOM     55  N   UNL A   1      41.381  31.315  36.020  1.00  0.00    -0.354 N 
ATOM     56  N   UNL A   1      41.167  29.831  33.496  1.00  0.00    -0.248 NA
ATOM     57  C   UNL A   1      42.026  28.278  31.980  1.00  0.00     0.031 C 
ATOM     58  C   UNL A   1      43.070  30.838  37.382  1.00  0.00     0.029 A 
ATOM     59  C   UNL A   1      42.496  30.507  36.164  1.00  0.00     0.049 A 
ATOM     60  H   UNL A   1      40.775  31.309  35.244  1.00  0.00     0.167 HD
ATOM     61  C   UNL A   1      42.320  29.265  34.027  1.00  0.00     0.074 A 
ATOM     62  C   UNL A   1      42.788  28.291  33.064  1.00  0.00     0.031 C 
ATOM     63  C   UNL A   1      42.936  29.527  35.206  1.00  0.00     0.037 A 
BRANCH  50  64
ATOM     64  C   UNL A   1      40.229  33.961  38.542  1.00  0.00     0.057 A 
ATOM     65  C   UNL A   1      40.964  35.152  38.605  1.00  0.00     0.134 A 
ATOM     66  C   UNL A   1      39.469  33.612  39.666  1.00  0.00     0.134 A 
ATOM     67  F   UNL A   1      41.723  35.539  37.568  1.00  0.00    -0.206 F 
ATOM     68  C   UNL A   1      40.958  35.955  39.748  1.00  0.00     0.040 A 
ATOM     69  C   UNL A   1      39.431  34.421  40.803  1.00  0.00     0.040 A 
ATOM     70  F   UNL A   1      38.736  32.488  39.670  1.00  0.00    -0.206 F 
ATOM     71  C   UNL A   1      40.182  35.594  40.847  1.00  0.00     0.006 A 
ENDBRANCH  50  64
BRANCH  51  72
ATOM     72  C   UNL A   1      39.850  28.680  30.070  1.00  0.00     0.057 A 
ATOM     73  C   UNL A   1      40.498  29.163  28.926  1.00  0.00     0.134 A 
ATOM     74  C   UNL A   1      39.163  27.467  29.953  1.00  0.00     0.134 A 
ATOM     75  F   UNL A   1      41.161  30.330  28.969  1.00  0.00    -0.206 F 
ATOM     76  C   UNL A   1      40.437  28.486  27.708  1.00  0.00     0.040 A 
ATOM     77  C   UNL A   1      39.117  26.763  28.748  1.00  0.00     0.040 A 
ATOM     78  F   UNL A   1      38.528  26.942  31.014  1.00  0.00    -0.206 F 
ATOM     79  C   UNL A   1      39.747  27.279  27.618  1.00  0.00     0.006 A 
ENDBRANCH  51  72
BRANCH  63  80
ATOM     80  C   UNL A   1      44.148  28.713  35.548  1.00  0.00     0.057 A 
ATOM     81  C   UNL A   1      44.069  27.548  36.319  1.00  0.00     0.134 A 
ATOM     82  C   UNL A   1      45.408  29.076  35.051  1.00  0.00     0.134 A 
ATOM     83  F   UNL A   1      42.895  27.152  36.835  1.00  0.00    -0.206 F 
ATOM     84  C   UNL A   1      45.201  26.784  36.603  1.00  0.00     0.040 A 
ATOM     85  C   UNL A   1      46.542  28.305  35.303  1.00  0.00     0.040 A 
ATOM     86  F   UNL A   1      45.552  30.175  34.296  1.00  0.00    -0.206 F 
ATOM     87  C   UNL A   1      46.442  27.157  36.087  1.00  0.00     0.006 A 
ENDBRANCH  63  80
ENDBRANCH  37  38
ENDBRANCH  29  32
ENDBRANCH  27  28
ENDBRANCH  26  27
ENDBRANCH  25  26
ENDBRANCH   1  25
TORSDOF 17
ENDMDL
