MODEL 1
REMARK VINA RESULT:     -11.7      0.000      0.000
REMARK SMILES C[C@@H](C(=O)NCCCCCCNC(=O)c1ccc(-c2c3nc(c(-c4c(F)cccc4F)c4ccc([nH]4)c(-c4c(F)cccc4F)c4nc(c(-c5c(F)cccc5F)c5ccc2[nH]5)C=C4)C=C3)cc1)N1C(=O)/C(=C/c2ccc(F)cc2)SC1=S
REMARK SMILES IDX 8 1 7 2 6 3 5 4 3 5 4 6 2 8 1 9 69 10 70 11 82 12 71 13
REMARK SMILES IDX 72 14 81 15 83 16 73 17 74 18 75 19 80 20 76 21 79 22 77 23
REMARK SMILES IDX 78 24 9 25 10 26 11 27 12 28 13 29 14 31 15 32 16 33 68 34
REMARK SMILES IDX 17 35 67 36 18 37 19 38 20 39 61 40 21 41 66 42 60 43 62 44
REMARK SMILES IDX 22 45 65 46 59 47 58 48 23 50 49 51 32 52 48 53 33 54 36 55
REMARK SMILES IDX 47 56 63 57 34 58 35 59 46 61 64 62 37 63 24 64 25 65 30 66
REMARK SMILES IDX 26 67 27 68 29 69 31 70 28 71 50 72 51 73 56 74 52 75 53 76
REMARK SMILES IDX 55 77 57 78 54 79 38 80 39 81 44 82 40 83 41 84 43 85 45 86
REMARK SMILES IDX 42 87
REMARK H PARENT 5 7 12 30 62 49 36 60
REMARK Flexibility Score: inf
ROOT
ATOM      1  C   UNL A   1      31.801  29.038  26.854  1.00  0.00     0.002 C 
ENDROOT
BRANCH   1   2
ATOM      2  C   UNL A   1      32.696  27.888  26.372  1.00  0.00     0.021 C 
BRANCH   2   3
ATOM      3  C   UNL A   1      32.167  26.493  26.704  1.00  0.00     0.116 C 
BRANCH   3   4
ATOM      4  N   UNL A   1      32.974  25.456  26.098  1.00  0.00    -0.354 N 
ATOM      5  C   UNL A   1      32.777  24.736  24.960  1.00  0.00     0.242 C 
ATOM      6  O   UNL A   1      33.749  24.100  24.540  1.00  0.00    -0.273 OA
ATOM      7  H   UNL A   1      33.800  25.237  26.587  1.00  0.00     0.163 HD
BRANCH   5   8
ATOM      8  C   UNL A   1      31.443  24.805  24.179  1.00  0.00     0.178 C 
ATOM      9  C   UNL A   1      31.209  23.817  23.039  1.00  0.00     0.042 C 
BRANCH   8  10
ATOM     10  N   UNL A   1      31.193  26.188  23.714  1.00  0.00    -0.281 N 
ATOM     11  C   UNL A   1      29.997  26.787  24.073  1.00  0.00     0.266 C 
ATOM     12  C   UNL A   1      31.996  26.905  22.842  1.00  0.00     0.149 C 
ATOM     13  O   UNL A   1      29.120  26.288  24.769  1.00  0.00    -0.268 OA
ATOM     14  C   UNL A   1      29.855  28.103  23.404  1.00  0.00     0.081 C 
ATOM     15  S   UNL A   1      31.312  28.507  22.594  1.00  0.00    -0.054 SA
ATOM     16  S   UNL A   1      33.384  26.444  22.032  1.00  0.00    -0.052 S 
ATOM     17  C   UNL A   1      28.703  28.789  23.416  1.00  0.00     0.029 C 
BRANCH  17  18
ATOM     18  C   UNL A   1      28.464  30.061  22.725  1.00  0.00    -0.024 A 
ATOM     19  C   UNL A   1      28.189  30.051  21.352  1.00  0.00     0.011 A 
ATOM     20  C   UNL A   1      28.514  31.286  23.409  1.00  0.00     0.011 A 
ATOM     21  C   UNL A   1      27.921  31.247  20.682  1.00  0.00     0.040 A 
ATOM     22  C   UNL A   1      28.236  32.479  22.739  1.00  0.00     0.040 A 
ATOM     23  C   UNL A   1      27.937  32.447  21.384  1.00  0.00     0.123 A 
ATOM     24  F   UNL A   1      27.661  33.589  20.743  1.00  0.00    -0.207 F 
ENDBRANCH  17  18
ENDBRANCH   8  10
ENDBRANCH   5   8
ENDBRANCH   3   4
ENDBRANCH   2   3
ENDBRANCH   1   2
BRANCH   1  25
ATOM     25  C   UNL A   1      31.684  30.226  25.893  1.00  0.00     0.002 C 
BRANCH  25  26
ATOM     26  C   UNL A   1      31.451  31.582  26.560  1.00  0.00     0.021 C 
BRANCH  26  27
ATOM     27  C   UNL A   1      32.716  32.276  27.054  1.00  0.00     0.116 C 
BRANCH  27  28
ATOM     28  N   UNL A   1      32.463  33.645  27.476  1.00  0.00    -0.352 N 
ATOM     29  C   UNL A   1      33.117  34.408  28.412  1.00  0.00     0.251 C 
ATOM     30  H   UNL A   1      31.709  34.091  27.024  1.00  0.00     0.163 HD
ATOM     31  O   UNL A   1      32.642  35.477  28.777  1.00  0.00    -0.269 OA
BRANCH  29  32
ATOM     32  C   UNL A   1      34.386  33.928  29.000  1.00  0.00     0.039 A 
ATOM     33  C   UNL A   1      34.341  33.187  30.183  1.00  0.00     0.014 A 
ATOM     34  C   UNL A   1      35.615  34.204  28.391  1.00  0.00     0.014 A 
ATOM     35  C   UNL A   1      35.519  32.656  30.712  1.00  0.00     0.010 A 
ATOM     36  C   UNL A   1      36.779  33.616  28.882  1.00  0.00     0.010 A 
ATOM     37  C   UNL A   1      36.742  32.827  30.041  1.00  0.00    -0.014 A 
BRANCH  37  38
ATOM     38  C   UNL A   1      37.975  32.146  30.514  1.00  0.00     0.031 A 
ATOM     39  C   UNL A   1      38.822  32.758  31.596  1.00  0.00     0.074 A 
ATOM     40  C   UNL A   1      38.367  31.003  29.915  1.00  0.00     0.049 A 
ATOM     41  N   UNL A   1      39.959  32.335  32.089  1.00  0.00    -0.248 NA
ATOM     42  C   UNL A   1      38.343  34.017  32.188  1.00  0.00     0.031 C 
ATOM     43  C   UNL A   1      37.658  30.336  28.820  1.00  0.00     0.029 A 
ATOM     44  N   UNL A   1      39.462  30.204  30.133  1.00  0.00    -0.354 N 
ATOM     45  C   UNL A   1      40.336  33.279  33.037  1.00  0.00     0.074 A 
ATOM     46  C   UNL A   1      39.328  34.317  33.022  1.00  0.00     0.031 C 
ATOM     47  C   UNL A   1      38.327  29.224  28.476  1.00  0.00     0.029 A 
ATOM     48  C   UNL A   1      39.531  29.120  29.291  1.00  0.00     0.049 A 
ATOM     49  H   UNL A   1      40.135  30.392  30.828  1.00  0.00     0.167 HD
ATOM     50  C   UNL A   1      41.413  33.268  33.857  1.00  0.00     0.037 A 
ATOM     51  C   UNL A   1      40.468  28.159  29.176  1.00  0.00     0.037 A 
ATOM     52  C   UNL A   1      42.399  32.220  33.887  1.00  0.00     0.049 A 
ATOM     53  C   UNL A   1      41.661  28.186  30.091  1.00  0.00     0.074 A 
ATOM     54  C   UNL A   1      43.484  32.085  34.738  1.00  0.00     0.029 A 
ATOM     55  N   UNL A   1      42.429  31.133  33.028  1.00  0.00    -0.354 N 
ATOM     56  N   UNL A   1      41.955  29.038  31.043  1.00  0.00    -0.248 NA
ATOM     57  C   UNL A   1      42.654  27.116  29.918  1.00  0.00     0.031 C 
ATOM     58  C   UNL A   1      44.202  30.949  34.356  1.00  0.00     0.029 A 
ATOM     59  C   UNL A   1      43.534  30.344  33.304  1.00  0.00     0.049 A 
ATOM     60  H   UNL A   1      41.764  30.950  32.325  1.00  0.00     0.167 HD
ATOM     61  C   UNL A   1      43.148  28.591  31.598  1.00  0.00     0.074 A 
ATOM     62  C   UNL A   1      43.511  27.381  30.893  1.00  0.00     0.031 C 
ATOM     63  C   UNL A   1      43.880  29.138  32.599  1.00  0.00     0.037 A 
BRANCH  50  64
ATOM     64  C   UNL A   1      41.592  34.421  34.801  1.00  0.00     0.057 A 
ATOM     65  C   UNL A   1      42.242  35.600  34.414  1.00  0.00     0.134 A 
ATOM     66  C   UNL A   1      41.028  34.385  36.083  1.00  0.00     0.134 A 
ATOM     67  F   UNL A   1      42.810  35.697  33.203  1.00  0.00    -0.206 F 
ATOM     68  C   UNL A   1      42.331  36.699  35.271  1.00  0.00     0.040 A 
ATOM     69  C   UNL A   1      41.088  35.486  36.940  1.00  0.00     0.040 A 
ATOM     70  F   UNL A   1      40.386  33.288  36.514  1.00  0.00    -0.206 F 
ATOM     71  C   UNL A   1      41.742  36.647  36.534  1.00  0.00     0.006 A 
ENDBRANCH  50  64
BRANCH  51  72
ATOM     72  C   UNL A   1      40.331  27.091  28.151  1.00  0.00     0.057 A 
ATOM     73  C   UNL A   1      39.605  25.922  28.414  1.00  0.00     0.134 A 
ATOM     74  C   UNL A   1      40.961  27.190  26.905  1.00  0.00     0.134 A 
ATOM     75  F   UNL A   1      38.994  25.759  29.597  1.00  0.00    -0.206 F 
ATOM     76  C   UNL A   1      39.541  24.877  27.490  1.00  0.00     0.040 A 
ATOM     77  C   UNL A   1      40.879  26.166  25.960  1.00  0.00     0.040 A 
ATOM     78  F   UNL A   1      41.665  28.286  26.586  1.00  0.00    -0.206 F 
ATOM     79  C   UNL A   1      40.178  24.999  26.257  1.00  0.00     0.006 A 
ENDBRANCH  51  72
BRANCH  63  80
ATOM     80  C   UNL A   1      45.130  28.414  33.009  1.00  0.00     0.057 A 
ATOM     81  C   UNL A   1      46.380  28.727  32.461  1.00  0.00     0.134 A 
ATOM     82  C   UNL A   1      45.086  27.415  33.990  1.00  0.00     0.134 A 
ATOM     83  F   UNL A   1      46.489  29.666  31.508  1.00  0.00    -0.206 F 
ATOM     84  C   UNL A   1      47.538  28.054  32.854  1.00  0.00     0.040 A 
ATOM     85  C   UNL A   1      46.241  26.756  34.412  1.00  0.00     0.040 A 
ATOM     86  F   UNL A   1      43.922  27.071  34.564  1.00  0.00    -0.206 F 
ATOM     87  C   UNL A   1      47.471  27.069  33.838  1.00  0.00     0.006 A 
ENDBRANCH  63  80
ENDBRANCH  37  38
ENDBRANCH  29  32
ENDBRANCH  27  28
ENDBRANCH  26  27
ENDBRANCH  25  26
ENDBRANCH   1  25
TORSDOF 15
ENDMDL
MODEL 2
REMARK VINA RESULT:     -11.6      4.036      9.138
REMARK SMILES C[C@@H](C(=O)NCCCCCCNC(=O)c1ccc(-c2c3nc(c(-c4c(F)cccc4F)c4ccc([nH]4)c(-c4c(F)cccc4F)c4nc(c(-c5c(F)cccc5F)c5ccc2[nH]5)C=C4)C=C3)cc1)N1C(=O)/C(=C/c2ccc(F)cc2)SC1=S
REMARK SMILES IDX 8 1 7 2 6 3 5 4 3 5 4 6 2 8 1 9 69 10 70 11 82 12 71 13
REMARK SMILES IDX 72 14 81 15 83 16 73 17 74 18 75 19 80 20 76 21 79 22 77 23
REMARK SMILES IDX 78 24 9 25 10 26 11 27 12 28 13 29 14 31 15 32 16 33 68 34
REMARK SMILES IDX 17 35 67 36 18 37 19 38 20 39 61 40 21 41 66 42 60 43 62 44
REMARK SMILES IDX 22 45 65 46 59 47 58 48 23 50 49 51 32 52 48 53 33 54 36 55
REMARK SMILES IDX 47 56 63 57 34 58 35 59 46 61 64 62 37 63 24 64 25 65 30 66
REMARK SMILES IDX 26 67 27 68 29 69 31 70 28 71 50 72 51 73 56 74 52 75 53 76
REMARK SMILES IDX 55 77 57 78 54 79 38 80 39 81 44 82 40 83 41 84 43 85 45 86
REMARK SMILES IDX 42 87
REMARK H PARENT 5 7 12 30 62 49 36 60
REMARK Flexibility Score: inf
ROOT
ATOM      1  C   UNL A   1      36.092  23.266  24.828  1.00  0.00     0.002 C 
ENDROOT
BRANCH   1   2
ATOM      2  C   UNL A   1      35.009  23.864  25.735  1.00  0.00     0.021 C 
BRANCH   2   3
ATOM      3  C   UNL A   1      34.425  25.187  25.237  1.00  0.00     0.116 C 
BRANCH   3   4
ATOM      4  N   UNL A   1      33.397  25.687  26.125  1.00  0.00    -0.354 N 
ATOM      5  C   UNL A   1      32.058  25.830  25.933  1.00  0.00     0.242 C 
ATOM      6  O   UNL A   1      31.381  26.038  26.944  1.00  0.00    -0.273 OA
ATOM      7  H   UNL A   1      33.720  25.969  27.012  1.00  0.00     0.163 HD
BRANCH   5   8
ATOM      8  C   UNL A   1      31.414  25.629  24.541  1.00  0.00     0.178 C 
ATOM      9  C   UNL A   1      29.917  25.886  24.382  1.00  0.00     0.042 C 
BRANCH   8  10
ATOM     10  N   UNL A   1      31.761  24.294  24.004  1.00  0.00    -0.281 N 
ATOM     11  C   UNL A   1      31.541  23.192  24.814  1.00  0.00     0.266 C 
ATOM     12  C   UNL A   1      32.407  24.048  22.803  1.00  0.00     0.149 C 
ATOM     13  O   UNL A   1      31.057  23.208  25.941  1.00  0.00    -0.268 OA
ATOM     14  C   UNL A   1      32.078  21.965  24.177  1.00  0.00     0.081 C 
ATOM     15  S   UNL A   1      32.588  22.313  22.578  1.00  0.00    -0.054 SA
ATOM     16  S   UNL A   1      33.022  25.117  21.675  1.00  0.00    -0.052 S 
ATOM     17  C   UNL A   1      32.181  20.804  24.840  1.00  0.00     0.029 C 
BRANCH  17  18
ATOM     18  C   UNL A   1      32.761  19.567  24.303  1.00  0.00    -0.024 A 
ATOM     19  C   UNL A   1      32.140  18.937  23.217  1.00  0.00     0.011 A 
ATOM     20  C   UNL A   1      33.917  18.999  24.860  1.00  0.00     0.011 A 
ATOM     21  C   UNL A   1      32.695  17.780  22.667  1.00  0.00     0.040 A 
ATOM     22  C   UNL A   1      34.476  17.848  24.302  1.00  0.00     0.040 A 
ATOM     23  C   UNL A   1      33.863  17.254  23.207  1.00  0.00     0.123 A 
ATOM     24  F   UNL A   1      34.404  16.156  22.665  1.00  0.00    -0.207 F 
ENDBRANCH  17  18
ENDBRANCH   8  10
ENDBRANCH   5   8
ENDBRANCH   3   4
ENDBRANCH   2   3
ENDBRANCH   1   2
BRANCH   1  25
ATOM     25  C   UNL A   1      35.999  21.753  24.604  1.00  0.00     0.002 C 
BRANCH  25  26
ATOM     26  C   UNL A   1      37.339  21.036  24.435  1.00  0.00     0.021 C 
BRANCH  26  27
ATOM     27  C   UNL A   1      38.214  21.016  25.684  1.00  0.00     0.116 C 
BRANCH  27  28
ATOM     28  N   UNL A   1      39.184  19.933  25.657  1.00  0.00    -0.352 N 
ATOM     29  C   UNL A   1      40.525  19.950  25.954  1.00  0.00     0.251 C 
ATOM     30  H   UNL A   1      38.827  19.056  25.384  1.00  0.00     0.163 HD
ATOM     31  O   UNL A   1      41.228  18.983  25.687  1.00  0.00    -0.269 OA
BRANCH  29  32
ATOM     32  C   UNL A   1      41.128  21.149  26.575  1.00  0.00     0.039 A 
ATOM     33  C   UNL A   1      41.738  22.098  25.751  1.00  0.00     0.014 A 
ATOM     34  C   UNL A   1      41.094  21.340  27.960  1.00  0.00     0.014 A 
ATOM     35  C   UNL A   1      42.243  23.275  26.308  1.00  0.00     0.010 A 
ATOM     36  C   UNL A   1      41.535  22.545  28.504  1.00  0.00     0.010 A 
ATOM     37  C   UNL A   1      42.104  23.529  27.683  1.00  0.00    -0.014 A 
BRANCH  37  38
ATOM     38  C   UNL A   1      42.504  24.838  28.262  1.00  0.00     0.031 A 
ATOM     39  C   UNL A   1      41.491  25.931  28.460  1.00  0.00     0.074 A 
ATOM     40  C   UNL A   1      43.803  25.061  28.549  1.00  0.00     0.049 A 
ATOM     41  N   UNL A   1      41.673  27.153  28.894  1.00  0.00    -0.248 NA
ATOM     42  C   UNL A   1      40.097  25.622  28.105  1.00  0.00     0.031 C 
ATOM     43  C   UNL A   1      44.890  24.098  28.355  1.00  0.00     0.029 A 
ATOM     44  N   UNL A   1      44.434  26.172  29.052  1.00  0.00    -0.354 N 
ATOM     45  C   UNL A   1      40.423  27.760  28.854  1.00  0.00     0.074 A 
ATOM     46  C   UNL A   1      39.498  26.786  28.315  1.00  0.00     0.031 C 
ATOM     47  C   UNL A   1      46.047  24.653  28.751  1.00  0.00     0.029 A 
ATOM     48  C   UNL A   1      45.794  26.022  29.184  1.00  0.00     0.049 A 
ATOM     49  H   UNL A   1      43.956  26.998  29.296  1.00  0.00     0.167 HD
ATOM     50  C   UNL A   1      40.077  29.008  29.249  1.00  0.00     0.037 A 
ATOM     51  C   UNL A   1      46.735  26.896  29.590  1.00  0.00     0.037 A 
ATOM     52  C   UNL A   1      40.995  29.965  29.810  1.00  0.00     0.049 A 
ATOM     53  C   UNL A   1      46.320  28.280  30.006  1.00  0.00     0.074 A 
ATOM     54  C   UNL A   1      40.721  31.227  30.311  1.00  0.00     0.029 A 
ATOM     55  N   UNL A   1      42.362  29.773  29.937  1.00  0.00    -0.354 N 
ATOM     56  N   UNL A   1      45.120  28.807  30.047  1.00  0.00    -0.248 NA
ATOM     57  C   UNL A   1      47.389  29.192  30.437  1.00  0.00     0.031 C 
ATOM     58  C   UNL A   1      41.929  31.821  30.687  1.00  0.00     0.029 A 
ATOM     59  C   UNL A   1      42.949  30.907  30.474  1.00  0.00     0.049 A 
ATOM     60  H   UNL A   1      42.843  28.953  29.684  1.00  0.00     0.167 HD
ATOM     61  C   UNL A   1      45.289  30.098  30.532  1.00  0.00     0.074 A 
ATOM     62  C   UNL A   1      46.702  30.267  30.793  1.00  0.00     0.031 C 
ATOM     63  C   UNL A   1      44.356  31.060  30.736  1.00  0.00     0.037 A 
BRANCH  50  64
ATOM     64  C   UNL A   1      38.643  29.424  29.099  1.00  0.00     0.057 A 
ATOM     65  C   UNL A   1      38.094  29.747  27.852  1.00  0.00     0.134 A 
ATOM     66  C   UNL A   1      37.779  29.412  30.202  1.00  0.00     0.134 A 
ATOM     67  F   UNL A   1      38.867  29.785  26.757  1.00  0.00    -0.206 F 
ATOM     68  C   UNL A   1      36.738  30.052  27.709  1.00  0.00     0.040 A 
ATOM     69  C   UNL A   1      36.418  29.689  30.068  1.00  0.00     0.040 A 
ATOM     70  F   UNL A   1      38.240  29.104  31.425  1.00  0.00    -0.206 F 
ATOM     71  C   UNL A   1      35.895  30.012  28.818  1.00  0.00     0.006 A 
ENDBRANCH  50  64
BRANCH  51  72
ATOM     72  C   UNL A   1      48.168  26.501  29.618  1.00  0.00     0.057 A 
ATOM     73  C   UNL A   1      49.007  26.735  28.522  1.00  0.00     0.134 A 
ATOM     74  C   UNL A   1      48.721  25.838  30.720  1.00  0.00     0.134 A 
ATOM     75  F   UNL A   1      48.532  27.349  27.428  1.00  0.00    -0.206 F 
ATOM     76  C   UNL A   1      50.331  26.293  28.505  1.00  0.00     0.040 A 
ATOM     77  C   UNL A   1      50.052  25.418  30.730  1.00  0.00     0.040 A 
ATOM     78  F   UNL A   1      47.975  25.589  31.807  1.00  0.00    -0.206 F 
ATOM     79  C   UNL A   1      50.858  25.633  29.614  1.00  0.00     0.006 A 
ENDBRANCH  51  72
BRANCH  63  80
ATOM     80  C   UNL A   1      44.831  32.369  31.297  1.00  0.00     0.057 A 
ATOM     81  C   UNL A   1      45.190  33.441  30.471  1.00  0.00     0.134 A 
ATOM     82  C   UNL A   1      44.899  32.569  32.682  1.00  0.00     0.134 A 
ATOM     83  F   UNL A   1      45.161  33.311  29.136  1.00  0.00    -0.206 F 
ATOM     84  C   UNL A   1      45.625  34.657  31.002  1.00  0.00     0.040 A 
ATOM     85  C   UNL A   1      45.303  33.789  33.224  1.00  0.00     0.040 A 
ATOM     86  F   UNL A   1      44.561  31.587  33.531  1.00  0.00    -0.206 F 
ATOM     87  C   UNL A   1      45.675  34.836  32.383  1.00  0.00     0.006 A 
ENDBRANCH  63  80
ENDBRANCH  37  38
ENDBRANCH  29  32
ENDBRANCH  27  28
ENDBRANCH  26  27
ENDBRANCH  25  26
ENDBRANCH   1  25
TORSDOF 15
ENDMDL
MODEL 3
REMARK VINA RESULT:     -11.5      3.046      7.909
REMARK SMILES C[C@@H](C(=O)NCCCCCCNC(=O)c1ccc(-c2c3nc(c(-c4c(F)cccc4F)c4ccc([nH]4)c(-c4c(F)cccc4F)c4nc(c(-c5c(F)cccc5F)c5ccc2[nH]5)C=C4)C=C3)cc1)N1C(=O)/C(=C/c2ccc(F)cc2)SC1=S
REMARK SMILES IDX 8 1 7 2 6 3 5 4 3 5 4 6 2 8 1 9 69 10 70 11 82 12 71 13
REMARK SMILES IDX 72 14 81 15 83 16 73 17 74 18 75 19 80 20 76 21 79 22 77 23
REMARK SMILES IDX 78 24 9 25 10 26 11 27 12 28 13 29 14 31 15 32 16 33 68 34
REMARK SMILES IDX 17 35 67 36 18 37 19 38 20 39 61 40 21 41 66 42 60 43 62 44
REMARK SMILES IDX 22 45 65 46 59 47 58 48 23 50 49 51 32 52 48 53 33 54 36 55
REMARK SMILES IDX 47 56 63 57 34 58 35 59 46 61 64 62 37 63 24 64 25 65 30 66
REMARK SMILES IDX 26 67 27 68 29 69 31 70 28 71 50 72 51 73 56 74 52 75 53 76
REMARK SMILES IDX 55 77 57 78 54 79 38 80 39 81 44 82 40 83 41 84 43 85 45 86
REMARK SMILES IDX 42 87
REMARK H PARENT 5 7 12 30 62 49 36 60
REMARK Flexibility Score: inf
ROOT
ATOM      1  C   UNL A   1      32.242  29.722  27.221  1.00  0.00     0.002 C 
ENDROOT
BRANCH   1   2
ATOM      2  C   UNL A   1      32.938  28.464  26.682  1.00  0.00     0.021 C 
BRANCH   2   3
ATOM      3  C   UNL A   1      32.315  27.894  25.408  1.00  0.00     0.116 C 
BRANCH   3   4
ATOM      4  N   UNL A   1      31.041  27.261  25.670  1.00  0.00    -0.354 N 
ATOM      5  C   UNL A   1      30.553  26.057  25.265  1.00  0.00     0.242 C 
ATOM      6  O   UNL A   1      29.541  25.654  25.847  1.00  0.00    -0.273 OA
ATOM      7  H   UNL A   1      30.428  27.786  26.235  1.00  0.00     0.163 HD
BRANCH   5   8
ATOM      8  C   UNL A   1      31.294  25.195  24.216  1.00  0.00     0.178 C 
ATOM      9  C   UNL A   1      30.497  24.163  23.420  1.00  0.00     0.042 C 
BRANCH   8  10
ATOM     10  N   UNL A   1      32.486  24.560  24.824  1.00  0.00    -0.281 N 
ATOM     11  C   UNL A   1      33.714  24.778  24.223  1.00  0.00     0.266 C 
ATOM     12  C   UNL A   1      32.473  23.658  25.876  1.00  0.00     0.149 C 
ATOM     13  O   UNL A   1      33.922  25.476  23.236  1.00  0.00    -0.268 OA
ATOM     14  C   UNL A   1      34.763  23.955  24.874  1.00  0.00     0.081 C 
ATOM     15  S   UNL A   1      34.123  23.190  26.268  1.00  0.00    -0.054 SA
ATOM     16  S   UNL A   1      31.184  22.988  26.702  1.00  0.00    -0.052 S 
ATOM     17  C   UNL A   1      35.991  23.823  24.353  1.00  0.00     0.029 C 
BRANCH  17  18
ATOM     18  C   UNL A   1      37.059  22.977  24.898  1.00  0.00    -0.024 A 
ATOM     19  C   UNL A   1      37.970  23.529  25.807  1.00  0.00     0.011 A 
ATOM     20  C   UNL A   1      37.191  21.631  24.521  1.00  0.00     0.011 A 
ATOM     21  C   UNL A   1      38.972  22.732  26.367  1.00  0.00     0.040 A 
ATOM     22  C   UNL A   1      38.186  20.835  25.089  1.00  0.00     0.040 A 
ATOM     23  C   UNL A   1      39.063  21.392  26.011  1.00  0.00     0.123 A 
ATOM     24  F   UNL A   1      40.011  20.625  26.563  1.00  0.00    -0.207 F 
ENDBRANCH  17  18
ENDBRANCH   8  10
ENDBRANCH   5   8
ENDBRANCH   3   4
ENDBRANCH   2   3
ENDBRANCH   1   2
BRANCH   1  25
ATOM     25  C   UNL A   1      31.752  30.708  26.156  1.00  0.00     0.002 C 
BRANCH  25  26
ATOM     26  C   UNL A   1      31.461  32.122  26.662  1.00  0.00     0.021 C 
BRANCH  26  27
ATOM     27  C   UNL A   1      32.622  32.789  27.393  1.00  0.00     0.116 C 
BRANCH  27  28
ATOM     28  N   UNL A   1      32.375  34.200  27.643  1.00  0.00    -0.352 N 
ATOM     29  C   UNL A   1      32.962  35.044  28.554  1.00  0.00     0.251 C 
ATOM     30  H   UNL A   1      31.682  34.612  27.077  1.00  0.00     0.163 HD
ATOM     31  O   UNL A   1      32.489  36.156  28.758  1.00  0.00    -0.269 OA
BRANCH  29  32
ATOM     32  C   UNL A   1      34.154  34.601  29.310  1.00  0.00     0.039 A 
ATOM     33  C   UNL A   1      33.988  34.139  30.617  1.00  0.00     0.014 A 
ATOM     34  C   UNL A   1      35.429  34.639  28.735  1.00  0.00     0.014 A 
ATOM     35  C   UNL A   1      35.087  33.641  31.320  1.00  0.00     0.010 A 
ATOM     36  C   UNL A   1      36.510  34.078  29.411  1.00  0.00     0.010 A 
ATOM     37  C   UNL A   1      36.348  33.564  30.706  1.00  0.00    -0.014 A 
BRANCH  37  38
ATOM     38  C   UNL A   1      37.491  32.904  31.390  1.00  0.00     0.031 A 
ATOM     39  C   UNL A   1      38.156  31.699  30.783  1.00  0.00     0.074 A 
ATOM     40  C   UNL A   1      37.886  33.356  32.598  1.00  0.00     0.049 A 
ATOM     41  N   UNL A   1      39.123  30.961  31.267  1.00  0.00    -0.248 NA
ATOM     42  C   UNL A   1      37.657  31.251  29.473  1.00  0.00     0.031 C 
ATOM     43  C   UNL A   1      37.289  34.485  33.315  1.00  0.00     0.029 A 
ATOM     44  N   UNL A   1      38.874  32.915  33.443  1.00  0.00    -0.354 N 
ATOM     45  C   UNL A   1      39.341  29.958  30.330  1.00  0.00     0.074 A 
ATOM     46  C   UNL A   1      38.378  30.157  29.268  1.00  0.00     0.031 C 
ATOM     47  C   UNL A   1      37.933  34.657  34.480  1.00  0.00     0.029 A 
ATOM     48  C   UNL A   1      38.957  33.628  34.615  1.00  0.00     0.049 A 
ATOM     49  H   UNL A   1      39.467  32.158  33.228  1.00  0.00     0.167 HD
ATOM     50  C   UNL A   1      40.271  28.975  30.346  1.00  0.00     0.037 A 
ATOM     51  C   UNL A   1      39.756  33.461  35.686  1.00  0.00     0.037 A 
ATOM     52  C   UNL A   1      41.245  28.796  31.392  1.00  0.00     0.049 A 
ATOM     53  C   UNL A   1      40.768  32.348  35.680  1.00  0.00     0.074 A 
ATOM     54  C   UNL A   1      42.277  27.875  31.457  1.00  0.00     0.029 A 
ATOM     55  N   UNL A   1      41.305  29.545  32.557  1.00  0.00    -0.354 N 
ATOM     56  N   UNL A   1      41.020  31.465  34.745  1.00  0.00    -0.248 NA
ATOM     57  C   UNL A   1      41.610  32.210  36.877  1.00  0.00     0.031 C 
ATOM     58  C   UNL A   1      42.924  28.028  32.686  1.00  0.00     0.029 A 
ATOM     59  C   UNL A   1      42.332  29.082  33.362  1.00  0.00     0.049 A 
ATOM     60  H   UNL A   1      40.705  30.294  32.778  1.00  0.00     0.167 HD
ATOM     61  C   UNL A   1      42.064  30.687  35.229  1.00  0.00     0.074 A 
ATOM     62  C   UNL A   1      42.415  31.217  36.530  1.00  0.00     0.031 C 
ATOM     63  C   UNL A   1      42.675  29.623  34.651  1.00  0.00     0.037 A 
BRANCH  50  64
ATOM     64  C   UNL A   1      40.296  28.007  29.199  1.00  0.00     0.057 A 
ATOM     65  C   UNL A   1      39.501  26.855  29.186  1.00  0.00     0.134 A 
ATOM     66  C   UNL A   1      41.056  28.281  28.054  1.00  0.00     0.134 A 
ATOM     67  F   UNL A   1      38.755  26.531  30.253  1.00  0.00    -0.206 F 
ATOM     68  C   UNL A   1      39.468  26.004  28.080  1.00  0.00     0.040 A 
ATOM     69  C   UNL A   1      41.011  27.452  26.932  1.00  0.00     0.040 A 
ATOM     70  F   UNL A   1      41.835  29.373  27.998  1.00  0.00    -0.206 F 
ATOM     71  C   UNL A   1      40.216  26.309  26.943  1.00  0.00     0.006 A 
ENDBRANCH  50  64
BRANCH  51  72
ATOM     72  C   UNL A   1      39.634  34.358  36.865  1.00  0.00     0.057 A 
ATOM     73  C   UNL A   1      40.235  35.623  36.880  1.00  0.00     0.134 A 
ATOM     74  C   UNL A   1      38.956  33.955  38.022  1.00  0.00     0.134 A 
ATOM     75  F   UNL A   1      40.916  36.060  35.810  1.00  0.00    -0.206 F 
ATOM     76  C   UNL A   1      40.197  36.438  38.013  1.00  0.00     0.040 A 
ATOM     77  C   UNL A   1      38.884  34.773  39.151  1.00  0.00     0.040 A 
ATOM     78  F   UNL A   1      38.351  32.759  38.072  1.00  0.00    -0.206 F 
ATOM     79  C   UNL A   1      39.518  36.014  39.152  1.00  0.00     0.006 A 
ENDBRANCH  51  72
BRANCH  63  80
ATOM     80  C   UNL A   1      43.803  28.985  35.408  1.00  0.00     0.057 A 
ATOM     81  C   UNL A   1      45.126  29.425  35.274  1.00  0.00     0.134 A 
ATOM     82  C   UNL A   1      43.558  27.938  36.307  1.00  0.00     0.134 A 
ATOM     83  F   UNL A   1      45.431  30.414  34.420  1.00  0.00    -0.206 F 
ATOM     84  C   UNL A   1      46.168  28.829  35.987  1.00  0.00     0.040 A 
ATOM     85  C   UNL A   1      44.587  27.356  37.046  1.00  0.00     0.040 A 
ATOM     86  F   UNL A   1      42.312  27.474  36.490  1.00  0.00    -0.206 F 
ATOM     87  C   UNL A   1      45.899  27.796  36.882  1.00  0.00     0.006 A 
ENDBRANCH  63  80
ENDBRANCH  37  38
ENDBRANCH  29  32
ENDBRANCH  27  28
ENDBRANCH  26  27
ENDBRANCH  25  26
ENDBRANCH   1  25
TORSDOF 15
ENDMDL
