MODEL 1
REMARK VINA RESULT:     -10.4      0.000      0.000
REMARK SMILES CS(=O)(=O)CCSCc1cc(F)cc(/C=C/C(=O)NCCCCCCNC(=O)c2ccc(-c3c4nc(c(-c5c(F)cccc5F)c5ccc([nH]5)c(-c5c(F)cccc5F)c5nc(c(-c6c(F)cccc6F)c6ccc3[nH]6)C=C5)C=C4)cc2)c1
REMARK SMILES IDX 20 1 19 2 17 3 18 4 16 6 15 7 14 8 9 9 10 10 83 11 11 12
REMARK SMILES IDX 12 13 13 14 8 15 7 16 6 17 5 18 2 19 1 20 3 21 4 22 21 23
REMARK SMILES IDX 22 24 23 25 24 26 25 27 26 28 27 29 28 31 29 32 30 33 82 34
REMARK SMILES IDX 31 35 81 36 32 37 33 38 34 39 75 40 35 41 80 42 74 43 76 44
REMARK SMILES IDX 36 45 79 46 73 47 72 48 37 50 63 51 46 52 62 53 47 54 50 55
REMARK SMILES IDX 61 56 77 57 48 58 49 59 60 61 78 62 51 63 38 64 39 65 44 66
REMARK SMILES IDX 40 67 41 68 43 69 45 70 42 71 64 72 65 73 70 74 66 75 67 76
REMARK SMILES IDX 69 77 71 78 68 79 52 80 53 81 58 82 54 83 55 84 57 85 59 86
REMARK SMILES IDX 56 87
REMARK H PARENT 19 5 26 30 76 49 50 60
REMARK Flexibility Score: inf
ROOT
ATOM      1  C   UNL A   1      35.118  30.254  27.629  1.00  0.00     0.116 C 
ENDROOT
BRANCH   1   2
ATOM      2  N   UNL A   1      33.667  30.168  27.663  1.00  0.00    -0.353 N 
ATOM      3  C   UNL A   1      32.785  29.364  27.015  1.00  0.00     0.243 C 
ATOM      4  O   UNL A   1      31.583  29.471  27.252  1.00  0.00    -0.270 OA
ATOM      5  H   UNL A   1      33.244  30.816  28.272  1.00  0.00     0.163 HD
BRANCH   3   6
ATOM      6  C   UNL A   1      33.251  28.287  26.118  1.00  0.00     0.072 C 
ATOM      7  C   UNL A   1      33.134  26.984  26.394  1.00  0.00     0.014 C 
BRANCH   7   8
ATOM      8  C   UNL A   1      33.485  25.924  25.449  1.00  0.00    -0.022 A 
ATOM      9  C   UNL A   1      34.650  23.785  25.166  1.00  0.00    -0.035 A 
ATOM     10  C   UNL A   1      34.499  23.941  23.778  1.00  0.00     0.043 A 
ATOM     11  C   UNL A   1      34.088  24.773  25.979  1.00  0.00     0.013 A 
ATOM     12  C   UNL A   1      33.839  25.052  23.250  1.00  0.00     0.124 A 
ATOM     13  F   UNL A   1      33.733  25.179  21.921  1.00  0.00    -0.207 F 
ATOM     14  C   UNL A   1      33.345  26.056  24.072  1.00  0.00     0.047 A 
BRANCH   9  15
ATOM     15  C   UNL A   1      35.568  22.699  25.673  1.00  0.00     0.105 C 
BRANCH  15  16
ATOM     16  S   UNL A   1      35.551  21.038  24.934  1.00  0.00    -0.156 SA
BRANCH  16  17
ATOM     17  C   UNL A   1      33.861  20.375  25.223  1.00  0.00     0.086 C 
BRANCH  17  18
ATOM     18  C   UNL A   1      33.138  19.627  24.115  1.00  0.00     0.147 C 
BRANCH  18  19
ATOM     19  S   UNL A   1      33.503  17.887  24.018  1.00  0.00     0.148 S 
ATOM     20  C   UNL A   1      32.592  17.188  25.378  1.00  0.00     0.158 C 
ATOM     21  O   UNL A   1      34.914  17.716  24.313  1.00  0.00    -0.229 OA
ATOM     22  O   UNL A   1      32.958  17.369  22.782  1.00  0.00    -0.229 OA
ENDBRANCH  18  19
ENDBRANCH  17  18
ENDBRANCH  16  17
ENDBRANCH  15  16
ENDBRANCH   9  15
ENDBRANCH   7   8
ENDBRANCH   3   6
ENDBRANCH   1   2
BRANCH   1  23
ATOM     23  C   UNL A   1      35.576  31.645  28.071  1.00  0.00     0.021 C 
BRANCH  23  24
ATOM     24  C   UNL A   1      34.570  32.353  28.990  1.00  0.00     0.002 C 
BRANCH  24  25
ATOM     25  C   UNL A   1      34.680  33.882  29.007  1.00  0.00     0.002 C 
BRANCH  25  26
ATOM     26  C   UNL A   1      33.338  34.619  28.996  1.00  0.00     0.021 C 
BRANCH  26  27
ATOM     27  C   UNL A   1      33.385  36.005  29.631  1.00  0.00     0.116 C 
BRANCH  27  28
ATOM     28  N   UNL A   1      32.434  36.127  30.726  1.00  0.00    -0.352 N 
ATOM     29  C   UNL A   1      32.469  35.564  31.976  1.00  0.00     0.251 C 
ATOM     30  H   UNL A   1      31.652  36.696  30.543  1.00  0.00     0.163 HD
ATOM     31  O   UNL A   1      31.472  35.578  32.691  1.00  0.00    -0.269 OA
BRANCH  29  32
ATOM     32  C   UNL A   1      33.711  34.925  32.454  1.00  0.00     0.039 A 
ATOM     33  C   UNL A   1      33.662  33.607  32.914  1.00  0.00     0.014 A 
ATOM     34  C   UNL A   1      34.919  35.630  32.461  1.00  0.00     0.014 A 
ATOM     35  C   UNL A   1      34.838  32.977  33.325  1.00  0.00     0.010 A 
ATOM     36  C   UNL A   1      36.100  34.975  32.796  1.00  0.00     0.010 A 
ATOM     37  C   UNL A   1      36.071  33.644  33.236  1.00  0.00    -0.014 A 
BRANCH  37  38
ATOM     38  C   UNL A   1      37.341  32.964  33.596  1.00  0.00     0.031 A 
ATOM     39  C   UNL A   1      37.923  31.917  32.689  1.00  0.00     0.074 A 
ATOM     40  C   UNL A   1      37.940  33.254  34.768  1.00  0.00     0.049 A 
ATOM     41  N   UNL A   1      38.986  31.173  32.864  1.00  0.00    -0.248 NA
ATOM     42  C   UNL A   1      37.209  31.653  31.429  1.00  0.00     0.031 C 
ATOM     43  C   UNL A   1      37.453  34.227  35.749  1.00  0.00     0.029 A 
ATOM     44  N   UNL A   1      39.088  32.759  35.335  1.00  0.00    -0.354 N 
ATOM     45  C   UNL A   1      39.063  30.354  31.744  1.00  0.00     0.074 A 
ATOM     46  C   UNL A   1      37.911  30.649  30.922  1.00  0.00     0.031 C 
ATOM     47  C   UNL A   1      38.311  34.280  36.779  1.00  0.00     0.029 A 
ATOM     48  C   UNL A   1      39.383  33.314  36.558  1.00  0.00     0.049 A 
ATOM     49  H   UNL A   1      39.647  32.072  34.908  1.00  0.00     0.167 HD
ATOM     50  C   UNL A   1      40.024  29.459  31.420  1.00  0.00     0.037 A 
ATOM     51  C   UNL A   1      40.397  33.068  37.409  1.00  0.00     0.037 A 
ATOM     52  C   UNL A   1      41.182  29.189  32.230  1.00  0.00     0.049 A 
ATOM     53  C   UNL A   1      41.437  32.047  37.036  1.00  0.00     0.074 A 
ATOM     54  C   UNL A   1      42.236  28.333  31.960  1.00  0.00     0.029 A 
ATOM     55  N   UNL A   1      41.441  29.768  33.462  1.00  0.00    -0.354 N 
ATOM     56  N   UNL A   1      41.523  31.318  35.951  1.00  0.00    -0.248 NA
ATOM     57  C   UNL A   1      42.520  31.815  38.003  1.00  0.00     0.031 C 
ATOM     58  C   UNL A   1      43.103  28.350  33.054  1.00  0.00     0.029 A 
ATOM     59  C   UNL A   1      42.624  29.266  33.977  1.00  0.00     0.049 A 
ATOM     60  H   UNL A   1      40.870  30.436  33.905  1.00  0.00     0.167 HD
ATOM     61  C   UNL A   1      42.682  30.564  36.089  1.00  0.00     0.074 A 
ATOM     62  C   UNL A   1      43.272  30.932  37.358  1.00  0.00     0.031 C 
ATOM     63  C   UNL A   1      43.207  29.648  35.239  1.00  0.00     0.037 A 
BRANCH  50  64
ATOM     64  C   UNL A   1      39.886  28.713  30.124  1.00  0.00     0.057 A 
ATOM     65  C   UNL A   1      39.211  27.486  30.074  1.00  0.00     0.134 A 
ATOM     66  C   UNL A   1      40.502  29.160  28.949  1.00  0.00     0.134 A 
ATOM     67  F   UNL A   1      38.604  26.996  31.166  1.00  0.00    -0.206 F 
ATOM     68  C   UNL A   1      39.175  26.721  28.907  1.00  0.00     0.040 A 
ATOM     69  C   UNL A   1      40.448  28.417  27.768  1.00  0.00     0.040 A 
ATOM     70  F   UNL A   1      41.155  30.332  28.926  1.00  0.00    -0.206 F 
ATOM     71  C   UNL A   1      39.794  27.186  27.750  1.00  0.00     0.006 A 
ENDBRANCH  50  64
BRANCH  51  72
ATOM     72  C   UNL A   1      40.490  33.823  38.686  1.00  0.00     0.057 A 
ATOM     73  C   UNL A   1      41.333  34.934  38.821  1.00  0.00     0.134 A 
ATOM     74  C   UNL A   1      39.747  33.438  39.808  1.00  0.00     0.134 A 
ATOM     75  F   UNL A   1      42.078  35.349  37.787  1.00  0.00    -0.206 F 
ATOM     76  C   UNL A   1      41.444  35.625  40.030  1.00  0.00     0.040 A 
ATOM     77  C   UNL A   1      39.827  34.138  41.014  1.00  0.00     0.040 A 
ATOM     78  F   UNL A   1      38.909  32.394  39.736  1.00  0.00    -0.206 F 
ATOM     79  C   UNL A   1      40.686  35.230  41.129  1.00  0.00     0.006 A 
ENDBRANCH  51  72
BRANCH  63  80
ATOM     80  C   UNL A   1      44.499  28.991  35.628  1.00  0.00     0.057 A 
ATOM     81  C   UNL A   1      45.722  29.503  35.174  1.00  0.00     0.134 A 
ATOM     82  C   UNL A   1      44.531  27.804  36.369  1.00  0.00     0.134 A 
ATOM     83  F   UNL A   1      45.763  30.631  34.449  1.00  0.00    -0.206 F 
ATOM     84  C   UNL A   1      46.927  28.847  35.426  1.00  0.00     0.040 A 
ATOM     85  C   UNL A   1      45.733  27.154  36.652  1.00  0.00     0.040 A 
ATOM     86  F   UNL A   1      43.396  27.266  36.839  1.00  0.00    -0.206 F 
ATOM     87  C   UNL A   1      46.934  27.669  36.169  1.00  0.00     0.006 A 
ENDBRANCH  63  80
ENDBRANCH  37  38
ENDBRANCH  29  32
ENDBRANCH  27  28
ENDBRANCH  26  27
ENDBRANCH  25  26
ENDBRANCH  24  25
ENDBRANCH  23  24
ENDBRANCH   1  23
TORSDOF 19
ENDMDL
MODEL 2
REMARK VINA RESULT:     -10.2      5.569     11.092
REMARK SMILES CS(=O)(=O)CCSCc1cc(F)cc(/C=C/C(=O)NCCCCCCNC(=O)c2ccc(-c3c4nc(c(-c5c(F)cccc5F)c5ccc([nH]5)c(-c5c(F)cccc5F)c5nc(c(-c6c(F)cccc6F)c6ccc3[nH]6)C=C5)C=C4)cc2)c1
REMARK SMILES IDX 20 1 19 2 17 3 18 4 16 6 15 7 14 8 9 9 10 10 83 11 11 12
REMARK SMILES IDX 12 13 13 14 8 15 7 16 6 17 5 18 2 19 1 20 3 21 4 22 21 23
REMARK SMILES IDX 22 24 23 25 24 26 25 27 26 28 27 29 28 31 29 32 30 33 82 34
REMARK SMILES IDX 31 35 81 36 32 37 33 38 34 39 75 40 35 41 80 42 74 43 76 44
REMARK SMILES IDX 36 45 79 46 73 47 72 48 37 50 63 51 46 52 62 53 47 54 50 55
REMARK SMILES IDX 61 56 77 57 48 58 49 59 60 61 78 62 51 63 38 64 39 65 44 66
REMARK SMILES IDX 40 67 41 68 43 69 45 70 42 71 64 72 65 73 70 74 66 75 67 76
REMARK SMILES IDX 69 77 71 78 68 79 52 80 53 81 58 82 54 83 55 84 57 85 59 86
REMARK SMILES IDX 56 87
REMARK H PARENT 19 5 26 30 76 49 50 60
REMARK Flexibility Score: inf
ROOT
ATOM      1  C   UNL A   1      33.665  21.984  25.961  1.00  0.00     0.116 C 
ENDROOT
BRANCH   1   2
ATOM      2  N   UNL A   1      32.390  22.048  26.656  1.00  0.00    -0.353 N 
ATOM      3  C   UNL A   1      31.464  23.035  26.775  1.00  0.00     0.243 C 
ATOM      4  O   UNL A   1      30.429  22.819  27.403  1.00  0.00    -0.270 OA
ATOM      5  H   UNL A   1      32.152  21.219  27.131  1.00  0.00     0.163 HD
BRANCH   3   6
ATOM      6  C   UNL A   1      31.625  24.322  26.067  1.00  0.00     0.072 C 
ATOM      7  C   UNL A   1      30.770  25.343  26.175  1.00  0.00     0.014 C 
BRANCH   7   8
ATOM      8  C   UNL A   1      31.001  26.655  25.570  1.00  0.00    -0.022 A 
ATOM      9  C   UNL A   1      31.740  28.957  25.979  1.00  0.00    -0.035 A 
ATOM     10  C   UNL A   1      31.249  29.291  24.706  1.00  0.00     0.043 A 
ATOM     11  C   UNL A   1      31.644  27.618  26.364  1.00  0.00     0.013 A 
ATOM     12  C   UNL A   1      30.670  28.321  23.886  1.00  0.00     0.124 A 
ATOM     13  F   UNL A   1      30.193  28.680  22.686  1.00  0.00    -0.207 F 
ATOM     14  C   UNL A   1      30.525  27.008  24.313  1.00  0.00     0.047 A 
BRANCH   9  15
ATOM     15  C   UNL A   1      32.138  30.076  26.913  1.00  0.00     0.105 C 
BRANCH  15  16
ATOM     16  S   UNL A   1      33.886  30.401  27.293  1.00  0.00    -0.156 SA
BRANCH  16  17
ATOM     17  C   UNL A   1      33.976  32.172  27.774  1.00  0.00     0.086 C 
BRANCH  17  18
ATOM     18  C   UNL A   1      34.285  32.554  29.212  1.00  0.00     0.147 C 
BRANCH  18  19
ATOM     19  S   UNL A   1      34.040  34.273  29.604  1.00  0.00     0.148 S 
ATOM     20  C   UNL A   1      34.773  35.130  28.226  1.00  0.00     0.158 C 
ATOM     21  O   UNL A   1      34.843  34.576  30.775  1.00  0.00    -0.229 OA
ATOM     22  O   UNL A   1      32.619  34.548  29.616  1.00  0.00    -0.229 OA
ENDBRANCH  18  19
ENDBRANCH  17  18
ENDBRANCH  16  17
ENDBRANCH  15  16
ENDBRANCH   9  15
ENDBRANCH   7   8
ENDBRANCH   3   6
ENDBRANCH   1   2
BRANCH   1  23
ATOM     23  C   UNL A   1      33.640  20.870  24.912  1.00  0.00     0.021 C 
BRANCH  23  24
ATOM     24  C   UNL A   1      34.868  19.950  24.972  1.00  0.00     0.002 C 
BRANCH  24  25
ATOM     25  C   UNL A   1      36.213  20.680  25.063  1.00  0.00     0.002 C 
BRANCH  25  26
ATOM     26  C   UNL A   1      37.441  19.773  24.957  1.00  0.00     0.021 C 
BRANCH  26  27
ATOM     27  C   UNL A   1      38.676  20.311  25.672  1.00  0.00     0.116 C 
BRANCH  27  28
ATOM     28  N   UNL A   1      39.711  19.296  25.796  1.00  0.00    -0.352 N 
ATOM     29  C   UNL A   1      41.055  19.448  26.029  1.00  0.00     0.251 C 
ATOM     30  H   UNL A   1      39.404  18.366  25.697  1.00  0.00     0.163 HD
ATOM     31  O   UNL A   1      41.822  18.504  25.868  1.00  0.00    -0.269 OA
BRANCH  29  32
ATOM     32  C   UNL A   1      41.577  20.759  26.462  1.00  0.00     0.039 A 
ATOM     33  C   UNL A   1      42.016  21.667  25.495  1.00  0.00     0.014 A 
ATOM     34  C   UNL A   1      41.645  21.087  27.820  1.00  0.00     0.014 A 
ATOM     35  C   UNL A   1      42.469  22.928  25.889  1.00  0.00     0.010 A 
ATOM     36  C   UNL A   1      42.021  22.371  28.203  1.00  0.00     0.010 A 
ATOM     37  C   UNL A   1      42.441  23.302  27.242  1.00  0.00    -0.014 A 
BRANCH  37  38
ATOM     38  C   UNL A   1      42.847  24.664  27.671  1.00  0.00     0.031 A 
ATOM     39  C   UNL A   1      44.298  25.055  27.680  1.00  0.00     0.074 A 
ATOM     40  C   UNL A   1      41.909  25.532  28.101  1.00  0.00     0.049 A 
ATOM     41  N   UNL A   1      44.848  26.174  28.079  1.00  0.00    -0.248 NA
ATOM     42  C   UNL A   1      45.263  24.052  27.199  1.00  0.00     0.031 C 
ATOM     43  C   UNL A   1      40.472  25.257  28.171  1.00  0.00     0.029 A 
ATOM     44  N   UNL A   1      42.023  26.820  28.562  1.00  0.00    -0.354 N 
ATOM     45  C   UNL A   1      46.216  26.006  27.902  1.00  0.00     0.074 A 
ATOM     46  C   UNL A   1      46.420  24.661  27.415  1.00  0.00     0.031 C 
ATOM     47  C   UNL A   1      39.837  26.352  28.616  1.00  0.00     0.029 A 
ATOM     48  C   UNL A   1      40.820  27.390  28.908  1.00  0.00     0.049 A 
ATOM     49  H   UNL A   1      42.883  27.290  28.639  1.00  0.00     0.167 HD
ATOM     50  C   UNL A   1      47.207  26.905  28.102  1.00  0.00     0.037 A 
ATOM     51  C   UNL A   1      40.542  28.608  29.411  1.00  0.00     0.037 A 
ATOM     52  C   UNL A   1      46.995  28.252  28.561  1.00  0.00     0.049 A 
ATOM     53  C   UNL A   1      41.667  29.578  29.650  1.00  0.00     0.074 A 
ATOM     54  C   UNL A   1      47.934  29.252  28.747  1.00  0.00     0.029 A 
ATOM     55  N   UNL A   1      45.764  28.788  28.906  1.00  0.00    -0.354 N 
ATOM     56  N   UNL A   1      42.949  29.422  29.430  1.00  0.00    -0.248 NA
ATOM     57  C   UNL A   1      41.308  30.891  30.204  1.00  0.00     0.031 C 
ATOM     58  C   UNL A   1      47.280  30.375  29.259  1.00  0.00     0.029 A 
ATOM     59  C   UNL A   1      45.925  30.097  29.329  1.00  0.00     0.049 A 
ATOM     60  H   UNL A   1      44.905  28.311  28.856  1.00  0.00     0.167 HD
ATOM     61  C   UNL A   1      43.546  30.624  29.790  1.00  0.00     0.074 A 
ATOM     62  C   UNL A   1      42.485  31.503  30.232  1.00  0.00     0.031 C 
ATOM     63  C   UNL A   1      44.857  30.966  29.757  1.00  0.00     0.037 A 
BRANCH  50  64
ATOM     64  C   UNL A   1      48.616  26.479  27.807  1.00  0.00     0.057 A 
ATOM     65  C   UNL A   1      49.148  26.612  26.517  1.00  0.00     0.134 A 
ATOM     66  C   UNL A   1      49.413  25.852  28.773  1.00  0.00     0.134 A 
ATOM     67  F   UNL A   1      48.436  27.197  25.542  1.00  0.00    -0.206 F 
ATOM     68  C   UNL A   1      50.412  26.114  26.195  1.00  0.00     0.040 A 
ATOM     69  C   UNL A   1      50.689  25.376  28.469  1.00  0.00     0.040 A 
ATOM     70  F   UNL A   1      48.967  25.703  30.030  1.00  0.00    -0.206 F 
ATOM     71  C   UNL A   1      51.186  25.494  27.173  1.00  0.00     0.006 A 
ENDBRANCH  50  64
BRANCH  51  72
ATOM     72  C   UNL A   1      39.134  28.984  29.698  1.00  0.00     0.057 A 
ATOM     73  C   UNL A   1      38.328  29.598  28.731  1.00  0.00     0.134 A 
ATOM     74  C   UNL A   1      38.566  28.752  30.956  1.00  0.00     0.134 A 
ATOM     75  F   UNL A   1      38.813  29.856  27.507  1.00  0.00    -0.206 F 
ATOM     76  C   UNL A   1      37.013  29.980  29.009  1.00  0.00     0.040 A 
ATOM     77  C   UNL A   1      37.244  29.104  31.239  1.00  0.00     0.040 A 
ATOM     78  F   UNL A   1      39.280  28.152  31.918  1.00  0.00    -0.206 F 
ATOM     79  C   UNL A   1      36.467  29.728  30.265  1.00  0.00     0.006 A 
ENDBRANCH  51  72
BRANCH  63  80
ATOM     80  C   UNL A   1      45.229  32.357  30.183  1.00  0.00     0.057 A 
ATOM     81  C   UNL A   1      45.505  32.638  31.528  1.00  0.00     0.134 A 
ATOM     82  C   UNL A   1      45.223  33.430  29.285  1.00  0.00     0.134 A 
ATOM     83  F   UNL A   1      45.515  31.657  32.442  1.00  0.00    -0.206 F 
ATOM     84  C   UNL A   1      45.741  33.941  31.967  1.00  0.00     0.040 A 
ATOM     85  C   UNL A   1      45.486  34.734  29.708  1.00  0.00     0.040 A 
ATOM     86  F   UNL A   1      44.974  33.227  27.983  1.00  0.00    -0.206 F 
ATOM     87  C   UNL A   1      45.734  34.994  31.055  1.00  0.00     0.006 A 
ENDBRANCH  63  80
ENDBRANCH  37  38
ENDBRANCH  29  32
ENDBRANCH  27  28
ENDBRANCH  26  27
ENDBRANCH  25  26
ENDBRANCH  24  25
ENDBRANCH  23  24
ENDBRANCH   1  23
TORSDOF 19
ENDMDL
MODEL 3
REMARK VINA RESULT:     -10.2      5.945     11.781
REMARK SMILES CS(=O)(=O)CCSCc1cc(F)cc(/C=C/C(=O)NCCCCCCNC(=O)c2ccc(-c3c4nc(c(-c5c(F)cccc5F)c5ccc([nH]5)c(-c5c(F)cccc5F)c5nc(c(-c6c(F)cccc6F)c6ccc3[nH]6)C=C5)C=C4)cc2)c1
REMARK SMILES IDX 20 1 19 2 17 3 18 4 16 6 15 7 14 8 9 9 10 10 83 11 11 12
REMARK SMILES IDX 12 13 13 14 8 15 7 16 6 17 5 18 2 19 1 20 3 21 4 22 21 23
REMARK SMILES IDX 22 24 23 25 24 26 25 27 26 28 27 29 28 31 29 32 30 33 82 34
REMARK SMILES IDX 31 35 81 36 32 37 33 38 34 39 75 40 35 41 80 42 74 43 76 44
REMARK SMILES IDX 36 45 79 46 73 47 72 48 37 50 63 51 46 52 62 53 47 54 50 55
REMARK SMILES IDX 61 56 77 57 48 58 49 59 60 61 78 62 51 63 38 64 39 65 44 66
REMARK SMILES IDX 40 67 41 68 43 69 45 70 42 71 64 72 65 73 70 74 66 75 67 76
REMARK SMILES IDX 69 77 71 78 68 79 52 80 53 81 58 82 54 83 55 84 57 85 59 86
REMARK SMILES IDX 56 87
REMARK H PARENT 19 5 26 30 76 49 50 60
REMARK Flexibility Score: inf
ROOT
ATOM      1  C   UNL A   1      33.711  21.911  25.715  1.00  0.00     0.116 C 
ENDROOT
BRANCH   1   2
ATOM      2  N   UNL A   1      32.292  21.780  25.999  1.00  0.00    -0.353 N 
ATOM      3  C   UNL A   1      31.255  22.652  25.889  1.00  0.00     0.243 C 
ATOM      4  O   UNL A   1      30.117  22.275  26.166  1.00  0.00    -0.270 OA
ATOM      5  H   UNL A   1      32.032  20.892  26.335  1.00  0.00     0.163 HD
BRANCH   3   6
ATOM      6  C   UNL A   1      31.453  24.006  25.333  1.00  0.00     0.072 C 
ATOM      7  C   UNL A   1      30.513  24.957  25.337  1.00  0.00     0.014 C 
BRANCH   7   8
ATOM      8  C   UNL A   1      30.755  26.331  24.899  1.00  0.00    -0.022 A 
ATOM      9  C   UNL A   1      31.512  28.560  25.588  1.00  0.00    -0.035 A 
ATOM     10  C   UNL A   1      31.026  29.052  24.365  1.00  0.00     0.043 A 
ATOM     11  C   UNL A   1      31.405  27.184  25.806  1.00  0.00     0.013 A 
ATOM     12  C   UNL A   1      30.440  28.194  23.432  1.00  0.00     0.124 A 
ATOM     13  F   UNL A   1      29.968  28.702  22.285  1.00  0.00    -0.207 F 
ATOM     14  C   UNL A   1      30.284  26.840  23.694  1.00  0.00     0.047 A 
BRANCH   9  15
ATOM     15  C   UNL A   1      31.917  29.551  26.652  1.00  0.00     0.105 C 
BRANCH  15  16
ATOM     16  S   UNL A   1      33.669  29.880  27.008  1.00  0.00    -0.156 SA
BRANCH  16  17
ATOM     17  C   UNL A   1      33.740  31.603  27.643  1.00  0.00     0.086 C 
BRANCH  17  18
ATOM     18  C   UNL A   1      35.041  32.153  28.204  1.00  0.00     0.147 C 
BRANCH  18  19
ATOM     19  S   UNL A   1      34.851  33.386  29.474  1.00  0.00     0.148 S 
ATOM     20  C   UNL A   1      33.538  34.423  28.866  1.00  0.00     0.158 C 
ATOM     21  O   UNL A   1      36.061  34.189  29.491  1.00  0.00    -0.229 OA
ATOM     22  O   UNL A   1      34.403  32.736  30.686  1.00  0.00    -0.229 OA
ENDBRANCH  18  19
ENDBRANCH  17  18
ENDBRANCH  16  17
ENDBRANCH  15  16
ENDBRANCH   9  15
ENDBRANCH   7   8
ENDBRANCH   3   6
ENDBRANCH   1   2
BRANCH   1  23
ATOM     23  C   UNL A   1      34.125  20.921  24.624  1.00  0.00     0.021 C 
BRANCH  23  24
ATOM     24  C   UNL A   1      35.350  20.077  25.002  1.00  0.00     0.002 C 
BRANCH  24  25
ATOM     25  C   UNL A   1      36.697  20.791  24.841  1.00  0.00     0.002 C 
BRANCH  25  26
ATOM     26  C   UNL A   1      37.913  19.862  24.800  1.00  0.00     0.021 C 
BRANCH  26  27
ATOM     27  C   UNL A   1      39.011  20.230  25.793  1.00  0.00     0.116 C 
BRANCH  27  28
ATOM     28  N   UNL A   1      40.009  19.177  25.906  1.00  0.00    -0.352 N 
ATOM     29  C   UNL A   1      41.368  19.280  26.060  1.00  0.00     0.251 C 
ATOM     30  H   UNL A   1      39.658  18.258  25.866  1.00  0.00     0.163 HD
ATOM     31  O   UNL A   1      42.086  18.298  25.901  1.00  0.00    -0.269 OA
BRANCH  29  32
ATOM     32  C   UNL A   1      41.967  20.585  26.406  1.00  0.00     0.039 A 
ATOM     33  C   UNL A   1      42.373  21.437  25.377  1.00  0.00     0.014 A 
ATOM     34  C   UNL A   1      42.138  20.959  27.742  1.00  0.00     0.014 A 
ATOM     35  C   UNL A   1      42.899  22.693  25.690  1.00  0.00     0.010 A 
ATOM     36  C   UNL A   1      42.588  22.240  28.049  1.00  0.00     0.010 A 
ATOM     37  C   UNL A   1      42.977  23.117  27.027  1.00  0.00    -0.014 A 
BRANCH  37  38
ATOM     38  C   UNL A   1      43.461  24.477  27.374  1.00  0.00     0.031 A 
ATOM     39  C   UNL A   1      42.489  25.539  27.809  1.00  0.00     0.074 A 
ATOM     40  C   UNL A   1      44.770  24.769  27.245  1.00  0.00     0.049 A 
ATOM     41  N   UNL A   1      42.715  26.797  28.092  1.00  0.00    -0.248 NA
ATOM     42  C   UNL A   1      41.076  25.145  27.923  1.00  0.00     0.031 C 
ATOM     43  C   UNL A   1      45.805  23.834  26.799  1.00  0.00     0.029 A 
ATOM     44  N   UNL A   1      45.456  25.936  27.476  1.00  0.00    -0.354 N 
ATOM     45  C   UNL A   1      41.477  27.341  28.410  1.00  0.00     0.074 A 
ATOM     46  C   UNL A   1      40.495  26.295  28.230  1.00  0.00     0.031 C 
ATOM     47  C   UNL A   1      46.995  24.453  26.818  1.00  0.00     0.029 A 
ATOM     48  C   UNL A   1      46.806  25.839  27.232  1.00  0.00     0.049 A 
ATOM     49  H   UNL A   1      45.023  26.763  27.786  1.00  0.00     0.167 HD
ATOM     50  C   UNL A   1      41.192  28.591  28.839  1.00  0.00     0.037 A 
ATOM     51  C   UNL A   1      47.780  26.765  27.324  1.00  0.00     0.037 A 
ATOM     52  C   UNL A   1      42.178  29.620  29.042  1.00  0.00     0.049 A 
ATOM     53  C   UNL A   1      47.430  28.156  27.777  1.00  0.00     0.074 A 
ATOM     54  C   UNL A   1      41.990  30.905  29.521  1.00  0.00     0.029 A 
ATOM     55  N   UNL A   1      43.532  29.484  28.778  1.00  0.00    -0.354 N 
ATOM     56  N   UNL A   1      46.263  28.641  28.122  1.00  0.00    -0.248 NA
ATOM     57  C   UNL A   1      48.531  29.128  27.856  1.00  0.00     0.031 C 
ATOM     58  C   UNL A   1      43.220  31.565  29.494  1.00  0.00     0.029 A 
ATOM     59  C   UNL A   1      44.186  30.672  29.060  1.00  0.00     0.049 A 
ATOM     60  H   UNL A   1      43.964  28.666  28.442  1.00  0.00     0.167 HD
ATOM     61  C   UNL A   1      46.491  29.962  28.486  1.00  0.00     0.074 A 
ATOM     62  C   UNL A   1      47.910  30.200  28.331  1.00  0.00     0.031 C 
ATOM     63  C   UNL A   1      45.603  30.893  28.910  1.00  0.00     0.037 A 
BRANCH  50  64
ATOM     64  C   UNL A   1      39.760  28.924  29.144  1.00  0.00     0.057 A 
ATOM     65  C   UNL A   1      39.268  28.835  30.454  1.00  0.00     0.134 A 
ATOM     66  C   UNL A   1      38.846  29.238  28.131  1.00  0.00     0.134 A 
ATOM     67  F   UNL A   1      40.089  28.531  31.471  1.00  0.00    -0.206 F 
ATOM     68  C   UNL A   1      37.915  29.024  30.739  1.00  0.00     0.040 A 
ATOM     69  C   UNL A   1      37.496  29.458  28.408  1.00  0.00     0.040 A 
ATOM     70  F   UNL A   1      39.253  29.349  26.857  1.00  0.00    -0.206 F 
ATOM     71  C   UNL A   1      37.025  29.337  29.715  1.00  0.00     0.006 A 
ENDBRANCH  50  64
BRANCH  51  72
ATOM     72  C   UNL A   1      49.183  26.395  27.003  1.00  0.00     0.057 A 
ATOM     73  C   UNL A   1      49.683  26.481  25.697  1.00  0.00     0.134 A 
ATOM     74  C   UNL A   1      50.053  25.930  27.996  1.00  0.00     0.134 A 
ATOM     75  F   UNL A   1      48.899  26.912  24.698  1.00  0.00    -0.206 F 
ATOM     76  C   UNL A   1      50.992  26.105  25.388  1.00  0.00     0.040 A 
ATOM     77  C   UNL A   1      51.372  25.577  27.706  1.00  0.00     0.040 A 
ATOM     78  F   UNL A   1      49.639  25.842  29.267  1.00  0.00    -0.206 F 
ATOM     79  C   UNL A   1      51.842  25.656  26.396  1.00  0.00     0.006 A 
ENDBRANCH  51  72
BRANCH  63  80
ATOM     80  C   UNL A   1      46.129  32.253  29.267  1.00  0.00     0.057 A 
ATOM     81  C   UNL A   1      46.537  32.536  30.578  1.00  0.00     0.134 A 
ATOM     82  C   UNL A   1      46.143  33.305  28.344  1.00  0.00     0.134 A 
ATOM     83  F   UNL A   1      46.535  31.577  31.515  1.00  0.00    -0.206 F 
ATOM     84  C   UNL A   1      46.921  33.821  30.961  1.00  0.00     0.040 A 
ATOM     85  C   UNL A   1      46.553  34.588  28.708  1.00  0.00     0.040 A 
ATOM     86  F   UNL A   1      45.772  33.098  27.072  1.00  0.00    -0.206 F 
ATOM     87  C   UNL A   1      46.931  34.851  30.024  1.00  0.00     0.006 A 
ENDBRANCH  63  80
ENDBRANCH  37  38
ENDBRANCH  29  32
ENDBRANCH  27  28
ENDBRANCH  26  27
ENDBRANCH  25  26
ENDBRANCH  24  25
ENDBRANCH  23  24
ENDBRANCH   1  23
TORSDOF 19
ENDMDL
