MODEL 1
REMARK VINA RESULT:     -12.9      0.000      0.000
REMARK SMILES CC1=C([C@H](NC(=O)[C@@H]2[C@H](C)c3cc(F)ccc3N2C)C(=O)NCCCCCCNC(=O)c2ccc(-c3c4nc(c(-c5c(F)cccc5F)c5ccc([nH]5)c(-c5c(F)cccc5F)c5nc(c(-c6c(F)cccc6F)c6ccc3[nH]6)C=C5)C=C4)cc2)[C@@H](C)N=N1
REMARK SMILES IDX 25 1 24 2 23 3 22 4 20 5 21 6 4 8 3 9 1 10 2 11 89 12 86 13
REMARK SMILES IDX 88 14 87 15 5 16 6 17 7 19 8 20 9 21 18 22 11 23 10 24 17 25
REMARK SMILES IDX 19 26 12 27 16 28 13 29 15 30 14 31 26 32 27 33 28 34 29 35
REMARK SMILES IDX 30 36 31 38 32 39 33 40 85 41 34 42 84 43 35 44 36 45 37 46
REMARK SMILES IDX 78 47 38 48 83 49 77 50 79 51 39 52 82 53 76 54 75 55 40 57
REMARK SMILES IDX 66 58 49 59 65 60 50 61 53 62 64 63 80 64 51 65 52 66 63 68
REMARK SMILES IDX 81 69 54 70 41 71 42 72 47 73 43 74 44 75 46 76 48 77 45 78
REMARK SMILES IDX 67 79 68 80 73 81 69 82 70 83 72 84 74 85 71 86 55 87 56 88
REMARK SMILES IDX 61 89 57 90 58 91 60 92 62 93 59 94
REMARK H PARENT 22 7 5 18 29 37 79 56 53 67
REMARK Flexibility Score: inf
ROOT
ATOM      1  C   UNL A   1      40.131  21.439  26.872  1.00  0.00     0.002 C 
ENDROOT
BRANCH   1   2
ATOM      2  C   UNL A   1      39.043  22.079  26.028  1.00  0.00     0.021 C 
BRANCH   2   3
ATOM      3  C   UNL A   1      38.060  21.159  25.313  1.00  0.00     0.116 C 
BRANCH   3   4
ATOM      4  N   UNL A   1      37.104  21.959  24.558  1.00  0.00    -0.354 N 
ATOM      5  C   UNL A   1      35.753  21.942  24.414  1.00  0.00     0.247 C 
ATOM      6  O   UNL A   1      35.328  22.566  23.432  1.00  0.00    -0.272 OA
ATOM      7  H   UNL A   1      37.535  22.671  24.033  1.00  0.00     0.163 HD
BRANCH   5   8
ATOM      8  C   UNL A   1      34.741  21.141  25.309  1.00  0.00     0.202 C 
BRANCH   8   9
ATOM      9  C   UNL A   1      33.839  20.056  24.789  1.00  0.00     0.011 C 
ATOM     10  C   UNL A   1      35.456  18.065  24.630  1.00  0.00     0.069 C 
ATOM     11  C   UNL A   1      34.142  18.769  24.543  1.00  0.00     0.064 C 
ATOM     12  N   UNL A   1      33.058  18.033  24.138  1.00  0.00    -0.160 NA
ATOM     13  C   UNL A   1      32.412  20.173  24.366  1.00  0.00     0.156 C 
ATOM     14  N   UNL A   1      32.035  18.761  24.082  1.00  0.00    -0.181 NA
ATOM     15  C   UNL A   1      32.187  20.949  23.067  1.00  0.00     0.040 C 
ENDBRANCH   8   9
BRANCH   8  16
ATOM     16  N   UNL A   1      34.219  21.705  26.572  1.00  0.00    -0.339 N 
ATOM     17  C   UNL A   1      33.176  22.509  26.931  1.00  0.00     0.244 C 
ATOM     18  H   UNL A   1      34.758  21.432  27.349  1.00  0.00     0.164 HD
ATOM     19  O   UNL A   1      32.939  22.605  28.137  1.00  0.00    -0.273 OA
BRANCH  17  20
ATOM     20  C   UNL A   1      32.392  23.270  25.871  1.00  0.00     0.178 C 
ATOM     21  C   UNL A   1      33.191  24.378  25.134  1.00  0.00     0.050 C 
ATOM     22  N   UNL A   1      31.128  23.902  26.329  1.00  0.00    -0.362 N 
ATOM     23  C   UNL A   1      32.052  25.261  24.697  1.00  0.00    -0.016 A 
ATOM     24  C   UNL A   1      34.194  25.155  25.976  1.00  0.00     0.015 C 
ATOM     25  C   UNL A   1      30.904  24.956  25.443  1.00  0.00     0.041 A 
ATOM     26  C   UNL A   1      30.046  23.116  26.879  1.00  0.00     0.144 C 
ATOM     27  C   UNL A   1      32.040  26.193  23.669  1.00  0.00     0.045 A 
ATOM     28  C   UNL A   1      29.729  25.649  25.201  1.00  0.00     0.029 A 
ATOM     29  C   UNL A   1      30.843  26.844  23.406  1.00  0.00     0.123 A 
ATOM     30  C   UNL A   1      29.701  26.600  24.173  1.00  0.00     0.041 A 
ATOM     31  F   UNL A   1      30.773  27.694  22.373  1.00  0.00    -0.207 F 
ENDBRANCH  17  20
ENDBRANCH   8  16
ENDBRANCH   5   8
ENDBRANCH   3   4
ENDBRANCH   2   3
ENDBRANCH   1   2
BRANCH   1  32
ATOM     32  C   UNL A   1      41.372  20.925  26.149  1.00  0.00     0.002 C 
BRANCH  32  33
ATOM     33  C   UNL A   1      41.871  19.507  26.437  1.00  0.00     0.021 C 
BRANCH  33  34
ATOM     34  C   UNL A   1      43.319  19.126  26.135  1.00  0.00     0.116 C 
BRANCH  34  35
ATOM     35  N   UNL A   1      43.705  18.939  24.748  1.00  0.00    -0.352 N 
ATOM     36  C   UNL A   1      44.633  19.554  23.944  1.00  0.00     0.251 C 
ATOM     37  H   UNL A   1      43.199  18.228  24.292  1.00  0.00     0.163 HD
ATOM     38  O   UNL A   1      44.968  19.035  22.881  1.00  0.00    -0.269 OA
BRANCH  36  39
ATOM     39  C   UNL A   1      45.083  20.918  24.248  1.00  0.00     0.039 A 
ATOM     40  C   UNL A   1      46.072  21.183  25.183  1.00  0.00     0.014 A 
ATOM     41  C   UNL A   1      44.302  21.953  23.722  1.00  0.00     0.014 A 
ATOM     42  C   UNL A   1      46.013  22.375  25.872  1.00  0.00     0.010 A 
ATOM     43  C   UNL A   1      44.336  23.195  24.328  1.00  0.00     0.010 A 
ATOM     44  C   UNL A   1      45.074  23.347  25.502  1.00  0.00    -0.014 A 
BRANCH  44  45
ATOM     45  C   UNL A   1      44.909  24.492  26.396  1.00  0.00     0.031 A 
ATOM     46  C   UNL A   1      46.103  25.376  26.534  1.00  0.00     0.074 A 
ATOM     47  C   UNL A   1      43.750  24.776  27.028  1.00  0.00     0.049 A 
ATOM     48  N   UNL A   1      46.727  25.745  27.609  1.00  0.00    -0.248 NA
ATOM     49  C   UNL A   1      46.740  25.818  25.284  1.00  0.00     0.031 C 
ATOM     50  C   UNL A   1      42.431  24.164  26.828  1.00  0.00     0.029 A 
ATOM     51  N   UNL A   1      43.494  25.769  27.926  1.00  0.00    -0.354 N 
ATOM     52  C   UNL A   1      47.751  26.588  27.180  1.00  0.00     0.074 A 
ATOM     53  C   UNL A   1      47.782  26.507  25.743  1.00  0.00     0.031 C 
ATOM     54  C   UNL A   1      41.486  24.953  27.383  1.00  0.00     0.029 A 
ATOM     55  C   UNL A   1      42.145  26.030  28.099  1.00  0.00     0.049 A 
ATOM     56  H   UNL A   1      44.203  26.255  28.407  1.00  0.00     0.167 HD
ATOM     57  C   UNL A   1      48.408  27.439  28.011  1.00  0.00     0.037 A 
ATOM     58  C   UNL A   1      41.599  27.097  28.725  1.00  0.00     0.037 A 
ATOM     59  C   UNL A   1      48.286  27.065  29.390  1.00  0.00     0.049 A 
ATOM     60  C   UNL A   1      42.631  27.715  29.583  1.00  0.00     0.074 A 
ATOM     61  C   UNL A   1      48.753  26.034  30.178  1.00  0.00     0.029 A 
ATOM     62  N   UNL A   1      47.349  27.722  30.142  1.00  0.00    -0.354 N 
ATOM     63  N   UNL A   1      43.101  27.179  30.672  1.00  0.00    -0.248 NA
ATOM     64  C   UNL A   1      43.420  28.809  29.037  1.00  0.00     0.031 C 
ATOM     65  C   UNL A   1      47.783  25.872  31.210  1.00  0.00     0.029 A 
ATOM     66  C   UNL A   1      46.773  26.810  30.985  1.00  0.00     0.049 A 
ATOM     67  H   UNL A   1      47.130  28.681  30.086  1.00  0.00     0.167 HD
ATOM     68  C   UNL A   1      44.423  27.589  30.728  1.00  0.00     0.074 A 
ATOM     69  C   UNL A   1      44.519  28.694  29.785  1.00  0.00     0.031 C 
ATOM     70  C   UNL A   1      45.371  26.813  31.329  1.00  0.00     0.037 A 
BRANCH  57  71
ATOM     71  C   UNL A   1      48.910  28.795  27.587  1.00  0.00     0.057 A 
ATOM     72  C   UNL A   1      48.065  29.904  27.374  1.00  0.00     0.134 A 
ATOM     73  C   UNL A   1      50.282  29.094  27.661  1.00  0.00     0.134 A 
ATOM     74  F   UNL A   1      46.730  29.796  27.389  1.00  0.00    -0.206 F 
ATOM     75  C   UNL A   1      48.545  31.208  27.234  1.00  0.00     0.040 A 
ATOM     76  C   UNL A   1      50.770  30.404  27.575  1.00  0.00     0.040 A 
ATOM     77  F   UNL A   1      51.186  28.130  27.892  1.00  0.00    -0.206 F 
ATOM     78  C   UNL A   1      49.900  31.467  27.363  1.00  0.00     0.006 A 
ENDBRANCH  57  71
BRANCH  58  79
ATOM     79  C   UNL A   1      40.318  27.759  28.414  1.00  0.00     0.057 A 
ATOM     80  C   UNL A   1      40.170  28.542  27.255  1.00  0.00     0.134 A 
ATOM     81  C   UNL A   1      39.287  27.841  29.355  1.00  0.00     0.134 A 
ATOM     82  F   UNL A   1      41.142  28.600  26.332  1.00  0.00    -0.206 F 
ATOM     83  C   UNL A   1      39.057  29.356  27.039  1.00  0.00     0.040 A 
ATOM     84  C   UNL A   1      38.169  28.661  29.157  1.00  0.00     0.040 A 
ATOM     85  F   UNL A   1      39.365  27.166  30.510  1.00  0.00    -0.206 F 
ATOM     86  C   UNL A   1      38.054  29.426  27.998  1.00  0.00     0.006 A 
ENDBRANCH  58  79
BRANCH  70  87
ATOM     87  C   UNL A   1      44.878  25.688  32.191  1.00  0.00     0.057 A 
ATOM     88  C   UNL A   1      44.821  25.861  33.577  1.00  0.00     0.134 A 
ATOM     89  C   UNL A   1      44.571  24.415  31.691  1.00  0.00     0.134 A 
ATOM     90  F   UNL A   1      45.164  27.035  34.128  1.00  0.00    -0.206 F 
ATOM     91  C   UNL A   1      44.453  24.818  34.431  1.00  0.00     0.040 A 
ATOM     92  C   UNL A   1      44.170  23.373  32.531  1.00  0.00     0.040 A 
ATOM     93  F   UNL A   1      44.698  24.137  30.386  1.00  0.00    -0.206 F 
ATOM     94  C   UNL A   1      44.113  23.573  33.907  1.00  0.00     0.006 A 
ENDBRANCH  70  87
ENDBRANCH  44  45
ENDBRANCH  36  39
ENDBRANCH  34  35
ENDBRANCH  33  34
ENDBRANCH  32  33
ENDBRANCH   1  32
TORSDOF 16
ENDMDL
MODEL 2
REMARK VINA RESULT:     -12.8      5.402     10.529
REMARK SMILES CC1=C([C@H](NC(=O)[C@@H]2[C@H](C)c3cc(F)ccc3N2C)C(=O)NCCCCCCNC(=O)c2ccc(-c3c4nc(c(-c5c(F)cccc5F)c5ccc([nH]5)c(-c5c(F)cccc5F)c5nc(c(-c6c(F)cccc6F)c6ccc3[nH]6)C=C5)C=C4)cc2)[C@@H](C)N=N1
REMARK SMILES IDX 25 1 24 2 23 3 22 4 20 5 21 6 4 8 3 9 1 10 2 11 89 12 86 13
REMARK SMILES IDX 88 14 87 15 5 16 6 17 7 19 8 20 9 21 18 22 11 23 10 24 17 25
REMARK SMILES IDX 19 26 12 27 16 28 13 29 15 30 14 31 26 32 27 33 28 34 29 35
REMARK SMILES IDX 30 36 31 38 32 39 33 40 85 41 34 42 84 43 35 44 36 45 37 46
REMARK SMILES IDX 78 47 38 48 83 49 77 50 79 51 39 52 82 53 76 54 75 55 40 57
REMARK SMILES IDX 66 58 49 59 65 60 50 61 53 62 64 63 80 64 51 65 52 66 63 68
REMARK SMILES IDX 81 69 54 70 41 71 42 72 47 73 43 74 44 75 46 76 48 77 45 78
REMARK SMILES IDX 67 79 68 80 73 81 69 82 70 83 72 84 74 85 71 86 55 87 56 88
REMARK SMILES IDX 61 89 57 90 58 91 60 92 62 93 59 94
REMARK H PARENT 22 7 5 18 29 37 79 56 53 67
REMARK Flexibility Score: inf
ROOT
ATOM      1  C   UNL A   1      33.817  31.566  27.759  1.00  0.00     0.002 C 
ENDROOT
BRANCH   1   2
ATOM      2  C   UNL A   1      34.745  30.475  27.255  1.00  0.00     0.021 C 
BRANCH   2   3
ATOM      3  C   UNL A   1      34.121  29.160  26.800  1.00  0.00     0.116 C 
BRANCH   3   4
ATOM      4  N   UNL A   1      32.978  28.844  27.646  1.00  0.00    -0.354 N 
ATOM      5  C   UNL A   1      31.836  28.127  27.474  1.00  0.00     0.247 C 
ATOM      6  O   UNL A   1      30.949  28.357  28.306  1.00  0.00    -0.272 OA
ATOM      7  H   UNL A   1      33.048  29.240  28.544  1.00  0.00     0.163 HD
BRANCH   5   8
ATOM      8  C   UNL A   1      31.538  27.141  26.287  1.00  0.00     0.202 C 
BRANCH   8   9
ATOM      9  C   UNL A   1      31.304  27.584  24.869  1.00  0.00     0.011 C 
ATOM     10  C   UNL A   1      29.118  26.361  24.294  1.00  0.00     0.069 C 
ATOM     11  C   UNL A   1      30.272  27.278  24.062  1.00  0.00     0.064 C 
ATOM     12  N   UNL A   1      30.340  27.912  22.846  1.00  0.00    -0.160 NA
ATOM     13  C   UNL A   1      32.196  28.416  24.010  1.00  0.00     0.156 C 
ATOM     14  N   UNL A   1      31.375  28.622  22.784  1.00  0.00    -0.181 NA
ATOM     15  C   UNL A   1      33.482  27.724  23.555  1.00  0.00     0.040 C 
ENDBRANCH   8   9
BRANCH   8  16
ATOM     16  N   UNL A   1      30.960  25.802  26.529  1.00  0.00    -0.339 N 
ATOM     17  C   UNL A   1      31.440  24.527  26.611  1.00  0.00     0.244 C 
ATOM     18  H   UNL A   1      29.986  25.839  26.666  1.00  0.00     0.164 HD
ATOM     19  O   UNL A   1      30.662  23.668  27.034  1.00  0.00    -0.273 OA
BRANCH  17  20
ATOM     20  C   UNL A   1      32.857  24.208  26.155  1.00  0.00     0.178 C 
ATOM     21  C   UNL A   1      33.100  24.345  24.627  1.00  0.00     0.050 C 
ATOM     22  N   UNL A   1      33.376  22.870  26.541  1.00  0.00    -0.362 N 
ATOM     23  C   UNL A   1      34.272  23.412  24.475  1.00  0.00    -0.016 A 
ATOM     24  C   UNL A   1      31.947  23.929  23.724  1.00  0.00     0.015 C 
ATOM     25  C   UNL A   1      34.357  22.572  25.595  1.00  0.00     0.041 A 
ATOM     26  C   UNL A   1      33.499  22.479  27.928  1.00  0.00     0.144 C 
ATOM     27  C   UNL A   1      35.214  23.384  23.456  1.00  0.00     0.045 A 
ATOM     28  C   UNL A   1      35.371  21.631  25.668  1.00  0.00     0.029 A 
ATOM     29  C   UNL A   1      36.252  22.470  23.567  1.00  0.00     0.123 A 
ATOM     30  C   UNL A   1      36.326  21.583  24.643  1.00  0.00     0.041 A 
ATOM     31  F   UNL A   1      37.221  22.465  22.642  1.00  0.00    -0.207 F 
ENDBRANCH  17  20
ENDBRANCH   8  16
ENDBRANCH   5   8
ENDBRANCH   3   4
ENDBRANCH   2   3
ENDBRANCH   1   2
BRANCH   1  32
ATOM     32  C   UNL A   1      34.433  32.926  28.069  1.00  0.00     0.002 C 
BRANCH  32  33
ATOM     33  C   UNL A   1      34.235  33.538  29.457  1.00  0.00     0.021 C 
BRANCH  33  34
ATOM     34  C   UNL A   1      33.543  34.892  29.609  1.00  0.00     0.116 C 
BRANCH  34  35
ATOM     35  N   UNL A   1      32.667  35.091  30.750  1.00  0.00    -0.352 N 
ATOM     36  C   UNL A   1      32.901  35.238  32.095  1.00  0.00     0.251 C 
ATOM     37  H   UNL A   1      31.713  35.129  30.510  1.00  0.00     0.163 HD
ATOM     38  O   UNL A   1      32.017  35.671  32.831  1.00  0.00    -0.269 OA
BRANCH  36  39
ATOM     39  C   UNL A   1      34.130  34.701  32.692  1.00  0.00     0.039 A 
ATOM     40  C   UNL A   1      35.272  35.470  32.860  1.00  0.00     0.014 A 
ATOM     41  C   UNL A   1      34.172  33.313  32.866  1.00  0.00     0.014 A 
ATOM     42  C   UNL A   1      36.495  34.838  32.803  1.00  0.00     0.010 A 
ATOM     43  C   UNL A   1      35.398  32.682  32.944  1.00  0.00     0.010 A 
ATOM     44  C   UNL A   1      36.554  33.439  32.747  1.00  0.00    -0.014 A 
BRANCH  44  45
ATOM     45  C   UNL A   1      37.857  32.834  32.471  1.00  0.00     0.031 A 
ATOM     46  C   UNL A   1      38.837  32.879  33.594  1.00  0.00     0.074 A 
ATOM     47  C   UNL A   1      38.157  32.231  31.301  1.00  0.00     0.049 A 
ATOM     48  N   UNL A   1      40.043  33.354  33.608  1.00  0.00    -0.248 NA
ATOM     49  C   UNL A   1      38.353  32.421  34.906  1.00  0.00     0.031 C 
ATOM     50  C   UNL A   1      37.256  31.891  30.193  1.00  0.00     0.029 A 
ATOM     51  N   UNL A   1      39.345  31.692  30.905  1.00  0.00    -0.354 N 
ATOM     52  C   UNL A   1      40.526  33.120  34.894  1.00  0.00     0.074 A 
ATOM     53  C   UNL A   1      39.413  32.651  35.678  1.00  0.00     0.031 C 
ATOM     54  C   UNL A   1      37.864  30.998  29.384  1.00  0.00     0.029 A 
ATOM     55  C   UNL A   1      39.235  30.827  29.830  1.00  0.00     0.049 A 
ATOM     56  H   UNL A   1      40.202  31.899  31.343  1.00  0.00     0.167 HD
ATOM     57  C   UNL A   1      41.847  33.161  35.210  1.00  0.00     0.037 A 
ATOM     58  C   UNL A   1      40.178  29.970  29.376  1.00  0.00     0.037 A 
ATOM     59  C   UNL A   1      42.619  33.898  34.252  1.00  0.00     0.049 A 
ATOM     60  C   UNL A   1      41.490  30.400  29.902  1.00  0.00     0.074 A 
ATOM     61  C   UNL A   1      42.730  35.222  33.884  1.00  0.00     0.029 A 
ATOM     62  N   UNL A   1      43.298  33.183  33.302  1.00  0.00    -0.354 N 
ATOM     63  N   UNL A   1      42.123  31.471  29.519  1.00  0.00    -0.248 NA
ATOM     64  C   UNL A   1      41.966  29.806  31.142  1.00  0.00     0.031 C 
ATOM     65  C   UNL A   1      43.120  35.207  32.513  1.00  0.00     0.029 A 
ATOM     66  C   UNL A   1      43.215  33.870  32.121  1.00  0.00     0.049 A 
ATOM     67  H   UNL A   1      43.763  32.326  33.444  1.00  0.00     0.167 HD
ATOM     68  C   UNL A   1      42.797  31.908  30.647  1.00  0.00     0.074 A 
ATOM     69  C   UNL A   1      42.779  30.777  31.564  1.00  0.00     0.031 C 
ATOM     70  C   UNL A   1      43.062  33.234  30.834  1.00  0.00     0.037 A 
BRANCH  57  71
ATOM     71  C   UNL A   1      42.486  32.261  36.236  1.00  0.00     0.057 A 
ATOM     72  C   UNL A   1      42.746  30.892  36.015  1.00  0.00     0.134 A 
ATOM     73  C   UNL A   1      43.116  32.815  37.364  1.00  0.00     0.134 A 
ATOM     74  F   UNL A   1      42.308  30.251  34.924  1.00  0.00    -0.206 F 
ATOM     75  C   UNL A   1      43.561  30.129  36.855  1.00  0.00     0.040 A 
ATOM     76  C   UNL A   1      43.977  32.072  38.183  1.00  0.00     0.040 A 
ATOM     77  F   UNL A   1      42.973  34.115  37.665  1.00  0.00    -0.206 F 
ATOM     78  C   UNL A   1      44.202  30.725  37.928  1.00  0.00     0.006 A 
ENDBRANCH  57  71
BRANCH  58  79
ATOM     79  C   UNL A   1      39.964  28.659  28.736  1.00  0.00     0.057 A 
ATOM     80  C   UNL A   1      39.454  27.571  29.468  1.00  0.00     0.134 A 
ATOM     81  C   UNL A   1      40.474  28.370  27.467  1.00  0.00     0.134 A 
ATOM     82  F   UNL A   1      39.022  27.727  30.728  1.00  0.00    -0.206 F 
ATOM     83  C   UNL A   1      39.445  26.269  28.963  1.00  0.00     0.040 A 
ATOM     84  C   UNL A   1      40.480  27.067  26.952  1.00  0.00     0.040 A 
ATOM     85  F   UNL A   1      41.022  29.337  26.717  1.00  0.00    -0.206 F 
ATOM     86  C   UNL A   1      39.969  26.012  27.703  1.00  0.00     0.006 A 
ENDBRANCH  58  79
BRANCH  70  87
ATOM     87  C   UNL A   1      42.891  34.132  29.645  1.00  0.00     0.057 A 
ATOM     88  C   UNL A   1      41.655  34.745  29.421  1.00  0.00     0.134 A 
ATOM     89  C   UNL A   1      43.881  34.310  28.668  1.00  0.00     0.134 A 
ATOM     90  F   UNL A   1      40.644  34.565  30.284  1.00  0.00    -0.206 F 
ATOM     91  C   UNL A   1      41.416  35.520  28.283  1.00  0.00     0.040 A 
ATOM     92  C   UNL A   1      43.666  35.109  27.541  1.00  0.00     0.040 A 
ATOM     93  F   UNL A   1      45.058  33.677  28.755  1.00  0.00    -0.206 F 
ATOM     94  C   UNL A   1      42.429  35.715  27.346  1.00  0.00     0.006 A 
ENDBRANCH  70  87
ENDBRANCH  44  45
ENDBRANCH  36  39
ENDBRANCH  34  35
ENDBRANCH  33  34
ENDBRANCH  32  33
ENDBRANCH   1  32
TORSDOF 16
ENDMDL
MODEL 3
REMARK VINA RESULT:     -12.7      2.284      3.024
REMARK SMILES CC1=C([C@H](NC(=O)[C@@H]2[C@H](C)c3cc(F)ccc3N2C)C(=O)NCCCCCCNC(=O)c2ccc(-c3c4nc(c(-c5c(F)cccc5F)c5ccc([nH]5)c(-c5c(F)cccc5F)c5nc(c(-c6c(F)cccc6F)c6ccc3[nH]6)C=C5)C=C4)cc2)[C@@H](C)N=N1
REMARK SMILES IDX 25 1 24 2 23 3 22 4 20 5 21 6 4 8 3 9 1 10 2 11 89 12 86 13
REMARK SMILES IDX 88 14 87 15 5 16 6 17 7 19 8 20 9 21 18 22 11 23 10 24 17 25
REMARK SMILES IDX 19 26 12 27 16 28 13 29 15 30 14 31 26 32 27 33 28 34 29 35
REMARK SMILES IDX 30 36 31 38 32 39 33 40 85 41 34 42 84 43 35 44 36 45 37 46
REMARK SMILES IDX 78 47 38 48 83 49 77 50 79 51 39 52 82 53 76 54 75 55 40 57
REMARK SMILES IDX 66 58 49 59 65 60 50 61 53 62 64 63 80 64 51 65 52 66 63 68
REMARK SMILES IDX 81 69 54 70 41 71 42 72 47 73 43 74 44 75 46 76 48 77 45 78
REMARK SMILES IDX 67 79 68 80 73 81 69 82 70 83 72 84 74 85 71 86 55 87 56 88
REMARK SMILES IDX 61 89 57 90 58 91 60 92 62 93 59 94
REMARK H PARENT 22 7 5 18 29 37 79 56 53 67
REMARK Flexibility Score: inf
ROOT
ATOM      1  C   UNL A   1      39.416  23.374  26.121  1.00  0.00     0.002 C 
ENDROOT
BRANCH   1   2
ATOM      2  C   UNL A   1      38.115  24.064  26.495  1.00  0.00     0.021 C 
BRANCH   2   3
ATOM      3  C   UNL A   1      36.829  23.560  25.851  1.00  0.00     0.116 C 
BRANCH   3   4
ATOM      4  N   UNL A   1      37.039  23.375  24.421  1.00  0.00    -0.354 N 
ATOM      5  C   UNL A   1      36.241  23.022  23.379  1.00  0.00     0.247 C 
ATOM      6  O   UNL A   1      36.846  22.649  22.365  1.00  0.00    -0.272 OA
ATOM      7  H   UNL A   1      37.970  23.542  24.148  1.00  0.00     0.163 HD
BRANCH   5   8
ATOM      8  C   UNL A   1      34.671  22.964  23.400  1.00  0.00     0.202 C 
BRANCH   8   9
ATOM      9  C   UNL A   1      33.883  21.832  23.999  1.00  0.00     0.011 C 
ATOM     10  C   UNL A   1      35.745  20.368  24.994  1.00  0.00     0.069 C 
ATOM     11  C   UNL A   1      34.341  20.774  24.691  1.00  0.00     0.064 C 
ATOM     12  N   UNL A   1      33.336  19.963  25.154  1.00  0.00    -0.160 NA
ATOM     13  C   UNL A   1      32.413  21.591  23.909  1.00  0.00     0.156 C 
ATOM     14  N   UNL A   1      32.217  20.411  24.798  1.00  0.00    -0.181 NA
ATOM     15  C   UNL A   1      31.911  21.175  22.525  1.00  0.00     0.040 C 
ENDBRANCH   8   9
BRANCH   8  16
ATOM     16  N   UNL A   1      33.862  23.714  22.417  1.00  0.00    -0.339 N 
ATOM     17  C   UNL A   1      33.328  24.967  22.336  1.00  0.00     0.244 C 
ATOM     18  H   UNL A   1      33.658  23.174  21.618  1.00  0.00     0.164 HD
ATOM     19  O   UNL A   1      32.868  25.306  21.243  1.00  0.00    -0.273 OA
BRANCH  17  20
ATOM     20  C   UNL A   1      33.279  25.862  23.567  1.00  0.00     0.178 C 
ATOM     21  C   UNL A   1      32.217  25.461  24.627  1.00  0.00     0.050 C 
ATOM     22  N   UNL A   1      33.082  27.312  23.307  1.00  0.00    -0.362 N 
ATOM     23  C   UNL A   1      32.016  26.794  25.298  1.00  0.00    -0.016 A 
ATOM     24  C   UNL A   1      30.902  24.916  24.087  1.00  0.00     0.015 C 
ATOM     25  C   UNL A   1      32.508  27.817  24.474  1.00  0.00     0.041 A 
ATOM     26  C   UNL A   1      34.026  28.073  22.521  1.00  0.00     0.144 C 
ATOM     27  C   UNL A   1      31.508  27.044  26.565  1.00  0.00     0.045 A 
ATOM     28  C   UNL A   1      32.429  29.134  24.899  1.00  0.00     0.029 A 
ATOM     29  C   UNL A   1      31.482  28.363  26.997  1.00  0.00     0.123 A 
ATOM     30  C   UNL A   1      31.912  29.405  26.173  1.00  0.00     0.041 A 
ATOM     31  F   UNL A   1      31.069  28.635  28.242  1.00  0.00    -0.207 F 
ENDBRANCH  17  20
ENDBRANCH   8  16
ENDBRANCH   5   8
ENDBRANCH   3   4
ENDBRANCH   2   3
ENDBRANCH   1   2
BRANCH   1  32
ATOM     32  C   UNL A   1      39.720  22.036  26.786  1.00  0.00     0.002 C 
BRANCH  32  33
ATOM     33  C   UNL A   1      40.948  21.912  27.690  1.00  0.00     0.021 C 
BRANCH  33  34
ATOM     34  C   UNL A   1      41.825  20.662  27.629  1.00  0.00     0.116 C 
BRANCH  34  35
ATOM     35  N   UNL A   1      42.374  20.271  26.343  1.00  0.00    -0.352 N 
ATOM     36  C   UNL A   1      43.388  20.775  25.566  1.00  0.00     0.251 C 
ATOM     37  H   UNL A   1      41.930  19.486  25.949  1.00  0.00     0.163 HD
ATOM     38  O   UNL A   1      43.850  20.105  24.645  1.00  0.00    -0.269 OA
BRANCH  36  39
ATOM     39  C   UNL A   1      43.791  22.181  25.701  1.00  0.00     0.039 A 
ATOM     40  C   UNL A   1      44.720  22.599  26.642  1.00  0.00     0.014 A 
ATOM     41  C   UNL A   1      43.020  23.111  24.997  1.00  0.00     0.014 A 
ATOM     42  C   UNL A   1      44.597  23.872  27.155  1.00  0.00     0.010 A 
ATOM     43  C   UNL A   1      42.994  24.424  25.425  1.00  0.00     0.010 A 
ATOM     44  C   UNL A   1      43.660  24.757  26.604  1.00  0.00    -0.014 A 
BRANCH  44  45
ATOM     45  C   UNL A   1      43.421  26.009  27.321  1.00  0.00     0.031 A 
ATOM     46  C   UNL A   1      44.453  27.068  27.126  1.00  0.00     0.074 A 
ATOM     47  C   UNL A   1      42.325  26.230  28.077  1.00  0.00     0.049 A 
ATOM     48  N   UNL A   1      45.142  27.713  28.015  1.00  0.00    -0.248 NA
ATOM     49  C   UNL A   1      44.835  27.364  25.736  1.00  0.00     0.031 C 
ATOM     50  C   UNL A   1      41.115  25.407  28.189  1.00  0.00     0.029 A 
ATOM     51  N   UNL A   1      42.023  27.321  28.836  1.00  0.00    -0.354 N 
ATOM     52  C   UNL A   1      45.940  28.605  27.301  1.00  0.00     0.074 A 
ATOM     53  C   UNL A   1      45.795  28.269  25.908  1.00  0.00     0.031 C 
ATOM     54  C   UNL A   1      40.131  26.137  28.756  1.00  0.00     0.029 A 
ATOM     55  C   UNL A   1      40.684  27.410  29.178  1.00  0.00     0.049 A 
ATOM     56  H   UNL A   1      42.695  27.985  29.115  1.00  0.00     0.167 HD
ATOM     57  C   UNL A   1      46.546  29.679  27.871  1.00  0.00     0.037 A 
ATOM     58  C   UNL A   1      40.051  28.481  29.707  1.00  0.00     0.037 A 
ATOM     59  C   UNL A   1      46.673  29.548  29.294  1.00  0.00     0.049 A 
ATOM     60  C   UNL A   1      41.066  29.389  30.281  1.00  0.00     0.074 A 
ATOM     61  C   UNL A   1      47.409  28.757  30.150  1.00  0.00     0.029 A 
ATOM     62  N   UNL A   1      45.745  30.187  30.072  1.00  0.00    -0.354 N 
ATOM     63  N   UNL A   1      41.760  29.134  31.352  1.00  0.00    -0.248 NA
ATOM     64  C   UNL A   1      41.577  30.469  29.450  1.00  0.00     0.031 C 
ATOM     65  C   UNL A   1      46.626  28.645  31.336  1.00  0.00     0.029 A 
ATOM     66  C   UNL A   1      45.450  29.368  31.130  1.00  0.00     0.049 A 
ATOM     67  H   UNL A   1      45.359  31.077  29.901  1.00  0.00     0.167 HD
ATOM     68  C   UNL A   1      42.988  29.736  31.131  1.00  0.00     0.074 A 
ATOM     69  C   UNL A   1      42.768  30.653  30.021  1.00  0.00     0.031 C 
ATOM     70  C   UNL A   1      44.126  29.229  31.688  1.00  0.00     0.037 A 
BRANCH  57  71
ATOM     71  C   UNL A   1      46.748  30.994  27.164  1.00  0.00     0.057 A 
ATOM     72  C   UNL A   1      45.689  31.860  26.817  1.00  0.00     0.134 A 
ATOM     73  C   UNL A   1      48.034  31.554  27.071  1.00  0.00     0.134 A 
ATOM     74  F   UNL A   1      44.405  31.507  26.959  1.00  0.00    -0.206 F 
ATOM     75  C   UNL A   1      45.893  33.177  26.400  1.00  0.00     0.040 A 
ATOM     76  C   UNL A   1      48.246  32.890  26.704  1.00  0.00     0.040 A 
ATOM     77  F   UNL A   1      49.122  30.843  27.403  1.00  0.00    -0.206 F 
ATOM     78  C   UNL A   1      47.173  33.706  26.369  1.00  0.00     0.006 A 
ENDBRANCH  57  71
BRANCH  58  79
ATOM     79  C   UNL A   1      38.646  28.882  29.503  1.00  0.00     0.057 A 
ATOM     80  C   UNL A   1      38.210  29.394  28.268  1.00  0.00     0.134 A 
ATOM     81  C   UNL A   1      37.754  28.998  30.574  1.00  0.00     0.134 A 
ATOM     82  F   UNL A   1      39.023  29.409  27.201  1.00  0.00    -0.206 F 
ATOM     83  C   UNL A   1      36.956  29.984  28.104  1.00  0.00     0.040 A 
ATOM     84  C   UNL A   1      36.496  29.597  30.426  1.00  0.00     0.040 A 
ATOM     85  F   UNL A   1      38.102  28.579  31.798  1.00  0.00    -0.206 F 
ATOM     86  C   UNL A   1      36.096  30.097  29.189  1.00  0.00     0.006 A 
ENDBRANCH  58  79
BRANCH  70  87
ATOM     87  C   UNL A   1      43.951  28.220  32.785  1.00  0.00     0.057 A 
ATOM     88  C   UNL A   1      43.987  28.641  34.116  1.00  0.00     0.134 A 
ATOM     89  C   UNL A   1      43.863  26.840  32.551  1.00  0.00     0.134 A 
ATOM     90  F   UNL A   1      44.134  29.942  34.412  1.00  0.00    -0.206 F 
ATOM     91  C   UNL A   1      43.917  27.732  35.175  1.00  0.00     0.040 A 
ATOM     92  C   UNL A   1      43.760  25.923  33.600  1.00  0.00     0.040 A 
ATOM     93  F   UNL A   1      43.924  26.345  31.308  1.00  0.00    -0.206 F 
ATOM     94  C   UNL A   1      43.789  26.369  34.918  1.00  0.00     0.006 A 
ENDBRANCH  70  87
ENDBRANCH  44  45
ENDBRANCH  36  39
ENDBRANCH  34  35
ENDBRANCH  33  34
ENDBRANCH  32  33
ENDBRANCH   1  32
TORSDOF 16
ENDMDL
