MODEL 1
REMARK VINA RESULT:     -12.3      0.000      0.000
REMARK SMILES C[NH+]1CCC([NH+]2CCC(Oc3ccc4ccccc4c3)(C(=O)NCCCCCCNC(=O)c3ccc(-c4c5nc(c(-c6c(F)cccc6F)c6ccc([nH]6)c(-c6c(F)cccc6F)c6nc(c(-c7c(F)cccc7F)c7ccc4[nH]7)C=C6)C=C5)cc3)CC2)CC1
REMARK SMILES IDX 26 1 25 2 24 3 23 4 21 5 22 6 9 8 6 9 7 10 88 11 8 13 87 14
REMARK SMILES IDX 5 15 1 16 2 17 3 18 90 19 4 21 89 22 10 23 11 24 12 25 20 26
REMARK SMILES IDX 13 27 19 28 14 29 18 30 15 31 17 32 16 33 27 34 28 35 29 36
REMARK SMILES IDX 30 37 31 38 32 40 33 41 34 42 86 43 35 44 85 45 36 46 37 47
REMARK SMILES IDX 38 48 79 49 39 50 84 51 78 52 80 53 40 54 83 55 77 56 76 57
REMARK SMILES IDX 41 59 67 60 50 61 66 62 51 63 54 64 65 65 81 66 52 67 53 68
REMARK SMILES IDX 64 70 82 71 55 72 42 73 43 74 48 75 44 76 45 77 47 78 49 79
REMARK SMILES IDX 46 80 68 81 69 82 74 83 70 84 71 85 73 86 75 87 72 88 56 89
REMARK SMILES IDX 57 90 62 91 58 92 59 93 61 94 63 95 60 96
REMARK H PARENT 23 7 6 12 2 20 30 39 80 58 54 69
REMARK Flexibility Score: inf
ROOT
ATOM      1  C   UNL A   1      40.456  22.184  26.475  1.00  0.00     0.002 C 
ENDROOT
BRANCH   1   2
ATOM      2  C   UNL A   1      39.064  21.731  26.021  1.00  0.00     0.021 C 
BRANCH   2   3
ATOM      3  C   UNL A   1      38.080  22.876  25.782  1.00  0.00     0.116 C 
BRANCH   3   4
ATOM      4  N   UNL A   1      37.624  22.892  24.407  1.00  0.00    -0.353 N 
ATOM      5  C   UNL A   1      36.375  23.073  23.883  1.00  0.00     0.264 C 
ATOM      6  O   UNL A   1      36.309  23.092  22.649  1.00  0.00    -0.270 OA
ATOM      7  H   UNL A   1      38.332  22.748  23.738  1.00  0.00     0.163 HD
BRANCH   5   8
ATOM      8  C   UNL A   1      35.123  23.253  24.794  1.00  0.00     0.197 C 
ATOM      9  N   UNL A   1      33.862  20.591  24.875  1.00  0.00    -0.332 N 
ATOM     10  C   UNL A   1      35.131  20.853  25.559  1.00  0.00     0.267 C 
ATOM     11  C   UNL A   1      33.723  21.425  23.668  1.00  0.00     0.267 C 
ATOM     12  H   UNL A   1      33.123  20.865  25.524  1.00  0.00     0.348 HD
ATOM     13  C   UNL A   1      35.166  22.308  26.000  1.00  0.00     0.120 C 
ATOM     14  C   UNL A   1      33.852  22.930  23.979  1.00  0.00     0.120 C 
BRANCH   9  15
ATOM     15  C   UNL A   1      33.615  19.151  24.609  1.00  0.00     0.195 C 
ATOM     16  C   UNL A   1      33.349  14.899  25.281  1.00  0.00     0.332 C 
ATOM     17  N   UNL A   1      33.605  16.332  25.399  1.00  0.00    -0.337 N 
ATOM     18  C   UNL A   1      32.347  17.088  25.379  1.00  0.00     0.268 C 
ATOM     19  C   UNL A   1      34.503  16.794  24.334  1.00  0.00     0.268 C 
ATOM     20  H   UNL A   1      34.065  16.498  26.295  1.00  0.00     0.347 HD
ATOM     21  C   UNL A   1      32.611  18.572  25.628  1.00  0.00     0.126 C 
ATOM     22  C   UNL A   1      34.871  18.264  24.540  1.00  0.00     0.126 C 
ENDBRANCH   9  15
BRANCH   8  23
ATOM     23  O   UNL A   1      35.238  24.663  25.117  1.00  0.00    -0.477 OA
BRANCH  23  24
ATOM     24  C   UNL A   1      34.134  25.456  25.070  1.00  0.00     0.121 A 
ATOM     25  C   UNL A   1      33.255  25.573  26.140  1.00  0.00     0.047 A 
ATOM     26  C   UNL A   1      34.005  26.305  23.970  1.00  0.00     0.055 A 
ATOM     27  C   UNL A   1      32.180  26.461  26.070  1.00  0.00     0.012 A 
ATOM     28  C   UNL A   1      32.950  27.229  23.897  1.00  0.00    -0.015 A 
ATOM     29  C   UNL A   1      32.011  27.290  24.953  1.00  0.00    -0.018 A 
ATOM     30  C   UNL A   1      32.810  28.102  22.806  1.00  0.00     0.009 A 
ATOM     31  C   UNL A   1      30.944  28.198  24.876  1.00  0.00     0.009 A 
ATOM     32  C   UNL A   1      31.749  29.008  22.750  1.00  0.00     0.001 A 
ATOM     33  C   UNL A   1      30.813  29.050  23.779  1.00  0.00     0.001 A 
ENDBRANCH  23  24
ENDBRANCH   8  23
ENDBRANCH   5   8
ENDBRANCH   3   4
ENDBRANCH   2   3
ENDBRANCH   1   2
BRANCH   1  34
ATOM     34  C   UNL A   1      41.370  21.066  26.987  1.00  0.00     0.002 C 
BRANCH  34  35
ATOM     35  C   UNL A   1      41.558  19.888  26.029  1.00  0.00     0.021 C 
BRANCH  35  36
ATOM     36  C   UNL A   1      42.778  19.019  26.314  1.00  0.00     0.116 C 
BRANCH  36  37
ATOM     37  N   UNL A   1      43.555  18.754  25.115  1.00  0.00    -0.352 N 
ATOM     38  C   UNL A   1      44.274  19.623  24.337  1.00  0.00     0.251 C 
ATOM     39  H   UNL A   1      43.565  17.816  24.818  1.00  0.00     0.163 HD
ATOM     40  O   UNL A   1      44.723  19.248  23.253  1.00  0.00    -0.269 OA
BRANCH  38  41
ATOM     41  C   UNL A   1      44.506  21.014  24.783  1.00  0.00     0.039 A 
ATOM     42  C   UNL A   1      45.131  21.228  26.014  1.00  0.00     0.014 A 
ATOM     43  C   UNL A   1      44.067  22.103  24.022  1.00  0.00     0.014 A 
ATOM     44  C   UNL A   1      45.336  22.530  26.473  1.00  0.00     0.010 A 
ATOM     45  C   UNL A   1      44.332  23.402  24.449  1.00  0.00     0.010 A 
ATOM     46  C   UNL A   1      44.948  23.628  25.689  1.00  0.00    -0.014 A 
BRANCH  46  47
ATOM     47  C   UNL A   1      45.127  25.016  26.183  1.00  0.00     0.031 A 
ATOM     48  C   UNL A   1      46.481  25.669  26.115  1.00  0.00     0.074 A 
ATOM     49  C   UNL A   1      44.086  25.677  26.723  1.00  0.00     0.049 A 
ATOM     50  N   UNL A   1      46.849  26.858  26.521  1.00  0.00    -0.248 NA
ATOM     51  C   UNL A   1      47.572  24.868  25.538  1.00  0.00     0.031 C 
ATOM     52  C   UNL A   1      42.735  25.139  26.891  1.00  0.00     0.029 A 
ATOM     53  N   UNL A   1      44.005  26.947  27.235  1.00  0.00    -0.354 N 
ATOM     54  C   UNL A   1      48.212  26.940  26.266  1.00  0.00     0.074 A 
ATOM     55  C   UNL A   1      48.617  25.663  25.718  1.00  0.00     0.031 C 
ATOM     56  C   UNL A   1      41.954  26.082  27.443  1.00  0.00     0.029 A 
ATOM     57  C   UNL A   1      42.752  27.280  27.688  1.00  0.00     0.049 A 
ATOM     58  H   UNL A   1      44.772  27.563  27.273  1.00  0.00     0.167 HD
ATOM     59  C   UNL A   1      49.048  27.989  26.446  1.00  0.00     0.037 A 
ATOM     60  C   UNL A   1      42.299  28.423  28.233  1.00  0.00     0.037 A 
ATOM     61  C   UNL A   1      48.640  29.271  26.957  1.00  0.00     0.049 A 
ATOM     62  C   UNL A   1      43.238  29.587  28.390  1.00  0.00     0.074 A 
ATOM     63  C   UNL A   1      49.400  30.414  27.131  1.00  0.00     0.029 A 
ATOM     64  N   UNL A   1      47.352  29.580  27.368  1.00  0.00    -0.354 N 
ATOM     65  N   UNL A   1      44.511  29.668  28.092  1.00  0.00    -0.248 NA
ATOM     66  C   UNL A   1      42.670  30.824  28.945  1.00  0.00     0.031 C 
ATOM     67  C   UNL A   1      48.577  31.408  27.673  1.00  0.00     0.029 A 
ATOM     68  C   UNL A   1      47.297  30.895  27.800  1.00  0.00     0.049 A 
ATOM     69  H   UNL A   1      46.590  28.957  27.354  1.00  0.00     0.167 HD
ATOM     70  C   UNL A   1      44.891  30.969  28.394  1.00  0.00     0.074 A 
ATOM     71  C   UNL A   1      43.708  31.646  28.886  1.00  0.00     0.031 C 
ATOM     72  C   UNL A   1      46.109  31.554  28.276  1.00  0.00     0.037 A 
BRANCH  59  73
ATOM     73  C   UNL A   1      50.490  27.790  26.078  1.00  0.00     0.057 A 
ATOM     74  C   UNL A   1      50.934  27.895  24.754  1.00  0.00     0.134 A 
ATOM     75  C   UNL A   1      51.448  27.507  27.059  1.00  0.00     0.134 A 
ATOM     76  F   UNL A   1      50.065  28.150  23.763  1.00  0.00    -0.206 F 
ATOM     77  C   UNL A   1      52.273  27.696  24.413  1.00  0.00     0.040 A 
ATOM     78  C   UNL A   1      52.794  27.332  26.735  1.00  0.00     0.040 A 
ATOM     79  F   UNL A   1      51.092  27.398  28.349  1.00  0.00    -0.206 F 
ATOM     80  C   UNL A   1      53.208  27.418  25.407  1.00  0.00     0.006 A 
ENDBRANCH  59  73
BRANCH  60  81
ATOM     81  C   UNL A   1      40.875  28.543  28.630  1.00  0.00     0.057 A 
ATOM     82  C   UNL A   1      40.459  28.216  29.925  1.00  0.00     0.134 A 
ATOM     83  C   UNL A   1      39.897  28.973  27.726  1.00  0.00     0.134 A 
ATOM     84  F   UNL A   1      41.348  27.780  30.830  1.00  0.00    -0.206 F 
ATOM     85  C   UNL A   1      39.117  28.292  30.304  1.00  0.00     0.040 A 
ATOM     86  C   UNL A   1      38.556  29.076  28.097  1.00  0.00     0.040 A 
ATOM     87  F   UNL A   1      40.234  29.308  26.472  1.00  0.00    -0.206 F 
ATOM     88  C   UNL A   1      38.162  28.728  29.388  1.00  0.00     0.006 A 
ENDBRANCH  60  81
BRANCH  72  89
ATOM     89  C   UNL A   1      46.207  33.003  28.647  1.00  0.00     0.057 A 
ATOM     90  C   UNL A   1      45.998  34.024  27.711  1.00  0.00     0.134 A 
ATOM     91  C   UNL A   1      46.498  33.382  29.964  1.00  0.00     0.134 A 
ATOM     92  F   UNL A   1      45.728  33.726  26.431  1.00  0.00    -0.206 F 
ATOM     93  C   UNL A   1      46.104  35.369  28.065  1.00  0.00     0.040 A 
ATOM     94  C   UNL A   1      46.582  34.723  30.335  1.00  0.00     0.040 A 
ATOM     95  F   UNL A   1      46.701  32.452  30.910  1.00  0.00    -0.206 F 
ATOM     96  C   UNL A   1      46.393  35.722  29.382  1.00  0.00     0.006 A 
ENDBRANCH  72  89
ENDBRANCH  46  47
ENDBRANCH  38  41
ENDBRANCH  36  37
ENDBRANCH  35  36
ENDBRANCH  34  35
ENDBRANCH   1  34
TORSDOF 16
ENDMDL
MODEL 2
REMARK VINA RESULT:     -12.3      4.350      6.580
REMARK SMILES C[NH+]1CCC([NH+]2CCC(Oc3ccc4ccccc4c3)(C(=O)NCCCCCCNC(=O)c3ccc(-c4c5nc(c(-c6c(F)cccc6F)c6ccc([nH]6)c(-c6c(F)cccc6F)c6nc(c(-c7c(F)cccc7F)c7ccc4[nH]7)C=C6)C=C5)cc3)CC2)CC1
REMARK SMILES IDX 26 1 25 2 24 3 23 4 21 5 22 6 9 8 6 9 7 10 88 11 8 13 87 14
REMARK SMILES IDX 5 15 1 16 2 17 3 18 90 19 4 21 89 22 10 23 11 24 12 25 20 26
REMARK SMILES IDX 13 27 19 28 14 29 18 30 15 31 17 32 16 33 27 34 28 35 29 36
REMARK SMILES IDX 30 37 31 38 32 40 33 41 34 42 86 43 35 44 85 45 36 46 37 47
REMARK SMILES IDX 38 48 79 49 39 50 84 51 78 52 80 53 40 54 83 55 77 56 76 57
REMARK SMILES IDX 41 59 67 60 50 61 66 62 51 63 54 64 65 65 81 66 52 67 53 68
REMARK SMILES IDX 64 70 82 71 55 72 42 73 43 74 48 75 44 76 45 77 47 78 49 79
REMARK SMILES IDX 46 80 68 81 69 82 74 83 70 84 71 85 73 86 75 87 72 88 56 89
REMARK SMILES IDX 57 90 62 91 58 92 59 93 61 94 63 95 60 96
REMARK H PARENT 23 7 6 12 2 20 30 39 80 58 54 69
REMARK Flexibility Score: inf
ROOT
ATOM      1  C   UNL A   1      40.146  22.215  26.767  1.00  0.00     0.002 C 
ENDROOT
BRANCH   1   2
ATOM      2  C   UNL A   1      38.770  21.949  26.147  1.00  0.00     0.021 C 
BRANCH   2   3
ATOM      3  C   UNL A   1      38.021  23.211  25.720  1.00  0.00     0.116 C 
BRANCH   3   4
ATOM      4  N   UNL A   1      37.532  23.091  24.363  1.00  0.00    -0.353 N 
ATOM      5  C   UNL A   1      36.261  23.144  23.865  1.00  0.00     0.264 C 
ATOM      6  O   UNL A   1      36.163  23.064  22.635  1.00  0.00    -0.270 OA
ATOM      7  H   UNL A   1      38.232  22.947  23.685  1.00  0.00     0.163 HD
BRANCH   5   8
ATOM      8  C   UNL A   1      35.021  23.302  24.797  1.00  0.00     0.197 C 
ATOM      9  N   UNL A   1      33.797  20.624  24.885  1.00  0.00    -0.332 N 
ATOM     10  C   UNL A   1      35.073  20.898  25.549  1.00  0.00     0.267 C 
ATOM     11  C   UNL A   1      33.626  21.462  23.685  1.00  0.00     0.267 C 
ATOM     12  H   UNL A   1      33.065  20.885  25.547  1.00  0.00     0.348 HD
ATOM     13  C   UNL A   1      35.097  22.351  25.997  1.00  0.00     0.120 C 
ATOM     14  C   UNL A   1      33.741  22.967  24.002  1.00  0.00     0.120 C 
BRANCH   9  15
ATOM     15  C   UNL A   1      33.563  19.182  24.615  1.00  0.00     0.195 C 
ATOM     16  C   UNL A   1      33.348  14.925  25.274  1.00  0.00     0.332 C 
ATOM     17  N   UNL A   1      33.589  16.360  25.396  1.00  0.00    -0.337 N 
ATOM     18  C   UNL A   1      32.322  17.103  25.385  1.00  0.00     0.268 C 
ATOM     19  C   UNL A   1      34.475  16.836  24.327  1.00  0.00     0.268 C 
ATOM     20  H   UNL A   1      34.051  16.528  26.289  1.00  0.00     0.347 HD
ATOM     21  C   UNL A   1      32.572  18.589  25.638  1.00  0.00     0.126 C 
ATOM     22  C   UNL A   1      34.828  18.309  24.536  1.00  0.00     0.126 C 
ENDBRANCH   9  15
BRANCH   8  23
ATOM     23  O   UNL A   1      35.123  24.711  25.127  1.00  0.00    -0.477 OA
BRANCH  23  24
ATOM     24  C   UNL A   1      34.020  25.503  25.047  1.00  0.00     0.121 A 
ATOM     25  C   UNL A   1      33.122  25.636  26.099  1.00  0.00     0.047 A 
ATOM     26  C   UNL A   1      33.910  26.334  23.931  1.00  0.00     0.055 A 
ATOM     27  C   UNL A   1      32.048  26.521  25.995  1.00  0.00     0.012 A 
ATOM     28  C   UNL A   1      32.856  27.255  23.824  1.00  0.00    -0.015 A 
ATOM     29  C   UNL A   1      31.898  27.333  24.862  1.00  0.00    -0.018 A 
ATOM     30  C   UNL A   1      32.735  28.111  22.717  1.00  0.00     0.009 A 
ATOM     31  C   UNL A   1      30.832  28.237  24.752  1.00  0.00     0.009 A 
ATOM     32  C   UNL A   1      31.675  29.015  22.628  1.00  0.00     0.001 A 
ATOM     33  C   UNL A   1      30.720  29.072  23.640  1.00  0.00     0.001 A 
ENDBRANCH  23  24
ENDBRANCH   8  23
ENDBRANCH   5   8
ENDBRANCH   3   4
ENDBRANCH   2   3
ENDBRANCH   1   2
BRANCH   1  34
ATOM     34  C   UNL A   1      41.174  21.093  26.580  1.00  0.00     0.002 C 
BRANCH  34  35
ATOM     35  C   UNL A   1      42.418  21.475  25.776  1.00  0.00     0.021 C 
BRANCH  35  36
ATOM     36  C   UNL A   1      42.386  22.877  25.176  1.00  0.00     0.116 C 
BRANCH  36  37
ATOM     37  N   UNL A   1      43.717  23.373  24.873  1.00  0.00    -0.352 N 
ATOM     38  C   UNL A   1      44.345  24.503  25.326  1.00  0.00     0.251 C 
ATOM     39  H   UNL A   1      44.244  22.818  24.254  1.00  0.00     0.163 HD
ATOM     40  O   UNL A   1      45.411  24.857  24.819  1.00  0.00    -0.269 OA
BRANCH  38  41
ATOM     41  C   UNL A   1      43.748  25.311  26.411  1.00  0.00     0.039 A 
ATOM     42  C   UNL A   1      44.074  26.668  26.494  1.00  0.00     0.014 A 
ATOM     43  C   UNL A   1      42.915  24.732  27.374  1.00  0.00     0.014 A 
ATOM     44  C   UNL A   1      43.548  27.448  27.525  1.00  0.00     0.010 A 
ATOM     45  C   UNL A   1      42.338  25.524  28.363  1.00  0.00     0.010 A 
ATOM     46  C   UNL A   1      42.667  26.884  28.462  1.00  0.00    -0.014 A 
BRANCH  46  47
ATOM     47  C   UNL A   1      42.132  27.694  29.585  1.00  0.00     0.031 A 
ATOM     48  C   UNL A   1      42.809  27.658  30.928  1.00  0.00     0.074 A 
ATOM     49  C   UNL A   1      41.021  28.434  29.410  1.00  0.00     0.049 A 
ATOM     50  N   UNL A   1      42.479  28.267  32.039  1.00  0.00    -0.248 NA
ATOM     51  C   UNL A   1      44.000  26.801  31.044  1.00  0.00     0.031 C 
ATOM     52  C   UNL A   1      40.244  28.518  28.172  1.00  0.00     0.029 A 
ATOM     53  N   UNL A   1      40.351  29.256  30.280  1.00  0.00    -0.354 N 
ATOM     54  C   UNL A   1      43.408  27.854  32.986  1.00  0.00     0.074 A 
ATOM     55  C   UNL A   1      44.283  26.902  32.334  1.00  0.00     0.031 C 
ATOM     56  C   UNL A   1      39.218  29.364  28.355  1.00  0.00     0.029 A 
ATOM     57  C   UNL A   1      39.251  29.864  29.727  1.00  0.00     0.049 A 
ATOM     58  H   UNL A   1      40.631  29.397  31.213  1.00  0.00     0.167 HD
ATOM     59  C   UNL A   1      43.539  28.247  34.275  1.00  0.00     0.037 A 
ATOM     60  C   UNL A   1      38.374  30.731  30.264  1.00  0.00     0.037 A 
ATOM     61  C   UNL A   1      42.693  29.219  34.914  1.00  0.00     0.049 A 
ATOM     62  C   UNL A   1      38.561  31.182  31.687  1.00  0.00     0.074 A 
ATOM     63  C   UNL A   1      42.772  29.723  36.201  1.00  0.00     0.029 A 
ATOM     64  N   UNL A   1      41.613  29.843  34.307  1.00  0.00    -0.354 N 
ATOM     65  N   UNL A   1      39.477  30.825  32.553  1.00  0.00    -0.248 NA
ATOM     66  C   UNL A   1      37.599  32.168  32.199  1.00  0.00     0.031 C 
ATOM     67  C   UNL A   1      41.724  30.633  36.381  1.00  0.00     0.029 A 
ATOM     68  C   UNL A   1      41.014  30.723  35.194  1.00  0.00     0.049 A 
ATOM     69  H   UNL A   1      41.316  29.683  33.382  1.00  0.00     0.167 HD
ATOM     70  C   UNL A   1      39.222  31.563  33.702  1.00  0.00     0.074 A 
ATOM     71  C   UNL A   1      38.072  32.398  33.416  1.00  0.00     0.031 C 
ATOM     72  C   UNL A   1      39.879  31.552  34.888  1.00  0.00     0.037 A 
BRANCH  59  73
ATOM     73  C   UNL A   1      44.648  27.627  35.074  1.00  0.00     0.057 A 
ATOM     74  C   UNL A   1      44.447  26.471  35.840  1.00  0.00     0.134 A 
ATOM     75  C   UNL A   1      45.934  28.180  35.067  1.00  0.00     0.134 A 
ATOM     76  F   UNL A   1      43.234  25.898  35.902  1.00  0.00    -0.206 F 
ATOM     77  C   UNL A   1      45.477  25.904  36.593  1.00  0.00     0.040 A 
ATOM     78  C   UNL A   1      46.978  27.609  35.795  1.00  0.00     0.040 A 
ATOM     79  F   UNL A   1      46.197  29.286  34.352  1.00  0.00    -0.206 F 
ATOM     80  C   UNL A   1      46.749  26.472  36.568  1.00  0.00     0.006 A 
ENDBRANCH  59  73
BRANCH  60  81
ATOM     81  C   UNL A   1      37.263  31.269  29.442  1.00  0.00     0.057 A 
ATOM     82  C   UNL A   1      36.099  30.522  29.227  1.00  0.00     0.134 A 
ATOM     83  C   UNL A   1      37.341  32.532  28.843  1.00  0.00     0.134 A 
ATOM     84  F   UNL A   1      35.975  29.297  29.759  1.00  0.00    -0.206 F 
ATOM     85  C   UNL A   1      35.059  31.001  28.428  1.00  0.00     0.040 A 
ATOM     86  C   UNL A   1      36.299  33.033  28.061  1.00  0.00     0.040 A 
ATOM     87  F   UNL A   1      38.426  33.298  29.018  1.00  0.00    -0.206 F 
ATOM     88  C   UNL A   1      35.157  32.263  27.845  1.00  0.00     0.006 A 
ENDBRANCH  60  81
BRANCH  72  89
ATOM     89  C   UNL A   1      39.392  32.499  35.944  1.00  0.00     0.057 A 
ATOM     90  C   UNL A   1      38.478  32.104  36.928  1.00  0.00     0.134 A 
ATOM     91  C   UNL A   1      39.860  33.819  35.986  1.00  0.00     0.134 A 
ATOM     92  F   UNL A   1      37.983  30.857  36.935  1.00  0.00    -0.206 F 
ATOM     93  C   UNL A   1      38.022  32.997  37.900  1.00  0.00     0.040 A 
ATOM     94  C   UNL A   1      39.431  34.713  36.966  1.00  0.00     0.040 A 
ATOM     95  F   UNL A   1      40.743  34.257  35.076  1.00  0.00    -0.206 F 
ATOM     96  C   UNL A   1      38.503  34.305  37.923  1.00  0.00     0.006 A 
ENDBRANCH  72  89
ENDBRANCH  46  47
ENDBRANCH  38  41
ENDBRANCH  36  37
ENDBRANCH  35  36
ENDBRANCH  34  35
ENDBRANCH   1  34
TORSDOF 16
ENDMDL
MODEL 3
REMARK VINA RESULT:     -12.1      5.639     11.148
REMARK SMILES C[NH+]1CCC([NH+]2CCC(Oc3ccc4ccccc4c3)(C(=O)NCCCCCCNC(=O)c3ccc(-c4c5nc(c(-c6c(F)cccc6F)c6ccc([nH]6)c(-c6c(F)cccc6F)c6nc(c(-c7c(F)cccc7F)c7ccc4[nH]7)C=C6)C=C5)cc3)CC2)CC1
REMARK SMILES IDX 26 1 25 2 24 3 23 4 21 5 22 6 9 8 6 9 7 10 88 11 8 13 87 14
REMARK SMILES IDX 5 15 1 16 2 17 3 18 90 19 4 21 89 22 10 23 11 24 12 25 20 26
REMARK SMILES IDX 13 27 19 28 14 29 18 30 15 31 17 32 16 33 27 34 28 35 29 36
REMARK SMILES IDX 30 37 31 38 32 40 33 41 34 42 86 43 35 44 85 45 36 46 37 47
REMARK SMILES IDX 38 48 79 49 39 50 84 51 78 52 80 53 40 54 83 55 77 56 76 57
REMARK SMILES IDX 41 59 67 60 50 61 66 62 51 63 54 64 65 65 81 66 52 67 53 68
REMARK SMILES IDX 64 70 82 71 55 72 42 73 43 74 48 75 44 76 45 77 47 78 49 79
REMARK SMILES IDX 46 80 68 81 69 82 74 83 70 84 71 85 73 86 75 87 72 88 56 89
REMARK SMILES IDX 57 90 62 91 58 92 59 93 61 94 63 95 60 96
REMARK H PARENT 23 7 6 12 2 20 30 39 80 58 54 69
REMARK Flexibility Score: inf
ROOT
ATOM      1  C   UNL A   1      32.121  29.515  26.867  1.00  0.00     0.002 C 
ENDROOT
BRANCH   1   2
ATOM      2  C   UNL A   1      33.531  29.081  26.451  1.00  0.00     0.021 C 
BRANCH   2   3
ATOM      3  C   UNL A   1      33.682  27.577  26.226  1.00  0.00     0.116 C 
BRANCH   3   4
ATOM      4  N   UNL A   1      32.527  26.859  26.723  1.00  0.00    -0.353 N 
ATOM      5  C   UNL A   1      31.798  25.847  26.165  1.00  0.00     0.264 C 
ATOM      6  O   UNL A   1      30.888  25.392  26.867  1.00  0.00    -0.270 OA
ATOM      7  H   UNL A   1      32.216  27.146  27.612  1.00  0.00     0.163 HD
BRANCH   5   8
ATOM      8  C   UNL A   1      32.107  25.306  24.736  1.00  0.00     0.197 C 
ATOM      9  N   UNL A   1      30.568  27.044  22.922  1.00  0.00    -0.332 N 
ATOM     10  C   UNL A   1      31.748  27.542  23.632  1.00  0.00     0.267 C 
ATOM     11  C   UNL A   1      29.868  26.010  23.705  1.00  0.00     0.267 C 
ATOM     12  H   UNL A   1      30.910  26.602  22.068  1.00  0.00     0.348 HD
ATOM     13  C   UNL A   1      32.720  26.392  23.845  1.00  0.00     0.120 C 
ATOM     14  C   UNL A   1      30.793  24.833  24.077  1.00  0.00     0.120 C 
BRANCH   9  15
ATOM     15  C   UNL A   1      29.658  28.119  22.451  1.00  0.00     0.195 C 
ATOM     16  C   UNL A   1      27.674  31.944  22.255  1.00  0.00     0.332 C 
ATOM     17  N   UNL A   1      28.482  30.793  22.650  1.00  0.00    -0.337 N 
ATOM     18  C   UNL A   1      29.532  30.529  21.658  1.00  0.00     0.268 C 
ATOM     19  C   UNL A   1      27.642  29.605  22.842  1.00  0.00     0.268 C 
ATOM     20  H   UNL A   1      28.929  31.012  23.540  1.00  0.00     0.347 HD
ATOM     21  C   UNL A   1      30.449  29.406  22.137  1.00  0.00     0.126 C 
ATOM     22  C   UNL A   1      28.473  28.439  23.381  1.00  0.00     0.126 C 
ENDBRANCH   9  15
BRANCH   8  23
ATOM     23  O   UNL A   1      32.997  24.208  25.062  1.00  0.00    -0.477 OA
BRANCH  23  24
ATOM     24  C   UNL A   1      32.768  22.976  24.533  1.00  0.00     0.121 A 
ATOM     25  C   UNL A   1      32.603  22.771  23.168  1.00  0.00     0.047 A 
ATOM     26  C   UNL A   1      32.889  21.881  25.389  1.00  0.00     0.055 A 
ATOM     27  C   UNL A   1      32.449  21.477  22.668  1.00  0.00     0.012 A 
ATOM     28  C   UNL A   1      32.771  20.570  24.899  1.00  0.00    -0.015 A 
ATOM     29  C   UNL A   1      32.525  20.368  23.521  1.00  0.00    -0.018 A 
ATOM     30  C   UNL A   1      32.904  19.454  25.741  1.00  0.00     0.009 A 
ATOM     31  C   UNL A   1      32.386  19.061  23.029  1.00  0.00     0.009 A 
ATOM     32  C   UNL A   1      32.776  18.160  25.234  1.00  0.00     0.001 A 
ATOM     33  C   UNL A   1      32.509  17.964  23.882  1.00  0.00     0.001 A 
ENDBRANCH  23  24
ENDBRANCH   8  23
ENDBRANCH   5   8
ENDBRANCH   3   4
ENDBRANCH   2   3
ENDBRANCH   1   2
BRANCH   1  34
ATOM     34  C   UNL A   1      31.451  30.533  25.937  1.00  0.00     0.002 C 
BRANCH  34  35
ATOM     35  C   UNL A   1      31.281  31.937  26.520  1.00  0.00     0.021 C 
BRANCH  35  36
ATOM     36  C   UNL A   1      32.583  32.644  26.878  1.00  0.00     0.116 C 
BRANCH  36  37
ATOM     37  N   UNL A   1      32.354  33.972  27.420  1.00  0.00    -0.352 N 
ATOM     38  C   UNL A   1      32.972  34.597  28.471  1.00  0.00     0.251 C 
ATOM     39  H   UNL A   1      31.655  34.497  26.969  1.00  0.00     0.163 HD
ATOM     40  O   UNL A   1      32.520  35.659  28.903  1.00  0.00    -0.269 OA
BRANCH  38  41
ATOM     41  C   UNL A   1      34.169  34.002  29.102  1.00  0.00     0.039 A 
ATOM     42  C   UNL A   1      35.430  34.357  28.615  1.00  0.00     0.014 A 
ATOM     43  C   UNL A   1      34.057  33.060  30.130  1.00  0.00     0.014 A 
ATOM     44  C   UNL A   1      36.577  33.788  29.171  1.00  0.00     0.010 A 
ATOM     45  C   UNL A   1      35.203  32.543  30.729  1.00  0.00     0.010 A 
ATOM     46  C   UNL A   1      36.472  32.884  30.240  1.00  0.00    -0.014 A 
BRANCH  46  47
ATOM     47  C   UNL A   1      37.682  32.244  30.815  1.00  0.00     0.031 A 
ATOM     48  C   UNL A   1      38.273  32.769  32.096  1.00  0.00     0.074 A 
ATOM     49  C   UNL A   1      38.269  31.218  30.172  1.00  0.00     0.049 A 
ATOM     50  N   UNL A   1      39.340  32.369  32.741  1.00  0.00    -0.248 NA
ATOM     51  C   UNL A   1      37.589  33.912  32.719  1.00  0.00     0.031 C 
ATOM     52  C   UNL A   1      37.823  30.648  28.900  1.00  0.00     0.029 A 
ATOM     53  N   UNL A   1      39.373  30.473  30.503  1.00  0.00    -0.354 N 
ATOM     54  C   UNL A   1      39.463  33.221  33.832  1.00  0.00     0.074 A 
ATOM     55  C   UNL A   1      38.394  34.191  33.734  1.00  0.00     0.031 C 
ATOM     56  C   UNL A   1      38.631  29.627  28.571  1.00  0.00     0.029 A 
ATOM     57  C   UNL A   1      39.663  29.486  29.594  1.00  0.00     0.049 A 
ATOM     58  H   UNL A   1      39.907  30.632  31.314  1.00  0.00     0.167 HD
ATOM     59  C   UNL A   1      40.368  33.185  34.838  1.00  0.00     0.037 A 
ATOM     60  C   UNL A   1      40.646  28.567  29.592  1.00  0.00     0.037 A 
ATOM     61  C   UNL A   1      41.409  32.200  34.956  1.00  0.00     0.049 A 
ATOM     62  C   UNL A   1      41.617  28.524  30.739  1.00  0.00     0.074 A 
ATOM     63  C   UNL A   1      42.346  32.047  35.963  1.00  0.00     0.029 A 
ATOM     64  N   UNL A   1      41.646  31.190  34.035  1.00  0.00    -0.354 N 
ATOM     65  N   UNL A   1      41.687  29.300  31.792  1.00  0.00    -0.248 NA
ATOM     66  C   UNL A   1      42.636  27.466  30.703  1.00  0.00     0.031 C 
ATOM     67  C   UNL A   1      43.167  30.961  35.638  1.00  0.00     0.029 A 
ATOM     68  C   UNL A   1      42.716  30.414  34.447  1.00  0.00     0.049 A 
ATOM     69  H   UNL A   1      41.128  31.047  33.210  1.00  0.00     0.167 HD
ATOM     70  C   UNL A   1      42.736  28.808  32.558  1.00  0.00     0.074 A 
ATOM     71  C   UNL A   1      43.264  27.657  31.854  1.00  0.00     0.031 C 
ATOM     72  C   UNL A   1      43.220  29.267  33.739  1.00  0.00     0.037 A 
BRANCH  59  73
ATOM     73  C   UNL A   1      40.261  34.244  35.897  1.00  0.00     0.057 A 
ATOM     74  C   UNL A   1      40.996  35.435  35.826  1.00  0.00     0.134 A 
ATOM     75  C   UNL A   1      39.402  34.081  36.991  1.00  0.00     0.134 A 
ATOM     76  F   UNL A   1      41.848  35.648  34.811  1.00  0.00    -0.206 F 
ATOM     77  C   UNL A   1      40.904  36.411  36.820  1.00  0.00     0.040 A 
ATOM     78  C   UNL A   1      39.282  35.060  37.977  1.00  0.00     0.040 A 
ATOM     79  F   UNL A   1      38.665  32.966  37.118  1.00  0.00    -0.206 F 
ATOM     80  C   UNL A   1      40.041  36.227  37.897  1.00  0.00     0.006 A 
ENDBRANCH  59  73
BRANCH  60  81
ATOM     81  C   UNL A   1      40.736  27.579  28.489  1.00  0.00     0.057 A 
ATOM     82  C   UNL A   1      41.572  27.803  27.389  1.00  0.00     0.134 A 
ATOM     83  C   UNL A   1      39.984  26.399  28.500  1.00  0.00     0.134 A 
ATOM     84  F   UNL A   1      42.302  28.926  27.313  1.00  0.00    -0.206 F 
ATOM     85  C   UNL A   1      41.643  26.899  26.327  1.00  0.00     0.040 A 
ATOM     86  C   UNL A   1      40.062  25.475  27.457  1.00  0.00     0.040 A 
ATOM     87  F   UNL A   1      39.171  26.124  29.529  1.00  0.00    -0.206 F 
ATOM     88  C   UNL A   1      40.888  25.728  26.363  1.00  0.00     0.006 A 
ENDBRANCH  60  81
BRANCH  72  89
ATOM     89  C   UNL A   1      44.348  28.497  34.357  1.00  0.00     0.057 A 
ATOM     90  C   UNL A   1      45.689  28.824  34.114  1.00  0.00     0.134 A 
ATOM     91  C   UNL A   1      44.089  27.425  35.221  1.00  0.00     0.134 A 
ATOM     92  F   UNL A   1      46.003  29.832  33.286  1.00  0.00    -0.206 F 
ATOM     93  C   UNL A   1      46.731  28.092  34.685  1.00  0.00     0.040 A 
ATOM     94  C   UNL A   1      45.123  26.702  35.816  1.00  0.00     0.040 A 
ATOM     95  F   UNL A   1      42.827  27.066  35.500  1.00  0.00    -0.206 F 
ATOM     96  C   UNL A   1      46.449  27.031  35.542  1.00  0.00     0.006 A 
ENDBRANCH  72  89
ENDBRANCH  46  47
ENDBRANCH  38  41
ENDBRANCH  36  37
ENDBRANCH  35  36
ENDBRANCH  34  35
ENDBRANCH   1  34
TORSDOF 16
ENDMDL
