MODEL 1
REMARK VINA RESULT:     -12.2      0.000      0.000
REMARK SMILES C[N@@H+]1CC[N@H+](Cc2ccc(C#CC(C)(C)O)s2)C[C@H]1C(=O)NCCCCCCNC(=O)c1ccc(-c2c3nc(c(-c4c(F)cccc4F)c4ccc([nH]4)c(-c4c(F)cccc4F)c4nc(c(-c5c(F)cccc5F)c5ccc2[nH]5)C=C4)C=C3)cc1
REMARK SMILES IDX 24 1 23 2 22 3 20 4 21 5 19 7 1 8 2 9 3 10 4 12 18 13 5 14
REMARK SMILES IDX 6 16 7 17 8 18 17 19 9 20 10 21 11 22 12 23 13 24 14 25
REMARK SMILES IDX 15 26 16 27 25 29 26 30 27 31 28 32 29 33 30 34 31 36 32 37
REMARK SMILES IDX 33 38 85 39 34 40 84 41 35 42 36 43 37 44 78 45 38 46 83 47
REMARK SMILES IDX 77 48 79 49 39 50 82 51 76 52 75 53 40 55 66 56 49 57 65 58
REMARK SMILES IDX 50 59 53 60 64 61 80 62 51 63 52 64 63 66 81 67 54 68 41 69
REMARK SMILES IDX 42 70 47 71 43 72 44 73 46 74 48 75 45 76 67 77 68 78 73 79
REMARK SMILES IDX 69 80 70 81 72 82 74 83 71 84 55 85 56 86 61 87 57 88 58 89
REMARK SMILES IDX 60 90 62 91 59 92
REMARK H PARENT 22 6 2 11 5 15 16 28 29 35 79 54 53 65
REMARK Flexibility Score: inf
ROOT
ATOM      1  C   UNL A   1      39.076  23.144  26.504  1.00  0.00     0.021 C 
ENDROOT
BRANCH   1   2
ATOM      2  C   UNL A   1      37.692  23.587  26.043  1.00  0.00     0.116 C 
BRANCH   2   3
ATOM      3  N   UNL A   1      37.526  23.412  24.614  1.00  0.00    -0.351 N 
ATOM      4  C   UNL A   1      36.415  23.011  23.932  1.00  0.00     0.284 C 
ATOM      5  O   UNL A   1      36.504  22.870  22.710  1.00  0.00    -0.268 OA
ATOM      6  H   UNL A   1      38.319  23.607  24.064  1.00  0.00     0.163 HD
BRANCH   4   7
ATOM      7  C   UNL A   1      35.081  22.803  24.669  1.00  0.00     0.329 C 
ATOM      8  C   UNL A   1      35.237  20.378  24.829  1.00  0.00     0.333 C 
ATOM      9  N   UNL A   1      35.146  21.631  25.591  1.00  0.00    -0.318 N 
ATOM     10  C   UNL A   1      33.980  21.597  26.486  1.00  0.00     0.325 C 
ATOM     11  H   UNL A   1      35.985  21.729  26.162  1.00  0.00     0.348 HD
ATOM     12  C   UNL A   1      33.612  22.952  27.140  1.00  0.00     0.324 C 
ATOM     13  C   UNL A   1      34.690  24.156  25.333  1.00  0.00     0.339 C 
ATOM     14  N   UNL A   1      33.555  24.131  26.270  1.00  0.00    -0.320 N 
ATOM     15  H   UNL A   1      33.664  24.932  26.893  1.00  0.00     0.348 HD
BRANCH  14  16
ATOM     16  C   UNL A   1      32.247  24.433  25.670  1.00  0.00     0.310 C 
BRANCH  16  17
ATOM     17  C   UNL A   1      32.044  25.868  25.307  1.00  0.00     0.060 A 
ATOM     18  C   UNL A   1      32.430  27.003  25.992  1.00  0.00     0.022 A 
ATOM     19  S   UNL A   1      31.220  26.284  23.859  1.00  0.00    -0.126 S 
ATOM     20  C   UNL A   1      31.734  28.156  25.525  1.00  0.00     0.029 A 
ATOM     21  C   UNL A   1      30.950  27.867  24.432  1.00  0.00     0.077 A 
BRANCH  21  22
ATOM     22  C   UNL A   1      30.110  28.788  23.760  1.00  0.00    -0.053 C 
ATOM     23  C   UNL A   1      29.092  29.427  23.254  1.00  0.00    -0.063 C 
BRANCH  23  24
ATOM     24  C   UNL A   1      27.906  30.171  22.663  1.00  0.00     0.120 C 
ATOM     25  C   UNL A   1      27.609  31.414  23.500  1.00  0.00     0.056 C 
ATOM     26  C   UNL A   1      28.198  30.538  21.210  1.00  0.00     0.056 C 
BRANCH  24  27
ATOM     27  O   UNL A   1      26.776  29.305  22.706  1.00  0.00    -0.378 OA
ATOM     28  H   UNL A   1      26.474  29.120  21.803  1.00  0.00     0.212 HD
ENDBRANCH  24  27
ENDBRANCH  23  24
ENDBRANCH  21  22
ENDBRANCH  16  17
ENDBRANCH  14  16
ENDBRANCH   4   7
ENDBRANCH   2   3
ENDBRANCH   1   2
BRANCH   1  29
ATOM     29  C   UNL A   1      39.430  21.711  26.098  1.00  0.00     0.002 C 
BRANCH  29  30
ATOM     30  C   UNL A   1      40.497  21.026  26.964  1.00  0.00     0.002 C 
BRANCH  30  31
ATOM     31  C   UNL A   1      41.256  19.865  26.305  1.00  0.00     0.021 C 
BRANCH  31  32
ATOM     32  C   UNL A   1      42.670  19.692  26.828  1.00  0.00     0.116 C 
BRANCH  32  33
ATOM     33  N   UNL A   1      43.635  19.538  25.746  1.00  0.00    -0.352 N 
ATOM     34  C   UNL A   1      44.188  20.517  24.947  1.00  0.00     0.251 C 
ATOM     35  H   UNL A   1      43.928  18.617  25.561  1.00  0.00     0.163 HD
ATOM     36  O   UNL A   1      44.707  20.242  23.881  1.00  0.00    -0.269 OA
BRANCH  34  37
ATOM     37  C   UNL A   1      44.132  21.914  25.412  1.00  0.00     0.039 A 
ATOM     38  C   UNL A   1      43.111  22.762  24.977  1.00  0.00     0.014 A 
ATOM     39  C   UNL A   1      45.102  22.359  26.307  1.00  0.00     0.014 A 
ATOM     40  C   UNL A   1      43.029  24.043  25.513  1.00  0.00     0.010 A 
ATOM     41  C   UNL A   1      44.946  23.573  26.930  1.00  0.00     0.010 A 
ATOM     42  C   UNL A   1      43.938  24.436  26.506  1.00  0.00    -0.014 A 
BRANCH  42  43
ATOM     43  C   UNL A   1      43.755  25.704  27.210  1.00  0.00     0.031 A 
ATOM     44  C   UNL A   1      44.754  26.751  26.853  1.00  0.00     0.074 A 
ATOM     45  C   UNL A   1      42.647  25.984  27.930  1.00  0.00     0.049 A 
ATOM     46  N   UNL A   1      45.631  27.308  27.621  1.00  0.00    -0.248 NA
ATOM     47  C   UNL A   1      44.883  27.137  25.436  1.00  0.00     0.031 C 
ATOM     48  C   UNL A   1      41.448  25.146  28.078  1.00  0.00     0.029 A 
ATOM     49  N   UNL A   1      42.294  27.127  28.585  1.00  0.00    -0.354 N 
ATOM     50  C   UNL A   1      46.270  28.273  26.840  1.00  0.00     0.074 A 
ATOM     51  C   UNL A   1      45.908  27.991  25.479  1.00  0.00     0.031 C 
ATOM     52  C   UNL A   1      40.428  25.892  28.550  1.00  0.00     0.029 A 
ATOM     53  C   UNL A   1      40.944  27.198  28.913  1.00  0.00     0.049 A 
ATOM     54  H   UNL A   1      42.936  27.839  28.807  1.00  0.00     0.167 HD
ATOM     55  C   UNL A   1      46.798  29.389  27.416  1.00  0.00     0.037 A 
ATOM     56  C   UNL A   1      40.281  28.254  29.440  1.00  0.00     0.037 A 
ATOM     57  C   UNL A   1      46.889  29.220  28.843  1.00  0.00     0.049 A 
ATOM     58  C   UNL A   1      41.280  29.144  30.063  1.00  0.00     0.074 A 
ATOM     59  C   UNL A   1      47.671  28.517  29.730  1.00  0.00     0.029 A 
ATOM     60  N   UNL A   1      45.761  29.613  29.511  1.00  0.00    -0.354 N 
ATOM     61  N   UNL A   1      41.972  28.822  31.120  1.00  0.00    -0.248 NA
ATOM     62  C   UNL A   1      41.784  30.288  29.313  1.00  0.00     0.031 C 
ATOM     63  C   UNL A   1      46.863  28.320  30.891  1.00  0.00     0.029 A 
ATOM     64  C   UNL A   1      45.631  28.942  30.692  1.00  0.00     0.049 A 
ATOM     65  H   UNL A   1      45.126  30.291  29.183  1.00  0.00     0.167 HD
ATOM     66  C   UNL A   1      43.202  29.417  30.918  1.00  0.00     0.074 A 
ATOM     67  C   UNL A   1      42.969  30.445  29.911  1.00  0.00     0.031 C 
ATOM     68  C   UNL A   1      44.345  28.803  31.338  1.00  0.00     0.037 A 
BRANCH  55  69
ATOM     69  C   UNL A   1      46.740  30.791  26.826  1.00  0.00     0.057 A 
ATOM     70  C   UNL A   1      47.908  31.583  26.860  1.00  0.00     0.134 A 
ATOM     71  C   UNL A   1      45.553  31.506  26.565  1.00  0.00     0.134 A 
ATOM     72  F   UNL A   1      49.109  31.031  27.089  1.00  0.00    -0.206 F 
ATOM     73  C   UNL A   1      47.879  32.981  26.757  1.00  0.00     0.040 A 
ATOM     74  C   UNL A   1      45.521  32.897  26.413  1.00  0.00     0.040 A 
ATOM     75  F   UNL A   1      44.351  30.925  26.539  1.00  0.00    -0.206 F 
ATOM     76  C   UNL A   1      46.679  33.644  26.548  1.00  0.00     0.006 A 
ENDBRANCH  55  69
BRANCH  56  77
ATOM     77  C   UNL A   1      38.866  28.645  29.282  1.00  0.00     0.057 A 
ATOM     78  C   UNL A   1      37.984  28.659  30.371  1.00  0.00     0.134 A 
ATOM     79  C   UNL A   1      38.415  29.278  28.110  1.00  0.00     0.134 A 
ATOM     80  F   UNL A   1      38.338  28.107  31.539  1.00  0.00    -0.206 F 
ATOM     81  C   UNL A   1      36.737  29.295  30.311  1.00  0.00     0.040 A 
ATOM     82  C   UNL A   1      37.172  29.914  28.035  1.00  0.00     0.040 A 
ATOM     83  F   UNL A   1      39.207  29.377  27.032  1.00  0.00    -0.206 F 
ATOM     84  C   UNL A   1      36.335  29.939  29.144  1.00  0.00     0.006 A 
ENDBRANCH  56  77
BRANCH  68  85
ATOM     85  C   UNL A   1      44.216  27.777  32.420  1.00  0.00     0.057 A 
ATOM     86  C   UNL A   1      44.177  26.392  32.206  1.00  0.00     0.134 A 
ATOM     87  C   UNL A   1      44.224  28.217  33.748  1.00  0.00     0.134 A 
ATOM     88  F   UNL A   1      44.245  25.877  30.973  1.00  0.00    -0.206 F 
ATOM     89  C   UNL A   1      44.109  25.489  33.271  1.00  0.00     0.040 A 
ATOM     90  C   UNL A   1      44.191  27.326  34.820  1.00  0.00     0.040 A 
ATOM     91  F   UNL A   1      44.304  29.529  34.024  1.00  0.00    -0.206 F 
ATOM     92  C   UNL A   1      44.122  25.955  34.583  1.00  0.00     0.006 A 
ENDBRANCH  68  85
ENDBRANCH  42  43
ENDBRANCH  34  37
ENDBRANCH  32  33
ENDBRANCH  31  32
ENDBRANCH  30  31
ENDBRANCH  29  30
ENDBRANCH   1  29
TORSDOF 18
ENDMDL
MODEL 2
REMARK VINA RESULT:     -11.6      3.649      9.885
REMARK SMILES C[N@@H+]1CC[N@H+](Cc2ccc(C#CC(C)(C)O)s2)C[C@H]1C(=O)NCCCCCCNC(=O)c1ccc(-c2c3nc(c(-c4c(F)cccc4F)c4ccc([nH]4)c(-c4c(F)cccc4F)c4nc(c(-c5c(F)cccc5F)c5ccc2[nH]5)C=C4)C=C3)cc1
REMARK SMILES IDX 24 1 23 2 22 3 20 4 21 5 19 7 1 8 2 9 3 10 4 12 18 13 5 14
REMARK SMILES IDX 6 16 7 17 8 18 17 19 9 20 10 21 11 22 12 23 13 24 14 25
REMARK SMILES IDX 15 26 16 27 25 29 26 30 27 31 28 32 29 33 30 34 31 36 32 37
REMARK SMILES IDX 33 38 85 39 34 40 84 41 35 42 36 43 37 44 78 45 38 46 83 47
REMARK SMILES IDX 77 48 79 49 39 50 82 51 76 52 75 53 40 55 66 56 49 57 65 58
REMARK SMILES IDX 50 59 53 60 64 61 80 62 51 63 52 64 63 66 81 67 54 68 41 69
REMARK SMILES IDX 42 70 47 71 43 72 44 73 46 74 48 75 45 76 67 77 68 78 73 79
REMARK SMILES IDX 69 80 70 81 72 82 74 83 71 84 55 85 56 86 61 87 57 88 58 89
REMARK SMILES IDX 60 90 62 91 59 92
REMARK H PARENT 22 6 2 11 5 15 16 28 29 35 79 54 53 65
REMARK Flexibility Score: inf
ROOT
ATOM      1  C   UNL A   1      34.824  30.199  27.617  1.00  0.00     0.021 C 
ENDROOT
BRANCH   1   2
ATOM      2  C   UNL A   1      34.289  28.977  26.877  1.00  0.00     0.116 C 
BRANCH   2   3
ATOM      3  N   UNL A   1      34.217  29.210  25.449  1.00  0.00    -0.351 N 
ATOM      4  C   UNL A   1      33.816  28.352  24.469  1.00  0.00     0.284 C 
ATOM      5  O   UNL A   1      33.886  28.734  23.298  1.00  0.00    -0.268 OA
ATOM      6  H   UNL A   1      34.496  30.105  25.147  1.00  0.00     0.163 HD
BRANCH   4   7
ATOM      7  C   UNL A   1      33.238  26.972  24.830  1.00  0.00     0.329 C 
ATOM      8  C   UNL A   1      30.969  27.737  25.271  1.00  0.00     0.333 C 
ATOM      9  N   UNL A   1      31.803  26.864  24.435  1.00  0.00    -0.318 N 
ATOM     10  C   UNL A   1      31.332  25.474  24.527  1.00  0.00     0.325 C 
ATOM     11  H   UNL A   1      31.722  27.166  23.465  1.00  0.00     0.348 HD
ATOM     12  C   UNL A   1      32.283  24.415  23.915  1.00  0.00     0.324 C 
ATOM     13  C   UNL A   1      34.182  25.891  24.226  1.00  0.00     0.339 C 
ATOM     14  N   UNL A   1      33.704  24.499  24.266  1.00  0.00    -0.320 N 
ATOM     15  H   UNL A   1      34.195  23.993  23.527  1.00  0.00     0.348 HD
BRANCH  14  16
ATOM     16  C   UNL A   1      34.130  23.729  25.445  1.00  0.00     0.310 C 
BRANCH  16  17
ATOM     17  C   UNL A   1      35.366  22.914  25.245  1.00  0.00     0.060 A 
ATOM     18  C   UNL A   1      35.487  21.604  24.825  1.00  0.00     0.022 A 
ATOM     19  S   UNL A   1      36.910  23.596  25.557  1.00  0.00    -0.126 S 
ATOM     20  C   UNL A   1      36.779  21.079  25.121  1.00  0.00     0.029 A 
ATOM     21  C   UNL A   1      37.613  22.045  25.635  1.00  0.00     0.077 A 
BRANCH  21  22
ATOM     22  C   UNL A   1      38.947  21.833  26.061  1.00  0.00    -0.053 C 
ATOM     23  C   UNL A   1      40.043  21.347  26.573  1.00  0.00    -0.063 C 
BRANCH  23  24
ATOM     24  C   UNL A   1      41.322  20.782  27.169  1.00  0.00     0.120 C 
ATOM     25  C   UNL A   1      42.221  20.252  26.054  1.00  0.00     0.056 C 
ATOM     26  C   UNL A   1      42.029  21.857  27.989  1.00  0.00     0.056 C 
BRANCH  24  27
ATOM     27  O   UNL A   1      40.967  19.701  28.028  1.00  0.00    -0.378 OA
ATOM     28  H   UNL A   1      41.391  18.886  27.716  1.00  0.00     0.212 HD
ENDBRANCH  24  27
ENDBRANCH  23  24
ENDBRANCH  21  22
ENDBRANCH  16  17
ENDBRANCH  14  16
ENDBRANCH   4   7
ENDBRANCH   2   3
ENDBRANCH   1   2
BRANCH   1  29
ATOM     29  C   UNL A   1      33.850  31.380  27.639  1.00  0.00     0.002 C 
BRANCH  29  30
ATOM     30  C   UNL A   1      34.441  32.710  28.127  1.00  0.00     0.002 C 
BRANCH  30  31
ATOM     31  C   UNL A   1      33.428  33.819  28.450  1.00  0.00     0.021 C 
BRANCH  31  32
ATOM     32  C   UNL A   1      34.052  35.034  29.113  1.00  0.00     0.116 C 
BRANCH  32  33
ATOM     33  N   UNL A   1      33.446  35.318  30.408  1.00  0.00    -0.352 N 
ATOM     34  C   UNL A   1      33.666  34.683  31.613  1.00  0.00     0.251 C 
ATOM     35  H   UNL A   1      32.796  36.056  30.424  1.00  0.00     0.163 HD
ATOM     36  O   UNL A   1      32.872  34.779  32.530  1.00  0.00    -0.269 OA
BRANCH  34  37
ATOM     37  C   UNL A   1      34.889  33.875  31.765  1.00  0.00     0.039 A 
ATOM     38  C   UNL A   1      34.829  32.482  31.679  1.00  0.00     0.014 A 
ATOM     39  C   UNL A   1      36.100  34.530  31.974  1.00  0.00     0.014 A 
ATOM     40  C   UNL A   1      36.015  31.756  31.726  1.00  0.00     0.010 A 
ATOM     41  C   UNL A   1      37.276  33.827  31.891  1.00  0.00     0.010 A 
ATOM     42  C   UNL A   1      37.239  32.436  31.811  1.00  0.00    -0.014 A 
BRANCH  42  43
ATOM     43  C   UNL A   1      38.498  31.705  31.676  1.00  0.00     0.031 A 
ATOM     44  C   UNL A   1      39.179  31.418  32.970  1.00  0.00     0.074 A 
ATOM     45  C   UNL A   1      38.885  31.131  30.516  1.00  0.00     0.049 A 
ATOM     46  N   UNL A   1      40.332  31.841  33.371  1.00  0.00    -0.248 NA
ATOM     47  C   UNL A   1      38.434  30.672  33.999  1.00  0.00     0.031 C 
ATOM     48  C   UNL A   1      38.127  31.071  29.257  1.00  0.00     0.029 A 
ATOM     49  N   UNL A   1      39.981  30.368  30.240  1.00  0.00    -0.354 N 
ATOM     50  C   UNL A   1      40.555  31.234  34.609  1.00  0.00     0.074 A 
ATOM     51  C   UNL A   1      39.291  30.692  35.023  1.00  0.00     0.031 C 
ATOM     52  C   UNL A   1      38.654  30.123  28.455  1.00  0.00     0.029 A 
ATOM     53  C   UNL A   1      39.885  29.646  29.055  1.00  0.00     0.049 A 
ATOM     54  H   UNL A   1      40.771  30.332  30.826  1.00  0.00     0.167 HD
ATOM     55  C   UNL A   1      41.824  30.982  35.036  1.00  0.00     0.037 A 
ATOM     56  C   UNL A   1      40.748  28.711  28.590  1.00  0.00     0.037 A 
ATOM     57  C   UNL A   1      42.776  31.708  34.236  1.00  0.00     0.049 A 
ATOM     58  C   UNL A   1      42.040  28.916  29.274  1.00  0.00     0.074 A 
ATOM     59  C   UNL A   1      43.192  33.012  34.095  1.00  0.00     0.029 A 
ATOM     60  N   UNL A   1      43.191  31.022  33.127  1.00  0.00    -0.354 N 
ATOM     61  N   UNL A   1      42.795  29.962  29.091  1.00  0.00    -0.248 NA
ATOM     62  C   UNL A   1      42.360  28.115  30.450  1.00  0.00     0.031 C 
ATOM     63  C   UNL A   1      43.681  33.123  32.758  1.00  0.00     0.029 A 
ATOM     64  C   UNL A   1      43.586  31.877  32.140  1.00  0.00     0.049 A 
ATOM     65  H   UNL A   1      43.203  30.040  33.051  1.00  0.00     0.167 HD
ATOM     66  C   UNL A   1      43.369  30.192  30.325  1.00  0.00     0.074 A 
ATOM     67  C   UNL A   1      43.224  28.937  31.053  1.00  0.00     0.031 C 
ATOM     68  C   UNL A   1      43.604  31.465  30.754  1.00  0.00     0.037 A 
BRANCH  55  69
ATOM     69  C   UNL A   1      42.266  29.727  35.777  1.00  0.00     0.057 A 
ATOM     70  C   UNL A   1      43.250  29.852  36.781  1.00  0.00     0.134 A 
ATOM     71  C   UNL A   1      42.049  28.409  35.328  1.00  0.00     0.134 A 
ATOM     72  F   UNL A   1      43.551  31.050  37.307  1.00  0.00    -0.206 F 
ATOM     73  C   UNL A   1      44.030  28.772  37.217  1.00  0.00     0.040 A 
ATOM     74  C   UNL A   1      42.791  27.316  35.792  1.00  0.00     0.040 A 
ATOM     75  F   UNL A   1      41.187  28.110  34.353  1.00  0.00    -0.206 F 
ATOM     76  C   UNL A   1      43.812  27.499  36.709  1.00  0.00     0.006 A 
ENDBRANCH  55  69
BRANCH  56  77
ATOM     77  C   UNL A   1      40.484  27.537  27.736  1.00  0.00     0.057 A 
ATOM     78  C   UNL A   1      41.110  27.381  26.492  1.00  0.00     0.134 A 
ATOM     79  C   UNL A   1      39.822  26.405  28.244  1.00  0.00     0.134 A 
ATOM     80  F   UNL A   1      41.791  28.396  25.942  1.00  0.00    -0.206 F 
ATOM     81  C   UNL A   1      41.107  26.160  25.805  1.00  0.00     0.040 A 
ATOM     82  C   UNL A   1      39.809  25.181  27.567  1.00  0.00     0.040 A 
ATOM     83  F   UNL A   1      39.247  26.429  29.455  1.00  0.00    -0.206 F 
ATOM     84  C   UNL A   1      40.467  25.051  26.350  1.00  0.00     0.006 A 
ENDBRANCH  56  77
BRANCH  68  85
ATOM     85  C   UNL A   1      43.704  32.534  29.710  1.00  0.00     0.057 A 
ATOM     86  C   UNL A   1      42.678  33.434  29.390  1.00  0.00     0.134 A 
ATOM     87  C   UNL A   1      44.932  32.711  29.065  1.00  0.00     0.134 A 
ATOM     88  F   UNL A   1      41.495  33.389  30.014  1.00  0.00    -0.206 F 
ATOM     89  C   UNL A   1      42.860  34.442  28.440  1.00  0.00     0.040 A 
ATOM     90  C   UNL A   1      45.138  33.734  28.140  1.00  0.00     0.040 A 
ATOM     91  F   UNL A   1      45.970  31.910  29.358  1.00  0.00    -0.206 F 
ATOM     92  C   UNL A   1      44.095  34.598  27.816  1.00  0.00     0.006 A 
ENDBRANCH  68  85
ENDBRANCH  42  43
ENDBRANCH  34  37
ENDBRANCH  32  33
ENDBRANCH  31  32
ENDBRANCH  30  31
ENDBRANCH  29  30
ENDBRANCH   1  29
TORSDOF 18
ENDMDL
MODEL 3
REMARK VINA RESULT:     -11.4      3.721      8.339
REMARK SMILES C[N@@H+]1CC[N@H+](Cc2ccc(C#CC(C)(C)O)s2)C[C@H]1C(=O)NCCCCCCNC(=O)c1ccc(-c2c3nc(c(-c4c(F)cccc4F)c4ccc([nH]4)c(-c4c(F)cccc4F)c4nc(c(-c5c(F)cccc5F)c5ccc2[nH]5)C=C4)C=C3)cc1
REMARK SMILES IDX 24 1 23 2 22 3 20 4 21 5 19 7 1 8 2 9 3 10 4 12 18 13 5 14
REMARK SMILES IDX 6 16 7 17 8 18 17 19 9 20 10 21 11 22 12 23 13 24 14 25
REMARK SMILES IDX 15 26 16 27 25 29 26 30 27 31 28 32 29 33 30 34 31 36 32 37
REMARK SMILES IDX 33 38 85 39 34 40 84 41 35 42 36 43 37 44 78 45 38 46 83 47
REMARK SMILES IDX 77 48 79 49 39 50 82 51 76 52 75 53 40 55 66 56 49 57 65 58
REMARK SMILES IDX 50 59 53 60 64 61 80 62 51 63 52 64 63 66 81 67 54 68 41 69
REMARK SMILES IDX 42 70 47 71 43 72 44 73 46 74 48 75 45 76 67 77 68 78 73 79
REMARK SMILES IDX 69 80 70 81 72 82 74 83 71 84 55 85 56 86 61 87 57 88 58 89
REMARK SMILES IDX 60 90 62 91 59 92
REMARK H PARENT 22 6 2 11 5 15 16 28 29 35 79 54 53 65
REMARK Flexibility Score: inf
ROOT
ATOM      1  C   UNL A   1      34.916  23.031  23.268  1.00  0.00     0.021 C 
ENDROOT
BRANCH   1   2
ATOM      2  C   UNL A   1      34.379  24.456  23.346  1.00  0.00     0.116 C 
BRANCH   2   3
ATOM      3  N   UNL A   1      33.782  24.868  22.092  1.00  0.00    -0.351 N 
ATOM      4  C   UNL A   1      32.636  25.579  21.891  1.00  0.00     0.284 C 
ATOM      5  O   UNL A   1      32.271  25.776  20.729  1.00  0.00    -0.268 OA
ATOM      6  H   UNL A   1      34.266  24.598  21.278  1.00  0.00     0.163 HD
BRANCH   4   7
ATOM      7  C   UNL A   1      31.863  26.166  23.085  1.00  0.00     0.329 C 
ATOM      8  C   UNL A   1      32.333  28.503  22.590  1.00  0.00     0.333 C 
ATOM      9  N   UNL A   1      31.276  27.496  22.753  1.00  0.00    -0.318 N 
ATOM     10  C   UNL A   1      30.321  27.926  23.785  1.00  0.00     0.325 C 
ATOM     11  H   UNL A   1      30.773  27.404  21.871  1.00  0.00     0.348 HD
ATOM     12  C   UNL A   1      29.317  26.840  24.247  1.00  0.00     0.324 C 
ATOM     13  C   UNL A   1      30.849  25.087  23.569  1.00  0.00     0.339 C 
ATOM     14  N   UNL A   1      29.854  25.514  24.566  1.00  0.00    -0.320 N 
ATOM     15  H   UNL A   1      29.061  24.876  24.490  1.00  0.00     0.348 HD
BRANCH  14  16
ATOM     16  C   UNL A   1      30.244  25.290  25.967  1.00  0.00     0.310 C 
BRANCH  16  17
ATOM     17  C   UNL A   1      31.171  24.138  26.180  1.00  0.00     0.060 A 
ATOM     18  C   UNL A   1      32.478  24.142  26.628  1.00  0.00     0.022 A 
ATOM     19  S   UNL A   1      30.648  22.536  25.847  1.00  0.00    -0.126 S 
ATOM     20  C   UNL A   1      33.131  22.909  26.339  1.00  0.00     0.029 A 
ATOM     21  C   UNL A   1      32.262  21.988  25.801  1.00  0.00     0.077 A 
BRANCH  21  22
ATOM     22  C   UNL A   1      32.611  20.683  25.374  1.00  0.00    -0.053 C 
ATOM     23  C   UNL A   1      32.678  19.534  24.762  1.00  0.00    -0.063 C 
BRANCH  23  24
ATOM     24  C   UNL A   1      32.755  18.194  24.050  1.00  0.00     0.120 C 
ATOM     25  C   UNL A   1      32.430  18.378  22.569  1.00  0.00     0.056 C 
ATOM     26  C   UNL A   1      34.142  17.585  24.241  1.00  0.00     0.056 C 
BRANCH  24  27
ATOM     27  O   UNL A   1      31.784  17.328  24.631  1.00  0.00    -0.378 OA
ATOM     28  H   UNL A   1      31.594  17.615  25.538  1.00  0.00     0.212 HD
ENDBRANCH  24  27
ENDBRANCH  23  24
ENDBRANCH  21  22
ENDBRANCH  16  17
ENDBRANCH  14  16
ENDBRANCH   4   7
ENDBRANCH   2   3
ENDBRANCH   1   2
BRANCH   1  29
ATOM     29  C   UNL A   1      36.445  22.948  23.283  1.00  0.00     0.002 C 
BRANCH  29  30
ATOM     30  C   UNL A   1      37.056  22.299  24.533  1.00  0.00     0.002 C 
BRANCH  30  31
ATOM     31  C   UNL A   1      36.768  23.004  25.867  1.00  0.00     0.021 C 
BRANCH  31  32
ATOM     32  C   UNL A   1      37.681  24.187  26.135  1.00  0.00     0.116 C 
BRANCH  32  33
ATOM     33  N   UNL A   1      39.087  23.804  26.118  1.00  0.00    -0.352 N 
ATOM     34  C   UNL A   1      40.181  24.552  26.501  1.00  0.00     0.251 C 
ATOM     35  H   UNL A   1      39.281  22.896  25.791  1.00  0.00     0.163 HD
ATOM     36  O   UNL A   1      41.304  24.260  26.131  1.00  0.00    -0.269 OA
BRANCH  34  37
ATOM     37  C   UNL A   1      39.961  25.723  27.366  1.00  0.00     0.039 A 
ATOM     38  C   UNL A   1      39.400  25.567  28.636  1.00  0.00     0.014 A 
ATOM     39  C   UNL A   1      40.344  26.979  26.901  1.00  0.00     0.014 A 
ATOM     40  C   UNL A   1      39.300  26.678  29.467  1.00  0.00     0.010 A 
ATOM     41  C   UNL A   1      40.364  28.046  27.764  1.00  0.00     0.010 A 
ATOM     42  C   UNL A   1      39.803  27.914  29.032  1.00  0.00    -0.014 A 
BRANCH  42  43
ATOM     43  C   UNL A   1      39.875  29.045  29.956  1.00  0.00     0.031 A 
ATOM     44  C   UNL A   1      38.605  29.816  30.076  1.00  0.00     0.074 A 
ATOM     45  C   UNL A   1      40.911  29.228  30.803  1.00  0.00     0.049 A 
ATOM     46  N   UNL A   1      38.393  31.050  29.759  1.00  0.00    -0.248 NA
ATOM     47  C   UNL A   1      37.386  29.093  30.480  1.00  0.00     0.031 C 
ATOM     48  C   UNL A   1      42.066  28.340  31.000  1.00  0.00     0.029 A 
ATOM     49  N   UNL A   1      41.101  30.180  31.761  1.00  0.00    -0.354 N 
ATOM     50  C   UNL A   1      37.074  31.322  30.131  1.00  0.00     0.074 A 
ATOM     51  C   UNL A   1      36.459  30.049  30.383  1.00  0.00     0.031 C 
ATOM     52  C   UNL A   1      42.685  28.650  32.158  1.00  0.00     0.029 A 
ATOM     53  C   UNL A   1      42.093  29.866  32.684  1.00  0.00     0.049 A 
ATOM     54  H   UNL A   1      40.582  31.016  31.797  1.00  0.00     0.167 HD
ATOM     55  C   UNL A   1      36.702  32.585  30.479  1.00  0.00     0.037 A 
ATOM     56  C   UNL A   1      42.411  30.545  33.811  1.00  0.00     0.037 A 
ATOM     57  C   UNL A   1      37.709  33.533  30.080  1.00  0.00     0.049 A 
ATOM     58  C   UNL A   1      41.888  31.918  33.669  1.00  0.00     0.074 A 
ATOM     59  C   UNL A   1      38.157  34.099  28.908  1.00  0.00     0.029 A 
ATOM     60  N   UNL A   1      38.674  33.735  31.029  1.00  0.00    -0.354 N 
ATOM     61  N   UNL A   1      42.348  32.779  32.806  1.00  0.00    -0.248 NA
ATOM     62  C   UNL A   1      40.596  32.254  34.257  1.00  0.00     0.031 C 
ATOM     63  C   UNL A   1      39.520  34.454  29.142  1.00  0.00     0.029 A 
ATOM     64  C   UNL A   1      39.849  34.131  30.458  1.00  0.00     0.049 A 
ATOM     65  H   UNL A   1      38.539  33.611  31.997  1.00  0.00     0.167 HD
ATOM     66  C   UNL A   1      41.239  33.505  32.422  1.00  0.00     0.074 A 
ATOM     67  C   UNL A   1      40.250  33.276  33.469  1.00  0.00     0.031 C 
ATOM     68  C   UNL A   1      41.111  33.949  31.138  1.00  0.00     0.037 A 
BRANCH  55  69
ATOM     69  C   UNL A   1      35.746  32.936  31.611  1.00  0.00     0.057 A 
ATOM     70  C   UNL A   1      34.694  33.840  31.347  1.00  0.00     0.134 A 
ATOM     71  C   UNL A   1      36.006  32.723  32.980  1.00  0.00     0.134 A 
ATOM     72  F   UNL A   1      34.333  34.127  30.086  1.00  0.00    -0.206 F 
ATOM     73  C   UNL A   1      34.037  34.555  32.357  1.00  0.00     0.040 A 
ATOM     74  C   UNL A   1      35.324  33.399  33.998  1.00  0.00     0.040 A 
ATOM     75  F   UNL A   1      36.993  31.934  33.414  1.00  0.00    -0.206 F 
ATOM     76  C   UNL A   1      34.363  34.347  33.689  1.00  0.00     0.006 A 
ENDBRANCH  55  69
BRANCH  56  77
ATOM     77  C   UNL A   1      42.972  30.041  35.080  1.00  0.00     0.057 A 
ATOM     78  C   UNL A   1      42.375  28.980  35.774  1.00  0.00     0.134 A 
ATOM     79  C   UNL A   1      44.263  30.408  35.499  1.00  0.00     0.134 A 
ATOM     80  F   UNL A   1      41.158  28.539  35.427  1.00  0.00    -0.206 F 
ATOM     81  C   UNL A   1      43.036  28.299  36.805  1.00  0.00     0.040 A 
ATOM     82  C   UNL A   1      44.933  29.740  36.528  1.00  0.00     0.040 A 
ATOM     83  F   UNL A   1      44.948  31.368  34.859  1.00  0.00    -0.206 F 
ATOM     84  C   UNL A   1      44.326  28.670  37.175  1.00  0.00     0.006 A 
ENDBRANCH  56  77
BRANCH  68  85
ATOM     85  C   UNL A   1      42.364  34.076  30.328  1.00  0.00     0.057 A 
ATOM     86  C   UNL A   1      43.259  35.151  30.407  1.00  0.00     0.134 A 
ATOM     87  C   UNL A   1      42.720  33.009  29.496  1.00  0.00     0.134 A 
ATOM     88  F   UNL A   1      43.040  36.178  31.236  1.00  0.00    -0.206 F 
ATOM     89  C   UNL A   1      44.439  35.177  29.658  1.00  0.00     0.040 A 
ATOM     90  C   UNL A   1      43.910  33.007  28.769  1.00  0.00     0.040 A 
ATOM     91  F   UNL A   1      41.928  31.929  29.407  1.00  0.00    -0.206 F 
ATOM     92  C   UNL A   1      44.770  34.100  28.840  1.00  0.00     0.006 A 
ENDBRANCH  68  85
ENDBRANCH  42  43
ENDBRANCH  34  37
ENDBRANCH  32  33
ENDBRANCH  31  32
ENDBRANCH  30  31
ENDBRANCH  29  30
ENDBRANCH   1  29
TORSDOF 18
ENDMDL
