MODEL 1
REMARK VINA RESULT:     -13.4      0.000      0.000
REMARK SMILES Cc1ccc(-c2nc(C)cc(N3CCCC[C@H]3C(=O)NCCCCCCNC(=O)c3ccc(-c4c5nc(c(-c6c(F)cccc6F)c6ccc([nH]6)c(-c6c(F)cccc6F)c6nc(c(-c7c(F)cccc7F)c7ccc4[nH]7)C=C6)C=C5)cc3)n2)cc1
REMARK SMILES IDX 23 1 22 2 21 3 20 4 18 5 19 6 17 8 12 9 13 10 14 11 16 12
REMARK SMILES IDX 15 13 11 14 6 15 7 16 84 17 8 18 9 19 10 20 5 21 1 22 2 23
REMARK SMILES IDX 3 24 86 25 4 26 85 27 24 28 25 29 26 30 27 31 28 32 29 34
REMARK SMILES IDX 30 35 31 36 83 37 32 38 82 39 33 40 34 41 35 42 76 43 36 44
REMARK SMILES IDX 81 45 75 46 77 47 37 48 80 49 74 50 73 51 38 53 64 54 47 55
REMARK SMILES IDX 63 56 48 57 51 58 62 59 78 60 49 61 50 62 61 64 79 65 52 66
REMARK SMILES IDX 39 67 40 68 45 69 41 70 42 71 44 72 46 73 43 74 65 75 66 76
REMARK SMILES IDX 71 77 67 78 68 79 70 80 72 81 69 82 53 83 54 84 59 85 55 86
REMARK SMILES IDX 56 87 58 88 60 89 57 90
REMARK H PARENT 20 7 27 33 77 52 51 63
REMARK Flexibility Score: inf
ROOT
ATOM      1  C   UNL A   1      31.832  29.764  25.976  1.00  0.00     0.002 C 
ENDROOT
BRANCH   1   2
ATOM      2  C   UNL A   1      31.327  28.344  25.689  1.00  0.00     0.021 C 
BRANCH   2   3
ATOM      3  C   UNL A   1      31.575  27.309  26.789  1.00  0.00     0.116 C 
BRANCH   3   4
ATOM      4  N   UNL A   1      31.013  26.015  26.474  1.00  0.00    -0.354 N 
ATOM      5  C   UNL A   1      31.500  24.873  25.928  1.00  0.00     0.242 C 
ATOM      6  O   UNL A   1      30.730  23.902  26.032  1.00  0.00    -0.273 OA
ATOM      7  H   UNL A   1      30.061  25.946  26.709  1.00  0.00     0.163 HD
BRANCH   5   8
ATOM      8  C   UNL A   1      32.879  24.668  25.222  1.00  0.00     0.173 C 
ATOM      9  N   UNL A   1      32.786  23.471  24.357  1.00  0.00    -0.344 N 
ATOM     10  C   UNL A   1      32.165  23.623  23.047  1.00  0.00     0.119 C 
ATOM     11  C   UNL A   1      32.851  24.719  22.239  1.00  0.00     0.022 C 
ATOM     12  C   UNL A   1      33.578  25.769  24.414  1.00  0.00     0.035 C 
ATOM     13  C   UNL A   1      32.942  26.013  23.044  1.00  0.00     0.004 C 
BRANCH   9  14
ATOM     14  C   UNL A   1      33.759  22.496  24.506  1.00  0.00     0.133 A 
ATOM     15  C   UNL A   1      34.362  20.311  24.837  1.00  0.00     0.161 A 
ATOM     16  N   UNL A   1      35.677  20.587  24.908  1.00  0.00    -0.233 NA
ATOM     17  N   UNL A   1      33.385  21.216  24.647  1.00  0.00    -0.211 NA
ATOM     18  C   UNL A   1      36.026  21.875  24.746  1.00  0.00     0.043 A 
ATOM     19  C   UNL A   1      37.486  22.196  24.841  1.00  0.00     0.067 C 
ATOM     20  C   UNL A   1      35.091  22.868  24.529  1.00  0.00     0.070 A 
BRANCH  15  21
ATOM     21  C   UNL A   1      33.967  18.907  24.954  1.00  0.00     0.019 A 
ATOM     22  C   UNL A   1      32.783  14.752  25.253  1.00  0.00     0.044 C 
ATOM     23  C   UNL A   1      33.182  16.193  25.151  1.00  0.00    -0.051 A 
ATOM     24  C   UNL A   1      34.331  16.551  24.436  1.00  0.00     0.004 A 
ATOM     25  C   UNL A   1      32.433  17.195  25.776  1.00  0.00     0.004 A 
ATOM     26  C   UNL A   1      34.711  17.893  24.332  1.00  0.00     0.012 A 
ATOM     27  C   UNL A   1      32.825  18.534  25.684  1.00  0.00     0.012 A 
ENDBRANCH  15  21
ENDBRANCH   9  14
ENDBRANCH   5   8
ENDBRANCH   3   4
ENDBRANCH   2   3
ENDBRANCH   1   2
BRANCH   1  28
ATOM     28  C   UNL A   1      33.324  29.926  26.317  1.00  0.00     0.002 C 
BRANCH  28  29
ATOM     29  C   UNL A   1      33.666  30.827  27.507  1.00  0.00     0.021 C 
BRANCH  29  30
ATOM     30  C   UNL A   1      35.141  31.184  27.624  1.00  0.00     0.116 C 
BRANCH  30  31
ATOM     31  N   UNL A   1      35.537  31.664  28.943  1.00  0.00    -0.352 N 
ATOM     32  C   UNL A   1      36.420  31.091  29.848  1.00  0.00     0.251 C 
ATOM     33  H   UNL A   1      35.122  32.509  29.230  1.00  0.00     0.163 HD
ATOM     34  O   UNL A   1      36.651  31.626  30.914  1.00  0.00    -0.269 OA
BRANCH  32  35
ATOM     35  C   UNL A   1      37.176  29.884  29.431  1.00  0.00     0.039 A 
ATOM     36  C   UNL A   1      37.426  28.908  30.399  1.00  0.00     0.014 A 
ATOM     37  C   UNL A   1      37.818  29.837  28.196  1.00  0.00     0.014 A 
ATOM     38  C   UNL A   1      38.509  28.048  30.232  1.00  0.00     0.010 A 
ATOM     39  C   UNL A   1      38.941  29.045  28.062  1.00  0.00     0.010 A 
ATOM     40  C   UNL A   1      39.325  28.205  29.110  1.00  0.00    -0.014 A 
BRANCH  40  41
ATOM     41  C   UNL A   1      40.647  27.602  29.011  1.00  0.00     0.031 A 
ATOM     42  C   UNL A   1      40.798  26.193  28.609  1.00  0.00     0.074 A 
ATOM     43  C   UNL A   1      41.749  28.337  29.282  1.00  0.00     0.049 A 
ATOM     44  N   UNL A   1      41.741  25.421  29.033  1.00  0.00    -0.248 NA
ATOM     45  C   UNL A   1      39.862  25.530  27.709  1.00  0.00     0.031 C 
ATOM     46  C   UNL A   1      43.141  27.958  29.057  1.00  0.00     0.029 A 
ATOM     47  N   UNL A   1      41.825  29.518  30.026  1.00  0.00    -0.354 N 
ATOM     48  C   UNL A   1      41.705  24.273  28.278  1.00  0.00     0.074 A 
ATOM     49  C   UNL A   1      40.479  24.359  27.515  1.00  0.00     0.031 C 
ATOM     50  C   UNL A   1      43.925  28.695  29.857  1.00  0.00     0.029 A 
ATOM     51  C   UNL A   1      43.059  29.489  30.709  1.00  0.00     0.049 A 
ATOM     52  H   UNL A   1      41.150  30.232  30.066  1.00  0.00     0.167 HD
ATOM     53  C   UNL A   1      42.780  23.434  28.262  1.00  0.00     0.037 A 
ATOM     54  C   UNL A   1      43.117  29.536  32.072  1.00  0.00     0.037 A 
ATOM     55  C   UNL A   1      43.863  23.932  29.104  1.00  0.00     0.049 A 
ATOM     56  C   UNL A   1      43.740  28.311  32.698  1.00  0.00     0.074 A 
ATOM     57  C   UNL A   1      44.986  24.690  28.813  1.00  0.00     0.029 A 
ATOM     58  N   UNL A   1      43.716  23.958  30.486  1.00  0.00    -0.354 N 
ATOM     59  N   UNL A   1      43.940  27.195  32.052  1.00  0.00    -0.248 NA
ATOM     60  C   UNL A   1      44.153  28.222  34.097  1.00  0.00     0.031 C 
ATOM     61  C   UNL A   1      45.482  25.225  30.025  1.00  0.00     0.029 A 
ATOM     62  C   UNL A   1      44.677  24.773  31.054  1.00  0.00     0.049 A 
ATOM     63  H   UNL A   1      43.028  23.466  30.987  1.00  0.00     0.167 HD
ATOM     64  C   UNL A   1      44.460  26.256  32.904  1.00  0.00     0.074 A 
ATOM     65  C   UNL A   1      44.596  26.953  34.169  1.00  0.00     0.031 C 
ATOM     66  C   UNL A   1      44.726  24.983  32.492  1.00  0.00     0.037 A 
BRANCH  53  67
ATOM     67  C   UNL A   1      42.940  22.357  27.221  1.00  0.00     0.057 A 
ATOM     68  C   UNL A   1      42.176  21.175  27.265  1.00  0.00     0.134 A 
ATOM     69  C   UNL A   1      43.879  22.412  26.177  1.00  0.00     0.134 A 
ATOM     70  F   UNL A   1      41.173  21.014  28.135  1.00  0.00    -0.206 F 
ATOM     71  C   UNL A   1      42.416  20.085  26.419  1.00  0.00     0.040 A 
ATOM     72  C   UNL A   1      44.165  21.312  25.357  1.00  0.00     0.040 A 
ATOM     73  F   UNL A   1      44.541  23.545  25.902  1.00  0.00    -0.206 F 
ATOM     74  C   UNL A   1      43.442  20.134  25.487  1.00  0.00     0.006 A 
ENDBRANCH  53  67
BRANCH  54  75
ATOM     75  C   UNL A   1      42.025  30.356  32.656  1.00  0.00     0.057 A 
ATOM     76  C   UNL A   1      42.168  31.756  32.615  1.00  0.00     0.134 A 
ATOM     77  C   UNL A   1      40.733  29.849  32.810  1.00  0.00     0.134 A 
ATOM     78  F   UNL A   1      43.385  32.305  32.478  1.00  0.00    -0.206 F 
ATOM     79  C   UNL A   1      41.062  32.608  32.570  1.00  0.00     0.040 A 
ATOM     80  C   UNL A   1      39.619  30.696  32.786  1.00  0.00     0.040 A 
ATOM     81  F   UNL A   1      40.519  28.526  32.850  1.00  0.00    -0.206 F 
ATOM     82  C   UNL A   1      39.779  32.072  32.613  1.00  0.00     0.006 A 
ENDBRANCH  54  75
BRANCH  66  83
ATOM     83  C   UNL A   1      45.147  23.838  33.372  1.00  0.00     0.057 A 
ATOM     84  C   UNL A   1      46.423  23.708  33.937  1.00  0.00     0.134 A 
ATOM     85  C   UNL A   1      44.197  22.886  33.803  1.00  0.00     0.134 A 
ATOM     86  F   UNL A   1      47.390  24.602  33.688  1.00  0.00    -0.206 F 
ATOM     87  C   UNL A   1      46.746  22.678  34.829  1.00  0.00     0.040 A 
ATOM     88  C   UNL A   1      44.493  21.883  34.729  1.00  0.00     0.040 A 
ATOM     89  F   UNL A   1      42.932  22.903  33.355  1.00  0.00    -0.206 F 
ATOM     90  C   UNL A   1      45.776  21.768  35.238  1.00  0.00     0.006 A 
ENDBRANCH  66  83
ENDBRANCH  40  41
ENDBRANCH  32  35
ENDBRANCH  30  31
ENDBRANCH  29  30
ENDBRANCH  28  29
ENDBRANCH   1  28
TORSDOF 15
ENDMDL
MODEL 2
REMARK VINA RESULT:     -13.1      3.759      9.095
REMARK SMILES Cc1ccc(-c2nc(C)cc(N3CCCC[C@H]3C(=O)NCCCCCCNC(=O)c3ccc(-c4c5nc(c(-c6c(F)cccc6F)c6ccc([nH]6)c(-c6c(F)cccc6F)c6nc(c(-c7c(F)cccc7F)c7ccc4[nH]7)C=C6)C=C5)cc3)n2)cc1
REMARK SMILES IDX 23 1 22 2 21 3 20 4 18 5 19 6 17 8 12 9 13 10 14 11 16 12
REMARK SMILES IDX 15 13 11 14 6 15 7 16 84 17 8 18 9 19 10 20 5 21 1 22 2 23
REMARK SMILES IDX 3 24 86 25 4 26 85 27 24 28 25 29 26 30 27 31 28 32 29 34
REMARK SMILES IDX 30 35 31 36 83 37 32 38 82 39 33 40 34 41 35 42 76 43 36 44
REMARK SMILES IDX 81 45 75 46 77 47 37 48 80 49 74 50 73 51 38 53 64 54 47 55
REMARK SMILES IDX 63 56 48 57 51 58 62 59 78 60 49 61 50 62 61 64 79 65 52 66
REMARK SMILES IDX 39 67 40 68 45 69 41 70 42 71 44 72 46 73 43 74 65 75 66 76
REMARK SMILES IDX 71 77 67 78 68 79 70 80 72 81 69 82 53 83 54 84 59 85 55 86
REMARK SMILES IDX 56 87 58 88 60 89 57 90
REMARK H PARENT 20 7 27 33 77 52 51 63
REMARK Flexibility Score: inf
ROOT
ATOM      1  C   UNL A   1      38.556  22.575  25.786  1.00  0.00     0.002 C 
ENDROOT
BRANCH   1   2
ATOM      2  C   UNL A   1      37.380  23.513  26.090  1.00  0.00     0.021 C 
BRANCH   2   3
ATOM      3  C   UNL A   1      35.986  22.884  26.026  1.00  0.00     0.116 C 
BRANCH   3   4
ATOM      4  N   UNL A   1      36.017  21.504  25.595  1.00  0.00    -0.354 N 
ATOM      5  C   UNL A   1      35.080  20.614  25.182  1.00  0.00     0.242 C 
ATOM      6  O   UNL A   1      35.559  19.578  24.688  1.00  0.00    -0.273 OA
ATOM      7  H   UNL A   1      36.924  21.123  25.603  1.00  0.00     0.163 HD
BRANCH   5   8
ATOM      8  C   UNL A   1      33.527  20.765  25.258  1.00  0.00     0.173 C 
ATOM      9  N   UNL A   1      33.155  22.063  24.652  1.00  0.00    -0.344 N 
ATOM     10  C   UNL A   1      33.066  22.136  23.199  1.00  0.00     0.119 C 
ATOM     11  C   UNL A   1      32.105  21.085  22.655  1.00  0.00     0.022 C 
ATOM     12  C   UNL A   1      32.554  19.708  24.720  1.00  0.00     0.035 C 
ATOM     13  C   UNL A   1      32.452  19.700  23.193  1.00  0.00     0.004 C 
BRANCH   9  14
ATOM     14  C   UNL A   1      32.349  22.910  25.396  1.00  0.00     0.133 A 
ATOM     15  C   UNL A   1      31.945  24.952  26.352  1.00  0.00     0.161 A 
ATOM     16  N   UNL A   1      30.812  24.550  26.956  1.00  0.00    -0.233 NA
ATOM     17  N   UNL A   1      32.735  24.181  25.584  1.00  0.00    -0.211 NA
ATOM     18  C   UNL A   1      30.440  23.277  26.738  1.00  0.00     0.043 A 
ATOM     19  C   UNL A   1      29.189  22.814  27.420  1.00  0.00     0.067 C 
ATOM     20  C   UNL A   1      31.180  22.420  25.948  1.00  0.00     0.070 A 
BRANCH  15  21
ATOM     21  C   UNL A   1      32.338  26.351  26.531  1.00  0.00     0.019 A 
ATOM     22  C   UNL A   1      33.466  30.503  27.023  1.00  0.00     0.044 C 
ATOM     23  C   UNL A   1      33.083  29.065  26.844  1.00  0.00    -0.051 A 
ATOM     24  C   UNL A   1      31.826  28.619  27.269  1.00  0.00     0.004 A 
ATOM     25  C   UNL A   1      33.970  28.147  26.272  1.00  0.00     0.004 A 
ATOM     26  C   UNL A   1      31.456  27.280  27.104  1.00  0.00     0.012 A 
ATOM     27  C   UNL A   1      33.603  26.806  26.124  1.00  0.00     0.012 A 
ENDBRANCH  15  21
ENDBRANCH   9  14
ENDBRANCH   5   8
ENDBRANCH   3   4
ENDBRANCH   2   3
ENDBRANCH   1   2
BRANCH   1  28
ATOM     28  C   UNL A   1      39.744  22.595  26.763  1.00  0.00     0.002 C 
BRANCH  28  29
ATOM     29  C   UNL A   1      41.145  22.545  26.147  1.00  0.00     0.021 C 
BRANCH  29  30
ATOM     30  C   UNL A   1      41.962  21.321  26.535  1.00  0.00     0.116 C 
BRANCH  30  31
ATOM     31  N   UNL A   1      42.837  20.825  25.479  1.00  0.00    -0.352 N 
ATOM     32  C   UNL A   1      43.988  21.402  24.961  1.00  0.00     0.251 C 
ATOM     33  H   UNL A   1      42.574  19.966  25.078  1.00  0.00     0.163 HD
ATOM     34  O   UNL A   1      44.615  20.853  24.077  1.00  0.00    -0.269 OA
BRANCH  32  35
ATOM     35  C   UNL A   1      44.511  22.634  25.602  1.00  0.00     0.039 A 
ATOM     36  C   UNL A   1      44.995  22.532  26.909  1.00  0.00     0.014 A 
ATOM     37  C   UNL A   1      44.303  23.883  25.020  1.00  0.00     0.014 A 
ATOM     38  C   UNL A   1      45.016  23.667  27.715  1.00  0.00     0.010 A 
ATOM     39  C   UNL A   1      44.242  24.993  25.837  1.00  0.00     0.010 A 
ATOM     40  C   UNL A   1      44.528  24.869  27.199  1.00  0.00    -0.014 A 
BRANCH  40  41
ATOM     41  C   UNL A   1      44.193  26.007  28.043  1.00  0.00     0.031 A 
ATOM     42  C   UNL A   1      42.824  26.554  28.050  1.00  0.00     0.074 A 
ATOM     43  C   UNL A   1      45.136  26.567  28.833  1.00  0.00     0.049 A 
ATOM     44  N   UNL A   1      42.549  27.801  28.239  1.00  0.00    -0.248 NA
ATOM     45  C   UNL A   1      41.649  25.727  27.812  1.00  0.00     0.031 C 
ATOM     46  C   UNL A   1      44.937  27.578  29.866  1.00  0.00     0.029 A 
ATOM     47  N   UNL A   1      46.525  26.472  28.701  1.00  0.00    -0.354 N 
ATOM     48  C   UNL A   1      41.190  27.901  28.414  1.00  0.00     0.074 A 
ATOM     49  C   UNL A   1      40.666  26.597  28.073  1.00  0.00     0.031 C 
ATOM     50  C   UNL A   1      46.099  28.212  30.083  1.00  0.00     0.029 A 
ATOM     51  C   UNL A   1      47.057  27.712  29.114  1.00  0.00     0.049 A 
ATOM     52  H   UNL A   1      47.033  25.693  28.381  1.00  0.00     0.167 HD
ATOM     53  C   UNL A   1      40.656  29.027  28.967  1.00  0.00     0.037 A 
ATOM     54  C   UNL A   1      47.803  28.482  28.270  1.00  0.00     0.037 A 
ATOM     55  C   UNL A   1      41.688  30.002  29.306  1.00  0.00     0.049 A 
ATOM     56  C   UNL A   1      47.195  29.834  27.980  1.00  0.00     0.074 A 
ATOM     57  C   UNL A   1      42.369  30.255  30.486  1.00  0.00     0.029 A 
ATOM     58  N   UNL A   1      42.392  30.651  28.298  1.00  0.00    -0.354 N 
ATOM     59  N   UNL A   1      45.959  30.142  28.260  1.00  0.00    -0.248 NA
ATOM     60  C   UNL A   1      47.904  30.932  27.327  1.00  0.00     0.031 C 
ATOM     61  C   UNL A   1      43.522  31.012  30.177  1.00  0.00     0.029 A 
ATOM     62  C   UNL A   1      43.532  31.241  28.813  1.00  0.00     0.049 A 
ATOM     63  H   UNL A   1      42.117  30.687  27.355  1.00  0.00     0.167 HD
ATOM     64  C   UNL A   1      45.690  31.412  27.824  1.00  0.00     0.074 A 
ATOM     65  C   UNL A   1      46.946  31.875  27.266  1.00  0.00     0.031 C 
ATOM     66  C   UNL A   1      44.451  31.969  27.955  1.00  0.00     0.037 A 
BRANCH  53  67
ATOM     67  C   UNL A   1      39.243  29.072  29.488  1.00  0.00     0.057 A 
ATOM     68  C   UNL A   1      38.172  29.479  28.671  1.00  0.00     0.134 A 
ATOM     69  C   UNL A   1      38.889  28.772  30.815  1.00  0.00     0.134 A 
ATOM     70  F   UNL A   1      38.328  29.701  27.360  1.00  0.00    -0.206 F 
ATOM     71  C   UNL A   1      36.880  29.694  29.165  1.00  0.00     0.040 A 
ATOM     72  C   UNL A   1      37.614  29.030  31.335  1.00  0.00     0.040 A 
ATOM     73  F   UNL A   1      39.766  28.196  31.651  1.00  0.00    -0.206 F 
ATOM     74  C   UNL A   1      36.605  29.510  30.512  1.00  0.00     0.006 A 
ENDBRANCH  53  67
BRANCH  54  75
ATOM     75  C   UNL A   1      48.609  27.666  27.325  1.00  0.00     0.057 A 
ATOM     76  C   UNL A   1      48.097  27.475  26.027  1.00  0.00     0.134 A 
ATOM     77  C   UNL A   1      49.982  27.485  27.505  1.00  0.00     0.134 A 
ATOM     78  F   UNL A   1      46.784  27.626  25.792  1.00  0.00    -0.206 F 
ATOM     79  C   UNL A   1      48.935  27.270  24.929  1.00  0.00     0.040 A 
ATOM     80  C   UNL A   1      50.827  27.259  26.413  1.00  0.00     0.040 A 
ATOM     81  F   UNL A   1      50.541  27.656  28.711  1.00  0.00    -0.206 F 
ATOM     82  C   UNL A   1      50.311  27.204  25.117  1.00  0.00     0.006 A 
ENDBRANCH  54  75
BRANCH  66  83
ATOM     83  C   UNL A   1      44.007  33.285  27.376  1.00  0.00     0.057 A 
ATOM     84  C   UNL A   1      43.828  33.521  26.007  1.00  0.00     0.134 A 
ATOM     85  C   UNL A   1      43.595  34.334  28.229  1.00  0.00     0.134 A 
ATOM     86  F   UNL A   1      44.087  32.573  25.096  1.00  0.00    -0.206 F 
ATOM     87  C   UNL A   1      43.320  34.731  25.516  1.00  0.00     0.040 A 
ATOM     88  C   UNL A   1      43.043  35.525  27.754  1.00  0.00     0.040 A 
ATOM     89  F   UNL A   1      43.695  34.234  29.564  1.00  0.00    -0.206 F 
ATOM     90  C   UNL A   1      42.914  35.733  26.391  1.00  0.00     0.006 A 
ENDBRANCH  66  83
ENDBRANCH  40  41
ENDBRANCH  32  35
ENDBRANCH  30  31
ENDBRANCH  29  30
ENDBRANCH  28  29
ENDBRANCH   1  28
TORSDOF 15
ENDMDL
MODEL 3
REMARK VINA RESULT:     -13.0      3.582      9.471
REMARK SMILES Cc1ccc(-c2nc(C)cc(N3CCCC[C@H]3C(=O)NCCCCCCNC(=O)c3ccc(-c4c5nc(c(-c6c(F)cccc6F)c6ccc([nH]6)c(-c6c(F)cccc6F)c6nc(c(-c7c(F)cccc7F)c7ccc4[nH]7)C=C6)C=C5)cc3)n2)cc1
REMARK SMILES IDX 23 1 22 2 21 3 20 4 18 5 19 6 17 8 12 9 13 10 14 11 16 12
REMARK SMILES IDX 15 13 11 14 6 15 7 16 84 17 8 18 9 19 10 20 5 21 1 22 2 23
REMARK SMILES IDX 3 24 86 25 4 26 85 27 24 28 25 29 26 30 27 31 28 32 29 34
REMARK SMILES IDX 30 35 31 36 83 37 32 38 82 39 33 40 34 41 35 42 76 43 36 44
REMARK SMILES IDX 81 45 75 46 77 47 37 48 80 49 74 50 73 51 38 53 64 54 47 55
REMARK SMILES IDX 63 56 48 57 51 58 62 59 78 60 49 61 50 62 61 64 79 65 52 66
REMARK SMILES IDX 39 67 40 68 45 69 41 70 42 71 44 72 46 73 43 74 65 75 66 76
REMARK SMILES IDX 71 77 67 78 68 79 70 80 72 81 69 82 53 83 54 84 59 85 55 86
REMARK SMILES IDX 56 87 58 88 60 89 57 90
REMARK H PARENT 20 7 27 33 77 52 51 63
REMARK Flexibility Score: inf
ROOT
ATOM      1  C   UNL A   1      34.940  20.570  24.626  1.00  0.00     0.002 C 
ENDROOT
BRANCH   1   2
ATOM      2  C   UNL A   1      33.856  20.655  25.710  1.00  0.00     0.021 C 
BRANCH   2   3
ATOM      3  C   UNL A   1      32.411  20.708  25.209  1.00  0.00     0.116 C 
BRANCH   3   4
ATOM      4  N   UNL A   1      31.564  21.538  26.037  1.00  0.00    -0.354 N 
ATOM      5  C   UNL A   1      30.889  22.699  25.846  1.00  0.00     0.242 C 
ATOM      6  O   UNL A   1      30.092  22.969  26.761  1.00  0.00    -0.273 OA
ATOM      7  H   UNL A   1      31.452  21.179  26.946  1.00  0.00     0.163 HD
BRANCH   5   8
ATOM      8  C   UNL A   1      31.008  23.680  24.636  1.00  0.00     0.173 C 
ATOM      9  N   UNL A   1      32.067  24.668  24.940  1.00  0.00    -0.344 N 
ATOM     10  C   UNL A   1      33.452  24.272  24.722  1.00  0.00     0.119 C 
ATOM     11  C   UNL A   1      33.668  23.797  23.290  1.00  0.00     0.022 C 
ATOM     12  C   UNL A   1      31.217  23.209  23.191  1.00  0.00     0.035 C 
ATOM     13  C   UNL A   1      32.643  22.731  22.909  1.00  0.00     0.004 C 
BRANCH   9  14
ATOM     14  C   UNL A   1      31.747  26.010  24.811  1.00  0.00     0.133 A 
ATOM     15  C   UNL A   1      32.038  28.200  25.417  1.00  0.00     0.161 A 
ATOM     16  N   UNL A   1      31.040  28.648  24.634  1.00  0.00    -0.233 NA
ATOM     17  N   UNL A   1      32.415  26.915  25.541  1.00  0.00    -0.211 NA
ATOM     18  C   UNL A   1      30.397  27.722  23.900  1.00  0.00     0.043 A 
ATOM     19  C   UNL A   1      29.272  28.208  23.038  1.00  0.00     0.067 C 
ATOM     20  C   UNL A   1      30.730  26.384  23.951  1.00  0.00     0.070 A 
BRANCH  15  21
ATOM     21  C   UNL A   1      32.787  29.199  26.181  1.00  0.00     0.019 A 
ATOM     22  C   UNL A   1      35.006  32.183  28.400  1.00  0.00     0.044 C 
ATOM     23  C   UNL A   1      34.248  31.146  27.628  1.00  0.00    -0.051 A 
ATOM     24  C   UNL A   1      32.922  31.387  27.250  1.00  0.00     0.004 A 
ATOM     25  C   UNL A   1      34.838  29.924  27.289  1.00  0.00     0.004 A 
ATOM     26  C   UNL A   1      32.205  30.428  26.528  1.00  0.00     0.012 A 
ATOM     27  C   UNL A   1      34.113  28.961  26.580  1.00  0.00     0.012 A 
ENDBRANCH  15  21
ENDBRANCH   9  14
ENDBRANCH   5   8
ENDBRANCH   3   4
ENDBRANCH   2   3
ENDBRANCH   1   2
BRANCH   1  28
ATOM     28  C   UNL A   1      36.402  20.722  25.079  1.00  0.00     0.002 C 
BRANCH  28  29
ATOM     29  C   UNL A   1      37.209  21.855  24.438  1.00  0.00     0.021 C 
BRANCH  29  30
ATOM     30  C   UNL A   1      37.865  22.803  25.431  1.00  0.00     0.116 C 
BRANCH  30  31
ATOM     31  N   UNL A   1      39.223  22.429  25.808  1.00  0.00    -0.352 N 
ATOM     32  C   UNL A   1      40.193  23.196  26.438  1.00  0.00     0.251 C 
ATOM     33  H   UNL A   1      39.488  21.508  25.584  1.00  0.00     0.163 HD
ATOM     34  O   UNL A   1      41.286  22.730  26.692  1.00  0.00    -0.269 OA
BRANCH  32  35
ATOM     35  C   UNL A   1      39.823  24.551  26.914  1.00  0.00     0.039 A 
ATOM     36  C   UNL A   1      40.418  25.647  26.283  1.00  0.00     0.014 A 
ATOM     37  C   UNL A   1      39.105  24.720  28.096  1.00  0.00     0.014 A 
ATOM     38  C   UNL A   1      40.520  26.854  26.970  1.00  0.00     0.010 A 
ATOM     39  C   UNL A   1      39.276  25.886  28.815  1.00  0.00     0.010 A 
ATOM     40  C   UNL A   1      40.044  26.924  28.281  1.00  0.00    -0.014 A 
BRANCH  40  41
ATOM     41  C   UNL A   1      40.399  28.006  29.189  1.00  0.00     0.031 A 
ATOM     42  C   UNL A   1      39.440  29.088  29.473  1.00  0.00     0.074 A 
ATOM     43  C   UNL A   1      41.613  28.021  29.784  1.00  0.00     0.049 A 
ATOM     44  N   UNL A   1      39.784  30.306  29.727  1.00  0.00    -0.248 NA
ATOM     45  C   UNL A   1      37.998  28.880  29.460  1.00  0.00     0.031 C 
ATOM     46  C   UNL A   1      42.063  28.911  30.849  1.00  0.00     0.029 A 
ATOM     47  N   UNL A   1      42.769  27.347  29.379  1.00  0.00    -0.354 N 
ATOM     48  C   UNL A   1      38.663  30.967  30.169  1.00  0.00     0.074 A 
ATOM     49  C   UNL A   1      37.565  30.060  29.922  1.00  0.00     0.031 C 
ATOM     50  C   UNL A   1      43.404  28.953  30.840  1.00  0.00     0.029 A 
ATOM     51  C   UNL A   1      43.859  28.186  29.695  1.00  0.00     0.049 A 
ATOM     52  H   UNL A   1      42.815  26.460  28.956  1.00  0.00     0.167 HD
ATOM     53  C   UNL A   1      38.789  32.152  30.831  1.00  0.00     0.037 A 
ATOM     54  C   UNL A   1      44.712  28.636  28.730  1.00  0.00     0.037 A 
ATOM     55  C   UNL A   1      40.187  32.545  30.972  1.00  0.00     0.049 A 
ATOM     56  C   UNL A   1      44.728  30.139  28.583  1.00  0.00     0.074 A 
ATOM     57  C   UNL A   1      41.100  32.360  31.997  1.00  0.00     0.029 A 
ATOM     58  N   UNL A   1      40.922  32.922  29.853  1.00  0.00    -0.354 N 
ATOM     59  N   UNL A   1      43.826  30.923  29.105  1.00  0.00    -0.248 NA
ATOM     60  C   UNL A   1      45.728  30.880  27.817  1.00  0.00     0.031 C 
ATOM     61  C   UNL A   1      42.399  32.569  31.476  1.00  0.00     0.029 A 
ATOM     62  C   UNL A   1      42.274  32.905  30.140  1.00  0.00     0.049 A 
ATOM     63  H   UNL A   1      40.535  33.166  28.983  1.00  0.00     0.167 HD
ATOM     64  C   UNL A   1      44.079  32.221  28.747  1.00  0.00     0.074 A 
ATOM     65  C   UNL A   1      45.294  32.146  27.958  1.00  0.00     0.031 C 
ATOM     66  C   UNL A   1      43.259  33.243  29.126  1.00  0.00     0.037 A 
BRANCH  53  67
ATOM     67  C   UNL A   1      37.656  32.753  31.621  1.00  0.00     0.057 A 
ATOM     68  C   UNL A   1      37.365  32.325  32.930  1.00  0.00     0.134 A 
ATOM     69  C   UNL A   1      36.779  33.727  31.113  1.00  0.00     0.134 A 
ATOM     70  F   UNL A   1      38.164  31.478  33.590  1.00  0.00    -0.206 F 
ATOM     71  C   UNL A   1      36.223  32.736  33.627  1.00  0.00     0.040 A 
ATOM     72  C   UNL A   1      35.606  34.110  31.777  1.00  0.00     0.040 A 
ATOM     73  F   UNL A   1      37.041  34.359  29.960  1.00  0.00    -0.206 F 
ATOM     74  C   UNL A   1      35.314  33.600  33.035  1.00  0.00     0.006 A 
ENDBRANCH  53  67
BRANCH  54  75
ATOM     75  C   UNL A   1      44.896  27.650  27.635  1.00  0.00     0.057 A 
ATOM     76  C   UNL A   1      44.220  27.886  26.422  1.00  0.00     0.134 A 
ATOM     77  C   UNL A   1      46.007  26.804  27.593  1.00  0.00     0.134 A 
ATOM     78  F   UNL A   1      43.140  28.682  26.399  1.00  0.00    -0.206 F 
ATOM     79  C   UNL A   1      44.719  27.431  25.200  1.00  0.00     0.040 A 
ATOM     80  C   UNL A   1      46.503  26.326  26.375  1.00  0.00     0.040 A 
ATOM     81  F   UNL A   1      46.705  26.538  28.706  1.00  0.00    -0.206 F 
ATOM     82  C   UNL A   1      45.891  26.682  25.172  1.00  0.00     0.006 A 
ENDBRANCH  54  75
BRANCH  66  83
ATOM     83  C   UNL A   1      43.354  34.672  28.664  1.00  0.00     0.057 A 
ATOM     84  C   UNL A   1      43.219  35.076  27.329  1.00  0.00     0.134 A 
ATOM     85  C   UNL A   1      43.440  35.720  29.607  1.00  0.00     0.134 A 
ATOM     86  F   UNL A   1      43.031  34.185  26.346  1.00  0.00    -0.206 F 
ATOM     87  C   UNL A   1      43.218  36.426  26.953  1.00  0.00     0.040 A 
ATOM     88  C   UNL A   1      43.391  37.069  29.249  1.00  0.00     0.040 A 
ATOM     89  F   UNL A   1      43.557  35.476  30.921  1.00  0.00    -0.206 F 
ATOM     90  C   UNL A   1      43.292  37.428  27.915  1.00  0.00     0.006 A 
ENDBRANCH  66  83
ENDBRANCH  40  41
ENDBRANCH  32  35
ENDBRANCH  30  31
ENDBRANCH  29  30
ENDBRANCH  28  29
ENDBRANCH   1  28
TORSDOF 15
ENDMDL
