MODEL 1
REMARK VINA RESULT:     -12.4      0.000      0.000
REMARK SMILES CCOc1ccc(C(=O)N2CCC(C(=O)NCCCCCCNC(=O)c3ccc(-c4c5nc(c(-c6c(F)cccc6F)c6ccc([nH]6)c(-c6c(F)cccc6F)c6nc(c(-c7c(F)cccc7F)c7ccc4[nH]7)C=C6)C=C5)cc3)(c3ccccc3)CC2)cc1OC
REMARK SMILES IDX 19 1 18 2 17 3 16 4 14 5 15 6 13 8 8 9 9 10 10 11 11 12
REMARK SMILES IDX 87 13 12 14 86 15 7 16 4 17 5 18 89 19 6 20 88 21 3 22 2 23
REMARK SMILES IDX 1 24 90 25 91 26 80 27 81 28 85 29 82 30 84 31 83 32 20 33
REMARK SMILES IDX 21 34 22 35 23 36 24 37 25 39 26 40 27 41 79 42 28 43 78 44
REMARK SMILES IDX 29 45 30 46 31 47 72 48 32 49 77 50 71 51 73 52 33 53 76 54
REMARK SMILES IDX 70 55 69 56 34 58 60 59 43 60 59 61 44 62 47 63 58 64 74 65
REMARK SMILES IDX 45 66 46 67 57 69 75 70 48 71 35 72 36 73 41 74 37 75 38 76
REMARK SMILES IDX 40 77 42 78 39 79 61 80 62 81 67 82 63 83 64 84 66 85 68 86
REMARK SMILES IDX 65 87 49 88 50 89 55 90 51 91 52 92 54 93 56 94 53 95
REMARK H PARENT 16 7 23 38 73 57 47 68
REMARK Flexibility Score: inf
ROOT
ATOM      1  C   UNL A   1      37.497  23.314  25.462  1.00  0.00     0.002 C 
ENDROOT
BRANCH   1   2
ATOM      2  C   UNL A   1      37.577  21.894  24.892  1.00  0.00     0.021 C 
BRANCH   2   3
ATOM      3  C   UNL A   1      36.226  21.190  24.797  1.00  0.00     0.116 C 
BRANCH   3   4
ATOM      4  N   UNL A   1      35.596  21.124  26.106  1.00  0.00    -0.355 N 
ATOM      5  C   UNL A   1      34.405  21.588  26.586  1.00  0.00     0.230 C 
ATOM      6  O   UNL A   1      34.330  21.548  27.815  1.00  0.00    -0.274 OA
ATOM      7  H   UNL A   1      36.136  20.650  26.780  1.00  0.00     0.163 HD
BRANCH   5   8
ATOM      8  C   UNL A   1      33.277  22.116  25.629  1.00  0.00     0.077 C 
ATOM      9  C   UNL A   1      31.171  25.928  25.901  1.00  0.00     0.253 C 
ATOM     10  O   UNL A   1      30.760  26.212  27.026  1.00  0.00    -0.269 OA
ATOM     11  N   UNL A   1      31.815  24.699  25.655  1.00  0.00    -0.339 N 
ATOM     12  C   UNL A   1      31.142  23.532  26.199  1.00  0.00     0.121 C 
ATOM     13  C   UNL A   1      32.841  24.479  24.639  1.00  0.00     0.121 C 
ATOM     14  C   UNL A   1      32.032  22.344  26.532  1.00  0.00     0.043 C 
ATOM     15  C   UNL A   1      33.859  23.411  24.989  1.00  0.00     0.043 C 
BRANCH   9  16
ATOM     16  C   UNL A   1      30.829  26.861  24.774  1.00  0.00     0.043 A 
ATOM     17  C   UNL A   1      30.227  28.456  22.512  1.00  0.00     0.161 A 
ATOM     18  C   UNL A   1      29.222  27.715  23.157  1.00  0.00     0.051 A 
ATOM     19  C   UNL A   1      31.522  28.428  23.017  1.00  0.00     0.161 A 
ATOM     20  C   UNL A   1      29.517  26.935  24.291  1.00  0.00     0.018 A 
ATOM     21  C   UNL A   1      31.805  27.570  24.081  1.00  0.00     0.064 A 
BRANCH  17  22
ATOM     22  O   UNL A   1      29.904  29.250  21.450  1.00  0.00    -0.490 OA
BRANCH  22  23
ATOM     23  C   UNL A   1      29.480  30.566  21.830  1.00  0.00     0.226 C 
ATOM     24  C   UNL A   1      27.981  30.684  21.594  1.00  0.00     0.049 C 
ENDBRANCH  22  23
ENDBRANCH  17  22
BRANCH  19  25
ATOM     25  O   UNL A   1      32.641  29.121  22.660  1.00  0.00    -0.493 OA
ATOM     26  C   UNL A   1      33.834  28.989  23.398  1.00  0.00     0.278 C 
ENDBRANCH  19  25
ENDBRANCH   9  16
BRANCH   8  27
ATOM     27  C   UNL A   1      32.859  21.155  24.454  1.00  0.00    -0.032 A 
ATOM     28  C   UNL A   1      32.414  21.592  23.194  1.00  0.00     0.005 A 
ATOM     29  C   UNL A   1      32.894  19.753  24.627  1.00  0.00     0.005 A 
ATOM     30  C   UNL A   1      32.037  20.698  22.181  1.00  0.00     0.000 A 
ATOM     31  C   UNL A   1      32.499  18.854  23.628  1.00  0.00     0.000 A 
ATOM     32  C   UNL A   1      32.071  19.329  22.399  1.00  0.00     0.000 A 
ENDBRANCH   8  27
ENDBRANCH   5   8
ENDBRANCH   3   4
ENDBRANCH   2   3
ENDBRANCH   1   2
BRANCH   1  33
ATOM     33  C   UNL A   1      38.526  23.628  26.553  1.00  0.00     0.002 C 
BRANCH  33  34
ATOM     34  C   UNL A   1      39.683  22.633  26.644  1.00  0.00     0.021 C 
BRANCH  34  35
ATOM     35  C   UNL A   1      41.022  23.262  27.009  1.00  0.00     0.116 C 
BRANCH  35  36
ATOM     36  N   UNL A   1      41.555  24.073  25.928  1.00  0.00    -0.352 N 
ATOM     37  C   UNL A   1      41.741  25.433  25.876  1.00  0.00     0.251 C 
ATOM     38  H   UNL A   1      41.819  23.579  25.119  1.00  0.00     0.163 HD
ATOM     39  O   UNL A   1      42.011  25.983  24.817  1.00  0.00    -0.269 OA
BRANCH  37  40
ATOM     40  C   UNL A   1      41.588  26.231  27.111  1.00  0.00     0.039 A 
ATOM     41  C   UNL A   1      42.414  27.341  27.300  1.00  0.00     0.014 A 
ATOM     42  C   UNL A   1      40.626  25.894  28.066  1.00  0.00     0.014 A 
ATOM     43  C   UNL A   1      42.229  28.153  28.421  1.00  0.00     0.010 A 
ATOM     44  C   UNL A   1      40.393  26.746  29.142  1.00  0.00     0.010 A 
ATOM     45  C   UNL A   1      41.192  27.884  29.329  1.00  0.00    -0.014 A 
BRANCH  45  46
ATOM     46  C   UNL A   1      40.918  28.794  30.470  1.00  0.00     0.031 A 
ATOM     47  C   UNL A   1      39.804  29.801  30.388  1.00  0.00     0.074 A 
ATOM     48  C   UNL A   1      41.719  28.759  31.553  1.00  0.00     0.049 A 
ATOM     49  N   UNL A   1      39.457  30.720  31.252  1.00  0.00    -0.248 NA
ATOM     50  C   UNL A   1      38.987  29.790  29.163  1.00  0.00     0.031 C 
ATOM     51  C   UNL A   1      42.866  27.864  31.729  1.00  0.00     0.029 A 
ATOM     52  N   UNL A   1      41.703  29.506  32.705  1.00  0.00    -0.354 N 
ATOM     53  C   UNL A   1      38.398  31.406  30.671  1.00  0.00     0.074 A 
ATOM     54  C   UNL A   1      38.187  30.827  29.362  1.00  0.00     0.031 C 
ATOM     55  C   UNL A   1      43.431  28.103  32.923  1.00  0.00     0.029 A 
ATOM     56  C   UNL A   1      42.718  29.195  33.577  1.00  0.00     0.049 A 
ATOM     57  H   UNL A   1      41.028  30.199  32.889  1.00  0.00     0.167 HD
ATOM     58  C   UNL A   1      37.658  32.414  31.191  1.00  0.00     0.037 A 
ATOM     59  C   UNL A   1      43.050  29.741  34.763  1.00  0.00     0.037 A 
ATOM     60  C   UNL A   1      37.857  32.969  32.504  1.00  0.00     0.049 A 
ATOM     61  C   UNL A   1      42.215  30.864  35.312  1.00  0.00     0.074 A 
ATOM     62  C   UNL A   1      37.108  33.938  33.150  1.00  0.00     0.029 A 
ATOM     63  N   UNL A   1      38.884  32.615  33.365  1.00  0.00    -0.354 N 
ATOM     64  N   UNL A   1      41.160  31.441  34.790  1.00  0.00    -0.248 NA
ATOM     65  C   UNL A   1      42.612  31.410  36.618  1.00  0.00     0.031 C 
ATOM     66  C   UNL A   1      37.719  34.214  34.377  1.00  0.00     0.029 A 
ATOM     67  C   UNL A   1      38.810  33.372  34.523  1.00  0.00     0.049 A 
ATOM     68  H   UNL A   1      39.564  31.928  33.183  1.00  0.00     0.167 HD
ATOM     69  C   UNL A   1      40.754  32.398  35.712  1.00  0.00     0.074 A 
ATOM     70  C   UNL A   1      41.663  32.308  36.835  1.00  0.00     0.031 C 
ATOM     71  C   UNL A   1      39.719  33.271  35.635  1.00  0.00     0.037 A 
BRANCH  58  72
ATOM     72  C   UNL A   1      36.564  32.991  30.339  1.00  0.00     0.057 A 
ATOM     73  C   UNL A   1      35.215  32.676  30.548  1.00  0.00     0.134 A 
ATOM     74  C   UNL A   1      36.861  33.923  29.335  1.00  0.00     0.134 A 
ATOM     75  F   UNL A   1      34.862  31.785  31.486  1.00  0.00    -0.206 F 
ATOM     76  C   UNL A   1      34.203  33.250  29.777  1.00  0.00     0.040 A 
ATOM     77  C   UNL A   1      35.856  34.525  28.577  1.00  0.00     0.040 A 
ATOM     78  F   UNL A   1      38.131  34.275  29.087  1.00  0.00    -0.206 F 
ATOM     79  C   UNL A   1      34.523  34.185  28.794  1.00  0.00     0.006 A 
ENDBRANCH  58  72
BRANCH  59  80
ATOM     80  C   UNL A   1      44.231  29.237  35.513  1.00  0.00     0.057 A 
ATOM     81  C   UNL A   1      44.104  28.231  36.477  1.00  0.00     0.134 A 
ATOM     82  C   UNL A   1      45.510  29.766  35.300  1.00  0.00     0.134 A 
ATOM     83  F   UNL A   1      42.902  27.695  36.741  1.00  0.00    -0.206 F 
ATOM     84  C   UNL A   1      45.198  27.787  37.222  1.00  0.00     0.040 A 
ATOM     85  C   UNL A   1      46.618  29.311  36.014  1.00  0.00     0.040 A 
ATOM     86  F   UNL A   1      45.701  30.727  34.384  1.00  0.00    -0.206 F 
ATOM     87  C   UNL A   1      46.463  28.326  36.987  1.00  0.00     0.006 A 
ENDBRANCH  59  80
BRANCH  71  88
ATOM     88  C   UNL A   1      39.495  34.178  36.811  1.00  0.00     0.057 A 
ATOM     89  C   UNL A   1      38.814  33.751  37.958  1.00  0.00     0.134 A 
ATOM     90  C   UNL A   1      40.006  35.482  36.812  1.00  0.00     0.134 A 
ATOM     91  F   UNL A   1      38.288  32.517  38.018  1.00  0.00    -0.206 F 
ATOM     92  C   UNL A   1      38.631  34.595  39.054  1.00  0.00     0.040 A 
ATOM     93  C   UNL A   1      39.857  36.325  37.914  1.00  0.00     0.040 A 
ATOM     94  F   UNL A   1      40.677  35.952  35.749  1.00  0.00    -0.206 F 
ATOM     95  C   UNL A   1      39.160  35.883  39.036  1.00  0.00     0.006 A 
ENDBRANCH  71  88
ENDBRANCH  45  46
ENDBRANCH  37  40
ENDBRANCH  35  36
ENDBRANCH  34  35
ENDBRANCH  33  34
ENDBRANCH   1  33
TORSDOF 18
ENDMDL
MODEL 2
REMARK VINA RESULT:     -12.3      2.488      8.234
REMARK SMILES CCOc1ccc(C(=O)N2CCC(C(=O)NCCCCCCNC(=O)c3ccc(-c4c5nc(c(-c6c(F)cccc6F)c6ccc([nH]6)c(-c6c(F)cccc6F)c6nc(c(-c7c(F)cccc7F)c7ccc4[nH]7)C=C6)C=C5)cc3)(c3ccccc3)CC2)cc1OC
REMARK SMILES IDX 19 1 18 2 17 3 16 4 14 5 15 6 13 8 8 9 9 10 10 11 11 12
REMARK SMILES IDX 87 13 12 14 86 15 7 16 4 17 5 18 89 19 6 20 88 21 3 22 2 23
REMARK SMILES IDX 1 24 90 25 91 26 80 27 81 28 85 29 82 30 84 31 83 32 20 33
REMARK SMILES IDX 21 34 22 35 23 36 24 37 25 39 26 40 27 41 79 42 28 43 78 44
REMARK SMILES IDX 29 45 30 46 31 47 72 48 32 49 77 50 71 51 73 52 33 53 76 54
REMARK SMILES IDX 70 55 69 56 34 58 60 59 43 60 59 61 44 62 47 63 58 64 74 65
REMARK SMILES IDX 45 66 46 67 57 69 75 70 48 71 35 72 36 73 41 74 37 75 38 76
REMARK SMILES IDX 40 77 42 78 39 79 61 80 62 81 67 82 63 83 64 84 66 85 68 86
REMARK SMILES IDX 65 87 49 88 50 89 55 90 51 91 52 92 54 93 56 94 53 95
REMARK H PARENT 16 7 23 38 73 57 47 68
REMARK Flexibility Score: inf
ROOT
ATOM      1  C   UNL A   1      33.916  31.796  28.456  1.00  0.00     0.002 C 
ENDROOT
BRANCH   1   2
ATOM      2  C   UNL A   1      34.797  30.864  27.617  1.00  0.00     0.021 C 
BRANCH   2   3
ATOM      3  C   UNL A   1      34.012  29.828  26.816  1.00  0.00     0.116 C 
BRANCH   3   4
ATOM      4  N   UNL A   1      32.962  29.244  27.635  1.00  0.00    -0.355 N 
ATOM      5  C   UNL A   1      32.071  28.232  27.418  1.00  0.00     0.230 C 
ATOM      6  O   UNL A   1      31.174  28.187  28.262  1.00  0.00    -0.274 OA
ATOM      7  H   UNL A   1      32.877  29.661  28.524  1.00  0.00     0.163 HD
BRANCH   5   8
ATOM      8  C   UNL A   1      32.214  27.252  26.198  1.00  0.00     0.077 C 
ATOM      9  C   UNL A   1      33.983  23.263  26.225  1.00  0.00     0.253 C 
ATOM     10  O   UNL A   1      35.072  23.185  26.795  1.00  0.00    -0.269 OA
ATOM     11  N   UNL A   1      33.327  24.503  26.088  1.00  0.00    -0.339 N 
ATOM     12  C   UNL A   1      34.163  25.593  25.618  1.00  0.00     0.121 C 
ATOM     13  C   UNL A   1      31.878  24.681  26.022  1.00  0.00     0.121 C 
ATOM     14  C   UNL A   1      33.739  26.990  26.045  1.00  0.00     0.043 C 
ATOM     15  C   UNL A   1      31.376  25.997  26.585  1.00  0.00     0.043 C 
BRANCH   9  16
ATOM     16  C   UNL A   1      33.456  22.030  25.550  1.00  0.00     0.043 A 
ATOM     17  C   UNL A   1      32.664  19.664  24.207  1.00  0.00     0.161 A 
ATOM     18  C   UNL A   1      33.063  19.627  25.554  1.00  0.00     0.051 A 
ATOM     19  C   UNL A   1      32.627  20.885  23.543  1.00  0.00     0.161 A 
ATOM     20  C   UNL A   1      33.441  20.805  26.226  1.00  0.00     0.018 A 
ATOM     21  C   UNL A   1      33.100  22.020  24.204  1.00  0.00     0.064 A 
BRANCH  17  22
ATOM     22  O   UNL A   1      32.246  18.518  23.596  1.00  0.00    -0.490 OA
BRANCH  22  23
ATOM     23  C   UNL A   1      32.887  17.338  24.098  1.00  0.00     0.226 C 
ATOM     24  C   UNL A   1      34.028  16.965  23.162  1.00  0.00     0.049 C 
ENDBRANCH  22  23
ENDBRANCH  17  22
BRANCH  19  25
ATOM     25  O   UNL A   1      32.186  21.216  22.296  1.00  0.00    -0.493 OA
ATOM     26  C   UNL A   1      32.538  22.450  21.713  1.00  0.00     0.278 C 
ENDBRANCH  19  25
ENDBRANCH   9  16
BRANCH   8  27
ATOM     27  C   UNL A   1      31.667  27.778  24.820  1.00  0.00    -0.032 A 
ATOM     28  C   UNL A   1      30.327  27.672  24.407  1.00  0.00     0.005 A 
ATOM     29  C   UNL A   1      32.538  28.386  23.886  1.00  0.00     0.005 A 
ATOM     30  C   UNL A   1      29.887  28.142  23.161  1.00  0.00     0.000 A 
ATOM     31  C   UNL A   1      32.110  28.837  22.632  1.00  0.00     0.000 A 
ATOM     32  C   UNL A   1      30.779  28.718  22.268  1.00  0.00     0.000 A 
ENDBRANCH   8  27
ENDBRANCH   5   8
ENDBRANCH   3   4
ENDBRANCH   2   3
ENDBRANCH   1   2
BRANCH   1  33
ATOM     33  C   UNL A   1      34.405  33.246  28.532  1.00  0.00     0.002 C 
BRANCH  33  34
ATOM     34  C   UNL A   1      33.292  34.294  28.570  1.00  0.00     0.021 C 
BRANCH  34  35
ATOM     35  C   UNL A   1      33.635  35.543  29.372  1.00  0.00     0.116 C 
BRANCH  35  36
ATOM     36  N   UNL A   1      32.676  35.786  30.437  1.00  0.00    -0.352 N 
ATOM     37  C   UNL A   1      32.721  35.388  31.750  1.00  0.00     0.251 C 
ATOM     38  H   UNL A   1      31.883  36.309  30.179  1.00  0.00     0.163 HD
ATOM     39  O   UNL A   1      31.736  35.502  32.468  1.00  0.00    -0.269 OA
BRANCH  37  40
ATOM     40  C   UNL A   1      33.966  34.798  32.285  1.00  0.00     0.039 A 
ATOM     41  C   UNL A   1      33.936  33.486  32.765  1.00  0.00     0.014 A 
ATOM     42  C   UNL A   1      35.156  35.529  32.299  1.00  0.00     0.014 A 
ATOM     43  C   UNL A   1      35.120  32.886  33.199  1.00  0.00     0.010 A 
ATOM     44  C   UNL A   1      36.346  34.905  32.660  1.00  0.00     0.010 A 
ATOM     45  C   UNL A   1      36.340  33.577  33.112  1.00  0.00    -0.014 A 
BRANCH  45  46
ATOM     46  C   UNL A   1      37.620  32.918  33.474  1.00  0.00     0.031 A 
ATOM     47  C   UNL A   1      38.227  31.886  32.564  1.00  0.00     0.074 A 
ATOM     48  C   UNL A   1      38.198  33.199  34.659  1.00  0.00     0.049 A 
ATOM     49  N   UNL A   1      39.301  31.159  32.742  1.00  0.00    -0.248 NA
ATOM     50  C   UNL A   1      37.524  31.620  31.298  1.00  0.00     0.031 C 
ATOM     51  C   UNL A   1      37.678  34.141  35.652  1.00  0.00     0.029 A 
ATOM     52  N   UNL A   1      39.343  32.709  35.236  1.00  0.00    -0.354 N 
ATOM     53  C   UNL A   1      39.391  30.339  31.624  1.00  0.00     0.074 A 
ATOM     54  C   UNL A   1      38.241  30.626  30.795  1.00  0.00     0.031 C 
ATOM     55  C   UNL A   1      38.507  34.172  36.707  1.00  0.00     0.029 A 
ATOM     56  C   UNL A   1      39.593  33.222  36.487  1.00  0.00     0.049 A 
ATOM     57  H   UNL A   1      39.930  32.052  34.797  1.00  0.00     0.167 HD
ATOM     58  C   UNL A   1      40.356  29.442  31.310  1.00  0.00     0.037 A 
ATOM     59  C   UNL A   1      40.574  32.944  37.366  1.00  0.00     0.037 A 
ATOM     60  C   UNL A   1      41.511  29.179  32.128  1.00  0.00     0.049 A 
ATOM     61  C   UNL A   1      41.628  31.938  36.994  1.00  0.00     0.074 A 
ATOM     62  C   UNL A   1      42.584  28.347  31.857  1.00  0.00     0.029 A 
ATOM     63  N   UNL A   1      41.738  29.732  33.379  1.00  0.00    -0.354 N 
ATOM     64  N   UNL A   1      41.750  31.237  35.893  1.00  0.00    -0.248 NA
ATOM     65  C   UNL A   1      42.686  31.687  37.984  1.00  0.00     0.031 C 
ATOM     66  C   UNL A   1      43.429  28.349  32.971  1.00  0.00     0.029 A 
ATOM     67  C   UNL A   1      42.916  29.231  33.908  1.00  0.00     0.049 A 
ATOM     68  H   UNL A   1      41.151  30.384  33.824  1.00  0.00     0.167 HD
ATOM     69  C   UNL A   1      42.907  30.483  36.047  1.00  0.00     0.074 A 
ATOM     70  C   UNL A   1      43.462  30.829  37.338  1.00  0.00     0.031 C 
ATOM     71  C   UNL A   1      43.460  29.586  35.194  1.00  0.00     0.037 A 
BRANCH  58  72
ATOM     72  C   UNL A   1      40.207  28.672  30.030  1.00  0.00     0.057 A 
ATOM     73  C   UNL A   1      39.420  27.515  29.945  1.00  0.00     0.134 A 
ATOM     74  C   UNL A   1      40.809  29.130  28.850  1.00  0.00     0.134 A 
ATOM     75  F   UNL A   1      38.822  27.018  31.038  1.00  0.00    -0.206 F 
ATOM     76  C   UNL A   1      39.254  26.831  28.740  1.00  0.00     0.040 A 
ATOM     77  C   UNL A   1      40.628  28.470  27.634  1.00  0.00     0.040 A 
ATOM     78  F   UNL A   1      41.570  30.235  28.859  1.00  0.00    -0.206 F 
ATOM     79  C   UNL A   1      39.852  27.315  27.577  1.00  0.00     0.006 A 
ENDBRANCH  58  72
BRANCH  59  80
ATOM     80  C   UNL A   1      40.608  33.625  38.687  1.00  0.00     0.057 A 
ATOM     81  C   UNL A   1      39.770  33.223  39.733  1.00  0.00     0.134 A 
ATOM     82  C   UNL A   1      41.463  34.707  38.927  1.00  0.00     0.134 A 
ATOM     83  F   UNL A   1      38.914  32.204  39.560  1.00  0.00    -0.206 F 
ATOM     84  C   UNL A   1      39.759  33.889  40.960  1.00  0.00     0.040 A 
ATOM     85  C   UNL A   1      41.486  35.363  40.159  1.00  0.00     0.040 A 
ATOM     86  F   UNL A   1      42.298  35.137  37.969  1.00  0.00    -0.206 F 
ATOM     87  C   UNL A   1      40.624  34.961  41.176  1.00  0.00     0.006 A 
ENDBRANCH  59  80
BRANCH  71  88
ATOM     88  C   UNL A   1      44.747  28.938  35.615  1.00  0.00     0.057 A 
ATOM     89  C   UNL A   1      45.994  29.502  35.315  1.00  0.00     0.134 A 
ATOM     90  C   UNL A   1      44.738  27.759  36.369  1.00  0.00     0.134 A 
ATOM     91  F   UNL A   1      46.075  30.626  34.585  1.00  0.00    -0.206 F 
ATOM     92  C   UNL A   1      47.185  28.904  35.731  1.00  0.00     0.040 A 
ATOM     93  C   UNL A   1      45.920  27.167  36.818  1.00  0.00     0.040 A 
ATOM     94  F   UNL A   1      43.578  27.171  36.701  1.00  0.00    -0.206 F 
ATOM     95  C   UNL A   1      47.148  27.737  36.491  1.00  0.00     0.006 A 
ENDBRANCH  71  88
ENDBRANCH  45  46
ENDBRANCH  37  40
ENDBRANCH  35  36
ENDBRANCH  34  35
ENDBRANCH  33  34
ENDBRANCH   1  33
TORSDOF 18
ENDMDL
MODEL 3
REMARK VINA RESULT:     -12.0      2.461      8.852
REMARK SMILES CCOc1ccc(C(=O)N2CCC(C(=O)NCCCCCCNC(=O)c3ccc(-c4c5nc(c(-c6c(F)cccc6F)c6ccc([nH]6)c(-c6c(F)cccc6F)c6nc(c(-c7c(F)cccc7F)c7ccc4[nH]7)C=C6)C=C5)cc3)(c3ccccc3)CC2)cc1OC
REMARK SMILES IDX 19 1 18 2 17 3 16 4 14 5 15 6 13 8 8 9 9 10 10 11 11 12
REMARK SMILES IDX 87 13 12 14 86 15 7 16 4 17 5 18 89 19 6 20 88 21 3 22 2 23
REMARK SMILES IDX 1 24 90 25 91 26 80 27 81 28 85 29 82 30 84 31 83 32 20 33
REMARK SMILES IDX 21 34 22 35 23 36 24 37 25 39 26 40 27 41 79 42 28 43 78 44
REMARK SMILES IDX 29 45 30 46 31 47 72 48 32 49 77 50 71 51 73 52 33 53 76 54
REMARK SMILES IDX 70 55 69 56 34 58 60 59 43 60 59 61 44 62 47 63 58 64 74 65
REMARK SMILES IDX 45 66 46 67 57 69 75 70 48 71 35 72 36 73 41 74 37 75 38 76
REMARK SMILES IDX 40 77 42 78 39 79 61 80 62 81 67 82 63 83 64 84 66 85 68 86
REMARK SMILES IDX 65 87 49 88 50 89 55 90 51 91 52 92 54 93 56 94 53 95
REMARK H PARENT 16 7 23 38 73 57 47 68
REMARK Flexibility Score: inf
ROOT
ATOM      1  C   UNL A   1      33.992  31.633  28.460  1.00  0.00     0.002 C 
ENDROOT
BRANCH   1   2
ATOM      2  C   UNL A   1      34.943  30.767  27.627  1.00  0.00     0.021 C 
BRANCH   2   3
ATOM      3  C   UNL A   1      34.254  29.608  26.910  1.00  0.00     0.116 C 
BRANCH   3   4
ATOM      4  N   UNL A   1      33.052  29.213  27.626  1.00  0.00    -0.355 N 
ATOM      5  C   UNL A   1      32.052  28.328  27.341  1.00  0.00     0.230 C 
ATOM      6  O   UNL A   1      31.075  28.446  28.084  1.00  0.00    -0.274 OA
ATOM      7  H   UNL A   1      32.937  29.675  28.489  1.00  0.00     0.163 HD
BRANCH   5   8
ATOM      8  C   UNL A   1      32.176  27.288  26.171  1.00  0.00     0.077 C 
ATOM      9  C   UNL A   1      34.099  23.373  26.328  1.00  0.00     0.253 C 
ATOM     10  O   UNL A   1      35.214  23.366  26.850  1.00  0.00    -0.269 OA
ATOM     11  N   UNL A   1      33.389  24.578  26.156  1.00  0.00    -0.339 N 
ATOM     12  C   UNL A   1      34.160  25.671  25.589  1.00  0.00     0.121 C 
ATOM     13  C   UNL A   1      31.933  24.700  26.150  1.00  0.00     0.121 C 
ATOM     14  C   UNL A   1      33.702  27.073  25.959  1.00  0.00     0.043 C 
ATOM     15  C   UNL A   1      31.407  26.026  26.664  1.00  0.00     0.043 C 
BRANCH   9  16
ATOM     16  C   UNL A   1      33.589  22.086  25.747  1.00  0.00     0.043 A 
ATOM     17  C   UNL A   1      32.828  19.623  24.570  1.00  0.00     0.161 A 
ATOM     18  C   UNL A   1      33.312  19.671  25.889  1.00  0.00     0.051 A 
ATOM     19  C   UNL A   1      32.692  20.807  23.854  1.00  0.00     0.161 A 
ATOM     20  C   UNL A   1      33.675  20.896  26.479  1.00  0.00     0.018 A 
ATOM     21  C   UNL A   1      33.151  21.993  24.429  1.00  0.00     0.064 A 
BRANCH  17  22
ATOM     22  O   UNL A   1      32.428  18.431  24.041  1.00  0.00    -0.490 OA
BRANCH  22  23
ATOM     23  C   UNL A   1      32.501  17.341  24.970  1.00  0.00     0.226 C 
ATOM     24  C   UNL A   1      33.260  16.194  24.320  1.00  0.00     0.049 C 
ENDBRANCH  22  23
ENDBRANCH  17  22
BRANCH  19  25
ATOM     25  O   UNL A   1      32.159  21.056  22.623  1.00  0.00    -0.493 OA
ATOM     26  C   UNL A   1      32.390  22.286  21.975  1.00  0.00     0.278 C 
ENDBRANCH  19  25
ENDBRANCH   9  16
BRANCH   8  27
ATOM     27  C   UNL A   1      31.547  27.716  24.793  1.00  0.00    -0.032 A 
ATOM     28  C   UNL A   1      30.836  28.910  24.585  1.00  0.00     0.005 A 
ATOM     29  C   UNL A   1      31.652  26.873  23.663  1.00  0.00     0.005 A 
ATOM     30  C   UNL A   1      30.278  29.243  23.341  1.00  0.00     0.000 A 
ATOM     31  C   UNL A   1      31.079  27.188  22.425  1.00  0.00     0.000 A 
ATOM     32  C   UNL A   1      30.392  28.379  22.262  1.00  0.00     0.000 A 
ENDBRANCH   8  27
ENDBRANCH   5   8
ENDBRANCH   3   4
ENDBRANCH   2   3
ENDBRANCH   1   2
BRANCH   1  33
ATOM     33  C   UNL A   1      34.409  33.100  28.593  1.00  0.00     0.002 C 
BRANCH  33  34
ATOM     34  C   UNL A   1      33.273  34.106  28.408  1.00  0.00     0.021 C 
BRANCH  34  35
ATOM     35  C   UNL A   1      33.591  35.510  28.909  1.00  0.00     0.116 C 
BRANCH  35  36
ATOM     36  N   UNL A   1      32.690  35.927  29.969  1.00  0.00    -0.352 N 
ATOM     37  C   UNL A   1      32.723  35.618  31.306  1.00  0.00     0.251 C 
ATOM     38  H   UNL A   1      31.950  36.513  29.689  1.00  0.00     0.163 HD
ATOM     39  O   UNL A   1      31.774  35.886  32.031  1.00  0.00    -0.269 OA
BRANCH  37  40
ATOM     40  C   UNL A   1      33.912  34.935  31.861  1.00  0.00     0.039 A 
ATOM     41  C   UNL A   1      33.735  33.742  32.564  1.00  0.00     0.014 A 
ATOM     42  C   UNL A   1      35.192  35.463  31.675  1.00  0.00     0.014 A 
ATOM     43  C   UNL A   1      34.852  33.042  33.025  1.00  0.00     0.010 A 
ATOM     44  C   UNL A   1      36.306  34.728  32.067  1.00  0.00     0.010 A 
ATOM     45  C   UNL A   1      36.147  33.510  32.745  1.00  0.00    -0.014 A 
BRANCH  45  46
ATOM     46  C   UNL A   1      37.345  32.727  33.140  1.00  0.00     0.031 A 
ATOM     47  C   UNL A   1      38.065  33.035  34.424  1.00  0.00     0.074 A 
ATOM     48  C   UNL A   1      37.826  31.785  32.305  1.00  0.00     0.049 A 
ATOM     49  N   UNL A   1      39.162  32.506  34.902  1.00  0.00    -0.248 NA
ATOM     50  C   UNL A   1      37.489  34.092  35.272  1.00  0.00     0.031 C 
ATOM     51  C   UNL A   1      37.249  31.431  31.006  1.00  0.00     0.029 A 
ATOM     52  N   UNL A   1      38.919  30.962  32.415  1.00  0.00    -0.354 N 
ATOM     53  C   UNL A   1      39.417  33.176  36.092  1.00  0.00     0.074 A 
ATOM     54  C   UNL A   1      38.387  34.179  36.242  1.00  0.00     0.031 C 
ATOM     55  C   UNL A   1      37.983  30.455  30.449  1.00  0.00     0.029 A 
ATOM     56  C   UNL A   1      39.106  30.144  31.327  1.00  0.00     0.049 A 
ATOM     57  H   UNL A   1      39.515  30.959  33.200  1.00  0.00     0.167 HD
ATOM     58  C   UNL A   1      40.411  32.960  36.987  1.00  0.00     0.037 A 
ATOM     59  C   UNL A   1      40.082  29.257  31.057  1.00  0.00     0.037 A 
ATOM     60  C   UNL A   1      41.420  31.942  36.844  1.00  0.00     0.049 A 
ATOM     61  C   UNL A   1      41.177  29.043  32.065  1.00  0.00     0.074 A 
ATOM     62  C   UNL A   1      42.421  31.594  37.734  1.00  0.00     0.029 A 
ATOM     63  N   UNL A   1      41.564  31.121  35.736  1.00  0.00    -0.354 N 
ATOM     64  N   UNL A   1      41.354  29.621  33.228  1.00  0.00    -0.248 NA
ATOM     65  C   UNL A   1      42.207  28.050  31.726  1.00  0.00     0.031 C 
ATOM     66  C   UNL A   1      43.208  30.604  37.139  1.00  0.00     0.029 A 
ATOM     67  C   UNL A   1      42.660  30.291  35.906  1.00  0.00     0.049 A 
ATOM     68  H   UNL A   1      40.976  31.126  34.947  1.00  0.00     0.167 HD
ATOM     69  C   UNL A   1      42.497  29.045  33.770  1.00  0.00     0.074 A 
ATOM     70  C   UNL A   1      42.959  28.058  32.817  1.00  0.00     0.031 C 
ATOM     71  C   UNL A   1      43.108  29.310  34.951  1.00  0.00     0.037 A 
BRANCH  58  72
ATOM     72  C   UNL A   1      40.464  33.841  38.201  1.00  0.00     0.057 A 
ATOM     73  C   UNL A   1      41.254  34.998  38.246  1.00  0.00     0.134 A 
ATOM     74  C   UNL A   1      39.666  33.561  39.318  1.00  0.00     0.134 A 
ATOM     75  F   UNL A   1      42.048  35.320  37.215  1.00  0.00    -0.206 F 
ATOM     76  C   UNL A   1      41.262  35.833  39.365  1.00  0.00     0.040 A 
ATOM     77  C   UNL A   1      39.645  34.403  40.431  1.00  0.00     0.040 A 
ATOM     78  F   UNL A   1      38.881  32.473  39.339  1.00  0.00    -0.206 F 
ATOM     79  C   UNL A   1      40.448  35.541  40.458  1.00  0.00     0.006 A 
ENDBRANCH  58  72
BRANCH  59  80
ATOM     80  C   UNL A   1      40.074  28.504  29.775  1.00  0.00     0.057 A 
ATOM     81  C   UNL A   1      40.790  28.957  28.661  1.00  0.00     0.134 A 
ATOM     82  C   UNL A   1      39.331  27.327  29.626  1.00  0.00     0.134 A 
ATOM     83  F   UNL A   1      41.507  30.089  28.734  1.00  0.00    -0.206 F 
ATOM     84  C   UNL A   1      40.747  28.283  27.439  1.00  0.00     0.040 A 
ATOM     85  C   UNL A   1      39.303  26.626  28.420  1.00  0.00     0.040 A 
ATOM     86  F   UNL A   1      38.628  26.834  30.658  1.00  0.00    -0.206 F 
ATOM     87  C   UNL A   1      40.004  27.110  27.318  1.00  0.00     0.006 A 
ENDBRANCH  59  80
BRANCH  71  88
ATOM     88  C   UNL A   1      44.324  28.499  35.295  1.00  0.00     0.057 A 
ATOM     89  C   UNL A   1      45.620  28.953  35.020  1.00  0.00     0.134 A 
ATOM     90  C   UNL A   1      44.197  27.268  35.951  1.00  0.00     0.134 A 
ATOM     91  F   UNL A   1      45.812  30.118  34.382  1.00  0.00    -0.206 F 
ATOM     92  C   UNL A   1      46.745  28.201  35.365  1.00  0.00     0.040 A 
ATOM     93  C   UNL A   1      45.314  26.522  36.329  1.00  0.00     0.040 A 
ATOM     94  F   UNL A   1      42.985  26.779  36.254  1.00  0.00    -0.206 F 
ATOM     95  C   UNL A   1      46.593  26.986  36.028  1.00  0.00     0.006 A 
ENDBRANCH  71  88
ENDBRANCH  45  46
ENDBRANCH  37  40
ENDBRANCH  35  36
ENDBRANCH  34  35
ENDBRANCH  33  34
ENDBRANCH   1  33
TORSDOF 18
ENDMDL
