MODEL 1
REMARK VINA RESULT:     -11.2      0.000      0.000
REMARK SMILES Cn1c(COc2ccc(C(=O)NCCCCCCNC(=O)c3ccc(-c4c5nc(c(-c6c(F)cccc6F)c6ccc([nH]6)c(-c6c(F)cccc6F)c6nc(c(-c7c(F)cccc7F)c7ccc4[nH]7)C=C6)C=C5)cc3)cc2)nc2ccccc21
REMARK SMILES IDX 15 1 14 2 13 3 12 4 10 5 11 6 9 8 6 9 7 10 77 11 8 12 76 13
REMARK SMILES IDX 5 14 4 15 3 16 1 17 2 18 84 19 78 20 79 21 83 22 80 23 82 24
REMARK SMILES IDX 81 25 16 26 17 27 18 28 19 29 20 30 21 32 22 33 23 34 75 35
REMARK SMILES IDX 24 36 74 37 25 38 26 39 27 40 68 41 28 42 73 43 67 44 69 45
REMARK SMILES IDX 29 46 72 47 66 48 65 49 30 51 56 52 39 53 55 54 40 55 43 56
REMARK SMILES IDX 54 57 70 58 41 59 42 60 53 62 71 63 44 64 31 65 32 66 37 67
REMARK SMILES IDX 33 68 34 69 36 70 38 71 35 72 57 73 58 74 63 75 59 76 60 77
REMARK SMILES IDX 62 78 64 79 61 80 45 81 46 82 51 83 47 84 48 85 50 86 52 87
REMARK SMILES IDX 49 88
REMARK H PARENT 12 7 19 31 69 50 43 61
REMARK Flexibility Score: inf
ROOT
ATOM      1  C   UNL A   1      33.326  28.584  23.563  1.00  0.00     0.002 C 
ENDROOT
BRANCH   1   2
ATOM      2  C   UNL A   1      31.845  28.945  23.378  1.00  0.00     0.021 C 
BRANCH   2   3
ATOM      3  C   UNL A   1      31.116  28.050  22.374  1.00  0.00     0.116 C 
BRANCH   3   4
ATOM      4  N   UNL A   1      29.722  27.885  22.750  1.00  0.00    -0.352 N 
ATOM      5  C   UNL A   1      29.115  26.988  23.593  1.00  0.00     0.251 C 
ATOM      6  O   UNL A   1      27.913  27.109  23.820  1.00  0.00    -0.269 OA
ATOM      7  H   UNL A   1      29.108  28.527  22.327  1.00  0.00     0.163 HD
BRANCH   5   8
ATOM      8  C   UNL A   1      29.882  25.924  24.286  1.00  0.00     0.040 A 
ATOM      9  C   UNL A   1      31.210  23.796  25.508  1.00  0.00     0.120 A 
ATOM     10  C   UNL A   1      30.972  23.754  24.138  1.00  0.00     0.047 A 
ATOM     11  C   UNL A   1      30.892  24.934  26.246  1.00  0.00     0.047 A 
ATOM     12  C   UNL A   1      30.305  24.821  23.527  1.00  0.00     0.017 A 
ATOM     13  C   UNL A   1      30.231  25.999  25.636  1.00  0.00     0.017 A 
BRANCH   9  14
ATOM     14  O   UNL A   1      31.832  22.746  26.129  1.00  0.00    -0.486 OA
BRANCH  14  15
ATOM     15  C   UNL A   1      32.439  21.840  25.181  1.00  0.00     0.304 C 
BRANCH  15  16
ATOM     16  C   UNL A   1      33.929  22.026  25.170  1.00  0.00     0.147 A 
ATOM     17  C   UNL A   1      34.607  19.620  24.723  1.00  0.00     0.151 C 
ATOM     18  N   UNL A   1      34.852  21.010  25.027  1.00  0.00    -0.328 N 
ATOM     19  C   UNL A   1      36.104  21.525  25.290  1.00  0.00     0.068 A 
ATOM     20  N   UNL A   1      34.548  23.176  25.380  1.00  0.00    -0.229 NA
ATOM     21  C   UNL A   1      35.877  22.878  25.505  1.00  0.00     0.089 A 
ATOM     22  C   UNL A   1      37.380  20.951  25.372  1.00  0.00     0.028 A 
ATOM     23  C   UNL A   1      36.952  23.717  25.834  1.00  0.00     0.030 A 
ATOM     24  C   UNL A   1      38.441  21.802  25.708  1.00  0.00     0.002 A 
ATOM     25  C   UNL A   1      38.232  23.162  25.940  1.00  0.00     0.002 A 
ENDBRANCH  15  16
ENDBRANCH  14  15
ENDBRANCH   9  14
ENDBRANCH   5   8
ENDBRANCH   3   4
ENDBRANCH   2   3
ENDBRANCH   1   2
BRANCH   1  26
ATOM     26  C   UNL A   1      33.645  27.791  24.835  1.00  0.00     0.002 C 
BRANCH  26  27
ATOM     27  C   UNL A   1      32.924  28.271  26.098  1.00  0.00     0.021 C 
BRANCH  27  28
ATOM     28  C   UNL A   1      33.842  28.555  27.283  1.00  0.00     0.116 C 
BRANCH  28  29
ATOM     29  N   UNL A   1      33.781  29.948  27.694  1.00  0.00    -0.352 N 
ATOM     30  C   UNL A   1      34.714  30.702  28.362  1.00  0.00     0.251 C 
ATOM     31  H   UNL A   1      32.949  30.421  27.459  1.00  0.00     0.163 HD
ATOM     32  O   UNL A   1      34.412  31.797  28.821  1.00  0.00    -0.269 OA
BRANCH  30  33
ATOM     33  C   UNL A   1      36.087  30.182  28.541  1.00  0.00     0.039 A 
ATOM     34  C   UNL A   1      36.973  30.223  27.461  1.00  0.00     0.014 A 
ATOM     35  C   UNL A   1      36.491  29.637  29.763  1.00  0.00     0.014 A 
ATOM     36  C   UNL A   1      38.283  29.767  27.623  1.00  0.00     0.010 A 
ATOM     37  C   UNL A   1      37.816  29.247  29.942  1.00  0.00     0.010 A 
ATOM     38  C   UNL A   1      38.723  29.304  28.873  1.00  0.00    -0.014 A 
BRANCH  38  39
ATOM     39  C   UNL A   1      40.127  28.868  29.082  1.00  0.00     0.031 A 
ATOM     40  C   UNL A   1      41.127  29.810  29.693  1.00  0.00     0.074 A 
ATOM     41  C   UNL A   1      40.513  27.646  28.670  1.00  0.00     0.049 A 
ATOM     42  N   UNL A   1      42.410  29.641  29.889  1.00  0.00    -0.248 NA
ATOM     43  C   UNL A   1      40.623  31.125  30.120  1.00  0.00     0.031 C 
ATOM     44  C   UNL A   1      39.646  26.652  28.031  1.00  0.00     0.029 A 
ATOM     45  N   UNL A   1      41.739  27.031  28.719  1.00  0.00    -0.354 N 
ATOM     46  C   UNL A   1      42.865  30.825  30.453  1.00  0.00     0.074 A 
ATOM     47  C   UNL A   1      41.735  31.726  30.515  1.00  0.00     0.031 C 
ATOM     48  C   UNL A   1      40.361  25.546  27.772  1.00  0.00     0.029 A 
ATOM     49  C   UNL A   1      41.742  25.764  28.188  1.00  0.00     0.049 A 
ATOM     50  H   UNL A   1      42.540  27.458  29.100  1.00  0.00     0.167 HD
ATOM     51  C   UNL A   1      44.107  31.128  30.901  1.00  0.00     0.037 A 
ATOM     52  C   UNL A   1      42.750  24.881  28.047  1.00  0.00     0.037 A 
ATOM     53  C   UNL A   1      45.227  30.225  30.856  1.00  0.00     0.049 A 
ATOM     54  C   UNL A   1      44.124  25.252  28.531  1.00  0.00     0.074 A 
ATOM     55  C   UNL A   1      46.515  30.423  31.318  1.00  0.00     0.029 A 
ATOM     56  N   UNL A   1      45.188  28.948  30.317  1.00  0.00    -0.354 N 
ATOM     57  N   UNL A   1      44.528  26.358  29.108  1.00  0.00    -0.248 NA
ATOM     58  C   UNL A   1      45.183  24.249  28.346  1.00  0.00     0.031 C 
ATOM     59  C   UNL A   1      47.267  29.281  31.025  1.00  0.00     0.029 A 
ATOM     60  C   UNL A   1      46.435  28.353  30.421  1.00  0.00     0.049 A 
ATOM     61  H   UNL A   1      44.392  28.526  29.919  1.00  0.00     0.167 HD
ATOM     62  C   UNL A   1      45.876  26.170  29.386  1.00  0.00     0.074 A 
ATOM     63  C   UNL A   1      46.218  24.842  28.925  1.00  0.00     0.031 C 
ATOM     64  C   UNL A   1      46.753  27.023  29.971  1.00  0.00     0.037 A 
BRANCH  51  65
ATOM     65  C   UNL A   1      44.316  32.493  31.493  1.00  0.00     0.057 A 
ATOM     66  C   UNL A   1      44.631  33.599  30.694  1.00  0.00     0.134 A 
ATOM     67  C   UNL A   1      44.165  32.711  32.868  1.00  0.00     0.134 A 
ATOM     68  F   UNL A   1      44.802  33.456  29.370  1.00  0.00    -0.206 F 
ATOM     69  C   UNL A   1      44.812  34.870  31.244  1.00  0.00     0.040 A 
ATOM     70  C   UNL A   1      44.317  33.982  33.426  1.00  0.00     0.040 A 
ATOM     71  F   UNL A   1      43.857  31.696  33.689  1.00  0.00    -0.206 F 
ATOM     72  C   UNL A   1      44.647  35.065  32.613  1.00  0.00     0.006 A 
ENDBRANCH  51  65
BRANCH  52  73
ATOM     73  C   UNL A   1      42.497  23.548  27.442  1.00  0.00     0.057 A 
ATOM     74  C   UNL A   1      42.589  23.358  26.058  1.00  0.00     0.134 A 
ATOM     75  C   UNL A   1      42.134  22.445  28.222  1.00  0.00     0.134 A 
ATOM     76  F   UNL A   1      42.914  24.383  25.257  1.00  0.00    -0.206 F 
ATOM     77  C   UNL A   1      42.303  22.126  25.468  1.00  0.00     0.040 A 
ATOM     78  C   UNL A   1      41.870  21.199  27.648  1.00  0.00     0.040 A 
ATOM     79  F   UNL A   1      42.037  22.558  29.556  1.00  0.00    -0.206 F 
ATOM     80  C   UNL A   1      41.945  21.041  26.266  1.00  0.00     0.006 A 
ENDBRANCH  52  73
BRANCH  64  81
ATOM     81  C   UNL A   1      48.153  26.527  30.185  1.00  0.00     0.057 A 
ATOM     82  C   UNL A   1      48.523  25.830  31.342  1.00  0.00     0.134 A 
ATOM     83  C   UNL A   1      49.134  26.722  29.205  1.00  0.00     0.134 A 
ATOM     84  F   UNL A   1      47.633  25.624  32.325  1.00  0.00    -0.206 F 
ATOM     85  C   UNL A   1      49.825  25.362  31.525  1.00  0.00     0.040 A 
ATOM     86  C   UNL A   1      50.432  26.236  29.364  1.00  0.00     0.040 A 
ATOM     87  F   UNL A   1      48.842  27.374  28.069  1.00  0.00    -0.206 F 
ATOM     88  C   UNL A   1      50.782  25.560  30.530  1.00  0.00     0.006 A 
ENDBRANCH  64  81
ENDBRANCH  38  39
ENDBRANCH  30  33
ENDBRANCH  28  29
ENDBRANCH  27  28
ENDBRANCH  26  27
ENDBRANCH   1  26
TORSDOF 16
ENDMDL
MODEL 2
REMARK VINA RESULT:     -11.1      2.665      4.055
REMARK SMILES Cn1c(COc2ccc(C(=O)NCCCCCCNC(=O)c3ccc(-c4c5nc(c(-c6c(F)cccc6F)c6ccc([nH]6)c(-c6c(F)cccc6F)c6nc(c(-c7c(F)cccc7F)c7ccc4[nH]7)C=C6)C=C5)cc3)cc2)nc2ccccc21
REMARK SMILES IDX 15 1 14 2 13 3 12 4 10 5 11 6 9 8 6 9 7 10 77 11 8 12 76 13
REMARK SMILES IDX 5 14 4 15 3 16 1 17 2 18 84 19 78 20 79 21 83 22 80 23 82 24
REMARK SMILES IDX 81 25 16 26 17 27 18 28 19 29 20 30 21 32 22 33 23 34 75 35
REMARK SMILES IDX 24 36 74 37 25 38 26 39 27 40 68 41 28 42 73 43 67 44 69 45
REMARK SMILES IDX 29 46 72 47 66 48 65 49 30 51 56 52 39 53 55 54 40 55 43 56
REMARK SMILES IDX 54 57 70 58 41 59 42 60 53 62 71 63 44 64 31 65 32 66 37 67
REMARK SMILES IDX 33 68 34 69 36 70 38 71 35 72 57 73 58 74 63 75 59 76 60 77
REMARK SMILES IDX 62 78 64 79 61 80 45 81 46 82 51 83 47 84 48 85 50 86 52 87
REMARK SMILES IDX 49 88
REMARK H PARENT 12 7 19 31 69 50 43 61
REMARK Flexibility Score: inf
ROOT
ATOM      1  C   UNL A   1      32.771  30.011  25.854  1.00  0.00     0.002 C 
ENDROOT
BRANCH   1   2
ATOM      2  C   UNL A   1      32.949  28.774  24.963  1.00  0.00     0.021 C 
BRANCH   2   3
ATOM      3  C   UNL A   1      33.251  29.109  23.501  1.00  0.00     0.116 C 
BRANCH   3   4
ATOM      4  N   UNL A   1      32.025  29.399  22.777  1.00  0.00    -0.352 N 
ATOM      5  C   UNL A   1      30.984  28.585  22.403  1.00  0.00     0.251 C 
ATOM      6  O   UNL A   1      30.001  29.090  21.866  1.00  0.00    -0.269 OA
ATOM      7  H   UNL A   1      31.923  30.339  22.507  1.00  0.00     0.163 HD
BRANCH   5   8
ATOM      8  C   UNL A   1      30.988  27.129  22.691  1.00  0.00     0.040 A 
ATOM      9  C   UNL A   1      31.009  24.435  23.416  1.00  0.00     0.120 A 
ATOM     10  C   UNL A   1      30.141  25.308  24.062  1.00  0.00     0.047 A 
ATOM     11  C   UNL A   1      31.780  24.873  22.341  1.00  0.00     0.047 A 
ATOM     12  C   UNL A   1      30.132  26.658  23.699  1.00  0.00     0.017 A 
ATOM     13  C   UNL A   1      31.768  26.218  21.976  1.00  0.00     0.017 A 
BRANCH   9  14
ATOM     14  O   UNL A   1      31.055  23.116  23.780  1.00  0.00    -0.486 OA
BRANCH  14  15
ATOM     15  C   UNL A   1      31.389  22.952  25.177  1.00  0.00     0.304 C 
BRANCH  15  16
ATOM     16  C   UNL A   1      32.847  22.626  25.324  1.00  0.00     0.147 A 
ATOM     17  C   UNL A   1      33.716  24.970  25.768  1.00  0.00     0.151 C 
ATOM     18  N   UNL A   1      33.849  23.554  25.522  1.00  0.00    -0.328 N 
ATOM     19  C   UNL A   1      35.062  22.914  25.385  1.00  0.00     0.068 A 
ATOM     20  N   UNL A   1      33.366  21.416  25.199  1.00  0.00    -0.229 NA
ATOM     21  C   UNL A   1      34.725  21.582  25.184  1.00  0.00     0.089 A 
ATOM     22  C   UNL A   1      36.391  23.361  25.401  1.00  0.00     0.028 A 
ATOM     23  C   UNL A   1      35.736  20.634  24.973  1.00  0.00     0.030 A 
ATOM     24  C   UNL A   1      37.388  22.403  25.182  1.00  0.00     0.002 A 
ATOM     25  C   UNL A   1      37.069  21.061  24.967  1.00  0.00     0.002 A 
ENDBRANCH  15  16
ENDBRANCH  14  15
ENDBRANCH   9  14
ENDBRANCH   5   8
ENDBRANCH   3   4
ENDBRANCH   2   3
ENDBRANCH   1   2
BRANCH   1  26
ATOM     26  C   UNL A   1      31.364  30.619  25.844  1.00  0.00     0.002 C 
BRANCH  26  27
ATOM     27  C   UNL A   1      31.244  31.990  26.516  1.00  0.00     0.021 C 
BRANCH  27  28
ATOM     28  C   UNL A   1      32.531  32.495  27.160  1.00  0.00     0.116 C 
BRANCH  28  29
ATOM     29  N   UNL A   1      32.398  33.862  27.639  1.00  0.00    -0.352 N 
ATOM     30  C   UNL A   1      33.155  34.540  28.561  1.00  0.00     0.251 C 
ATOM     31  H   UNL A   1      31.656  34.375  27.243  1.00  0.00     0.163 HD
ATOM     32  O   UNL A   1      32.769  35.615  29.008  1.00  0.00    -0.269 OA
BRANCH  30  33
ATOM     33  C   UNL A   1      34.434  33.965  29.029  1.00  0.00     0.039 A 
ATOM     34  C   UNL A   1      34.436  33.162  30.173  1.00  0.00     0.014 A 
ATOM     35  C   UNL A   1      35.628  34.235  28.356  1.00  0.00     0.014 A 
ATOM     36  C   UNL A   1      35.630  32.584  30.609  1.00  0.00     0.010 A 
ATOM     37  C   UNL A   1      36.805  33.603  28.753  1.00  0.00     0.010 A 
ATOM     38  C   UNL A   1      36.817  32.775  29.886  1.00  0.00    -0.014 A 
BRANCH  38  39
ATOM     39  C   UNL A   1      38.085  32.124  30.300  1.00  0.00     0.031 A 
ATOM     40  C   UNL A   1      38.986  32.795  31.299  1.00  0.00     0.074 A 
ATOM     41  C   UNL A   1      38.451  30.957  29.736  1.00  0.00     0.049 A 
ATOM     42  N   UNL A   1      40.165  32.422  31.732  1.00  0.00    -0.248 NA
ATOM     43  C   UNL A   1      38.512  34.065  31.871  1.00  0.00     0.031 C 
ATOM     44  C   UNL A   1      37.680  30.224  28.729  1.00  0.00     0.029 A 
ATOM     45  N   UNL A   1      39.570  30.186  29.923  1.00  0.00    -0.354 N 
ATOM     46  C   UNL A   1      40.572  33.412  32.617  1.00  0.00     0.074 A 
ATOM     47  C   UNL A   1      39.544  34.429  32.618  1.00  0.00     0.031 C 
ATOM     48  C   UNL A   1      38.337  29.098  28.407  1.00  0.00     0.029 A 
ATOM     49  C   UNL A   1      39.591  29.049  29.151  1.00  0.00     0.049 A 
ATOM     50  H   UNL A   1      40.290  30.424  30.550  1.00  0.00     0.167 HD
ATOM     51  C   UNL A   1      41.690  33.458  33.380  1.00  0.00     0.037 A 
ATOM     52  C   UNL A   1      40.521  28.079  29.053  1.00  0.00     0.037 A 
ATOM     53  C   UNL A   1      42.705  32.436  33.392  1.00  0.00     0.049 A 
ATOM     54  C   UNL A   1      41.766  28.168  29.893  1.00  0.00     0.074 A 
ATOM     55  C   UNL A   1      43.856  32.372  34.157  1.00  0.00     0.029 A 
ATOM     56  N   UNL A   1      42.685  31.297  32.602  1.00  0.00    -0.354 N 
ATOM     57  N   UNL A   1      42.113  29.085  30.763  1.00  0.00    -0.248 NA
ATOM     58  C   UNL A   1      42.746  27.083  29.738  1.00  0.00     0.031 C 
ATOM     59  C   UNL A   1      44.553  31.213  33.802  1.00  0.00     0.029 A 
ATOM     60  C   UNL A   1      43.813  30.531  32.850  1.00  0.00     0.049 A 
ATOM     61  H   UNL A   1      41.975  31.066  31.960  1.00  0.00     0.167 HD
ATOM     62  C   UNL A   1      43.333  28.671  31.283  1.00  0.00     0.074 A 
ATOM     63  C   UNL A   1      43.658  27.416  30.640  1.00  0.00     0.031 C 
ATOM     64  C   UNL A   1      44.113  29.276  32.212  1.00  0.00     0.037 A 
BRANCH  51  65
ATOM     65  C   UNL A   1      41.869  34.650  34.275  1.00  0.00     0.057 A 
ATOM     66  C   UNL A   1      42.460  35.833  33.815  1.00  0.00     0.134 A 
ATOM     67  C   UNL A   1      41.413  34.629  35.599  1.00  0.00     0.134 A 
ATOM     68  F   UNL A   1      42.929  35.915  32.559  1.00  0.00    -0.206 F 
ATOM     69  C   UNL A   1      42.613  36.945  34.644  1.00  0.00     0.040 A 
ATOM     70  C   UNL A   1      41.537  35.744  36.431  1.00  0.00     0.040 A 
ATOM     71  F   UNL A   1      40.831  33.530  36.103  1.00  0.00    -0.206 F 
ATOM     72  C   UNL A   1      42.143  36.905  35.955  1.00  0.00     0.006 A 
ENDBRANCH  51  65
BRANCH  52  73
ATOM     73  C   UNL A   1      40.307  26.927  28.141  1.00  0.00     0.057 A 
ATOM     74  C   UNL A   1      39.538  25.827  28.542  1.00  0.00     0.134 A 
ATOM     75  C   UNL A   1      40.881  26.882  26.866  1.00  0.00     0.134 A 
ATOM     76  F   UNL A   1      38.978  25.804  29.760  1.00  0.00    -0.206 F 
ATOM     77  C   UNL A   1      39.371  24.712  27.718  1.00  0.00     0.040 A 
ATOM     78  C   UNL A   1      40.700  25.785  26.021  1.00  0.00     0.040 A 
ATOM     79  F   UNL A   1      41.621  27.908  26.419  1.00  0.00    -0.206 F 
ATOM     80  C   UNL A   1      39.951  24.692  26.451  1.00  0.00     0.006 A 
ENDBRANCH  52  73
BRANCH  64  81
ATOM     81  C   UNL A   1      45.371  28.566  32.619  1.00  0.00     0.057 A 
ATOM     82  C   UNL A   1      46.595  28.805  31.982  1.00  0.00     0.134 A 
ATOM     83  C   UNL A   1      45.362  27.659  33.685  1.00  0.00     0.134 A 
ATOM     84  F   UNL A   1      46.668  29.651  30.943  1.00  0.00    -0.206 F 
ATOM     85  C   UNL A   1      47.761  28.148  32.377  1.00  0.00     0.040 A 
ATOM     86  C   UNL A   1      46.526  27.016  34.107  1.00  0.00     0.040 A 
ATOM     87  F   UNL A   1      44.223  27.393  34.343  1.00  0.00    -0.206 F 
ATOM     88  C   UNL A   1      47.729  27.255  33.447  1.00  0.00     0.006 A 
ENDBRANCH  64  81
ENDBRANCH  38  39
ENDBRANCH  30  33
ENDBRANCH  28  29
ENDBRANCH  27  28
ENDBRANCH  26  27
ENDBRANCH   1  26
TORSDOF 16
ENDMDL
MODEL 3
REMARK VINA RESULT:     -11.1      2.956      7.180
REMARK SMILES Cn1c(COc2ccc(C(=O)NCCCCCCNC(=O)c3ccc(-c4c5nc(c(-c6c(F)cccc6F)c6ccc([nH]6)c(-c6c(F)cccc6F)c6nc(c(-c7c(F)cccc7F)c7ccc4[nH]7)C=C6)C=C5)cc3)cc2)nc2ccccc21
REMARK SMILES IDX 15 1 14 2 13 3 12 4 10 5 11 6 9 8 6 9 7 10 77 11 8 12 76 13
REMARK SMILES IDX 5 14 4 15 3 16 1 17 2 18 84 19 78 20 79 21 83 22 80 23 82 24
REMARK SMILES IDX 81 25 16 26 17 27 18 28 19 29 20 30 21 32 22 33 23 34 75 35
REMARK SMILES IDX 24 36 74 37 25 38 26 39 27 40 68 41 28 42 73 43 67 44 69 45
REMARK SMILES IDX 29 46 72 47 66 48 65 49 30 51 56 52 39 53 55 54 40 55 43 56
REMARK SMILES IDX 54 57 70 58 41 59 42 60 53 62 71 63 44 64 31 65 32 66 37 67
REMARK SMILES IDX 33 68 34 69 36 70 38 71 35 72 57 73 58 74 63 75 59 76 60 77
REMARK SMILES IDX 62 78 64 79 61 80 45 81 46 82 51 83 47 84 48 85 50 86 52 87
REMARK SMILES IDX 49 88
REMARK H PARENT 12 7 19 31 69 50 43 61
REMARK Flexibility Score: inf
ROOT
ATOM      1  C   UNL A   1      32.958  29.996  25.650  1.00  0.00     0.002 C 
ENDROOT
BRANCH   1   2
ATOM      2  C   UNL A   1      33.107  28.743  24.775  1.00  0.00     0.021 C 
BRANCH   2   3
ATOM      3  C   UNL A   1      33.373  29.052  23.301  1.00  0.00     0.116 C 
BRANCH   3   4
ATOM      4  N   UNL A   1      32.133  29.365  22.611  1.00  0.00    -0.352 N 
ATOM      5  C   UNL A   1      31.008  28.611  22.390  1.00  0.00     0.251 C 
ATOM      6  O   UNL A   1      30.039  29.137  21.847  1.00  0.00    -0.269 OA
ATOM      7  H   UNL A   1      32.094  30.274  22.236  1.00  0.00     0.163 HD
BRANCH   5   8
ATOM      8  C   UNL A   1      30.907  27.203  22.850  1.00  0.00     0.040 A 
ATOM      9  C   UNL A   1      30.761  24.617  23.887  1.00  0.00     0.120 A 
ATOM     10  C   UNL A   1      30.072  25.646  24.521  1.00  0.00     0.047 A 
ATOM     11  C   UNL A   1      31.426  24.848  22.685  1.00  0.00     0.047 A 
ATOM     12  C   UNL A   1      30.147  26.942  24.001  1.00  0.00     0.017 A 
ATOM     13  C   UNL A   1      31.497  26.140  22.164  1.00  0.00     0.017 A 
BRANCH   9  14
ATOM     14  O   UNL A   1      30.725  23.349  24.401  1.00  0.00    -0.486 OA
BRANCH  14  15
ATOM     15  C   UNL A   1      31.443  23.251  25.651  1.00  0.00     0.304 C 
BRANCH  15  16
ATOM     16  C   UNL A   1      32.900  22.998  25.392  1.00  0.00     0.147 A 
ATOM     17  C   UNL A   1      32.733  20.584  24.623  1.00  0.00     0.151 C 
ATOM     18  N   UNL A   1      33.435  21.788  24.999  1.00  0.00    -0.328 N 
ATOM     19  C   UNL A   1      34.808  21.877  25.079  1.00  0.00     0.068 A 
ATOM     20  N   UNL A   1      33.867  23.879  25.589  1.00  0.00    -0.229 NA
ATOM     21  C   UNL A   1      35.043  23.195  25.450  1.00  0.00     0.089 A 
ATOM     22  C   UNL A   1      35.844  20.953  24.883  1.00  0.00     0.028 A 
ATOM     23  C   UNL A   1      36.359  23.633  25.655  1.00  0.00     0.030 A 
ATOM     24  C   UNL A   1      37.151  21.405  25.098  1.00  0.00     0.002 A 
ATOM     25  C   UNL A   1      37.408  22.723  25.482  1.00  0.00     0.002 A 
ENDBRANCH  15  16
ENDBRANCH  14  15
ENDBRANCH   9  14
ENDBRANCH   5   8
ENDBRANCH   3   4
ENDBRANCH   2   3
ENDBRANCH   1   2
BRANCH   1  26
ATOM     26  C   UNL A   1      31.512  30.401  25.959  1.00  0.00     0.002 C 
BRANCH  26  27
ATOM     27  C   UNL A   1      31.339  31.817  26.516  1.00  0.00     0.021 C 
BRANCH  27  28
ATOM     28  C   UNL A   1      32.594  32.404  27.155  1.00  0.00     0.116 C 
BRANCH  28  29
ATOM     29  N   UNL A   1      32.410  33.798  27.528  1.00  0.00    -0.352 N 
ATOM     30  C   UNL A   1      33.106  34.556  28.436  1.00  0.00     0.251 C 
ATOM     31  H   UNL A   1      31.681  34.266  27.060  1.00  0.00     0.163 HD
ATOM     32  O   UNL A   1      32.679  35.650  28.785  1.00  0.00    -0.269 OA
BRANCH  30  33
ATOM     33  C   UNL A   1      34.370  34.043  29.008  1.00  0.00     0.039 A 
ATOM     34  C   UNL A   1      34.320  33.263  30.166  1.00  0.00     0.014 A 
ATOM     35  C   UNL A   1      35.598  34.350  28.417  1.00  0.00     0.014 A 
ATOM     36  C   UNL A   1      35.501  32.743  30.700  1.00  0.00     0.010 A 
ATOM     37  C   UNL A   1      36.767  33.775  28.912  1.00  0.00     0.010 A 
ATOM     38  C   UNL A   1      36.730  32.970  30.060  1.00  0.00    -0.014 A 
BRANCH  38  39
ATOM     39  C   UNL A   1      37.989  32.380  30.579  1.00  0.00     0.031 A 
ATOM     40  C   UNL A   1      38.522  31.102  29.992  1.00  0.00     0.074 A 
ATOM     41  C   UNL A   1      38.621  32.963  31.615  1.00  0.00     0.049 A 
ATOM     42  N   UNL A   1      39.563  30.395  30.357  1.00  0.00    -0.248 NA
ATOM     43  C   UNL A   1      37.775  30.531  28.861  1.00  0.00     0.031 C 
ATOM     44  C   UNL A   1      38.186  34.186  32.295  1.00  0.00     0.029 A 
ATOM     45  N   UNL A   1      39.763  32.602  32.285  1.00  0.00    -0.354 N 
ATOM     46  C   UNL A   1      39.589  29.298  29.507  1.00  0.00     0.074 A 
ATOM     47  C   UNL A   1      38.431  29.400  28.646  1.00  0.00     0.031 C 
ATOM     48  C   UNL A   1      39.062  34.486  33.267  1.00  0.00     0.029 A 
ATOM     49  C   UNL A   1      40.097  33.459  33.306  1.00  0.00     0.049 A 
ATOM     50  H   UNL A   1      40.292  31.804  32.056  1.00  0.00     0.167 HD
ATOM     51  C   UNL A   1      40.509  28.306  29.432  1.00  0.00     0.037 A 
ATOM     52  C   UNL A   1      41.122  33.415  34.180  1.00  0.00     0.037 A 
ATOM     53  C   UNL A   1      41.671  28.215  30.276  1.00  0.00     0.049 A 
ATOM     54  C   UNL A   1      42.115  32.289  34.091  1.00  0.00     0.074 A 
ATOM     55  C   UNL A   1      42.681  27.270  30.255  1.00  0.00     0.029 A 
ATOM     56  N   UNL A   1      41.979  29.105  31.293  1.00  0.00    -0.354 N 
ATOM     57  N   UNL A   1      42.155  31.285  33.249  1.00  0.00    -0.248 NA
ATOM     58  C   UNL A   1      43.208  32.293  35.074  1.00  0.00     0.031 C 
ATOM     59  C   UNL A   1      43.581  27.566  31.284  1.00  0.00     0.029 A 
ATOM     60  C   UNL A   1      43.155  28.723  31.916  1.00  0.00     0.049 A 
ATOM     61  H   UNL A   1      41.441  29.894  31.536  1.00  0.00     0.167 HD
ATOM     62  C   UNL A   1      43.292  30.559  33.577  1.00  0.00     0.074 A 
ATOM     63  C   UNL A   1      43.921  31.243  34.687  1.00  0.00     0.031 C 
ATOM     64  C   UNL A   1      43.774  29.426  33.010  1.00  0.00     0.037 A 
BRANCH  51  65
ATOM     65  C   UNL A   1      40.299  27.244  28.391  1.00  0.00     0.057 A 
ATOM     66  C   UNL A   1      40.895  27.327  27.126  1.00  0.00     0.134 A 
ATOM     67  C   UNL A   1      39.526  26.110  28.667  1.00  0.00     0.134 A 
ATOM     68  F   UNL A   1      41.639  28.394  26.794  1.00  0.00    -0.206 F 
ATOM     69  C   UNL A   1      40.711  26.332  26.164  1.00  0.00     0.040 A 
ATOM     70  C   UNL A   1      39.356  25.095  27.723  1.00  0.00     0.040 A 
ATOM     71  F   UNL A   1      38.932  25.964  29.861  1.00  0.00    -0.206 F 
ATOM     72  C   UNL A   1      39.945  25.208  26.465  1.00  0.00     0.006 A 
ENDBRANCH  51  65
BRANCH  52  73
ATOM     73  C   UNL A   1      41.279  34.480  35.202  1.00  0.00     0.057 A 
ATOM     74  C   UNL A   1      42.064  35.612  34.947  1.00  0.00     0.134 A 
ATOM     75  C   UNL A   1      40.677  34.384  36.462  1.00  0.00     0.134 A 
ATOM     76  F   UNL A   1      42.682  35.751  33.765  1.00  0.00    -0.206 F 
ATOM     77  C   UNL A   1      42.265  36.597  35.916  1.00  0.00     0.040 A 
ATOM     78  C   UNL A   1      40.848  35.374  37.431  1.00  0.00     0.040 A 
ATOM     79  F   UNL A   1      39.905  33.329  36.766  1.00  0.00    -0.206 F 
ATOM     80  C   UNL A   1      41.652  36.480  37.161  1.00  0.00     0.006 A 
ENDBRANCH  52  73
BRANCH  64  81
ATOM     81  C   UNL A   1      45.064  28.883  33.551  1.00  0.00     0.057 A 
ATOM     82  C   UNL A   1      45.095  27.929  34.576  1.00  0.00     0.134 A 
ATOM     83  C   UNL A   1      46.290  29.296  33.014  1.00  0.00     0.134 A 
ATOM     84  F   UNL A   1      43.955  27.505  35.143  1.00  0.00    -0.206 F 
ATOM     85  C   UNL A   1      46.301  27.422  35.063  1.00  0.00     0.040 A 
ATOM     86  C   UNL A   1      47.501  28.776  33.474  1.00  0.00     0.040 A 
ATOM     87  F   UNL A   1      46.330  30.200  32.023  1.00  0.00    -0.206 F 
ATOM     88  C   UNL A   1      47.508  27.842  34.506  1.00  0.00     0.006 A 
ENDBRANCH  64  81
ENDBRANCH  38  39
ENDBRANCH  30  33
ENDBRANCH  28  29
ENDBRANCH  27  28
ENDBRANCH  26  27
ENDBRANCH   1  26
TORSDOF 16
ENDMDL
