MODEL 1
REMARK VINA RESULT:     -12.4      0.000      0.000
REMARK SMILES Cc1cc(S(=O)(=O)Nc2ccc(Cl)cc2F)ccc1OCC(=O)NCCCCCCNC(=O)c1ccc(-c2c3nc(c(-c4c(F)cccc4F)c4ccc([nH]4)c(-c4c(F)cccc4F)c4nc(c(-c5c(F)cccc5F)c5ccc2[nH]5)C=C4)C=C3)cc1
REMARK SMILES IDX 26 1 25 2 24 3 22 4 23 5 21 7 20 8 19 9 1 10 2 11 3 12 4 13
REMARK SMILES IDX 18 14 17 15 5 16 6 17 7 18 8 19 9 21 10 22 15 23 11 24 14 25
REMARK SMILES IDX 16 26 12 27 13 28 27 29 28 30 29 31 30 32 31 33 32 34 33 36
REMARK SMILES IDX 34 37 35 38 87 39 36 40 86 41 37 42 38 43 39 44 80 45 40 46
REMARK SMILES IDX 85 47 79 48 81 49 41 50 84 51 78 52 77 53 42 55 68 56 51 57
REMARK SMILES IDX 67 58 52 59 55 60 66 61 82 62 53 63 54 64 65 66 83 67 56 68
REMARK SMILES IDX 43 69 44 70 49 71 45 72 46 73 48 74 50 75 47 76 69 77 70 78
REMARK SMILES IDX 75 79 71 80 72 81 74 82 76 83 73 84 57 85 58 86 63 87 59 88
REMARK SMILES IDX 60 89 62 90 64 91 61 92
REMARK H PARENT 24 6 8 20 31 35 81 54 55 65
REMARK Flexibility Score: inf
ROOT
ATOM      1  C   UNL A   1      31.978  28.869  26.417  1.00  0.00     0.021 C 
ENDROOT
BRANCH   1   2
ATOM      2  C   UNL A   1      32.051  29.201  24.929  1.00  0.00     0.116 C 
BRANCH   2   3
ATOM      3  N   UNL A   1      30.965  30.045  24.480  1.00  0.00    -0.353 N 
ATOM      4  C   UNL A   1      30.111  29.828  23.437  1.00  0.00     0.257 C 
ATOM      5  O   UNL A   1      29.101  30.528  23.343  1.00  0.00    -0.271 OA
ATOM      6  H   UNL A   1      30.824  30.876  24.989  1.00  0.00     0.163 HD
BRANCH   4   7
ATOM      7  C   UNL A   1      30.398  28.688  22.460  1.00  0.00     0.329 C 
BRANCH   7   8
ATOM      8  O   UNL A   1      29.755  27.450  22.684  1.00  0.00    -0.484 OA
BRANCH   8   9
ATOM      9  C   UNL A   1      30.271  26.514  23.530  1.00  0.00     0.123 A 
ATOM     10  C   UNL A   1      32.091  25.406  22.060  1.00  0.00     0.048 C 
ATOM     11  C   UNL A   1      31.230  25.525  23.283  1.00  0.00    -0.008 A 
ATOM     12  C   UNL A   1      31.438  24.541  24.276  1.00  0.00     0.029 A 
ATOM     13  C   UNL A   1      30.750  24.552  25.497  1.00  0.00     0.088 A 
ATOM     14  C   UNL A   1      29.634  26.549  24.785  1.00  0.00     0.048 A 
ATOM     15  C   UNL A   1      29.909  25.614  25.786  1.00  0.00     0.026 A 
BRANCH  13  16
ATOM     16  S   UNL A   1      30.938  23.100  26.509  1.00  0.00     0.262 S 
ATOM     17  O   UNL A   1      29.872  23.101  27.472  1.00  0.00    -0.201 OA
ATOM     18  O   UNL A   1      31.089  21.992  25.573  1.00  0.00    -0.201 OA
BRANCH  16  19
ATOM     19  N   UNL A   1      32.393  23.114  27.340  1.00  0.00    -0.277 N 
ATOM     20  H   UNL A   1      32.352  23.239  28.316  1.00  0.00     0.180 HD
BRANCH  19  21
ATOM     21  C   UNL A   1      33.684  22.961  26.761  1.00  0.00     0.085 A 
ATOM     22  C   UNL A   1      34.188  21.654  26.761  1.00  0.00     0.031 A 
ATOM     23  C   UNL A   1      34.424  23.974  26.144  1.00  0.00     0.148 A 
ATOM     24  C   UNL A   1      35.349  21.344  26.052  1.00  0.00     0.023 A 
ATOM     25  C   UNL A   1      35.586  23.670  25.431  1.00  0.00     0.062 A 
ATOM     26  F   UNL A   1      33.993  25.241  26.143  1.00  0.00    -0.205 F 
ATOM     27  C   UNL A   1      36.029  22.351  25.370  1.00  0.00     0.044 A 
ATOM     28  Cl  UNL A   1      37.406  21.946  24.423  1.00  0.00    -0.084 Cl
ENDBRANCH  19  21
ENDBRANCH  16  19
ENDBRANCH  13  16
ENDBRANCH   8   9
ENDBRANCH   7   8
ENDBRANCH   4   7
ENDBRANCH   2   3
ENDBRANCH   1   2
BRANCH   1  29
ATOM     29  C   UNL A   1      33.225  28.226  27.036  1.00  0.00     0.002 C 
BRANCH  29  30
ATOM     30  C   UNL A   1      34.406  29.150  27.370  1.00  0.00     0.002 C 
BRANCH  30  31
ATOM     31  C   UNL A   1      34.096  30.634  27.566  1.00  0.00     0.021 C 
BRANCH  31  32
ATOM     32  C   UNL A   1      35.315  31.542  27.620  1.00  0.00     0.116 C 
BRANCH  32  33
ATOM     33  N   UNL A   1      35.730  31.917  28.964  1.00  0.00    -0.352 N 
ATOM     34  C   UNL A   1      36.522  31.222  29.862  1.00  0.00     0.251 C 
ATOM     35  H   UNL A   1      35.399  32.789  29.280  1.00  0.00     0.163 HD
ATOM     36  O   UNL A   1      36.745  31.691  30.970  1.00  0.00    -0.269 OA
BRANCH  34  37
ATOM     37  C   UNL A   1      37.222  29.986  29.424  1.00  0.00     0.039 A 
ATOM     38  C   UNL A   1      37.399  28.975  30.376  1.00  0.00     0.014 A 
ATOM     39  C   UNL A   1      37.882  29.915  28.202  1.00  0.00     0.014 A 
ATOM     40  C   UNL A   1      38.441  28.065  30.217  1.00  0.00     0.010 A 
ATOM     41  C   UNL A   1      38.975  29.080  28.083  1.00  0.00     0.010 A 
ATOM     42  C   UNL A   1      39.298  28.211  29.126  1.00  0.00    -0.014 A 
BRANCH  42  43
ATOM     43  C   UNL A   1      40.625  27.612  29.078  1.00  0.00     0.031 A 
ATOM     44  C   UNL A   1      40.806  26.208  28.670  1.00  0.00     0.074 A 
ATOM     45  C   UNL A   1      41.701  28.382  29.351  1.00  0.00     0.049 A 
ATOM     46  N   UNL A   1      41.790  25.470  29.059  1.00  0.00    -0.248 NA
ATOM     47  C   UNL A   1      39.867  25.511  27.798  1.00  0.00     0.031 C 
ATOM     48  C   UNL A   1      43.108  28.051  29.149  1.00  0.00     0.029 A 
ATOM     49  N   UNL A   1      41.727  29.581  30.075  1.00  0.00    -0.354 N 
ATOM     50  C   UNL A   1      41.766  24.318  28.311  1.00  0.00     0.074 A 
ATOM     51  C   UNL A   1      40.522  24.367  27.576  1.00  0.00     0.031 C 
ATOM     52  C   UNL A   1      43.855  28.833  29.945  1.00  0.00     0.029 A 
ATOM     53  C   UNL A   1      42.946  29.597  30.782  1.00  0.00     0.049 A 
ATOM     54  H   UNL A   1      41.029  30.276  30.087  1.00  0.00     0.167 HD
ATOM     55  C   UNL A   1      42.858  23.505  28.284  1.00  0.00     0.037 A 
ATOM     56  C   UNL A   1      42.963  29.612  32.147  1.00  0.00     0.037 A 
ATOM     57  C   UNL A   1      43.923  24.002  29.146  1.00  0.00     0.049 A 
ATOM     58  C   UNL A   1      43.605  28.389  32.763  1.00  0.00     0.074 A 
ATOM     59  C   UNL A   1      45.036  24.787  28.894  1.00  0.00     0.029 A 
ATOM     60  N   UNL A   1      43.743  24.007  30.525  1.00  0.00    -0.354 N 
ATOM     61  N   UNL A   1      43.861  27.292  32.106  1.00  0.00    -0.248 NA
ATOM     62  C   UNL A   1      43.971  28.291  34.176  1.00  0.00     0.031 C 
ATOM     63  C   UNL A   1      45.477  25.334  30.125  1.00  0.00     0.029 A 
ATOM     64  C   UNL A   1      44.651  24.859  31.126  1.00  0.00     0.049 A 
ATOM     65  H   UNL A   1      43.066  23.479  31.005  1.00  0.00     0.167 HD
ATOM     66  C   UNL A   1      44.354  26.347  32.968  1.00  0.00     0.074 A 
ATOM     67  C   UNL A   1      44.435  27.031  34.246  1.00  0.00     0.031 C 
ATOM     68  C   UNL A   1      44.632  25.073  32.566  1.00  0.00     0.037 A 
BRANCH  55  69
ATOM     69  C   UNL A   1      43.027  22.442  27.234  1.00  0.00     0.057 A 
ATOM     70  C   UNL A   1      42.324  21.225  27.302  1.00  0.00     0.134 A 
ATOM     71  C   UNL A   1      43.925  22.548  26.159  1.00  0.00     0.134 A 
ATOM     72  F   UNL A   1      41.389  21.003  28.234  1.00  0.00    -0.206 F 
ATOM     73  C   UNL A   1      42.569  20.159  26.428  1.00  0.00     0.040 A 
ATOM     74  C   UNL A   1      44.218  21.473  25.308  1.00  0.00     0.040 A 
ATOM     75  F   UNL A   1      44.547  23.706  25.890  1.00  0.00    -0.206 F 
ATOM     76  C   UNL A   1      43.546  20.267  25.449  1.00  0.00     0.006 A 
ENDBRANCH  55  69
BRANCH  56  77
ATOM     77  C   UNL A   1      41.833  30.380  32.733  1.00  0.00     0.057 A 
ATOM     78  C   UNL A   1      41.919  31.784  32.751  1.00  0.00     0.134 A 
ATOM     79  C   UNL A   1      40.565  29.819  32.900  1.00  0.00     0.134 A 
ATOM     80  F   UNL A   1      43.110  32.387  32.598  1.00  0.00    -0.206 F 
ATOM     81  C   UNL A   1      40.783  32.595  32.807  1.00  0.00     0.040 A 
ATOM     82  C   UNL A   1      39.420  30.622  32.971  1.00  0.00     0.040 A 
ATOM     83  F   UNL A   1      40.398  28.489  32.876  1.00  0.00    -0.206 F 
ATOM     84  C   UNL A   1      39.524  32.011  32.881  1.00  0.00     0.006 A 
ENDBRANCH  56  77
BRANCH  68  85
ATOM     85  C   UNL A   1      44.985  23.927  33.475  1.00  0.00     0.057 A 
ATOM     86  C   UNL A   1      44.070  22.956  33.903  1.00  0.00     0.134 A 
ATOM     87  C   UNL A   1      46.332  23.688  33.828  1.00  0.00     0.134 A 
ATOM     88  F   UNL A   1      42.779  23.010  33.550  1.00  0.00    -0.206 F 
ATOM     89  C   UNL A   1      44.456  21.851  34.673  1.00  0.00     0.040 A 
ATOM     90  C   UNL A   1      46.736  22.563  34.551  1.00  0.00     0.040 A 
ATOM     91  F   UNL A   1      47.313  24.526  33.462  1.00  0.00    -0.206 F 
ATOM     92  C   UNL A   1      45.795  21.645  34.989  1.00  0.00     0.006 A 
ENDBRANCH  68  85
ENDBRANCH  42  43
ENDBRANCH  34  37
ENDBRANCH  32  33
ENDBRANCH  31  32
ENDBRANCH  30  31
ENDBRANCH  29  30
ENDBRANCH   1  29
TORSDOF 18
ENDMDL
MODEL 2
REMARK VINA RESULT:     -12.2      1.373      1.997
REMARK SMILES Cc1cc(S(=O)(=O)Nc2ccc(Cl)cc2F)ccc1OCC(=O)NCCCCCCNC(=O)c1ccc(-c2c3nc(c(-c4c(F)cccc4F)c4ccc([nH]4)c(-c4c(F)cccc4F)c4nc(c(-c5c(F)cccc5F)c5ccc2[nH]5)C=C4)C=C3)cc1
REMARK SMILES IDX 26 1 25 2 24 3 22 4 23 5 21 7 20 8 19 9 1 10 2 11 3 12 4 13
REMARK SMILES IDX 18 14 17 15 5 16 6 17 7 18 8 19 9 21 10 22 15 23 11 24 14 25
REMARK SMILES IDX 16 26 12 27 13 28 27 29 28 30 29 31 30 32 31 33 32 34 33 36
REMARK SMILES IDX 34 37 35 38 87 39 36 40 86 41 37 42 38 43 39 44 80 45 40 46
REMARK SMILES IDX 85 47 79 48 81 49 41 50 84 51 78 52 77 53 42 55 68 56 51 57
REMARK SMILES IDX 67 58 52 59 55 60 66 61 82 62 53 63 54 64 65 66 83 67 56 68
REMARK SMILES IDX 43 69 44 70 49 71 45 72 46 73 48 74 50 75 47 76 69 77 70 78
REMARK SMILES IDX 75 79 71 80 72 81 74 82 76 83 73 84 57 85 58 86 63 87 59 88
REMARK SMILES IDX 60 89 62 90 64 91 61 92
REMARK H PARENT 24 6 8 20 31 35 81 54 55 65
REMARK Flexibility Score: inf
ROOT
ATOM      1  C   UNL A   1      32.927  29.322  25.004  1.00  0.00     0.021 C 
ENDROOT
BRANCH   1   2
ATOM      2  C   UNL A   1      31.400  29.327  25.034  1.00  0.00     0.116 C 
BRANCH   2   3
ATOM      3  N   UNL A   1      30.814  30.151  23.999  1.00  0.00    -0.353 N 
ATOM      4  C   UNL A   1      29.902  29.784  23.052  1.00  0.00     0.257 C 
ATOM      5  O   UNL A   1      29.335  30.664  22.403  1.00  0.00    -0.271 OA
ATOM      6  H   UNL A   1      31.108  31.090  23.975  1.00  0.00     0.163 HD
BRANCH   4   7
ATOM      7  C   UNL A   1      29.566  28.303  22.872  1.00  0.00     0.329 C 
BRANCH   7   8
ATOM      8  O   UNL A   1      30.477  27.503  22.147  1.00  0.00    -0.484 OA
BRANCH   8   9
ATOM      9  C   UNL A   1      31.235  26.546  22.754  1.00  0.00     0.123 A 
ATOM     10  C   UNL A   1      33.636  27.277  22.117  1.00  0.00     0.048 C 
ATOM     11  C   UNL A   1      32.618  26.338  22.697  1.00  0.00    -0.008 A 
ATOM     12  C   UNL A   1      33.133  25.144  23.250  1.00  0.00     0.029 A 
ATOM     13  C   UNL A   1      32.313  24.196  23.878  1.00  0.00     0.088 A 
ATOM     14  C   UNL A   1      30.433  25.616  23.442  1.00  0.00     0.048 A 
ATOM     15  C   UNL A   1      30.968  24.479  24.052  1.00  0.00     0.026 A 
BRANCH  13  16
ATOM     16  S   UNL A   1      33.084  22.642  24.275  1.00  0.00     0.262 S 
ATOM     17  O   UNL A   1      33.084  22.510  25.705  1.00  0.00    -0.201 OA
ATOM     18  O   UNL A   1      32.412  21.652  23.440  1.00  0.00    -0.201 OA
BRANCH  16  19
ATOM     19  N   UNL A   1      34.673  22.589  23.744  1.00  0.00    -0.277 N 
ATOM     20  H   UNL A   1      34.822  22.613  22.771  1.00  0.00     0.180 HD
BRANCH  19  21
ATOM     21  C   UNL A   1      35.825  22.513  24.574  1.00  0.00     0.085 A 
ATOM     22  C   UNL A   1      36.506  21.290  24.543  1.00  0.00     0.031 A 
ATOM     23  C   UNL A   1      36.352  23.564  25.333  1.00  0.00     0.148 A 
ATOM     24  C   UNL A   1      37.750  21.156  25.159  1.00  0.00     0.023 A 
ATOM     25  C   UNL A   1      37.599  23.437  25.949  1.00  0.00     0.062 A 
ATOM     26  F   UNL A   1      35.722  24.742  25.413  1.00  0.00    -0.205 F 
ATOM     27  C   UNL A   1      38.302  22.240  25.838  1.00  0.00     0.044 A 
ATOM     28  Cl  UNL A   1      39.877  22.098  26.514  1.00  0.00    -0.084 Cl
ENDBRANCH  19  21
ENDBRANCH  16  19
ENDBRANCH  13  16
ENDBRANCH   8   9
ENDBRANCH   7   8
ENDBRANCH   4   7
ENDBRANCH   2   3
ENDBRANCH   1   2
BRANCH   1  29
ATOM     29  C   UNL A   1      33.627  28.404  26.013  1.00  0.00     0.002 C 
BRANCH  29  30
ATOM     30  C   UNL A   1      34.326  29.068  27.209  1.00  0.00     0.002 C 
BRANCH  30  31
ATOM     31  C   UNL A   1      33.771  30.413  27.681  1.00  0.00     0.021 C 
BRANCH  31  32
ATOM     32  C   UNL A   1      34.817  31.494  27.908  1.00  0.00     0.116 C 
BRANCH  32  33
ATOM     33  N   UNL A   1      35.102  31.774  29.308  1.00  0.00    -0.352 N 
ATOM     34  C   UNL A   1      35.937  31.102  30.183  1.00  0.00     0.251 C 
ATOM     35  H   UNL A   1      34.632  32.552  29.686  1.00  0.00     0.163 HD
ATOM     36  O   UNL A   1      36.032  31.474  31.345  1.00  0.00    -0.269 OA
BRANCH  34  37
ATOM     37  C   UNL A   1      36.831  30.030  29.673  1.00  0.00     0.039 A 
ATOM     38  C   UNL A   1      37.093  28.950  30.524  1.00  0.00     0.014 A 
ATOM     39  C   UNL A   1      37.567  30.189  28.503  1.00  0.00     0.014 A 
ATOM     40  C   UNL A   1      38.262  28.213  30.350  1.00  0.00     0.010 A 
ATOM     41  C   UNL A   1      38.773  29.527  28.380  1.00  0.00     0.010 A 
ATOM     42  C   UNL A   1      39.152  28.597  29.348  1.00  0.00    -0.014 A 
BRANCH  42  43
ATOM     43  C   UNL A   1      40.552  28.191  29.338  1.00  0.00     0.031 A 
ATOM     44  C   UNL A   1      40.968  26.930  28.700  1.00  0.00     0.074 A 
ATOM     45  C   UNL A   1      41.478  29.022  29.865  1.00  0.00     0.049 A 
ATOM     46  N   UNL A   1      42.013  26.259  29.054  1.00  0.00    -0.248 NA
ATOM     47  C   UNL A   1      40.218  26.307  27.616  1.00  0.00     0.031 C 
ATOM     48  C   UNL A   1      42.930  28.917  29.763  1.00  0.00     0.029 A 
ATOM     49  N   UNL A   1      41.268  30.047  30.796  1.00  0.00    -0.354 N 
ATOM     50  C   UNL A   1      42.219  25.285  28.108  1.00  0.00     0.074 A 
ATOM     51  C   UNL A   1      41.048  25.320  27.261  1.00  0.00     0.031 C 
ATOM     52  C   UNL A   1      43.486  29.614  30.767  1.00  0.00     0.029 A 
ATOM     53  C   UNL A   1      42.408  30.076  31.625  1.00  0.00     0.049 A 
ATOM     54  H   UNL A   1      40.479  30.632  30.859  1.00  0.00     0.167 HD
ATOM     55  C   UNL A   1      43.416  24.637  28.053  1.00  0.00     0.037 A 
ATOM     56  C   UNL A   1      42.308  29.824  32.962  1.00  0.00     0.037 A 
ATOM     57  C   UNL A   1      44.321  25.084  29.104  1.00  0.00     0.049 A 
ATOM     58  C   UNL A   1      43.065  28.594  33.410  1.00  0.00     0.074 A 
ATOM     59  C   UNL A   1      45.326  26.038  29.126  1.00  0.00     0.029 A 
ATOM     60  N   UNL A   1      44.027  24.794  30.432  1.00  0.00    -0.354 N 
ATOM     61  N   UNL A   1      43.533  27.689  32.595  1.00  0.00    -0.248 NA
ATOM     62  C   UNL A   1      43.321  28.265  34.812  1.00  0.00     0.031 C 
ATOM     63  C   UNL A   1      45.577  26.382  30.478  1.00  0.00     0.029 A 
ATOM     64  C   UNL A   1      44.748  25.618  31.277  1.00  0.00     0.049 A 
ATOM     65  H   UNL A   1      43.395  24.100  30.729  1.00  0.00     0.167 HD
ATOM     66  C   UNL A   1      44.083  26.663  33.317  1.00  0.00     0.074 A 
ATOM     67  C   UNL A   1      43.956  27.085  34.699  1.00  0.00     0.031 C 
ATOM     68  C   UNL A   1      44.576  25.539  32.720  1.00  0.00     0.037 A 
BRANCH  55  69
ATOM     69  C   UNL A   1      43.826  23.833  26.850  1.00  0.00     0.057 A 
ATOM     70  C   UNL A   1      44.512  24.422  25.773  1.00  0.00     0.134 A 
ATOM     71  C   UNL A   1      43.511  22.474  26.680  1.00  0.00     0.134 A 
ATOM     72  F   UNL A   1      44.935  25.692  25.816  1.00  0.00    -0.206 F 
ATOM     73  C   UNL A   1      44.774  23.741  24.578  1.00  0.00     0.040 A 
ATOM     74  C   UNL A   1      43.721  21.794  25.472  1.00  0.00     0.040 A 
ATOM     75  F   UNL A   1      42.992  21.754  27.686  1.00  0.00    -0.206 F 
ATOM     76  C   UNL A   1      44.346  22.432  24.409  1.00  0.00     0.006 A 
ENDBRANCH  55  69
BRANCH  56  77
ATOM     77  C   UNL A   1      41.032  30.311  33.551  1.00  0.00     0.057 A 
ATOM     78  C   UNL A   1      40.912  31.683  33.838  1.00  0.00     0.134 A 
ATOM     79  C   UNL A   1      39.849  29.573  33.469  1.00  0.00     0.134 A 
ATOM     80  F   UNL A   1      42.012  32.449  33.933  1.00  0.00    -0.206 F 
ATOM     81  C   UNL A   1      39.670  32.317  33.916  1.00  0.00     0.040 A 
ATOM     82  C   UNL A   1      38.598  30.196  33.560  1.00  0.00     0.040 A 
ATOM     83  F   UNL A   1      39.879  28.264  33.181  1.00  0.00    -0.206 F 
ATOM     84  C   UNL A   1      38.507  31.577  33.740  1.00  0.00     0.006 A 
ENDBRANCH  56  77
BRANCH  68  85
ATOM     85  C   UNL A   1      45.013  24.289  33.436  1.00  0.00     0.057 A 
ATOM     86  C   UNL A   1      46.313  24.072  33.910  1.00  0.00     0.134 A 
ATOM     87  C   UNL A   1      44.063  23.311  33.804  1.00  0.00     0.134 A 
ATOM     88  F   UNL A   1      47.286  24.974  33.719  1.00  0.00    -0.206 F 
ATOM     89  C   UNL A   1      46.659  22.937  34.655  1.00  0.00     0.040 A 
ATOM     90  C   UNL A   1      44.385  22.201  34.589  1.00  0.00     0.040 A 
ATOM     91  F   UNL A   1      42.777  23.408  33.435  1.00  0.00    -0.206 F 
ATOM     92  C   UNL A   1      45.691  22.003  35.008  1.00  0.00     0.006 A 
ENDBRANCH  68  85
ENDBRANCH  42  43
ENDBRANCH  34  37
ENDBRANCH  32  33
ENDBRANCH  31  32
ENDBRANCH  30  31
ENDBRANCH  29  30
ENDBRANCH   1  29
TORSDOF 18
ENDMDL
MODEL 3
REMARK VINA RESULT:     -12.0      1.771      2.259
REMARK SMILES Cc1cc(S(=O)(=O)Nc2ccc(Cl)cc2F)ccc1OCC(=O)NCCCCCCNC(=O)c1ccc(-c2c3nc(c(-c4c(F)cccc4F)c4ccc([nH]4)c(-c4c(F)cccc4F)c4nc(c(-c5c(F)cccc5F)c5ccc2[nH]5)C=C4)C=C3)cc1
REMARK SMILES IDX 26 1 25 2 24 3 22 4 23 5 21 7 20 8 19 9 1 10 2 11 3 12 4 13
REMARK SMILES IDX 18 14 17 15 5 16 6 17 7 18 8 19 9 21 10 22 15 23 11 24 14 25
REMARK SMILES IDX 16 26 12 27 13 28 27 29 28 30 29 31 30 32 31 33 32 34 33 36
REMARK SMILES IDX 34 37 35 38 87 39 36 40 86 41 37 42 38 43 39 44 80 45 40 46
REMARK SMILES IDX 85 47 79 48 81 49 41 50 84 51 78 52 77 53 42 55 68 56 51 57
REMARK SMILES IDX 67 58 52 59 55 60 66 61 82 62 53 63 54 64 65 66 83 67 56 68
REMARK SMILES IDX 43 69 44 70 49 71 45 72 46 73 48 74 50 75 47 76 69 77 70 78
REMARK SMILES IDX 75 79 71 80 72 81 74 82 76 83 73 84 57 85 58 86 63 87 59 88
REMARK SMILES IDX 60 89 62 90 64 91 61 92
REMARK H PARENT 24 6 8 20 31 35 81 54 55 65
REMARK Flexibility Score: inf
ROOT
ATOM      1  C   UNL A   1      32.640  29.670  24.989  1.00  0.00     0.021 C 
ENDROOT
BRANCH   1   2
ATOM      2  C   UNL A   1      31.118  29.559  25.043  1.00  0.00     0.116 C 
BRANCH   2   3
ATOM      3  N   UNL A   1      30.454  30.335  24.018  1.00  0.00    -0.353 N 
ATOM      4  C   UNL A   1      29.690  29.876  22.984  1.00  0.00     0.257 C 
ATOM      5  O   UNL A   1      29.009  30.682  22.347  1.00  0.00    -0.271 OA
ATOM      6  H   UNL A   1      30.566  31.311  24.073  1.00  0.00     0.163 HD
BRANCH   4   7
ATOM      7  C   UNL A   1      29.651  28.376  22.690  1.00  0.00     0.329 C 
BRANCH   7   8
ATOM      8  O   UNL A   1      30.726  27.819  21.963  1.00  0.00    -0.484 OA
BRANCH   8   9
ATOM      9  C   UNL A   1      31.625  26.973  22.542  1.00  0.00     0.123 A 
ATOM     10  C   UNL A   1      33.881  28.076  21.913  1.00  0.00     0.048 C 
ATOM     11  C   UNL A   1      33.023  26.980  22.474  1.00  0.00    -0.008 A 
ATOM     12  C   UNL A   1      33.718  25.865  22.994  1.00  0.00     0.029 A 
ATOM     13  C   UNL A   1      33.057  24.789  23.602  1.00  0.00     0.088 A 
ATOM     14  C   UNL A   1      30.979  25.917  23.211  1.00  0.00     0.048 A 
ATOM     15  C   UNL A   1      31.686  24.859  23.789  1.00  0.00     0.026 A 
BRANCH  13  16
ATOM     16  S   UNL A   1      34.058  23.361  23.957  1.00  0.00     0.262 S 
ATOM     17  O   UNL A   1      34.571  22.869  22.708  1.00  0.00    -0.201 OA
ATOM     18  O   UNL A   1      34.968  23.780  25.017  1.00  0.00    -0.201 OA
BRANCH  16  19
ATOM     19  N   UNL A   1      33.159  22.140  24.671  1.00  0.00    -0.277 N 
ATOM     20  H   UNL A   1      32.399  22.414  25.234  1.00  0.00     0.180 HD
BRANCH  19  21
ATOM     21  C   UNL A   1      33.396  20.744  24.536  1.00  0.00     0.085 A 
ATOM     22  C   UNL A   1      32.390  20.028  23.874  1.00  0.00     0.031 A 
ATOM     23  C   UNL A   1      34.557  20.074  24.935  1.00  0.00     0.148 A 
ATOM     24  C   UNL A   1      32.593  18.696  23.511  1.00  0.00     0.023 A 
ATOM     25  C   UNL A   1      34.767  18.742  24.571  1.00  0.00     0.062 A 
ATOM     26  F   UNL A   1      35.531  20.713  25.593  1.00  0.00    -0.205 F 
ATOM     27  C   UNL A   1      33.792  18.067  23.840  1.00  0.00     0.044 A 
ATOM     28  Cl  UNL A   1      34.073  16.457  23.307  1.00  0.00    -0.084 Cl
ENDBRANCH  19  21
ENDBRANCH  16  19
ENDBRANCH  13  16
ENDBRANCH   8   9
ENDBRANCH   7   8
ENDBRANCH   4   7
ENDBRANCH   2   3
ENDBRANCH   1   2
BRANCH   1  29
ATOM     29  C   UNL A   1      33.432  28.593  25.738  1.00  0.00     0.002 C 
BRANCH  29  30
ATOM     30  C   UNL A   1      34.138  29.008  27.038  1.00  0.00     0.002 C 
BRANCH  30  31
ATOM     31  C   UNL A   1      33.797  30.386  27.606  1.00  0.00     0.021 C 
BRANCH  31  32
ATOM     32  C   UNL A   1      34.976  31.340  27.725  1.00  0.00     0.116 C 
BRANCH  32  33
ATOM     33  N   UNL A   1      35.316  31.711  29.091  1.00  0.00    -0.352 N 
ATOM     34  C   UNL A   1      36.174  31.088  29.981  1.00  0.00     0.251 C 
ATOM     35  H   UNL A   1      34.872  32.522  29.430  1.00  0.00     0.163 HD
ATOM     36  O   UNL A   1      36.316  31.538  31.110  1.00  0.00    -0.269 OA
BRANCH  34  37
ATOM     37  C   UNL A   1      37.032  29.968  29.515  1.00  0.00     0.039 A 
ATOM     38  C   UNL A   1      37.305  28.942  30.428  1.00  0.00     0.014 A 
ATOM     39  C   UNL A   1      37.731  30.034  28.314  1.00  0.00     0.014 A 
ATOM     40  C   UNL A   1      38.454  28.173  30.266  1.00  0.00     0.010 A 
ATOM     41  C   UNL A   1      38.921  29.344  28.197  1.00  0.00     0.010 A 
ATOM     42  C   UNL A   1      39.317  28.473  29.212  1.00  0.00    -0.014 A 
BRANCH  42  43
ATOM     43  C   UNL A   1      40.709  28.042  29.184  1.00  0.00     0.031 A 
ATOM     44  C   UNL A   1      41.090  26.758  28.569  1.00  0.00     0.074 A 
ATOM     45  C   UNL A   1      41.660  28.868  29.673  1.00  0.00     0.049 A 
ATOM     46  N   UNL A   1      42.129  26.077  28.918  1.00  0.00    -0.248 NA
ATOM     47  C   UNL A   1      40.307  26.123  27.516  1.00  0.00     0.031 C 
ATOM     48  C   UNL A   1      43.108  28.734  29.545  1.00  0.00     0.029 A 
ATOM     49  N   UNL A   1      41.487  29.919  30.582  1.00  0.00    -0.354 N 
ATOM     50  C   UNL A   1      42.299  25.077  27.992  1.00  0.00     0.074 A 
ATOM     51  C   UNL A   1      41.112  25.113  27.169  1.00  0.00     0.031 C 
ATOM     52  C   UNL A   1      43.696  29.445  30.520  1.00  0.00     0.029 A 
ATOM     53  C   UNL A   1      42.644  29.947  31.387  1.00  0.00     0.049 A 
ATOM     54  H   UNL A   1      40.710  30.520  30.647  1.00  0.00     0.167 HD
ATOM     55  C   UNL A   1      43.483  24.406  27.929  1.00  0.00     0.037 A 
ATOM     56  C   UNL A   1      42.567  29.728  32.732  1.00  0.00     0.037 A 
ATOM     57  C   UNL A   1      44.417  24.862  28.952  1.00  0.00     0.049 A 
ATOM     58  C   UNL A   1      43.311  28.496  33.195  1.00  0.00     0.074 A 
ATOM     59  C   UNL A   1      45.439  25.798  28.930  1.00  0.00     0.029 A 
ATOM     60  N   UNL A   1      44.144  24.609  30.292  1.00  0.00    -0.354 N 
ATOM     61  N   UNL A   1      43.746  27.564  32.393  1.00  0.00    -0.248 NA
ATOM     62  C   UNL A   1      43.590  28.196  34.599  1.00  0.00     0.031 C 
ATOM     63  C   UNL A   1      45.723  26.169  30.268  1.00  0.00     0.029 A 
ATOM     64  C   UNL A   1      44.897  25.440  31.102  1.00  0.00     0.049 A 
ATOM     65  H   UNL A   1      43.507  23.934  30.617  1.00  0.00     0.167 HD
ATOM     66  C   UNL A   1      44.292  26.545  33.129  1.00  0.00     0.074 A 
ATOM     67  C   UNL A   1      44.201  27.002  34.502  1.00  0.00     0.031 C 
ATOM     68  C   UNL A   1      44.753  25.399  32.549  1.00  0.00     0.037 A 
BRANCH  55  69
ATOM     69  C   UNL A   1      43.854  23.566  26.738  1.00  0.00     0.057 A 
ATOM     70  C   UNL A   1      43.500  22.207  26.662  1.00  0.00     0.134 A 
ATOM     71  C   UNL A   1      44.619  24.041  25.660  1.00  0.00     0.134 A 
ATOM     72  F   UNL A   1      42.720  21.628  27.583  1.00  0.00    -0.206 F 
ATOM     73  C   UNL A   1      43.957  21.362  25.643  1.00  0.00     0.040 A 
ATOM     74  C   UNL A   1      45.125  23.198  24.662  1.00  0.00     0.040 A 
ATOM     75  F   UNL A   1      44.896  25.348  25.534  1.00  0.00    -0.206 F 
ATOM     76  C   UNL A   1      44.803  21.848  24.657  1.00  0.00     0.006 A 
ENDBRANCH  55  69
BRANCH  56  77
ATOM     77  C   UNL A   1      41.312  30.253  33.334  1.00  0.00     0.057 A 
ATOM     78  C   UNL A   1      41.201  31.641  33.539  1.00  0.00     0.134 A 
ATOM     79  C   UNL A   1      40.128  29.513  33.341  1.00  0.00     0.134 A 
ATOM     80  F   UNL A   1      42.302  32.410  33.546  1.00  0.00    -0.206 F 
ATOM     81  C   UNL A   1      39.961  32.280  33.621  1.00  0.00     0.040 A 
ATOM     82  C   UNL A   1      38.881  30.141  33.437  1.00  0.00     0.040 A 
ATOM     83  F   UNL A   1      40.150  28.188  33.134  1.00  0.00    -0.206 F 
ATOM     84  C   UNL A   1      38.794  31.531  33.533  1.00  0.00     0.006 A 
ENDBRANCH  56  77
BRANCH  68  85
ATOM     85  C   UNL A   1      45.183  24.159  33.286  1.00  0.00     0.057 A 
ATOM     86  C   UNL A   1      46.421  24.016  33.925  1.00  0.00     0.134 A 
ATOM     87  C   UNL A   1      44.266  23.105  33.501  1.00  0.00     0.134 A 
ATOM     88  F   UNL A   1      47.343  24.989  33.887  1.00  0.00    -0.206 F 
ATOM     89  C   UNL A   1      46.748  22.883  34.681  1.00  0.00     0.040 A 
ATOM     90  C   UNL A   1      44.562  21.994  34.295  1.00  0.00     0.040 A 
ATOM     91  F   UNL A   1      43.036  23.125  32.966  1.00  0.00    -0.206 F 
ATOM     92  C   UNL A   1      45.813  21.873  34.879  1.00  0.00     0.006 A 
ENDBRANCH  68  85
ENDBRANCH  42  43
ENDBRANCH  34  37
ENDBRANCH  32  33
ENDBRANCH  31  32
ENDBRANCH  30  31
ENDBRANCH  29  30
ENDBRANCH   1  29
TORSDOF 18
ENDMDL
