MODEL 1
REMARK VINA RESULT:     -11.4      0.000      0.000
REMARK SMILES O=C(NCCCCCCNC(=O)c1ccc(-n2cc(CSc3nc4ccccc4c(=O)n3-c3ccccc3)nn2)cc1)c1ccc(-c2c3nc(c(-c4c(F)cccc4F)c4ccc([nH]4)c(-c4c(F)cccc4F)c4nc(c(-c5c(F)cccc5F)c5ccc2[nH]5)C=C4)C=C3)cc1
REMARK SMILES IDX 8 1 7 2 6 3 5 4 4 5 3 6 1 7 2 8 43 10 44 11 96 12 45 13
REMARK SMILES IDX 95 14 46 15 47 16 48 17 89 18 49 19 94 20 88 21 90 22 50 23
REMARK SMILES IDX 93 24 87 25 86 26 51 28 77 29 60 30 76 31 61 32 64 33 75 34
REMARK SMILES IDX 91 35 62 36 63 37 74 39 92 40 65 41 52 42 53 43 58 44 54 45
REMARK SMILES IDX 55 46 57 47 59 48 56 49 78 50 79 51 84 52 80 53 81 54 83 55
REMARK SMILES IDX 85 56 82 57 66 58 67 59 72 60 68 61 69 62 71 63 73 64 70 65
REMARK SMILES IDX 9 66 10 67 11 68 12 70 13 71 14 72 42 73 15 74 41 75 16 76
REMARK SMILES IDX 17 77 18 78 40 79 19 80 39 81 20 82 21 83 22 84 23 85 32 86
REMARK SMILES IDX 24 87 30 88 25 89 29 90 31 91 26 92 28 93 27 94 33 95 34 96
REMARK SMILES IDX 38 97 35 98 37 99 36 100
REMARK H PARENT 3 9 90 27 64 38 10 69
REMARK Flexibility Score: inf
ROOT
ATOM      1  C   UNL A   1      30.978  27.091  25.360  1.00  0.00     0.021 C 
ENDROOT
BRANCH   1   2
ATOM      2  C   UNL A   1      31.045  27.276  26.878  1.00  0.00     0.002 C 
BRANCH   2   3
ATOM      3  C   UNL A   1      32.196  28.145  27.399  1.00  0.00     0.002 C 
BRANCH   3   4
ATOM      4  C   UNL A   1      33.380  28.354  26.445  1.00  0.00     0.021 C 
BRANCH   4   5
ATOM      5  C   UNL A   1      34.499  29.247  26.976  1.00  0.00     0.116 C 
BRANCH   5   6
ATOM      6  N   UNL A   1      34.039  30.490  27.560  1.00  0.00    -0.352 N 
ATOM      7  O   UNL A   1      33.893  32.449  28.557  1.00  0.00    -0.269 OA
ATOM      8  C   UNL A   1      34.558  31.418  28.420  1.00  0.00     0.251 C 
ATOM      9  H   UNL A   1      33.130  30.725  27.266  1.00  0.00     0.163 HD
BRANCH   8  10
ATOM     10  C   UNL A   1      35.802  31.268  29.229  1.00  0.00     0.039 A 
ATOM     11  C   UNL A   1      35.892  30.749  30.519  1.00  0.00     0.014 A 
ATOM     12  C   UNL A   1      36.988  31.723  28.612  1.00  0.00     0.014 A 
ATOM     13  C   UNL A   1      37.119  30.740  31.191  1.00  0.00     0.010 A 
ATOM     14  C   UNL A   1      38.214  31.717  29.276  1.00  0.00     0.010 A 
ATOM     15  C   UNL A   1      38.277  31.246  30.580  1.00  0.00    -0.014 A 
BRANCH  15  16
ATOM     16  C   UNL A   1      39.555  31.086  31.275  1.00  0.00     0.031 A 
ATOM     17  C   UNL A   1      40.243  32.372  31.582  1.00  0.00     0.074 A 
ATOM     18  C   UNL A   1      40.069  29.928  31.740  1.00  0.00     0.049 A 
ATOM     19  N   UNL A   1      41.349  32.813  31.078  1.00  0.00    -0.248 NA
ATOM     20  C   UNL A   1      39.569  33.324  32.475  1.00  0.00     0.031 C 
ATOM     21  C   UNL A   1      39.428  28.616  31.824  1.00  0.00     0.029 A 
ATOM     22  N   UNL A   1      41.290  29.707  32.318  1.00  0.00    -0.354 N 
ATOM     23  C   UNL A   1      41.611  34.023  31.720  1.00  0.00     0.074 A 
ATOM     24  C   UNL A   1      40.420  34.351  32.462  1.00  0.00     0.031 C 
ATOM     25  C   UNL A   1      40.182  27.796  32.595  1.00  0.00     0.029 A 
ATOM     26  C   UNL A   1      41.422  28.472  32.944  1.00  0.00     0.049 A 
ATOM     27  H   UNL A   1      42.018  30.371  32.294  1.00  0.00     0.167 HD
ATOM     28  C   UNL A   1      42.866  34.550  31.751  1.00  0.00     0.037 A 
ATOM     29  C   UNL A   1      42.458  28.051  33.717  1.00  0.00     0.037 A 
ATOM     30  C   UNL A   1      43.713  33.949  30.753  1.00  0.00     0.049 A 
ATOM     31  C   UNL A   1      43.633  28.900  33.410  1.00  0.00     0.074 A 
ATOM     32  C   UNL A   1      43.675  33.835  29.377  1.00  0.00     0.029 A 
ATOM     33  N   UNL A   1      44.640  33.029  31.172  1.00  0.00    -0.354 N 
ATOM     34  N   UNL A   1      44.305  28.845  32.298  1.00  0.00    -0.248 NA
ATOM     35  C   UNL A   1      43.822  30.107  34.197  1.00  0.00     0.031 C 
ATOM     36  C   UNL A   1      44.190  32.534  29.101  1.00  0.00     0.029 A 
ATOM     37  C   UNL A   1      44.566  31.963  30.316  1.00  0.00     0.049 A 
ATOM     38  H   UNL A   1      45.245  33.119  31.944  1.00  0.00     0.167 HD
ATOM     39  C   UNL A   1      44.617  30.165  32.019  1.00  0.00     0.074 A 
ATOM     40  C   UNL A   1      44.393  30.882  33.272  1.00  0.00     0.031 C 
ATOM     41  C   UNL A   1      44.755  30.595  30.731  1.00  0.00     0.037 A 
BRANCH  28  42
ATOM     42  C   UNL A   1      43.440  35.328  32.911  1.00  0.00     0.057 A 
ATOM     43  C   UNL A   1      44.055  36.572  32.666  1.00  0.00     0.134 A 
ATOM     44  C   UNL A   1      43.698  34.776  34.181  1.00  0.00     0.134 A 
ATOM     45  F   UNL A   1      43.895  37.199  31.490  1.00  0.00    -0.206 F 
ATOM     46  C   UNL A   1      44.933  37.170  33.577  1.00  0.00     0.040 A 
ATOM     47  C   UNL A   1      44.532  35.391  35.120  1.00  0.00     0.040 A 
ATOM     48  F   UNL A   1      43.245  33.570  34.544  1.00  0.00    -0.206 F 
ATOM     49  C   UNL A   1      45.183  36.573  34.806  1.00  0.00     0.006 A 
ENDBRANCH  28  42
BRANCH  29  50
ATOM     50  C   UNL A   1      42.473  27.134  34.881  1.00  0.00     0.057 A 
ATOM     51  C   UNL A   1      41.772  27.439  36.061  1.00  0.00     0.134 A 
ATOM     52  C   UNL A   1      42.909  25.806  34.753  1.00  0.00     0.134 A 
ATOM     53  F   UNL A   1      41.280  28.670  36.263  1.00  0.00    -0.206 F 
ATOM     54  C   UNL A   1      41.490  26.472  37.036  1.00  0.00     0.040 A 
ATOM     55  C   UNL A   1      42.639  24.831  35.721  1.00  0.00     0.040 A 
ATOM     56  F   UNL A   1      43.528  25.388  33.639  1.00  0.00    -0.206 F 
ATOM     57  C   UNL A   1      41.911  25.158  36.859  1.00  0.00     0.006 A 
ENDBRANCH  29  50
BRANCH  41  58
ATOM     58  C   UNL A   1      44.871  29.559  29.649  1.00  0.00     0.057 A 
ATOM     59  C   UNL A   1      43.789  28.872  29.080  1.00  0.00     0.134 A 
ATOM     60  C   UNL A   1      46.131  29.337  29.078  1.00  0.00     0.134 A 
ATOM     61  F   UNL A   1      42.531  29.094  29.485  1.00  0.00    -0.206 F 
ATOM     62  C   UNL A   1      43.963  27.964  28.031  1.00  0.00     0.040 A 
ATOM     63  C   UNL A   1      46.312  28.464  28.004  1.00  0.00     0.040 A 
ATOM     64  F   UNL A   1      47.207  29.999  29.533  1.00  0.00    -0.206 F 
ATOM     65  C   UNL A   1      45.228  27.762  27.486  1.00  0.00     0.006 A 
ENDBRANCH  41  58
ENDBRANCH  15  16
ENDBRANCH   8  10
ENDBRANCH   5   6
ENDBRANCH   4   5
ENDBRANCH   3   4
ENDBRANCH   2   3
ENDBRANCH   1   2
BRANCH   1  66
ATOM     66  C   UNL A   1      30.557  25.701  24.891  1.00  0.00     0.116 C 
BRANCH  66  67
ATOM     67  N   UNL A   1      29.939  24.918  25.949  1.00  0.00    -0.352 N 
ATOM     68  C   UNL A   1      30.422  23.816  26.604  1.00  0.00     0.251 C 
ATOM     69  H   UNL A   1      29.047  25.223  26.237  1.00  0.00     0.163 HD
ATOM     70  O   UNL A   1      29.708  23.193  27.395  1.00  0.00    -0.269 OA
BRANCH  68  71
ATOM     71  C   UNL A   1      31.798  23.353  26.347  1.00  0.00     0.039 A 
ATOM     72  C   UNL A   1      31.993  22.091  25.781  1.00  0.00     0.016 A 
ATOM     73  C   UNL A   1      32.892  24.161  26.676  1.00  0.00     0.016 A 
ATOM     74  C   UNL A   1      33.286  21.657  25.479  1.00  0.00     0.029 A 
ATOM     75  C   UNL A   1      34.186  23.723  26.391  1.00  0.00     0.029 A 
ATOM     76  C   UNL A   1      34.386  22.468  25.791  1.00  0.00     0.066 A 
BRANCH  76  77
ATOM     77  N   UNL A   1      35.694  21.985  25.553  1.00  0.00    -0.220 N 
ATOM     78  C   UNL A   1      36.882  22.583  25.885  1.00  0.00     0.141 A 
ATOM     79  N   UNL A   1      35.951  20.799  24.949  1.00  0.00    -0.062 NA
ATOM     80  C   UNL A   1      37.857  21.662  25.578  1.00  0.00     0.093 A 
ATOM     81  N   UNL A   1      37.267  20.603  24.946  1.00  0.00    -0.134 NA
BRANCH  80  82
ATOM     82  C   UNL A   1      39.323  21.802  25.687  1.00  0.00     0.138 C 
BRANCH  82  83
ATOM     83  S   UNL A   1      40.117  22.394  27.185  1.00  0.00    -0.081 SA
BRANCH  83  84
ATOM     84  C   UNL A   1      40.578  24.074  27.077  1.00  0.00     0.176 A 
ATOM     85  N   UNL A   1      39.693  24.850  27.631  1.00  0.00    -0.223 NA
ATOM     86  N   UNL A   1      41.749  24.579  26.524  1.00  0.00    -0.255 N 
ATOM     87  C   UNL A   1      39.882  26.234  27.578  1.00  0.00     0.079 A 
ATOM     88  C   UNL A   1      41.607  25.843  25.925  1.00  0.00     0.266 A 
ATOM     89  C   UNL A   1      39.173  27.091  28.422  1.00  0.00     0.029 A 
ATOM     90  C   UNL A   1      40.714  26.785  26.617  1.00  0.00     0.066 A 
ATOM     91  O   UNL A   1      42.159  26.222  24.893  1.00  0.00    -0.268 OA
ATOM     92  C   UNL A   1      39.250  28.478  28.250  1.00  0.00     0.002 A 
ATOM     93  C   UNL A   1      40.762  28.166  26.395  1.00  0.00     0.016 A 
ATOM     94  C   UNL A   1      40.015  29.013  27.212  1.00  0.00     0.001 A 
BRANCH  86  95
ATOM     95  C   UNL A   1      43.065  23.961  26.513  1.00  0.00     0.051 A 
ATOM     96  C   UNL A   1      43.980  24.229  27.554  1.00  0.00     0.027 A 
ATOM     97  C   UNL A   1      43.508  23.040  25.556  1.00  0.00     0.027 A 
ATOM     98  C   UNL A   1      45.301  23.767  27.535  1.00  0.00     0.002 A 
ATOM     99  C   UNL A   1      44.848  22.627  25.488  1.00  0.00     0.002 A 
ATOM    100  C   UNL A   1      45.753  23.013  26.466  1.00  0.00     0.000 A 
ENDBRANCH  86  95
ENDBRANCH  83  84
ENDBRANCH  82  83
ENDBRANCH  80  82
ENDBRANCH  76  77
ENDBRANCH  68  71
ENDBRANCH  66  67
ENDBRANCH   1  66
TORSDOF 18
ENDMDL
MODEL 2
REMARK VINA RESULT:     -11.0      1.587      2.168
REMARK SMILES O=C(NCCCCCCNC(=O)c1ccc(-n2cc(CSc3nc4ccccc4c(=O)n3-c3ccccc3)nn2)cc1)c1ccc(-c2c3nc(c(-c4c(F)cccc4F)c4ccc([nH]4)c(-c4c(F)cccc4F)c4nc(c(-c5c(F)cccc5F)c5ccc2[nH]5)C=C4)C=C3)cc1
REMARK SMILES IDX 8 1 7 2 6 3 5 4 4 5 3 6 1 7 2 8 43 10 44 11 96 12 45 13
REMARK SMILES IDX 95 14 46 15 47 16 48 17 89 18 49 19 94 20 88 21 90 22 50 23
REMARK SMILES IDX 93 24 87 25 86 26 51 28 77 29 60 30 76 31 61 32 64 33 75 34
REMARK SMILES IDX 91 35 62 36 63 37 74 39 92 40 65 41 52 42 53 43 58 44 54 45
REMARK SMILES IDX 55 46 57 47 59 48 56 49 78 50 79 51 84 52 80 53 81 54 83 55
REMARK SMILES IDX 85 56 82 57 66 58 67 59 72 60 68 61 69 62 71 63 73 64 70 65
REMARK SMILES IDX 9 66 10 67 11 68 12 70 13 71 14 72 42 73 15 74 41 75 16 76
REMARK SMILES IDX 17 77 18 78 40 79 19 80 39 81 20 82 21 83 22 84 23 85 32 86
REMARK SMILES IDX 24 87 30 88 25 89 29 90 31 91 26 92 28 93 27 94 33 95 34 96
REMARK SMILES IDX 38 97 35 98 37 99 36 100
REMARK H PARENT 3 9 90 27 64 38 10 69
REMARK Flexibility Score: inf
ROOT
ATOM      1  C   UNL A   1      32.793  26.342  23.606  1.00  0.00     0.021 C 
ENDROOT
BRANCH   1   2
ATOM      2  C   UNL A   1      33.920  26.421  24.639  1.00  0.00     0.002 C 
BRANCH   2   3
ATOM      3  C   UNL A   1      33.547  27.029  25.996  1.00  0.00     0.002 C 
BRANCH   3   4
ATOM      4  C   UNL A   1      33.697  28.551  26.127  1.00  0.00     0.021 C 
BRANCH   4   5
ATOM      5  C   UNL A   1      34.119  29.051  27.507  1.00  0.00     0.116 C 
BRANCH   5   6
ATOM      6  N   UNL A   1      33.887  30.465  27.723  1.00  0.00    -0.352 N 
ATOM      7  O   UNL A   1      34.095  32.618  28.134  1.00  0.00    -0.269 OA
ATOM      8  C   UNL A   1      34.584  31.496  28.288  1.00  0.00     0.251 C 
ATOM      9  H   UNL A   1      33.012  30.755  27.377  1.00  0.00     0.163 HD
BRANCH   8  10
ATOM     10  C   UNL A   1      35.827  31.373  29.104  1.00  0.00     0.039 A 
ATOM     11  C   UNL A   1      35.945  30.744  30.342  1.00  0.00     0.014 A 
ATOM     12  C   UNL A   1      36.978  31.980  28.555  1.00  0.00     0.014 A 
ATOM     13  C   UNL A   1      37.160  30.773  31.034  1.00  0.00     0.010 A 
ATOM     14  C   UNL A   1      38.192  32.012  29.240  1.00  0.00     0.010 A 
ATOM     15  C   UNL A   1      38.278  31.427  30.496  1.00  0.00    -0.014 A 
BRANCH  15  16
ATOM     16  C   UNL A   1      39.557  31.308  31.198  1.00  0.00     0.031 A 
ATOM     17  C   UNL A   1      40.063  32.593  31.759  1.00  0.00     0.074 A 
ATOM     18  C   UNL A   1      40.215  30.160  31.465  1.00  0.00     0.049 A 
ATOM     19  N   UNL A   1      41.106  33.259  31.386  1.00  0.00    -0.248 NA
ATOM     20  C   UNL A   1      39.255  33.269  32.784  1.00  0.00     0.031 C 
ATOM     21  C   UNL A   1      39.754  28.784  31.285  1.00  0.00     0.029 A 
ATOM     22  N   UNL A   1      41.447  29.996  32.040  1.00  0.00    -0.354 N 
ATOM     23  C   UNL A   1      41.195  34.352  32.245  1.00  0.00     0.074 A 
ATOM     24  C   UNL A   1      39.961  34.382  32.989  1.00  0.00     0.031 C 
ATOM     25  C   UNL A   1      40.601  27.940  31.923  1.00  0.00     0.029 A 
ATOM     26  C   UNL A   1      41.734  28.694  32.435  1.00  0.00     0.049 A 
ATOM     27  H   UNL A   1      42.079  30.741  32.163  1.00  0.00     0.167 HD
ATOM     28  C   UNL A   1      42.368  35.023  32.419  1.00  0.00     0.037 A 
ATOM     29  C   UNL A   1      42.807  28.275  33.158  1.00  0.00     0.037 A 
ATOM     30  C   UNL A   1      43.301  34.730  31.361  1.00  0.00     0.049 A 
ATOM     31  C   UNL A   1      43.861  29.311  33.054  1.00  0.00     0.074 A 
ATOM     32  C   UNL A   1      43.297  34.869  29.987  1.00  0.00     0.029 A 
ATOM     33  N   UNL A   1      44.337  33.876  31.642  1.00  0.00    -0.354 N 
ATOM     34  N   UNL A   1      44.550  29.549  31.977  1.00  0.00    -0.248 NA
ATOM     35  C   UNL A   1      43.877  30.366  34.054  1.00  0.00     0.031 C 
ATOM     36  C   UNL A   1      43.985  33.719  29.499  1.00  0.00     0.029 A 
ATOM     37  C   UNL A   1      44.418  32.986  30.604  1.00  0.00     0.049 A 
ATOM     38  H   UNL A   1      44.915  33.899  32.439  1.00  0.00     0.167 HD
ATOM     39  C   UNL A   1      44.686  30.926  31.954  1.00  0.00     0.074 A 
ATOM     40  C   UNL A   1      44.352  31.365  33.306  1.00  0.00     0.031 C 
ATOM     41  C   UNL A   1      44.783  31.601  30.772  1.00  0.00     0.037 A 
BRANCH  28  42
ATOM     42  C   UNL A   1      42.817  35.640  33.722  1.00  0.00     0.057 A 
ATOM     43  C   UNL A   1      42.741  34.878  34.905  1.00  0.00     0.134 A 
ATOM     44  C   UNL A   1      43.012  37.022  33.915  1.00  0.00     0.134 A 
ATOM     45  F   UNL A   1      42.548  33.550  34.857  1.00  0.00    -0.206 F 
ATOM     46  C   UNL A   1      42.761  35.460  36.177  1.00  0.00     0.040 A 
ATOM     47  C   UNL A   1      43.085  37.607  35.183  1.00  0.00     0.040 A 
ATOM     48  F   UNL A   1      43.036  37.891  32.898  1.00  0.00    -0.206 F 
ATOM     49  C   UNL A   1      42.923  36.831  36.319  1.00  0.00     0.006 A 
ENDBRANCH  28  42
BRANCH  29  50
ATOM     50  C   UNL A   1      42.929  27.169  34.136  1.00  0.00     0.057 A 
ATOM     51  C   UNL A   1      42.113  27.111  35.280  1.00  0.00     0.134 A 
ATOM     52  C   UNL A   1      43.619  25.989  33.816  1.00  0.00     0.134 A 
ATOM     53  F   UNL A   1      41.382  28.173  35.651  1.00  0.00    -0.206 F 
ATOM     54  C   UNL A   1      41.965  25.940  36.036  1.00  0.00     0.040 A 
ATOM     55  C   UNL A   1      43.484  24.814  34.565  1.00  0.00     0.040 A 
ATOM     56  F   UNL A   1      44.371  25.910  32.709  1.00  0.00    -0.206 F 
ATOM     57  C   UNL A   1      42.641  24.781  35.670  1.00  0.00     0.006 A 
ENDBRANCH  29  50
BRANCH  41  58
ATOM     58  C   UNL A   1      45.051  30.807  29.525  1.00  0.00     0.057 A 
ATOM     59  C   UNL A   1      46.328  30.470  29.051  1.00  0.00     0.134 A 
ATOM     60  C   UNL A   1      43.959  30.260  28.840  1.00  0.00     0.134 A 
ATOM     61  F   UNL A   1      47.437  30.856  29.697  1.00  0.00    -0.206 F 
ATOM     62  C   UNL A   1      46.505  29.673  27.916  1.00  0.00     0.040 A 
ATOM     63  C   UNL A   1      44.122  29.431  27.729  1.00  0.00     0.040 A 
ATOM     64  F   UNL A   1      42.707  30.493  29.266  1.00  0.00    -0.206 F 
ATOM     65  C   UNL A   1      45.399  29.146  27.254  1.00  0.00     0.006 A 
ENDBRANCH  41  58
ENDBRANCH  15  16
ENDBRANCH   8  10
ENDBRANCH   5   6
ENDBRANCH   4   5
ENDBRANCH   3   4
ENDBRANCH   2   3
ENDBRANCH   1   2
BRANCH   1  66
ATOM     66  C   UNL A   1      33.048  25.399  22.433  1.00  0.00     0.116 C 
BRANCH  66  67
ATOM     67  N   UNL A   1      32.206  24.214  22.476  1.00  0.00    -0.352 N 
ATOM     68  C   UNL A   1      32.524  22.942  22.872  1.00  0.00     0.251 C 
ATOM     69  H   UNL A   1      31.276  24.344  22.179  1.00  0.00     0.163 HD
ATOM     70  O   UNL A   1      31.718  22.019  22.724  1.00  0.00    -0.269 OA
BRANCH  68  71
ATOM     71  C   UNL A   1      33.848  22.663  23.459  1.00  0.00     0.039 A 
ATOM     72  C   UNL A   1      33.919  21.952  24.660  1.00  0.00     0.016 A 
ATOM     73  C   UNL A   1      35.013  23.113  22.829  1.00  0.00     0.016 A 
ATOM     74  C   UNL A   1      35.165  21.630  25.203  1.00  0.00     0.029 A 
ATOM     75  C   UNL A   1      36.259  22.807  23.378  1.00  0.00     0.029 A 
ATOM     76  C   UNL A   1      36.338  22.064  24.568  1.00  0.00     0.066 A 
BRANCH  76  77
ATOM     77  N   UNL A   1      37.591  21.799  25.170  1.00  0.00    -0.220 N 
ATOM     78  C   UNL A   1      38.378  22.666  25.882  1.00  0.00     0.141 A 
ATOM     79  N   UNL A   1      38.195  20.587  25.129  1.00  0.00    -0.062 NA
ATOM     80  C   UNL A   1      39.412  21.903  26.377  1.00  0.00     0.093 A 
ATOM     81  N   UNL A   1      39.312  20.647  25.848  1.00  0.00    -0.134 NA
BRANCH  80  82
ATOM     82  C   UNL A   1      40.577  22.339  27.173  1.00  0.00     0.138 C 
BRANCH  82  83
ATOM     83  S   UNL A   1      41.959  23.220  26.442  1.00  0.00    -0.081 SA
BRANCH  83  84
ATOM     84  C   UNL A   1      41.793  24.952  26.575  1.00  0.00     0.176 A 
ATOM     85  N   UNL A   1      40.664  25.282  27.130  1.00  0.00    -0.223 NA
ATOM     86  N   UNL A   1      42.730  25.907  26.199  1.00  0.00    -0.255 N 
ATOM     87  C   UNL A   1      40.346  26.638  27.258  1.00  0.00     0.079 A 
ATOM     88  C   UNL A   1      42.173  27.114  25.742  1.00  0.00     0.266 A 
ATOM     89  C   UNL A   1      39.338  27.063  28.125  1.00  0.00     0.029 A 
ATOM     90  C   UNL A   1      40.971  27.576  26.452  1.00  0.00     0.066 A 
ATOM     91  O   UNL A   1      42.600  27.805  24.819  1.00  0.00    -0.268 OA
ATOM     92  C   UNL A   1      38.922  28.399  28.125  1.00  0.00     0.002 A 
ATOM     93  C   UNL A   1      40.531  28.903  26.399  1.00  0.00     0.016 A 
ATOM     94  C   UNL A   1      39.492  29.311  27.235  1.00  0.00     0.001 A 
BRANCH  86  95
ATOM     95  C   UNL A   1      44.179  25.795  26.241  1.00  0.00     0.051 A 
ATOM     96  C   UNL A   1      44.834  25.559  27.470  1.00  0.00     0.027 A 
ATOM     97  C   UNL A   1      45.017  25.842  25.122  1.00  0.00     0.027 A 
ATOM     98  C   UNL A   1      46.227  25.567  27.595  1.00  0.00     0.002 A 
ATOM     99  C   UNL A   1      46.414  25.922  25.243  1.00  0.00     0.002 A 
ATOM    100  C   UNL A   1      47.019  25.810  26.485  1.00  0.00     0.000 A 
ENDBRANCH  86  95
ENDBRANCH  83  84
ENDBRANCH  82  83
ENDBRANCH  80  82
ENDBRANCH  76  77
ENDBRANCH  68  71
ENDBRANCH  66  67
ENDBRANCH   1  66
TORSDOF 18
ENDMDL
MODEL 3
REMARK VINA RESULT:     -10.9      1.795      3.098
REMARK SMILES O=C(NCCCCCCNC(=O)c1ccc(-n2cc(CSc3nc4ccccc4c(=O)n3-c3ccccc3)nn2)cc1)c1ccc(-c2c3nc(c(-c4c(F)cccc4F)c4ccc([nH]4)c(-c4c(F)cccc4F)c4nc(c(-c5c(F)cccc5F)c5ccc2[nH]5)C=C4)C=C3)cc1
REMARK SMILES IDX 8 1 7 2 6 3 5 4 4 5 3 6 1 7 2 8 43 10 44 11 96 12 45 13
REMARK SMILES IDX 95 14 46 15 47 16 48 17 89 18 49 19 94 20 88 21 90 22 50 23
REMARK SMILES IDX 93 24 87 25 86 26 51 28 77 29 60 30 76 31 61 32 64 33 75 34
REMARK SMILES IDX 91 35 62 36 63 37 74 39 92 40 65 41 52 42 53 43 58 44 54 45
REMARK SMILES IDX 55 46 57 47 59 48 56 49 78 50 79 51 84 52 80 53 81 54 83 55
REMARK SMILES IDX 85 56 82 57 66 58 67 59 72 60 68 61 69 62 71 63 73 64 70 65
REMARK SMILES IDX 9 66 10 67 11 68 12 70 13 71 14 72 42 73 15 74 41 75 16 76
REMARK SMILES IDX 17 77 18 78 40 79 19 80 39 81 20 82 21 83 22 84 23 85 32 86
REMARK SMILES IDX 24 87 30 88 25 89 29 90 31 91 26 92 28 93 27 94 33 95 34 96
REMARK SMILES IDX 38 97 35 98 37 99 36 100
REMARK H PARENT 3 9 90 27 64 38 10 69
REMARK Flexibility Score: inf
ROOT
ATOM      1  C   UNL A   1      32.588  27.335  23.593  1.00  0.00     0.021 C 
ENDROOT
BRANCH   1   2
ATOM      2  C   UNL A   1      33.791  27.772  24.433  1.00  0.00     0.002 C 
BRANCH   2   3
ATOM      3  C   UNL A   1      33.682  27.526  25.943  1.00  0.00     0.002 C 
BRANCH   3   4
ATOM      4  C   UNL A   1      33.161  28.695  26.789  1.00  0.00     0.021 C 
BRANCH   4   5
ATOM      5  C   UNL A   1      34.220  29.431  27.609  1.00  0.00     0.116 C 
BRANCH   5   6
ATOM      6  N   UNL A   1      33.891  30.812  27.899  1.00  0.00    -0.352 N 
ATOM      7  O   UNL A   1      33.947  32.942  28.457  1.00  0.00    -0.269 OA
ATOM      8  C   UNL A   1      34.492  31.841  28.570  1.00  0.00     0.251 C 
ATOM      9  H   UNL A   1      33.023  31.075  27.518  1.00  0.00     0.163 HD
BRANCH   8  10
ATOM     10  C   UNL A   1      35.690  31.733  29.453  1.00  0.00     0.039 A 
ATOM     11  C   UNL A   1      35.691  31.417  30.810  1.00  0.00     0.014 A 
ATOM     12  C   UNL A   1      36.929  32.003  28.832  1.00  0.00     0.014 A 
ATOM     13  C   UNL A   1      36.887  31.428  31.535  1.00  0.00     0.010 A 
ATOM     14  C   UNL A   1      38.125  32.015  29.549  1.00  0.00     0.010 A 
ATOM     15  C   UNL A   1      38.102  31.751  30.912  1.00  0.00    -0.014 A 
BRANCH  15  16
ATOM     16  C   UNL A   1      39.338  31.613  31.684  1.00  0.00     0.031 A 
ATOM     17  C   UNL A   1      39.804  32.881  32.313  1.00  0.00     0.074 A 
ATOM     18  C   UNL A   1      39.984  30.459  31.955  1.00  0.00     0.049 A 
ATOM     19  N   UNL A   1      40.865  33.561  32.024  1.00  0.00    -0.248 NA
ATOM     20  C   UNL A   1      38.934  33.524  33.309  1.00  0.00     0.031 C 
ATOM     21  C   UNL A   1      39.540  29.088  31.706  1.00  0.00     0.029 A 
ATOM     22  N   UNL A   1      41.180  30.281  32.596  1.00  0.00    -0.354 N 
ATOM     23  C   UNL A   1      40.898  34.628  32.920  1.00  0.00     0.074 A 
ATOM     24  C   UNL A   1      39.622  34.632  33.590  1.00  0.00     0.031 C 
ATOM     25  C   UNL A   1      40.351  28.226  32.366  1.00  0.00     0.029 A 
ATOM     26  C   UNL A   1      41.449  28.967  32.968  1.00  0.00     0.049 A 
ATOM     27  H   UNL A   1      41.800  31.023  32.780  1.00  0.00     0.167 HD
ATOM     28  C   UNL A   1      42.056  35.295  33.185  1.00  0.00     0.037 A 
ATOM     29  C   UNL A   1      42.478  28.528  33.740  1.00  0.00     0.037 A 
ATOM     30  C   UNL A   1      43.051  35.038  32.175  1.00  0.00     0.049 A 
ATOM     31  C   UNL A   1      43.532  29.570  33.731  1.00  0.00     0.074 A 
ATOM     32  C   UNL A   1      43.129  35.219  30.808  1.00  0.00     0.029 A 
ATOM     33  N   UNL A   1      44.072  34.178  32.491  1.00  0.00    -0.354 N 
ATOM     34  N   UNL A   1      44.283  29.843  32.705  1.00  0.00    -0.248 NA
ATOM     35  C   UNL A   1      43.484  30.594  34.762  1.00  0.00     0.031 C 
ATOM     36  C   UNL A   1      43.849  34.086  30.327  1.00  0.00     0.029 A 
ATOM     37  C   UNL A   1      44.218  33.321  31.433  1.00  0.00     0.049 A 
ATOM     38  H   UNL A   1      44.601  34.178  33.322  1.00  0.00     0.167 HD
ATOM     39  C   UNL A   1      44.415  31.221  32.732  1.00  0.00     0.074 A 
ATOM     40  C   UNL A   1      43.998  31.617  34.075  1.00  0.00     0.031 C 
ATOM     41  C   UNL A   1      44.578  31.932  31.579  1.00  0.00     0.037 A 
BRANCH  28  42
ATOM     42  C   UNL A   1      42.424  35.873  34.530  1.00  0.00     0.057 A 
ATOM     43  C   UNL A   1      42.921  37.190  34.598  1.00  0.00     0.134 A 
ATOM     44  C   UNL A   1      42.613  35.104  35.695  1.00  0.00     0.134 A 
ATOM     45  F   UNL A   1      42.812  38.022  33.551  1.00  0.00    -0.206 F 
ATOM     46  C   UNL A   1      43.634  37.669  35.703  1.00  0.00     0.040 A 
ATOM     47  C   UNL A   1      43.278  35.590  36.824  1.00  0.00     0.040 A 
ATOM     48  F   UNL A   1      42.260  33.815  35.767  1.00  0.00    -0.206 F 
ATOM     49  C   UNL A   1      43.824  36.864  36.818  1.00  0.00     0.006 A 
ENDBRANCH  28  42
BRANCH  29  50
ATOM     50  C   UNL A   1      42.546  27.393  34.689  1.00  0.00     0.057 A 
ATOM     51  C   UNL A   1      41.781  27.379  35.869  1.00  0.00     0.134 A 
ATOM     52  C   UNL A   1      43.116  26.166  34.314  1.00  0.00     0.134 A 
ATOM     53  F   UNL A   1      41.163  28.491  36.294  1.00  0.00    -0.206 F 
ATOM     54  C   UNL A   1      41.565  26.207  36.607  1.00  0.00     0.040 A 
ATOM     55  C   UNL A   1      42.912  24.990  35.045  1.00  0.00     0.040 A 
ATOM     56  F   UNL A   1      43.808  26.049  33.172  1.00  0.00    -0.206 F 
ATOM     57  C   UNL A   1      42.120  25.003  36.187  1.00  0.00     0.006 A 
ENDBRANCH  29  50
BRANCH  41  58
ATOM     58  C   UNL A   1      44.924  31.177  30.327  1.00  0.00     0.057 A 
ATOM     59  C   UNL A   1      43.986  30.645  29.430  1.00  0.00     0.134 A 
ATOM     60  C   UNL A   1      46.272  31.091  29.956  1.00  0.00     0.134 A 
ATOM     61  F   UNL A   1      42.669  30.770  29.641  1.00  0.00    -0.206 F 
ATOM     62  C   UNL A   1      44.377  30.007  28.248  1.00  0.00     0.040 A 
ATOM     63  C   UNL A   1      46.673  30.492  28.761  1.00  0.00     0.040 A 
ATOM     64  F   UNL A   1      47.224  31.626  30.737  1.00  0.00    -0.206 F 
ATOM     65  C   UNL A   1      45.725  29.934  27.909  1.00  0.00     0.006 A 
ENDBRANCH  41  58
ENDBRANCH  15  16
ENDBRANCH   8  10
ENDBRANCH   5   6
ENDBRANCH   4   5
ENDBRANCH   3   4
ENDBRANCH   2   3
ENDBRANCH   1   2
BRANCH   1  66
ATOM     66  C   UNL A   1      32.873  26.242  22.566  1.00  0.00     0.116 C 
BRANCH  66  67
ATOM     67  N   UNL A   1      32.009  25.083  22.731  1.00  0.00    -0.352 N 
ATOM     68  C   UNL A   1      32.307  23.851  23.248  1.00  0.00     0.251 C 
ATOM     69  H   UNL A   1      31.079  25.201  22.427  1.00  0.00     0.163 HD
ATOM     70  O   UNL A   1      31.483  22.933  23.197  1.00  0.00    -0.269 OA
BRANCH  68  71
ATOM     71  C   UNL A   1      33.630  23.606  23.852  1.00  0.00     0.039 A 
ATOM     72  C   UNL A   1      34.653  23.088  23.054  1.00  0.00     0.016 A 
ATOM     73  C   UNL A   1      33.854  23.879  25.206  1.00  0.00     0.016 A 
ATOM     74  C   UNL A   1      35.928  22.902  23.594  1.00  0.00     0.029 A 
ATOM     75  C   UNL A   1      35.122  23.679  25.752  1.00  0.00     0.029 A 
ATOM     76  C   UNL A   1      36.164  23.188  24.946  1.00  0.00     0.066 A 
BRANCH  76  77
ATOM     77  N   UNL A   1      37.438  22.922  25.500  1.00  0.00    -0.220 N 
ATOM     78  C   UNL A   1      38.308  23.816  26.067  1.00  0.00     0.141 A 
ATOM     79  N   UNL A   1      37.980  21.681  25.557  1.00  0.00    -0.062 NA
ATOM     80  C   UNL A   1      39.334  23.055  26.582  1.00  0.00     0.093 A 
ATOM     81  N   UNL A   1      39.142  21.757  26.200  1.00  0.00    -0.134 NA
BRANCH  80  82
ATOM     82  C   UNL A   1      40.565  23.509  27.259  1.00  0.00     0.138 C 
BRANCH  82  83
ATOM     83  S   UNL A   1      41.898  24.322  26.372  1.00  0.00    -0.081 SA
BRANCH  83  84
ATOM     84  C   UNL A   1      42.833  25.381  27.398  1.00  0.00     0.176 A 
ATOM     85  N   UNL A   1      44.107  25.132  27.307  1.00  0.00    -0.223 NA
ATOM     86  N   UNL A   1      42.344  26.409  28.196  1.00  0.00    -0.255 N 
ATOM     87  C   UNL A   1      44.994  25.853  28.112  1.00  0.00     0.079 A 
ATOM     88  C   UNL A   1      43.077  26.623  29.375  1.00  0.00     0.266 A 
ATOM     89  C   UNL A   1      46.361  25.881  27.832  1.00  0.00     0.029 A 
ATOM     90  C   UNL A   1      44.536  26.481  29.259  1.00  0.00     0.066 A 
ATOM     91  O   UNL A   1      42.611  26.917  30.475  1.00  0.00    -0.268 OA
ATOM     92  C   UNL A   1      47.256  26.470  28.732  1.00  0.00     0.002 A 
ATOM     93  C   UNL A   1      45.420  27.027  30.197  1.00  0.00     0.016 A 
ATOM     94  C   UNL A   1      46.789  27.010  29.932  1.00  0.00     0.001 A 
BRANCH  86  95
ATOM     95  C   UNL A   1      41.197  27.265  27.938  1.00  0.00     0.051 A 
ATOM     96  C   UNL A   1      41.316  28.357  27.050  1.00  0.00     0.027 A 
ATOM     97  C   UNL A   1      39.916  27.065  28.463  1.00  0.00     0.027 A 
ATOM     98  C   UNL A   1      40.290  29.288  26.859  1.00  0.00     0.002 A 
ATOM     99  C   UNL A   1      38.902  28.028  28.335  1.00  0.00     0.002 A 
ATOM    100  C   UNL A   1      39.099  29.155  27.552  1.00  0.00     0.000 A 
ENDBRANCH  86  95
ENDBRANCH  83  84
ENDBRANCH  82  83
ENDBRANCH  80  82
ENDBRANCH  76  77
ENDBRANCH  68  71
ENDBRANCH  66  67
ENDBRANCH   1  66
TORSDOF 18
ENDMDL
