MODEL 1
REMARK VINA RESULT:      -8.8      0.000      0.000
REMARK SMILES COCc1cccc(C[NH2+][C@H](C)[C@H](C)C(=O)NCCCCCCNC(=O)c2ccc(-c3c4nc(c(-c5c(F)cccc5F)c5ccc([nH]5)c(-c5c(F)cccc5F)c5nc(c(-c6c(F)cccc6F)c6ccc3[nH]6)C=C5)C=C4)cc2)c1
REMARK SMILES IDX 18 1 17 2 15 3 16 4 13 6 14 7 11 8 12 9 10 10 9 13 8 14 4 15
REMARK SMILES IDX 5 16 81 17 6 18 7 19 3 20 2 21 1 22 19 23 20 24 21 25 22 26
REMARK SMILES IDX 23 27 24 28 25 29 26 31 27 32 28 33 80 34 29 35 79 36 30 37
REMARK SMILES IDX 31 38 32 39 73 40 33 41 78 42 72 43 74 44 34 45 77 46 71 47
REMARK SMILES IDX 70 48 35 50 61 51 44 52 60 53 45 54 48 55 59 56 75 57 46 58
REMARK SMILES IDX 47 59 58 61 76 62 49 63 36 64 37 65 42 66 38 67 39 68 41 69
REMARK SMILES IDX 43 70 40 71 62 72 63 73 68 74 64 75 65 76 67 77 69 78 66 79
REMARK SMILES IDX 50 80 51 81 56 82 52 83 53 84 55 85 57 86 54 87
REMARK H PARENT 17 5 10 11 10 12 24 30 74 49 48 60
REMARK Flexibility Score: inf
ROOT
ATOM      1  C   UNL A   1      46.137  26.411  29.948  1.00  0.00     0.116 C 
ENDROOT
BRANCH   1   2
ATOM      2  N   UNL A   1      46.641  25.299  29.182  1.00  0.00    -0.356 N 
ATOM      3  C   UNL A   1      46.916  25.185  27.864  1.00  0.00     0.228 C 
ATOM      4  O   UNL A   1      47.132  24.045  27.443  1.00  0.00    -0.275 OA
ATOM      5  H   UNL A   1      46.816  24.485  29.709  1.00  0.00     0.163 HD
BRANCH   3   6
ATOM      6  C   UNL A   1      47.003  26.383  26.922  1.00  0.00     0.133 C 
ATOM      7  C   UNL A   1      48.418  26.638  26.402  1.00  0.00     0.024 C 
BRANCH   6   8
ATOM      8  C   UNL A   1      45.856  26.503  25.875  1.00  0.00     0.191 C 
ATOM      9  C   UNL A   1      46.096  27.449  24.692  1.00  0.00     0.076 C 
BRANCH   8  10
ATOM     10  N   UNL A   1      45.404  25.230  25.285  1.00  0.00    -0.340 N 
ATOM     11  H   UNL A   1      45.765  25.171  24.334  1.00  0.00     0.346 HD
ATOM     12  H   UNL A   1      45.757  24.484  25.885  1.00  0.00     0.346 HD
BRANCH  10  13
ATOM     13  C   UNL A   1      43.950  25.085  25.237  1.00  0.00     0.297 C 
BRANCH  13  14
ATOM     14  C   UNL A   1      43.483  24.099  26.279  1.00  0.00     0.006 A 
ATOM     15  C   UNL A   1      42.723  21.854  26.876  1.00  0.00    -0.022 A 
ATOM     16  C   UNL A   1      42.597  22.269  28.209  1.00  0.00     0.006 A 
ATOM     17  C   UNL A   1      43.191  22.773  25.923  1.00  0.00     0.015 A 
ATOM     18  C   UNL A   1      42.880  23.587  28.570  1.00  0.00     0.001 A 
ATOM     19  C   UNL A   1      43.307  24.501  27.608  1.00  0.00     0.009 A 
BRANCH  15  20
ATOM     20  C   UNL A   1      42.395  20.431  26.493  1.00  0.00     0.195 C 
BRANCH  20  21
ATOM     21  O   UNL A   1      42.911  20.050  25.214  1.00  0.00    -0.380 OA
ATOM     22  C   UNL A   1      43.976  19.112  25.300  1.00  0.00     0.195 C 
ENDBRANCH  20  21
ENDBRANCH  15  20
ENDBRANCH  13  14
ENDBRANCH  10  13
ENDBRANCH   8  10
ENDBRANCH   6   8
ENDBRANCH   3   6
ENDBRANCH   1   2
BRANCH   1  23
ATOM     23  C   UNL A   1      46.028  26.047  31.423  1.00  0.00     0.021 C 
BRANCH  23  24
ATOM     24  C   UNL A   1      45.238  24.761  31.687  1.00  0.00     0.002 C 
BRANCH  24  25
ATOM     25  C   UNL A   1      44.645  24.643  33.095  1.00  0.00     0.002 C 
BRANCH  25  26
ATOM     26  C   UNL A   1      45.534  23.925  34.113  1.00  0.00     0.021 C 
BRANCH  26  27
ATOM     27  C   UNL A   1      46.849  24.634  34.409  1.00  0.00     0.116 C 
BRANCH  27  28
ATOM     28  N   UNL A   1      47.024  24.896  35.828  1.00  0.00    -0.352 N 
ATOM     29  C   UNL A   1      46.501  25.915  36.582  1.00  0.00     0.251 C 
ATOM     30  H   UNL A   1      47.593  24.254  36.313  1.00  0.00     0.163 HD
ATOM     31  O   UNL A   1      46.891  26.110  37.729  1.00  0.00    -0.269 OA
BRANCH  29  32
ATOM     32  C   UNL A   1      45.478  26.795  35.986  1.00  0.00     0.039 A 
ATOM     33  C   UNL A   1      45.883  27.848  35.163  1.00  0.00     0.014 A 
ATOM     34  C   UNL A   1      44.120  26.555  36.215  1.00  0.00     0.014 A 
ATOM     35  C   UNL A   1      44.920  28.624  34.516  1.00  0.00     0.010 A 
ATOM     36  C   UNL A   1      43.166  27.279  35.511  1.00  0.00     0.010 A 
ATOM     37  C   UNL A   1      43.556  28.321  34.655  1.00  0.00    -0.014 A 
BRANCH  37  38
ATOM     38  C   UNL A   1      42.513  29.075  33.916  1.00  0.00     0.031 A 
ATOM     39  C   UNL A   1      41.777  30.196  34.596  1.00  0.00     0.074 A 
ATOM     40  C   UNL A   1      42.168  28.694  32.671  1.00  0.00     0.049 A 
ATOM     41  N   UNL A   1      40.753  30.889  34.172  1.00  0.00    -0.248 NA
ATOM     42  C   UNL A   1      42.236  30.565  35.946  1.00  0.00     0.031 C 
ATOM     43  C   UNL A   1      42.780  27.596  31.920  1.00  0.00     0.029 A 
ATOM     44  N   UNL A   1      41.200  29.175  31.825  1.00  0.00    -0.354 N 
ATOM     45  C   UNL A   1      40.431  31.757  35.208  1.00  0.00     0.074 A 
ATOM     46  C   UNL A   1      41.339  31.474  36.297  1.00  0.00     0.031 C 
ATOM     47  C   UNL A   1      42.177  27.492  30.725  1.00  0.00     0.029 A 
ATOM     48  C   UNL A   1      41.108  28.482  30.641  1.00  0.00     0.049 A 
ATOM     49  H   UNL A   1      40.624  29.942  32.045  1.00  0.00     0.167 HD
ATOM     50  C   UNL A   1      39.475  32.716  35.240  1.00  0.00     0.037 A 
ATOM     51  C   UNL A   1      40.247  28.615  29.615  1.00  0.00     0.037 A 
ATOM     52  C   UNL A   1      38.594  33.013  34.141  1.00  0.00     0.049 A 
ATOM     53  C   UNL A   1      39.188  29.681  29.680  1.00  0.00     0.074 A 
ATOM     54  C   UNL A   1      37.642  34.013  34.048  1.00  0.00     0.029 A 
ATOM     55  N   UNL A   1      38.553  32.309  32.948  1.00  0.00    -0.354 N 
ATOM     56  N   UNL A   1      38.941  30.544  30.637  1.00  0.00    -0.248 NA
ATOM     57  C   UNL A   1      38.287  29.795  28.524  1.00  0.00     0.031 C 
ATOM     58  C   UNL A   1      36.987  33.879  32.821  1.00  0.00     0.029 A 
ATOM     59  C   UNL A   1      37.571  32.833  32.125  1.00  0.00     0.049 A 
ATOM     60  H   UNL A   1      39.137  31.548  32.719  1.00  0.00     0.167 HD
ATOM     61  C   UNL A   1      37.882  31.322  30.185  1.00  0.00     0.074 A 
ATOM     62  C   UNL A   1      37.540  30.836  28.865  1.00  0.00     0.031 C 
ATOM     63  C   UNL A   1      37.251  32.347  30.807  1.00  0.00     0.037 A 
BRANCH  50  64
ATOM     64  C   UNL A   1      39.326  33.512  36.504  1.00  0.00     0.057 A 
ATOM     65  C   UNL A   1      38.581  33.044  37.593  1.00  0.00     0.134 A 
ATOM     66  C   UNL A   1      39.982  34.742  36.651  1.00  0.00     0.134 A 
ATOM     67  F   UNL A   1      37.919  31.880  37.515  1.00  0.00    -0.206 F 
ATOM     68  C   UNL A   1      38.474  33.780  38.775  1.00  0.00     0.040 A 
ATOM     69  C   UNL A   1      39.908  35.472  37.838  1.00  0.00     0.040 A 
ATOM     70  F   UNL A   1      40.719  35.246  35.648  1.00  0.00    -0.206 F 
ATOM     71  C   UNL A   1      39.147  34.994  38.902  1.00  0.00     0.006 A 
ENDBRANCH  50  64
BRANCH  51  72
ATOM     72  C   UNL A   1      40.345  27.716  28.437  1.00  0.00     0.057 A 
ATOM     73  C   UNL A   1      41.056  28.094  27.293  1.00  0.00     0.134 A 
ATOM     74  C   UNL A   1      39.714  26.465  28.418  1.00  0.00     0.134 A 
ATOM     75  F   UNL A   1      41.667  29.287  27.241  1.00  0.00    -0.206 F 
ATOM     76  C   UNL A   1      41.117  27.275  26.164  1.00  0.00     0.040 A 
ATOM     77  C   UNL A   1      39.790  25.624  27.307  1.00  0.00     0.040 A 
ATOM     78  F   UNL A   1      39.023  26.038  29.486  1.00  0.00    -0.206 F 
ATOM     79  C   UNL A   1      40.484  26.033  26.171  1.00  0.00     0.006 A 
ENDBRANCH  51  72
BRANCH  63  80
ATOM     80  C   UNL A   1      36.156  33.046  30.055  1.00  0.00     0.057 A 
ATOM     81  C   UNL A   1      34.812  32.941  30.434  1.00  0.00     0.134 A 
ATOM     82  C   UNL A   1      36.461  33.884  28.975  1.00  0.00     0.134 A 
ATOM     83  F   UNL A   1      34.452  32.146  31.452  1.00  0.00    -0.206 F 
ATOM     84  C   UNL A   1      33.808  33.633  29.754  1.00  0.00     0.040 A 
ATOM     85  C   UNL A   1      35.470  34.603  28.306  1.00  0.00     0.040 A 
ATOM     86  F   UNL A   1      37.730  34.037  28.567  1.00  0.00    -0.206 F 
ATOM     87  C   UNL A   1      34.138  34.475  28.693  1.00  0.00     0.006 A 
ENDBRANCH  63  80
ENDBRANCH  37  38
ENDBRANCH  29  32
ENDBRANCH  27  28
ENDBRANCH  26  27
ENDBRANCH  25  26
ENDBRANCH  24  25
ENDBRANCH  23  24
ENDBRANCH   1  23
TORSDOF 19
ENDMDL
MODEL 2
REMARK VINA RESULT:      -8.7      4.734      8.764
REMARK SMILES COCc1cccc(C[NH2+][C@H](C)[C@H](C)C(=O)NCCCCCCNC(=O)c2ccc(-c3c4nc(c(-c5c(F)cccc5F)c5ccc([nH]5)c(-c5c(F)cccc5F)c5nc(c(-c6c(F)cccc6F)c6ccc3[nH]6)C=C5)C=C4)cc2)c1
REMARK SMILES IDX 18 1 17 2 15 3 16 4 13 6 14 7 11 8 12 9 10 10 9 13 8 14 4 15
REMARK SMILES IDX 5 16 81 17 6 18 7 19 3 20 2 21 1 22 19 23 20 24 21 25 22 26
REMARK SMILES IDX 23 27 24 28 25 29 26 31 27 32 28 33 80 34 29 35 79 36 30 37
REMARK SMILES IDX 31 38 32 39 73 40 33 41 78 42 72 43 74 44 34 45 77 46 71 47
REMARK SMILES IDX 70 48 35 50 61 51 44 52 60 53 45 54 48 55 59 56 75 57 46 58
REMARK SMILES IDX 47 59 58 61 76 62 49 63 36 64 37 65 42 66 38 67 39 68 41 69
REMARK SMILES IDX 43 70 40 71 62 72 63 73 68 74 64 75 65 76 67 77 69 78 66 79
REMARK SMILES IDX 50 80 51 81 56 82 52 83 53 84 55 85 57 86 54 87
REMARK H PARENT 17 5 10 11 10 12 24 30 74 49 48 60
REMARK Flexibility Score: inf
ROOT
ATOM      1  C   UNL A   1      38.482  22.156  25.965  1.00  0.00     0.116 C 
ENDROOT
BRANCH   1   2
ATOM      2  N   UNL A   1      37.518  21.290  25.332  1.00  0.00    -0.356 N 
ATOM      3  C   UNL A   1      36.171  21.247  25.429  1.00  0.00     0.228 C 
ATOM      4  O   UNL A   1      35.616  20.257  24.941  1.00  0.00    -0.275 OA
ATOM      5  H   UNL A   1      37.908  20.616  24.728  1.00  0.00     0.163 HD
BRANCH   3   6
ATOM      6  C   UNL A   1      35.342  22.361  26.060  1.00  0.00     0.133 C 
ATOM      7  C   UNL A   1      34.904  23.429  25.058  1.00  0.00     0.024 C 
BRANCH   6   8
ATOM      8  C   UNL A   1      34.262  21.900  27.086  1.00  0.00     0.191 C 
ATOM      9  C   UNL A   1      33.230  22.948  27.518  1.00  0.00     0.076 C 
BRANCH   8  10
ATOM     10  N   UNL A   1      33.487  20.710  26.694  1.00  0.00    -0.340 N 
ATOM     11  H   UNL A   1      34.127  20.032  26.282  1.00  0.00     0.346 HD
ATOM     12  H   UNL A   1      33.035  20.360  27.538  1.00  0.00     0.346 HD
BRANCH  10  13
ATOM     13  C   UNL A   1      32.426  20.989  25.727  1.00  0.00     0.297 C 
BRANCH  13  14
ATOM     14  C   UNL A   1      32.453  19.978  24.607  1.00  0.00     0.006 A 
ATOM     15  C   UNL A   1      32.877  17.702  23.823  1.00  0.00    -0.022 A 
ATOM     16  C   UNL A   1      32.523  18.101  22.527  1.00  0.00     0.006 A 
ATOM     17  C   UNL A   1      32.814  18.645  24.861  1.00  0.00     0.015 A 
ATOM     18  C   UNL A   1      32.167  19.425  22.265  1.00  0.00     0.001 A 
ATOM     19  C   UNL A   1      32.146  20.361  23.297  1.00  0.00     0.009 A 
BRANCH  15  20
ATOM     20  C   UNL A   1      33.279  16.272  24.091  1.00  0.00     0.195 C 
BRANCH  20  21
ATOM     21  O   UNL A   1      33.037  15.853  25.438  1.00  0.00    -0.380 OA
ATOM     22  C   UNL A   1      32.670  14.483  25.537  1.00  0.00     0.195 C 
ENDBRANCH  20  21
ENDBRANCH  15  20
ENDBRANCH  13  14
ENDBRANCH  10  13
ENDBRANCH   8  10
ENDBRANCH   6   8
ENDBRANCH   3   6
ENDBRANCH   1   2
BRANCH   1  23
ATOM     23  C   UNL A   1      39.787  21.416  26.224  1.00  0.00     0.021 C 
BRANCH  23  24
ATOM     24  C   UNL A   1      40.689  22.094  27.261  1.00  0.00     0.002 C 
BRANCH  24  25
ATOM     25  C   UNL A   1      42.029  21.393  27.511  1.00  0.00     0.002 C 
BRANCH  25  26
ATOM     26  C   UNL A   1      43.060  21.552  26.392  1.00  0.00     0.021 C 
BRANCH  26  27
ATOM     27  C   UNL A   1      42.822  22.750  25.482  1.00  0.00     0.116 C 
BRANCH  27  28
ATOM     28  N   UNL A   1      44.065  23.336  25.010  1.00  0.00    -0.352 N 
ATOM     29  C   UNL A   1      44.566  24.590  25.249  1.00  0.00     0.251 C 
ATOM     30  H   UNL A   1      44.623  22.754  24.444  1.00  0.00     0.163 HD
ATOM     31  O   UNL A   1      45.540  25.005  24.628  1.00  0.00    -0.269 OA
BRANCH  29  32
ATOM     32  C   UNL A   1      43.903  25.448  26.248  1.00  0.00     0.039 A 
ATOM     33  C   UNL A   1      43.124  24.856  27.244  1.00  0.00     0.014 A 
ATOM     34  C   UNL A   1      44.083  26.835  26.219  1.00  0.00     0.014 A 
ATOM     35  C   UNL A   1      42.574  25.650  28.252  1.00  0.00     0.010 A 
ATOM     36  C   UNL A   1      43.599  27.613  27.263  1.00  0.00     0.010 A 
ATOM     37  C   UNL A   1      42.839  27.029  28.289  1.00  0.00    -0.014 A 
BRANCH  37  38
ATOM     38  C   UNL A   1      42.338  27.887  29.391  1.00  0.00     0.031 A 
ATOM     39  C   UNL A   1      43.018  27.856  30.731  1.00  0.00     0.074 A 
ATOM     40  C   UNL A   1      41.222  28.621  29.213  1.00  0.00     0.049 A 
ATOM     41  N   UNL A   1      42.662  28.428  31.853  1.00  0.00    -0.248 NA
ATOM     42  C   UNL A   1      44.245  27.050  30.831  1.00  0.00     0.031 C 
ATOM     43  C   UNL A   1      40.450  28.702  27.972  1.00  0.00     0.029 A 
ATOM     44  N   UNL A   1      40.530  29.421  30.087  1.00  0.00    -0.354 N 
ATOM     45  C   UNL A   1      43.605  28.032  32.793  1.00  0.00     0.074 A 
ATOM     46  C   UNL A   1      44.523  27.138  32.124  1.00  0.00     0.031 C 
ATOM     47  C   UNL A   1      39.395  29.511  28.163  1.00  0.00     0.029 A 
ATOM     48  C   UNL A   1      39.390  29.970  29.549  1.00  0.00     0.049 A 
ATOM     49  H   UNL A   1      40.821  29.587  31.013  1.00  0.00     0.167 HD
ATOM     50  C   UNL A   1      43.705  28.398  34.093  1.00  0.00     0.037 A 
ATOM     51  C   UNL A   1      38.438  30.736  30.113  1.00  0.00     0.037 A 
ATOM     52  C   UNL A   1      42.805  29.313  34.745  1.00  0.00     0.049 A 
ATOM     53  C   UNL A   1      38.567  31.119  31.562  1.00  0.00     0.074 A 
ATOM     54  C   UNL A   1      42.865  29.803  36.038  1.00  0.00     0.029 A 
ATOM     55  N   UNL A   1      41.681  29.870  34.157  1.00  0.00    -0.354 N 
ATOM     56  N   UNL A   1      39.504  30.796  32.421  1.00  0.00    -0.248 NA
ATOM     57  C   UNL A   1      37.510  31.973  32.121  1.00  0.00     0.031 C 
ATOM     58  C   UNL A   1      41.746  30.612  36.249  1.00  0.00     0.029 A 
ATOM     59  C   UNL A   1      41.021  30.675  35.070  1.00  0.00     0.049 A 
ATOM     60  H   UNL A   1      41.393  29.716  33.227  1.00  0.00     0.167 HD
ATOM     61  C   UNL A   1      39.167  31.433  33.610  1.00  0.00     0.074 A 
ATOM     62  C   UNL A   1      37.946  32.168  33.358  1.00  0.00     0.031 C 
ATOM     63  C   UNL A   1      39.813  31.412  34.801  1.00  0.00     0.037 A 
BRANCH  50  64
ATOM     64  C   UNL A   1      44.823  27.806  34.901  1.00  0.00     0.057 A 
ATOM     65  C   UNL A   1      46.034  28.481  35.100  1.00  0.00     0.134 A 
ATOM     66  C   UNL A   1      44.665  26.564  35.532  1.00  0.00     0.134 A 
ATOM     67  F   UNL A   1      46.255  29.669  34.517  1.00  0.00    -0.206 F 
ATOM     68  C   UNL A   1      47.056  27.934  35.878  1.00  0.00     0.040 A 
ATOM     69  C   UNL A   1      45.668  26.021  36.336  1.00  0.00     0.040 A 
ATOM     70  F   UNL A   1      43.527  25.867  35.389  1.00  0.00    -0.206 F 
ATOM     71  C   UNL A   1      46.870  26.704  36.507  1.00  0.00     0.006 A 
ENDBRANCH  50  64
BRANCH  51  72
ATOM     72  C   UNL A   1      37.274  31.192  29.311  1.00  0.00     0.057 A 
ATOM     73  C   UNL A   1      37.242  32.470  28.741  1.00  0.00     0.134 A 
ATOM     74  C   UNL A   1      36.158  30.371  29.110  1.00  0.00     0.134 A 
ATOM     75  F   UNL A   1      38.273  33.311  28.912  1.00  0.00    -0.206 F 
ATOM     76  C   UNL A   1      36.135  32.924  28.023  1.00  0.00     0.040 A 
ATOM     77  C   UNL A   1      35.055  30.801  28.370  1.00  0.00     0.040 A 
ATOM     78  F   UNL A   1      36.127  29.131  29.622  1.00  0.00    -0.206 F 
ATOM     79  C   UNL A   1      35.037  32.086  27.833  1.00  0.00     0.006 A 
ENDBRANCH  51  72
BRANCH  63  80
ATOM     80  C   UNL A   1      39.241  32.240  35.915  1.00  0.00     0.057 A 
ATOM     81  C   UNL A   1      39.613  33.575  36.113  1.00  0.00     0.134 A 
ATOM     82  C   UNL A   1      38.256  31.710  36.758  1.00  0.00     0.134 A 
ATOM     83  F   UNL A   1      40.559  34.139  35.347  1.00  0.00    -0.206 F 
ATOM     84  C   UNL A   1      39.039  34.348  37.124  1.00  0.00     0.040 A 
ATOM     85  C   UNL A   1      37.654  32.480  37.753  1.00  0.00     0.040 A 
ATOM     86  F   UNL A   1      37.846  30.440  36.615  1.00  0.00    -0.206 F 
ATOM     87  C   UNL A   1      38.049  33.804  37.940  1.00  0.00     0.006 A 
ENDBRANCH  63  80
ENDBRANCH  37  38
ENDBRANCH  29  32
ENDBRANCH  27  28
ENDBRANCH  26  27
ENDBRANCH  25  26
ENDBRANCH  24  25
ENDBRANCH  23  24
ENDBRANCH   1  23
TORSDOF 19
ENDMDL
MODEL 3
REMARK VINA RESULT:      -8.6      5.470     12.225
REMARK SMILES COCc1cccc(C[NH2+][C@H](C)[C@H](C)C(=O)NCCCCCCNC(=O)c2ccc(-c3c4nc(c(-c5c(F)cccc5F)c5ccc([nH]5)c(-c5c(F)cccc5F)c5nc(c(-c6c(F)cccc6F)c6ccc3[nH]6)C=C5)C=C4)cc2)c1
REMARK SMILES IDX 18 1 17 2 15 3 16 4 13 6 14 7 11 8 12 9 10 10 9 13 8 14 4 15
REMARK SMILES IDX 5 16 81 17 6 18 7 19 3 20 2 21 1 22 19 23 20 24 21 25 22 26
REMARK SMILES IDX 23 27 24 28 25 29 26 31 27 32 28 33 80 34 29 35 79 36 30 37
REMARK SMILES IDX 31 38 32 39 73 40 33 41 78 42 72 43 74 44 34 45 77 46 71 47
REMARK SMILES IDX 70 48 35 50 61 51 44 52 60 53 45 54 48 55 59 56 75 57 46 58
REMARK SMILES IDX 47 59 58 61 76 62 49 63 36 64 37 65 42 66 38 67 39 68 41 69
REMARK SMILES IDX 43 70 40 71 62 72 63 73 68 74 64 75 65 76 67 77 69 78 66 79
REMARK SMILES IDX 50 80 51 81 56 82 52 83 53 84 55 85 57 86 54 87
REMARK H PARENT 17 5 10 11 10 12 24 30 74 49 48 60
REMARK Flexibility Score: inf
ROOT
ATOM      1  C   UNL A   1      32.425  27.195  26.341  1.00  0.00     0.116 C 
ENDROOT
BRANCH   1   2
ATOM      2  N   UNL A   1      31.638  26.061  26.756  1.00  0.00    -0.356 N 
ATOM      3  C   UNL A   1      31.789  24.741  26.504  1.00  0.00     0.228 C 
ATOM      4  O   UNL A   1      30.839  24.012  26.807  1.00  0.00    -0.275 OA
ATOM      5  H   UNL A   1      30.861  26.285  27.318  1.00  0.00     0.163 HD
BRANCH   3   6
ATOM      6  C   UNL A   1      33.063  24.142  25.916  1.00  0.00     0.133 C 
ATOM      7  C   UNL A   1      33.846  23.292  26.917  1.00  0.00     0.024 C 
BRANCH   6   8
ATOM      8  C   UNL A   1      32.933  23.560  24.476  1.00  0.00     0.191 C 
ATOM      9  C   UNL A   1      32.914  22.032  24.349  1.00  0.00     0.076 C 
BRANCH   8  10
ATOM     10  N   UNL A   1      31.775  24.042  23.703  1.00  0.00    -0.340 N 
ATOM     11  H   UNL A   1      31.154  23.252  23.530  1.00  0.00     0.346 HD
ATOM     12  H   UNL A   1      31.331  24.773  24.259  1.00  0.00     0.346 HD
BRANCH  10  13
ATOM     13  C   UNL A   1      32.130  24.641  22.418  1.00  0.00     0.297 C 
BRANCH  13  14
ATOM     14  C   UNL A   1      32.270  26.137  22.554  1.00  0.00     0.006 A 
ATOM     15  C   UNL A   1      31.249  28.337  22.853  1.00  0.00    -0.022 A 
ATOM     16  C   UNL A   1      32.522  28.919  22.788  1.00  0.00     0.006 A 
ATOM     17  C   UNL A   1      31.138  26.941  22.759  1.00  0.00     0.015 A 
ATOM     18  C   UNL A   1      33.653  28.128  22.579  1.00  0.00     0.001 A 
ATOM     19  C   UNL A   1      33.526  26.746  22.448  1.00  0.00     0.009 A 
BRANCH  15  20
ATOM     20  C   UNL A   1      30.030  29.205  23.061  1.00  0.00     0.195 C 
BRANCH  20  21
ATOM     21  O   UNL A   1      29.179  29.279  21.913  1.00  0.00    -0.380 OA
ATOM     22  C   UNL A   1      28.998  30.607  21.439  1.00  0.00     0.195 C 
ENDBRANCH  20  21
ENDBRANCH  15  20
ENDBRANCH  13  14
ENDBRANCH  10  13
ENDBRANCH   8  10
ENDBRANCH   6   8
ENDBRANCH   3   6
ENDBRANCH   1   2
BRANCH   1  23
ATOM     23  C   UNL A   1      31.739  28.499  26.726  1.00  0.00     0.021 C 
BRANCH  23  24
ATOM     24  C   UNL A   1      32.517  29.754  26.316  1.00  0.00     0.002 C 
BRANCH  24  25
ATOM     25  C   UNL A   1      33.607  30.191  27.300  1.00  0.00     0.002 C 
BRANCH  25  26
ATOM     26  C   UNL A   1      33.355  31.536  27.986  1.00  0.00     0.021 C 
BRANCH  26  27
ATOM     27  C   UNL A   1      33.250  32.718  27.032  1.00  0.00     0.116 C 
BRANCH  27  28
ATOM     28  N   UNL A   1      32.751  33.913  27.693  1.00  0.00    -0.352 N 
ATOM     29  C   UNL A   1      33.230  34.533  28.818  1.00  0.00     0.251 C 
ATOM     30  H   UNL A   1      31.964  34.333  27.276  1.00  0.00     0.163 HD
ATOM     31  O   UNL A   1      32.589  35.426  29.363  1.00  0.00    -0.269 OA
BRANCH  29  32
ATOM     32  C   UNL A   1      34.520  34.095  29.383  1.00  0.00     0.039 A 
ATOM     33  C   UNL A   1      34.527  33.335  30.554  1.00  0.00     0.014 A 
ATOM     34  C   UNL A   1      35.718  34.408  28.734  1.00  0.00     0.014 A 
ATOM     35  C   UNL A   1      35.734  32.832  31.042  1.00  0.00     0.010 A 
ATOM     36  C   UNL A   1      36.908  33.845  29.178  1.00  0.00     0.010 A 
ATOM     37  C   UNL A   1      36.929  33.051  30.336  1.00  0.00    -0.014 A 
BRANCH  37  38
ATOM     38  C   UNL A   1      38.215  32.462  30.783  1.00  0.00     0.031 A 
ATOM     39  C   UNL A   1      38.726  31.206  30.137  1.00  0.00     0.074 A 
ATOM     40  C   UNL A   1      38.872  33.005  31.826  1.00  0.00     0.049 A 
ATOM     41  N   UNL A   1      39.754  30.466  30.465  1.00  0.00    -0.248 NA
ATOM     42  C   UNL A   1      37.962  30.695  28.988  1.00  0.00     0.031 C 
ATOM     43  C   UNL A   1      38.455  34.201  32.562  1.00  0.00     0.029 A 
ATOM     44  N   UNL A   1      40.021  32.607  32.464  1.00  0.00    -0.354 N 
ATOM     45  C   UNL A   1      39.746  29.395  29.581  1.00  0.00     0.074 A 
ATOM     46  C   UNL A   1      38.587  29.555  28.731  1.00  0.00     0.031 C 
ATOM     47  C   UNL A   1      39.338  34.441  33.546  1.00  0.00     0.029 A 
ATOM     48  C   UNL A   1      40.356  33.395  33.540  1.00  0.00     0.049 A 
ATOM     49  H   UNL A   1      40.554  31.831  32.179  1.00  0.00     0.167 HD
ATOM     50  C   UNL A   1      40.636  28.380  29.477  1.00  0.00     0.037 A 
ATOM     51  C   UNL A   1      41.356  33.276  34.433  1.00  0.00     0.037 A 
ATOM     52  C   UNL A   1      41.804  28.243  30.306  1.00  0.00     0.049 A 
ATOM     53  C   UNL A   1      42.324  32.132  34.301  1.00  0.00     0.074 A 
ATOM     54  C   UNL A   1      42.805  27.290  30.230  1.00  0.00     0.029 A 
ATOM     55  N   UNL A   1      42.124  29.078  31.365  1.00  0.00    -0.354 N 
ATOM     56  N   UNL A   1      42.346  31.165  33.414  1.00  0.00    -0.248 NA
ATOM     57  C   UNL A   1      43.408  32.061  35.291  1.00  0.00     0.031 C 
ATOM     58  C   UNL A   1      43.701  27.516  31.279  1.00  0.00     0.029 A 
ATOM     59  C   UNL A   1      43.291  28.645  31.971  1.00  0.00     0.049 A 
ATOM     60  H   UNL A   1      41.599  29.864  31.645  1.00  0.00     0.167 HD
ATOM     61  C   UNL A   1      43.461  30.394  33.719  1.00  0.00     0.074 A 
ATOM     62  C   UNL A   1      44.095  31.009  34.865  1.00  0.00     0.031 C 
ATOM     63  C   UNL A   1      43.918  29.276  33.103  1.00  0.00     0.037 A 
BRANCH  50  64
ATOM     64  C   UNL A   1      40.381  27.332  28.432  1.00  0.00     0.057 A 
ATOM     65  C   UNL A   1      40.961  27.396  27.159  1.00  0.00     0.134 A 
ATOM     66  C   UNL A   1      39.585  26.216  28.723  1.00  0.00     0.134 A 
ATOM     67  F   UNL A   1      41.726  28.442  26.811  1.00  0.00    -0.206 F 
ATOM     68  C   UNL A   1      40.741  26.401  26.205  1.00  0.00     0.040 A 
ATOM     69  C   UNL A   1      39.382  25.200  27.788  1.00  0.00     0.040 A 
ATOM     70  F   UNL A   1      39.004  26.088  29.926  1.00  0.00    -0.206 F 
ATOM     71  C   UNL A   1      39.956  25.293  26.523  1.00  0.00     0.006 A 
ENDBRANCH  50  64
BRANCH  51  72
ATOM     72  C   UNL A   1      41.494  34.261  35.535  1.00  0.00     0.057 A 
ATOM     73  C   UNL A   1      40.842  34.075  36.759  1.00  0.00     0.134 A 
ATOM     74  C   UNL A   1      42.264  35.421  35.387  1.00  0.00     0.134 A 
ATOM     75  F   UNL A   1      40.074  32.993  36.958  1.00  0.00    -0.206 F 
ATOM     76  C   UNL A   1      40.929  35.017  37.786  1.00  0.00     0.040 A 
ATOM     77  C   UNL A   1      42.384  36.357  36.415  1.00  0.00     0.040 A 
ATOM     78  F   UNL A   1      42.923  35.656  34.242  1.00  0.00    -0.206 F 
ATOM     79  C   UNL A   1      41.705  36.162  37.616  1.00  0.00     0.006 A 
ENDBRANCH  51  72
BRANCH  63  80
ATOM     80  C   UNL A   1      45.188  28.668  33.624  1.00  0.00     0.057 A 
ATOM     81  C   UNL A   1      45.184  27.666  34.601  1.00  0.00     0.134 A 
ATOM     82  C   UNL A   1      46.426  29.049  33.092  1.00  0.00     0.134 A 
ATOM     83  F   UNL A   1      44.032  27.265  35.160  1.00  0.00    -0.206 F 
ATOM     84  C   UNL A   1      46.370  27.076  35.045  1.00  0.00     0.040 A 
ATOM     85  C   UNL A   1      47.615  28.447  33.505  1.00  0.00     0.040 A 
ATOM     86  F   UNL A   1      46.500  29.997  32.145  1.00  0.00    -0.206 F 
ATOM     87  C   UNL A   1      47.588  27.460  34.488  1.00  0.00     0.006 A 
ENDBRANCH  63  80
ENDBRANCH  37  38
ENDBRANCH  29  32
ENDBRANCH  27  28
ENDBRANCH  26  27
ENDBRANCH  25  26
ENDBRANCH  24  25
ENDBRANCH  23  24
ENDBRANCH   1  23
TORSDOF 19
ENDMDL
