MODEL 1
REMARK VINA RESULT:     -11.8      0.000      0.000
REMARK SMILES COc1ccc([C@@H]2CC[NH2+][C@H]2C(=O)NCCCCCCNC(=O)c2ccc(-c3c4nc(c(-c5c(F)cccc5F)c5ccc([nH]5)c(-c5c(F)cccc5F)c5nc(c(-c6c(F)cccc6F)c6ccc3[nH]6)C=C5)C=C4)cc2)c2ccccc12
REMARK SMILES IDX 17 1 16 2 15 3 14 4 12 5 13 6 11 8 7 9 8 10 9 11 10 12 6 15
REMARK SMILES IDX 3 16 4 17 83 18 5 19 78 20 82 21 79 22 81 23 80 24 2 25 1 26
REMARK SMILES IDX 18 27 19 28 20 29 21 30 22 31 23 33 24 34 25 35 77 36 26 37
REMARK SMILES IDX 76 38 27 39 28 40 29 41 70 42 30 43 75 44 69 45 71 46 31 47
REMARK SMILES IDX 74 48 68 49 67 50 32 52 58 53 41 54 57 55 42 56 45 57 56 58
REMARK SMILES IDX 72 59 43 60 44 61 55 63 73 64 46 65 33 66 34 67 39 68 35 69
REMARK SMILES IDX 36 70 38 71 40 72 37 73 59 74 60 75 65 76 61 77 62 78 64 79
REMARK SMILES IDX 66 80 63 81 47 82 48 83 53 84 49 85 50 86 52 87 54 88 51 89
REMARK H PARENT 14 7 10 13 10 14 21 32 71 51 45 62
REMARK Flexibility Score: inf
ROOT
ATOM      1  C   UNL A   1      35.884  21.408  25.472  1.00  0.00     0.002 C 
ENDROOT
BRANCH   1   2
ATOM      2  C   UNL A   1      34.761  21.472  26.512  1.00  0.00     0.021 C 
BRANCH   2   3
ATOM      3  C   UNL A   1      34.407  22.885  26.968  1.00  0.00     0.116 C 
BRANCH   3   4
ATOM      4  N   UNL A   1      33.013  22.997  27.345  1.00  0.00    -0.351 N 
ATOM      5  C   UNL A   1      31.930  23.498  26.682  1.00  0.00     0.278 C 
ATOM      6  O   UNL A   1      30.862  23.519  27.301  1.00  0.00    -0.268 OA
ATOM      7  H   UNL A   1      32.809  22.647  28.243  1.00  0.00     0.163 HD
BRANCH   5   8
ATOM      8  C   UNL A   1      32.015  24.013  25.229  1.00  0.00     0.280 C 
ATOM      9  C   UNL A   1      32.890  25.270  25.065  1.00  0.00     0.094 C 
ATOM     10  C   UNL A   1      33.904  24.897  23.973  1.00  0.00     0.076 C 
ATOM     11  C   UNL A   1      33.365  23.635  23.323  1.00  0.00     0.262 C 
ATOM     12  N   UNL A   1      32.534  22.960  24.315  1.00  0.00    -0.335 N 
ATOM     13  H   UNL A   1      33.090  22.284  24.838  1.00  0.00     0.346 HD
ATOM     14  H   UNL A   1      31.769  22.454  23.869  1.00  0.00     0.346 HD
BRANCH   9  15
ATOM     15  C   UNL A   1      32.084  26.522  24.706  1.00  0.00    -0.030 A 
ATOM     16  C   UNL A   1      30.534  28.737  23.887  1.00  0.00     0.126 A 
ATOM     17  C   UNL A   1      30.428  27.524  23.214  1.00  0.00     0.047 A 
ATOM     18  C   UNL A   1      31.432  28.879  24.970  1.00  0.00     0.024 A 
ATOM     19  C   UNL A   1      31.185  26.435  23.624  1.00  0.00     0.009 A 
ATOM     20  C   UNL A   1      32.212  27.766  25.403  1.00  0.00    -0.011 A 
ATOM     21  C   UNL A   1      31.558  30.116  25.643  1.00  0.00     0.012 A 
ATOM     22  C   UNL A   1      33.072  27.975  26.512  1.00  0.00     0.009 A 
ATOM     23  C   UNL A   1      32.418  30.282  26.725  1.00  0.00     0.001 A 
ATOM     24  C   UNL A   1      33.174  29.209  27.162  1.00  0.00     0.001 A 
BRANCH  16  25
ATOM     25  O   UNL A   1      29.820  29.849  23.500  1.00  0.00    -0.496 OA
ATOM     26  C   UNL A   1      29.661  30.006  22.094  1.00  0.00     0.278 C 
ENDBRANCH  16  25
ENDBRANCH   9  15
ENDBRANCH   5   8
ENDBRANCH   3   4
ENDBRANCH   2   3
ENDBRANCH   1   2
BRANCH   1  27
ATOM     27  C   UNL A   1      36.243  20.000  24.981  1.00  0.00     0.002 C 
BRANCH  27  28
ATOM     28  C   UNL A   1      37.721  19.772  24.650  1.00  0.00     0.021 C 
BRANCH  28  29
ATOM     29  C   UNL A   1      38.698  20.120  25.769  1.00  0.00     0.116 C 
BRANCH  29  30
ATOM     30  N   UNL A   1      39.869  19.260  25.763  1.00  0.00    -0.352 N 
ATOM     31  C   UNL A   1      41.176  19.557  26.038  1.00  0.00     0.251 C 
ATOM     32  H   UNL A   1      39.695  18.321  25.525  1.00  0.00     0.163 HD
ATOM     33  O   UNL A   1      42.053  18.723  25.799  1.00  0.00    -0.269 OA
BRANCH  31  34
ATOM     34  C   UNL A   1      41.556  20.868  26.606  1.00  0.00     0.039 A 
ATOM     35  C   UNL A   1      41.983  21.874  25.734  1.00  0.00     0.014 A 
ATOM     36  C   UNL A   1      41.541  21.101  27.985  1.00  0.00     0.014 A 
ATOM     37  C   UNL A   1      42.351  23.123  26.237  1.00  0.00     0.010 A 
ATOM     38  C   UNL A   1      41.849  22.367  28.483  1.00  0.00     0.010 A 
ATOM     39  C   UNL A   1      42.265  23.387  27.614  1.00  0.00    -0.014 A 
BRANCH  39  40
ATOM     40  C   UNL A   1      42.604  24.732  28.144  1.00  0.00     0.031 A 
ATOM     41  C   UNL A   1      44.028  25.091  28.471  1.00  0.00     0.074 A 
ATOM     42  C   UNL A   1      41.620  25.624  28.360  1.00  0.00     0.049 A 
ATOM     43  N   UNL A   1      44.510  26.220  28.925  1.00  0.00    -0.248 NA
ATOM     44  C   UNL A   1      45.037  24.039  28.285  1.00  0.00     0.031 C 
ATOM     45  C   UNL A   1      40.192  25.377  28.139  1.00  0.00     0.029 A 
ATOM     46  N   UNL A   1      41.667  26.918  28.812  1.00  0.00    -0.354 N 
ATOM     47  C   UNL A   1      45.873  26.013  29.088  1.00  0.00     0.074 A 
ATOM     48  C   UNL A   1      46.134  24.634  28.731  1.00  0.00     0.031 C 
ATOM     49  C   UNL A   1      39.505  26.494  28.427  1.00  0.00     0.029 A 
ATOM     50  C   UNL A   1      40.436  27.525  28.872  1.00  0.00     0.049 A 
ATOM     51  H   UNL A   1      42.504  27.369  29.069  1.00  0.00     0.167 HD
ATOM     52  C   UNL A   1      46.825  26.895  29.477  1.00  0.00     0.037 A 
ATOM     53  C   UNL A   1      40.099  28.776  29.234  1.00  0.00     0.037 A 
ATOM     54  C   UNL A   1      46.570  28.272  29.809  1.00  0.00     0.049 A 
ATOM     55  C   UNL A   1      41.176  29.744  29.633  1.00  0.00     0.074 A 
ATOM     56  C   UNL A   1      47.476  29.260  30.153  1.00  0.00     0.029 A 
ATOM     57  N   UNL A   1      45.312  28.856  29.838  1.00  0.00    -0.354 N 
ATOM     58  N   UNL A   1      42.471  29.554  29.709  1.00  0.00    -0.248 NA
ATOM     59  C   UNL A   1      40.745  31.105  29.983  1.00  0.00     0.031 C 
ATOM     60  C   UNL A   1      46.763  30.434  30.423  1.00  0.00     0.029 A 
ATOM     61  C   UNL A   1      45.417  30.187  30.211  1.00  0.00     0.049 A 
ATOM     62  H   UNL A   1      44.470  28.393  29.626  1.00  0.00     0.167 HD
ATOM     63  C   UNL A   1      43.010  30.773  30.098  1.00  0.00     0.074 A 
ATOM     64  C   UNL A   1      41.904  31.700  30.220  1.00  0.00     0.031 C 
ATOM     65  C   UNL A   1      44.305  31.095  30.334  1.00  0.00     0.037 A 
BRANCH  52  66
ATOM     66  C   UNL A   1      48.238  26.393  29.556  1.00  0.00     0.057 A 
ATOM     67  C   UNL A   1      49.117  26.497  28.470  1.00  0.00     0.134 A 
ATOM     68  C   UNL A   1      48.733  25.828  30.737  1.00  0.00     0.134 A 
ATOM     69  F   UNL A   1      48.702  27.018  27.306  1.00  0.00    -0.206 F 
ATOM     70  C   UNL A   1      50.432  26.033  28.549  1.00  0.00     0.040 A 
ATOM     71  C   UNL A   1      50.053  25.383  30.835  1.00  0.00     0.040 A 
ATOM     72  F   UNL A   1      47.946  25.704  31.816  1.00  0.00    -0.206 F 
ATOM     73  C   UNL A   1      50.904  25.479  29.736  1.00  0.00     0.006 A 
ENDBRANCH  52  66
BRANCH  53  74
ATOM     74  C   UNL A   1      38.678  29.198  29.194  1.00  0.00     0.057 A 
ATOM     75  C   UNL A   1      37.877  29.144  30.341  1.00  0.00     0.134 A 
ATOM     76  C   UNL A   1      38.087  29.665  28.014  1.00  0.00     0.134 A 
ATOM     77  F   UNL A   1      38.384  28.688  31.495  1.00  0.00    -0.206 F 
ATOM     78  C   UNL A   1      36.535  29.522  30.313  1.00  0.00     0.040 A 
ATOM     79  C   UNL A   1      36.751  30.068  27.977  1.00  0.00     0.040 A 
ATOM     80  F   UNL A   1      38.805  29.749  26.884  1.00  0.00    -0.206 F 
ATOM     81  C   UNL A   1      35.970  29.990  29.128  1.00  0.00     0.006 A 
ENDBRANCH  53  74
BRANCH  65  82
ATOM     82  C   UNL A   1      44.590  32.512  30.733  1.00  0.00     0.057 A 
ATOM     83  C   UNL A   1      44.855  33.506  29.781  1.00  0.00     0.134 A 
ATOM     84  C   UNL A   1      44.590  32.890  32.082  1.00  0.00     0.134 A 
ATOM     85  F   UNL A   1      44.884  33.204  28.474  1.00  0.00    -0.206 F 
ATOM     86  C   UNL A   1      45.138  34.819  30.159  1.00  0.00     0.040 A 
ATOM     87  C   UNL A   1      44.848  34.205  32.470  1.00  0.00     0.040 A 
ATOM     88  F   UNL A   1      44.336  31.988  33.042  1.00  0.00    -0.206 F 
ATOM     89  C   UNL A   1      45.131  35.172  31.507  1.00  0.00     0.006 A 
ENDBRANCH  65  82
ENDBRANCH  39  40
ENDBRANCH  31  34
ENDBRANCH  29  30
ENDBRANCH  28  29
ENDBRANCH  27  28
ENDBRANCH   1  27
TORSDOF 15
ENDMDL
MODEL 2
REMARK VINA RESULT:     -11.7      2.638      8.044
REMARK SMILES COc1ccc([C@@H]2CC[NH2+][C@H]2C(=O)NCCCCCCNC(=O)c2ccc(-c3c4nc(c(-c5c(F)cccc5F)c5ccc([nH]5)c(-c5c(F)cccc5F)c5nc(c(-c6c(F)cccc6F)c6ccc3[nH]6)C=C5)C=C4)cc2)c2ccccc12
REMARK SMILES IDX 17 1 16 2 15 3 14 4 12 5 13 6 11 8 7 9 8 10 9 11 10 12 6 15
REMARK SMILES IDX 3 16 4 17 83 18 5 19 78 20 82 21 79 22 81 23 80 24 2 25 1 26
REMARK SMILES IDX 18 27 19 28 20 29 21 30 22 31 23 33 24 34 25 35 77 36 26 37
REMARK SMILES IDX 76 38 27 39 28 40 29 41 70 42 30 43 75 44 69 45 71 46 31 47
REMARK SMILES IDX 74 48 68 49 67 50 32 52 58 53 41 54 57 55 42 56 45 57 56 58
REMARK SMILES IDX 72 59 43 60 44 61 55 63 73 64 46 65 33 66 34 67 39 68 35 69
REMARK SMILES IDX 36 70 38 71 40 72 37 73 59 74 60 75 65 76 61 77 62 78 64 79
REMARK SMILES IDX 66 80 63 81 47 82 48 83 53 84 49 85 50 86 52 87 54 88 51 89
REMARK H PARENT 14 7 10 13 10 14 21 32 71 51 45 62
REMARK Flexibility Score: inf
ROOT
ATOM      1  C   UNL A   1      32.927  29.448  24.949  1.00  0.00     0.002 C 
ENDROOT
BRANCH   1   2
ATOM      2  C   UNL A   1      33.366  28.493  23.834  1.00  0.00     0.021 C 
BRANCH   2   3
ATOM      3  C   UNL A   1      32.275  28.176  22.814  1.00  0.00     0.116 C 
BRANCH   3   4
ATOM      4  N   UNL A   1      32.744  27.264  21.790  1.00  0.00    -0.351 N 
ATOM      5  C   UNL A   1      32.729  25.902  21.712  1.00  0.00     0.278 C 
ATOM      6  O   UNL A   1      33.273  25.397  20.725  1.00  0.00    -0.268 OA
ATOM      7  H   UNL A   1      33.145  27.708  21.008  1.00  0.00     0.163 HD
BRANCH   5   8
ATOM      8  C   UNL A   1      32.065  25.018  22.790  1.00  0.00     0.280 C 
ATOM      9  C   UNL A   1      32.928  24.822  24.051  1.00  0.00     0.094 C 
ATOM     10  C   UNL A   1      32.019  25.247  25.214  1.00  0.00     0.076 C 
ATOM     11  C   UNL A   1      30.616  25.316  24.637  1.00  0.00     0.262 C 
ATOM     12  N   UNL A   1      30.750  25.575  23.206  1.00  0.00    -0.335 N 
ATOM     13  H   UNL A   1      30.721  26.578  23.027  1.00  0.00     0.346 HD
ATOM     14  H   UNL A   1      29.988  25.143  22.683  1.00  0.00     0.346 HD
BRANCH   9  15
ATOM     15  C   UNL A   1      33.443  23.387  24.211  1.00  0.00    -0.030 A 
ATOM     16  C   UNL A   1      34.211  20.683  24.473  1.00  0.00     0.126 A 
ATOM     17  C   UNL A   1      32.926  21.005  24.049  1.00  0.00     0.047 A 
ATOM     18  C   UNL A   1      35.136  21.702  24.797  1.00  0.00     0.024 A 
ATOM     19  C   UNL A   1      32.554  22.335  23.914  1.00  0.00     0.009 A 
ATOM     20  C   UNL A   1      34.766  23.073  24.658  1.00  0.00    -0.011 A 
ATOM     21  C   UNL A   1      36.436  21.379  25.248  1.00  0.00     0.012 A 
ATOM     22  C   UNL A   1      35.753  24.042  24.975  1.00  0.00     0.009 A 
ATOM     23  C   UNL A   1      37.374  22.359  25.555  1.00  0.00     0.001 A 
ATOM     24  C   UNL A   1      37.034  23.692  25.417  1.00  0.00     0.001 A 
BRANCH  16  25
ATOM     25  O   UNL A   1      34.616  19.378  24.644  1.00  0.00    -0.496 OA
ATOM     26  C   UNL A   1      33.660  18.393  24.260  1.00  0.00     0.278 C 
ENDBRANCH  16  25
ENDBRANCH   9  15
ENDBRANCH   5   8
ENDBRANCH   3   4
ENDBRANCH   2   3
ENDBRANCH   1   2
BRANCH   1  27
ATOM     27  C   UNL A   1      32.326  28.775  26.189  1.00  0.00     0.002 C 
BRANCH  27  28
ATOM     28  C   UNL A   1      33.336  28.271  27.224  1.00  0.00     0.021 C 
BRANCH  28  29
ATOM     29  C   UNL A   1      34.657  29.035  27.268  1.00  0.00     0.116 C 
BRANCH  29  30
ATOM     30  N   UNL A   1      34.654  30.079  28.279  1.00  0.00    -0.352 N 
ATOM     31  C   UNL A   1      35.650  30.480  29.127  1.00  0.00     0.251 C 
ATOM     32  H   UNL A   1      33.807  30.571  28.368  1.00  0.00     0.163 HD
ATOM     33  O   UNL A   1      35.390  31.265  30.042  1.00  0.00    -0.269 OA
BRANCH  31  34
ATOM     34  C   UNL A   1      37.032  29.977  28.971  1.00  0.00     0.039 A 
ATOM     35  C   UNL A   1      37.622  30.028  27.705  1.00  0.00     0.014 A 
ATOM     36  C   UNL A   1      37.731  29.414  30.044  1.00  0.00     0.014 A 
ATOM     37  C   UNL A   1      38.923  29.559  27.523  1.00  0.00     0.010 A 
ATOM     38  C   UNL A   1      39.053  29.002  29.876  1.00  0.00     0.010 A 
ATOM     39  C   UNL A   1      39.658  29.063  28.613  1.00  0.00    -0.014 A 
BRANCH  39  40
ATOM     40  C   UNL A   1      41.062  28.614  28.431  1.00  0.00     0.031 A 
ATOM     41  C   UNL A   1      41.372  27.182  28.091  1.00  0.00     0.074 A 
ATOM     42  C   UNL A   1      42.064  29.496  28.602  1.00  0.00     0.049 A 
ATOM     43  N   UNL A   1      42.534  26.617  27.880  1.00  0.00    -0.248 NA
ATOM     44  C   UNL A   1      40.230  26.260  28.000  1.00  0.00     0.031 C 
ATOM     45  C   UNL A   1      41.898  30.899  28.990  1.00  0.00     0.029 A 
ATOM     46  N   UNL A   1      43.421  29.345  28.471  1.00  0.00    -0.354 N 
ATOM     47  C   UNL A   1      42.266  25.276  27.640  1.00  0.00     0.074 A 
ATOM     48  C   UNL A   1      40.835  25.102  27.780  1.00  0.00     0.031 C 
ATOM     49  C   UNL A   1      43.105  31.486  29.036  1.00  0.00     0.029 A 
ATOM     50  C   UNL A   1      44.128  30.500  28.702  1.00  0.00     0.049 A 
ATOM     51  H   UNL A   1      43.848  28.490  28.234  1.00  0.00     0.167 HD
ATOM     52  C   UNL A   1      43.127  24.284  27.310  1.00  0.00     0.037 A 
ATOM     53  C   UNL A   1      45.450  30.740  28.642  1.00  0.00     0.037 A 
ATOM     54  C   UNL A   1      44.546  24.463  27.146  1.00  0.00     0.049 A 
ATOM     55  C   UNL A   1      46.382  29.631  28.245  1.00  0.00     0.074 A 
ATOM     56  C   UNL A   1      45.494  23.533  26.751  1.00  0.00     0.029 A 
ATOM     57  N   UNL A   1      45.223  25.653  27.368  1.00  0.00    -0.354 N 
ATOM     58  N   UNL A   1      46.105  28.385  27.946  1.00  0.00    -0.248 NA
ATOM     59  C   UNL A   1      47.811  29.966  28.162  1.00  0.00     0.031 C 
ATOM     60  C   UNL A   1      46.749  24.153  26.768  1.00  0.00     0.029 A 
ATOM     61  C   UNL A   1      46.578  25.478  27.137  1.00  0.00     0.049 A 
ATOM     62  H   UNL A   1      44.802  26.496  27.650  1.00  0.00     0.167 HD
ATOM     63  C   UNL A   1      47.319  27.793  27.625  1.00  0.00     0.074 A 
ATOM     64  C   UNL A   1      48.331  28.823  27.743  1.00  0.00     0.031 C 
ATOM     65  C   UNL A   1      47.573  26.511  27.265  1.00  0.00     0.037 A 
BRANCH  52  66
ATOM     66  C   UNL A   1      42.552  22.914  27.095  1.00  0.00     0.057 A 
ATOM     67  C   UNL A   1      42.386  22.379  25.811  1.00  0.00     0.134 A 
ATOM     68  C   UNL A   1      42.188  22.111  28.183  1.00  0.00     0.134 A 
ATOM     69  F   UNL A   1      42.703  23.101  24.726  1.00  0.00    -0.206 F 
ATOM     70  C   UNL A   1      41.854  21.103  25.615  1.00  0.00     0.040 A 
ATOM     71  C   UNL A   1      41.678  20.824  28.000  1.00  0.00     0.040 A 
ATOM     72  F   UNL A   1      42.327  22.560  29.438  1.00  0.00    -0.206 F 
ATOM     73  C   UNL A   1      41.505  20.320  26.713  1.00  0.00     0.006 A 
ENDBRANCH  52  66
BRANCH  53  74
ATOM     74  C   UNL A   1      45.968  32.101  28.923  1.00  0.00     0.057 A 
ATOM     75  C   UNL A   1      46.101  33.047  27.900  1.00  0.00     0.134 A 
ATOM     76  C   UNL A   1      46.342  32.488  30.215  1.00  0.00     0.134 A 
ATOM     77  F   UNL A   1      45.775  32.727  26.639  1.00  0.00    -0.206 F 
ATOM     78  C   UNL A   1      46.603  34.324  28.148  1.00  0.00     0.040 A 
ATOM     79  C   UNL A   1      46.825  33.770  30.482  1.00  0.00     0.040 A 
ATOM     80  F   UNL A   1      46.230  31.628  31.239  1.00  0.00    -0.206 F 
ATOM     81  C   UNL A   1      46.963  34.690  29.444  1.00  0.00     0.006 A 
ENDBRANCH  53  74
BRANCH  65  82
ATOM     82  C   UNL A   1      49.000  26.162  26.961  1.00  0.00     0.057 A 
ATOM     83  C   UNL A   1      49.529  26.288  25.670  1.00  0.00     0.134 A 
ATOM     84  C   UNL A   1      49.855  25.704  27.971  1.00  0.00     0.134 A 
ATOM     85  F   UNL A   1      48.756  26.707  24.656  1.00  0.00    -0.206 F 
ATOM     86  C   UNL A   1      50.851  25.944  25.388  1.00  0.00     0.040 A 
ATOM     87  C   UNL A   1      51.186  25.379  27.706  1.00  0.00     0.040 A 
ATOM     88  F   UNL A   1      49.412  25.568  29.230  1.00  0.00    -0.206 F 
ATOM     89  C   UNL A   1      51.685  25.491  26.410  1.00  0.00     0.006 A 
ENDBRANCH  65  82
ENDBRANCH  39  40
ENDBRANCH  31  34
ENDBRANCH  29  30
ENDBRANCH  28  29
ENDBRANCH  27  28
ENDBRANCH   1  27
TORSDOF 15
ENDMDL
MODEL 3
REMARK VINA RESULT:     -11.7      4.693     10.349
REMARK SMILES COc1ccc([C@@H]2CC[NH2+][C@H]2C(=O)NCCCCCCNC(=O)c2ccc(-c3c4nc(c(-c5c(F)cccc5F)c5ccc([nH]5)c(-c5c(F)cccc5F)c5nc(c(-c6c(F)cccc6F)c6ccc3[nH]6)C=C5)C=C4)cc2)c2ccccc12
REMARK SMILES IDX 17 1 16 2 15 3 14 4 12 5 13 6 11 8 7 9 8 10 9 11 10 12 6 15
REMARK SMILES IDX 3 16 4 17 83 18 5 19 78 20 82 21 79 22 81 23 80 24 2 25 1 26
REMARK SMILES IDX 18 27 19 28 20 29 21 30 22 31 23 33 24 34 25 35 77 36 26 37
REMARK SMILES IDX 76 38 27 39 28 40 29 41 70 42 30 43 75 44 69 45 71 46 31 47
REMARK SMILES IDX 74 48 68 49 67 50 32 52 58 53 41 54 57 55 42 56 45 57 56 58
REMARK SMILES IDX 72 59 43 60 44 61 55 63 73 64 46 65 33 66 34 67 39 68 35 69
REMARK SMILES IDX 36 70 38 71 40 72 37 73 59 74 60 75 65 76 61 77 62 78 64 79
REMARK SMILES IDX 66 80 63 81 47 82 48 83 53 84 49 85 50 86 52 87 54 88 51 89
REMARK H PARENT 14 7 10 13 10 14 21 32 71 51 45 62
REMARK Flexibility Score: inf
ROOT
ATOM      1  C   UNL A   1      33.361  36.658  28.863  1.00  0.00     0.002 C 
ENDROOT
BRANCH   1   2
ATOM      2  C   UNL A   1      33.277  37.234  30.280  1.00  0.00     0.021 C 
BRANCH   2   3
ATOM      3  C   UNL A   1      32.820  36.233  31.338  1.00  0.00     0.116 C 
BRANCH   3   4
ATOM      4  N   UNL A   1      33.670  36.262  32.510  1.00  0.00    -0.351 N 
ATOM      5  C   UNL A   1      34.705  35.462  32.901  1.00  0.00     0.278 C 
ATOM      6  O   UNL A   1      35.203  35.699  34.006  1.00  0.00    -0.268 OA
ATOM      7  H   UNL A   1      33.465  36.991  33.139  1.00  0.00     0.163 HD
BRANCH   5   8
ATOM      8  C   UNL A   1      35.246  34.317  32.018  1.00  0.00     0.280 C 
ATOM      9  C   UNL A   1      36.433  33.558  32.641  1.00  0.00     0.094 C 
ATOM     10  C   UNL A   1      36.007  32.083  32.617  1.00  0.00     0.076 C 
ATOM     11  C   UNL A   1      34.806  32.015  31.690  1.00  0.00     0.262 C 
ATOM     12  N   UNL A   1      34.176  33.332  31.703  1.00  0.00    -0.335 N 
ATOM     13  H   UNL A   1      33.447  33.365  32.414  1.00  0.00     0.346 HD
ATOM     14  H   UNL A   1      33.743  33.539  30.803  1.00  0.00     0.346 HD
BRANCH   9  15
ATOM     15  C   UNL A   1      37.753  33.793  31.899  1.00  0.00    -0.030 A 
ATOM     16  C   UNL A   1      40.105  34.147  30.376  1.00  0.00     0.126 A 
ATOM     17  C   UNL A   1      38.938  33.702  29.764  1.00  0.00     0.047 A 
ATOM     18  C   UNL A   1      40.132  34.405  31.766  1.00  0.00     0.024 A 
ATOM     19  C   UNL A   1      37.781  33.537  30.514  1.00  0.00     0.009 A 
ATOM     20  C   UNL A   1      38.949  34.243  32.546  1.00  0.00    -0.011 A 
ATOM     21  C   UNL A   1      41.322  34.837  32.396  1.00  0.00     0.012 A 
ATOM     22  C   UNL A   1      39.043  34.545  33.930  1.00  0.00     0.009 A 
ATOM     23  C   UNL A   1      41.375  35.118  33.757  1.00  0.00     0.001 A 
ATOM     24  C   UNL A   1      40.233  34.974  34.526  1.00  0.00     0.001 A 
BRANCH  16  25
ATOM     25  O   UNL A   1      41.280  34.302  29.676  1.00  0.00    -0.496 OA
ATOM     26  C   UNL A   1      41.303  35.400  28.768  1.00  0.00     0.278 C 
ENDBRANCH  16  25
ENDBRANCH   9  15
ENDBRANCH   5   8
ENDBRANCH   3   4
ENDBRANCH   2   3
ENDBRANCH   1   2
BRANCH   1  27
ATOM     27  C   UNL A   1      33.429  35.129  28.779  1.00  0.00     0.002 C 
BRANCH  27  28
ATOM     28  C   UNL A   1      34.467  34.565  27.803  1.00  0.00     0.021 C 
BRANCH  28  29
ATOM     29  C   UNL A   1      35.103  33.243  28.225  1.00  0.00     0.116 C 
BRANCH  29  30
ATOM     30  N   UNL A   1      34.307  32.097  27.821  1.00  0.00    -0.352 N 
ATOM     31  C   UNL A   1      34.656  30.777  27.725  1.00  0.00     0.251 C 
ATOM     32  H   UNL A   1      33.375  32.300  27.580  1.00  0.00     0.163 HD
ATOM     33  O   UNL A   1      33.884  29.981  27.185  1.00  0.00    -0.269 OA
BRANCH  31  34
ATOM     34  C   UNL A   1      35.952  30.292  28.246  1.00  0.00     0.039 A 
ATOM     35  C   UNL A   1      35.977  29.671  29.498  1.00  0.00     0.014 A 
ATOM     36  C   UNL A   1      37.143  30.483  27.539  1.00  0.00     0.014 A 
ATOM     37  C   UNL A   1      37.184  29.204  30.021  1.00  0.00     0.010 A 
ATOM     38  C   UNL A   1      38.339  29.962  28.032  1.00  0.00     0.010 A 
ATOM     39  C   UNL A   1      38.372  29.325  29.282  1.00  0.00    -0.014 A 
BRANCH  39  40
ATOM     40  C   UNL A   1      39.646  28.780  29.812  1.00  0.00     0.031 A 
ATOM     41  C   UNL A   1      40.268  29.353  31.056  1.00  0.00     0.074 A 
ATOM     42  C   UNL A   1      40.263  27.781  29.153  1.00  0.00     0.049 A 
ATOM     43  N   UNL A   1      41.365  28.993  31.672  1.00  0.00    -0.248 NA
ATOM     44  C   UNL A   1      39.579  30.495  31.675  1.00  0.00     0.031 C 
ATOM     45  C   UNL A   1      39.793  27.178  27.903  1.00  0.00     0.029 A 
ATOM     46  N   UNL A   1      41.416  27.096  29.441  1.00  0.00    -0.354 N 
ATOM     47  C   UNL A   1      41.504  29.866  32.743  1.00  0.00     0.074 A 
ATOM     48  C   UNL A   1      40.405  30.805  32.665  1.00  0.00     0.031 C 
ATOM     49  C   UNL A   1      40.635  26.192  27.550  1.00  0.00     0.029 A 
ATOM     50  C   UNL A   1      41.710  26.109  28.532  1.00  0.00     0.049 A 
ATOM     51  H   UNL A   1      41.978  27.292  30.224  1.00  0.00     0.167 HD
ATOM     52  C   UNL A   1      42.446  29.872  33.716  1.00  0.00     0.037 A 
ATOM     53  C   UNL A   1      42.727  25.229  28.501  1.00  0.00     0.037 A 
ATOM     54  C   UNL A   1      43.525  28.924  33.808  1.00  0.00     0.049 A 
ATOM     55  C   UNL A   1      43.743  25.236  29.607  1.00  0.00     0.074 A 
ATOM     56  C   UNL A   1      44.494  28.808  34.791  1.00  0.00     0.029 A 
ATOM     57  N   UNL A   1      43.779  27.925  32.880  1.00  0.00    -0.354 N 
ATOM     58  N   UNL A   1      43.818  26.020  30.655  1.00  0.00    -0.248 NA
ATOM     59  C   UNL A   1      44.809  24.226  29.533  1.00  0.00     0.031 C 
ATOM     60  C   UNL A   1      45.353  27.761  34.439  1.00  0.00     0.029 A 
ATOM     61  C   UNL A   1      44.898  27.200  33.257  1.00  0.00     0.049 A 
ATOM     62  H   UNL A   1      43.243  27.757  32.072  1.00  0.00     0.167 HD
ATOM     63  C   UNL A   1      44.925  25.589  31.373  1.00  0.00     0.074 A 
ATOM     64  C   UNL A   1      45.477  24.460  30.652  1.00  0.00     0.031 C 
ATOM     65  C   UNL A   1      45.439  26.084  32.525  1.00  0.00     0.037 A 
BRANCH  52  66
ATOM     66  C   UNL A   1      42.344  30.938  34.768  1.00  0.00     0.057 A 
ATOM     67  C   UNL A   1      41.430  30.843  35.826  1.00  0.00     0.134 A 
ATOM     68  C   UNL A   1      43.187  32.056  34.740  1.00  0.00     0.134 A 
ATOM     69  F   UNL A   1      40.586  29.804  35.904  1.00  0.00    -0.206 F 
ATOM     70  C   UNL A   1      41.341  31.835  36.804  1.00  0.00     0.040 A 
ATOM     71  C   UNL A   1      43.123  33.042  35.727  1.00  0.00     0.040 A 
ATOM     72  F   UNL A   1      44.088  32.206  33.758  1.00  0.00    -0.206 F 
ATOM     73  C   UNL A   1      42.193  32.935  36.759  1.00  0.00     0.006 A 
ENDBRANCH  52  66
BRANCH  53  74
ATOM     74  C   UNL A   1      42.811  24.235  27.402  1.00  0.00     0.057 A 
ATOM     75  C   UNL A   1      43.447  24.547  26.195  1.00  0.00     0.134 A 
ATOM     76  C   UNL A   1      42.258  22.955  27.531  1.00  0.00     0.134 A 
ATOM     77  F   UNL A   1      43.979  25.763  26.009  1.00  0.00    -0.206 F 
ATOM     78  C   UNL A   1      43.518  23.628  25.149  1.00  0.00     0.040 A 
ATOM     79  C   UNL A   1      42.341  22.018  26.500  1.00  0.00     0.040 A 
ATOM     80  F   UNL A   1      41.642  22.594  28.667  1.00  0.00    -0.206 F 
ATOM     81  C   UNL A   1      42.967  22.357  25.302  1.00  0.00     0.006 A 
ENDBRANCH  53  74
BRANCH  65  82
ATOM     82  C   UNL A   1      46.650  25.393  33.079  1.00  0.00     0.057 A 
ATOM     83  C   UNL A   1      46.542  24.336  33.991  1.00  0.00     0.134 A 
ATOM     84  C   UNL A   1      47.937  25.784  32.688  1.00  0.00     0.134 A 
ATOM     85  F   UNL A   1      45.337  23.925  34.416  1.00  0.00    -0.206 F 
ATOM     86  C   UNL A   1      47.672  23.711  34.518  1.00  0.00     0.040 A 
ATOM     87  C   UNL A   1      49.074  25.150  33.191  1.00  0.00     0.040 A 
ATOM     88  F   UNL A   1      48.109  26.785  31.812  1.00  0.00    -0.206 F 
ATOM     89  C   UNL A   1      48.944  24.115  34.115  1.00  0.00     0.006 A 
ENDBRANCH  65  82
ENDBRANCH  39  40
ENDBRANCH  31  34
ENDBRANCH  29  30
ENDBRANCH  28  29
ENDBRANCH  27  28
ENDBRANCH   1  27
TORSDOF 15
ENDMDL
