MODEL 1
REMARK VINA RESULT:     -11.2      0.000      0.000
REMARK SMILES CC(C)(C(=O)NCCCCCCNC(=O)c1ccc(-c2c3nc(c(-c4c(F)cccc4F)c4ccc([nH]4)c(-c4c(F)cccc4F)c4nc(c(-c5c(F)cccc5F)c5ccc2[nH]5)C=C4)C=C3)cc1)c1ccc(NS(=O)(=O)c2c(F)cc(F)cc2F)cc1
REMARK SMILES IDX 8 1 7 2 6 3 4 4 5 5 2 7 1 8 3 9 70 10 71 11 88 12 72 13
REMARK SMILES IDX 87 14 73 15 74 16 75 18 76 19 77 20 78 21 79 22 85 23 80 24
REMARK SMILES IDX 81 25 84 26 86 27 82 28 83 29 9 30 10 31 11 32 12 33 13 34
REMARK SMILES IDX 14 35 15 37 16 38 17 39 69 40 18 41 68 42 19 43 20 44 21 45
REMARK SMILES IDX 62 46 22 47 67 48 61 49 63 50 23 51 66 52 60 53 59 54 24 56
REMARK SMILES IDX 50 57 33 58 49 59 34 60 37 61 48 62 64 63 35 64 36 65 47 67
REMARK SMILES IDX 65 68 38 69 25 70 26 71 31 72 27 73 28 74 30 75 32 76 29 77
REMARK SMILES IDX 51 78 52 79 57 80 53 81 54 82 56 83 58 84 55 85 39 86 40 87
REMARK SMILES IDX 45 88 41 89 42 90 44 91 46 92 43 93
REMARK H PARENT 6 6 74 17 13 36 63 55 37 66
REMARK Flexibility Score: inf
ROOT
ATOM      1  C   UNL A   1      34.476  28.829  26.806  1.00  0.00     0.021 C 
ENDROOT
BRANCH   1   2
ATOM      2  C   UNL A   1      33.775  27.955  25.766  1.00  0.00     0.116 C 
BRANCH   2   3
ATOM      3  N   UNL A   1      33.931  28.510  24.442  1.00  0.00    -0.355 N 
ATOM      4  C   UNL A   1      33.057  28.815  23.452  1.00  0.00     0.230 C 
ATOM      5  O   UNL A   1      33.598  29.163  22.394  1.00  0.00    -0.274 OA
ATOM      6  H   UNL A   1      34.867  28.707  24.210  1.00  0.00     0.163 HD
BRANCH   4   7
ATOM      7  C   UNL A   1      31.501  28.788  23.624  1.00  0.00     0.068 C 
ATOM      8  C   UNL A   1      31.063  29.610  24.861  1.00  0.00     0.026 C 
ATOM      9  C   UNL A   1      30.825  29.387  22.376  1.00  0.00     0.026 C 
BRANCH   7  10
ATOM     10  C   UNL A   1      31.064  27.302  23.779  1.00  0.00    -0.033 A 
ATOM     11  C   UNL A   1      30.410  26.856  24.932  1.00  0.00     0.007 A 
ATOM     12  C   UNL A   1      31.429  26.322  22.835  1.00  0.00     0.007 A 
ATOM     13  C   UNL A   1      30.179  25.501  25.155  1.00  0.00     0.027 A 
ATOM     14  C   UNL A   1      31.224  24.955  23.082  1.00  0.00     0.027 A 
ATOM     15  C   UNL A   1      30.616  24.532  24.260  1.00  0.00     0.049 A 
BRANCH  15  16
ATOM     16  N   UNL A   1      30.644  23.147  24.588  1.00  0.00    -0.279 N 
ATOM     17  H   UNL A   1      29.995  22.562  24.135  1.00  0.00     0.180 HD
BRANCH  16  18
ATOM     18  S   UNL A   1      31.693  22.432  25.683  1.00  0.00     0.267 S 
ATOM     19  O   UNL A   1      31.371  22.984  26.988  1.00  0.00    -0.201 OA
ATOM     20  O   UNL A   1      31.631  21.011  25.453  1.00  0.00    -0.201 OA
BRANCH  18  21
ATOM     21  C   UNL A   1      33.297  22.958  25.207  1.00  0.00     0.159 A 
ATOM     22  C   UNL A   1      33.830  24.115  25.771  1.00  0.00     0.149 A 
ATOM     23  C   UNL A   1      34.107  22.138  24.427  1.00  0.00     0.149 A 
ATOM     24  F   UNL A   1      33.084  24.924  26.533  1.00  0.00    -0.205 F 
ATOM     25  C   UNL A   1      35.183  24.414  25.619  1.00  0.00     0.080 A 
ATOM     26  C   UNL A   1      35.460  22.424  24.274  1.00  0.00     0.080 A 
ATOM     27  F   UNL A   1      33.642  21.021  23.858  1.00  0.00    -0.205 F 
ATOM     28  C   UNL A   1      35.991  23.551  24.888  1.00  0.00     0.129 A 
ATOM     29  F   UNL A   1      37.304  23.795  24.794  1.00  0.00    -0.207 F 
ENDBRANCH  18  21
ENDBRANCH  16  18
ENDBRANCH  15  16
ENDBRANCH   7  10
ENDBRANCH   4   7
ENDBRANCH   2   3
ENDBRANCH   1   2
BRANCH   1  30
ATOM     30  C   UNL A   1      33.529  29.741  27.601  1.00  0.00     0.002 C 
BRANCH  30  31
ATOM     31  C   UNL A   1      33.890  31.231  27.589  1.00  0.00     0.002 C 
BRANCH  31  32
ATOM     32  C   UNL A   1      32.700  32.193  27.620  1.00  0.00     0.021 C 
BRANCH  32  33
ATOM     33  C   UNL A   1      33.029  33.626  27.220  1.00  0.00     0.116 C 
BRANCH  33  34
ATOM     34  N   UNL A   1      32.694  34.579  28.264  1.00  0.00    -0.352 N 
ATOM     35  C   UNL A   1      33.278  34.755  29.494  1.00  0.00     0.251 C 
ATOM     36  H   UNL A   1      31.943  35.183  28.062  1.00  0.00     0.163 HD
ATOM     37  O   UNL A   1      32.760  35.489  30.329  1.00  0.00    -0.269 OA
BRANCH  35  38
ATOM     38  C   UNL A   1      34.526  34.035  29.822  1.00  0.00     0.039 A 
ATOM     39  C   UNL A   1      35.701  34.379  29.147  1.00  0.00     0.014 A 
ATOM     40  C   UNL A   1      34.538  33.027  30.791  1.00  0.00     0.014 A 
ATOM     41  C   UNL A   1      36.903  33.756  29.489  1.00  0.00     0.010 A 
ATOM     42  C   UNL A   1      35.746  32.448  31.170  1.00  0.00     0.010 A 
ATOM     43  C   UNL A   1      36.939  32.809  30.525  1.00  0.00    -0.014 A 
BRANCH  43  44
ATOM     44  C   UNL A   1      38.216  32.195  30.962  1.00  0.00     0.031 A 
ATOM     45  C   UNL A   1      38.725  30.951  30.292  1.00  0.00     0.074 A 
ATOM     46  C   UNL A   1      38.874  32.712  32.016  1.00  0.00     0.049 A 
ATOM     47  N   UNL A   1      39.766  30.218  30.593  1.00  0.00    -0.248 NA
ATOM     48  C   UNL A   1      37.945  30.452  29.150  1.00  0.00     0.031 C 
ATOM     49  C   UNL A   1      38.453  33.885  32.784  1.00  0.00     0.029 A 
ATOM     50  N   UNL A   1      40.025  32.301  32.640  1.00  0.00    -0.354 N 
ATOM     51  C   UNL A   1      39.758  29.164  29.690  1.00  0.00     0.074 A 
ATOM     52  C   UNL A   1      38.586  29.330  28.857  1.00  0.00     0.031 C 
ATOM     53  C   UNL A   1      39.335  34.102  33.772  1.00  0.00     0.029 A 
ATOM     54  C   UNL A   1      40.365  33.068  33.726  1.00  0.00     0.049 A 
ATOM     55  H   UNL A   1      40.556  31.530  32.336  1.00  0.00     0.167 HD
ATOM     56  C   UNL A   1      40.656  28.159  29.555  1.00  0.00     0.037 A 
ATOM     57  C   UNL A   1      41.385  32.944  34.596  1.00  0.00     0.037 A 
ATOM     58  C   UNL A   1      41.834  28.009  30.368  1.00  0.00     0.049 A 
ATOM     59  C   UNL A   1      42.374  31.829  34.421  1.00  0.00     0.074 A 
ATOM     60  C   UNL A   1      42.842  27.065  30.261  1.00  0.00     0.029 A 
ATOM     61  N   UNL A   1      42.162  28.824  31.440  1.00  0.00    -0.354 N 
ATOM     62  N   UNL A   1      42.391  30.876  33.522  1.00  0.00    -0.248 NA
ATOM     63  C   UNL A   1      43.487  31.774  35.379  1.00  0.00     0.031 C 
ATOM     64  C   UNL A   1      43.763  27.292  31.291  1.00  0.00     0.029 A 
ATOM     65  C   UNL A   1      43.344  28.395  32.017  1.00  0.00     0.049 A 
ATOM     66  H   UNL A   1      41.631  29.595  31.746  1.00  0.00     0.167 HD
ATOM     67  C   UNL A   1      43.520  30.116  33.794  1.00  0.00     0.074 A 
ATOM     68  C   UNL A   1      44.171  30.727  34.934  1.00  0.00     0.031 C 
ATOM     69  C   UNL A   1      43.975  29.010  33.157  1.00  0.00     0.037 A 
BRANCH  56  70
ATOM     70  C   UNL A   1      40.393  27.145  28.483  1.00  0.00     0.057 A 
ATOM     71  C   UNL A   1      39.520  26.068  28.687  1.00  0.00     0.134 A 
ATOM     72  C   UNL A   1      41.007  27.253  27.229  1.00  0.00     0.134 A 
ATOM     73  F   UNL A   1      38.912  25.902  29.871  1.00  0.00    -0.206 F 
ATOM     74  C   UNL A   1      39.287  25.119  27.690  1.00  0.00     0.040 A 
ATOM     75  C   UNL A   1      40.764  26.322  26.217  1.00  0.00     0.040 A 
ATOM     76  F   UNL A   1      41.851  28.262  26.968  1.00  0.00    -0.206 F 
ATOM     77  C   UNL A   1      39.908  25.248  26.449  1.00  0.00     0.006 A 
ENDBRANCH  56  70
BRANCH  57  78
ATOM     78  C   UNL A   1      41.521  33.917  35.706  1.00  0.00     0.057 A 
ATOM     79  C   UNL A   1      40.959  33.663  36.962  1.00  0.00     0.134 A 
ATOM     80  C   UNL A   1      42.231  35.113  35.543  1.00  0.00     0.134 A 
ATOM     81  F   UNL A   1      40.253  32.542  37.170  1.00  0.00    -0.206 F 
ATOM     82  C   UNL A   1      41.091  34.567  38.016  1.00  0.00     0.040 A 
ATOM     83  C   UNL A   1      42.387  36.017  36.595  1.00  0.00     0.040 A 
ATOM     84  F   UNL A   1      42.799  35.407  34.365  1.00  0.00    -0.206 F 
ATOM     85  C   UNL A   1      41.812  35.746  37.835  1.00  0.00     0.006 A 
ENDBRANCH  57  78
BRANCH  69  86
ATOM     86  C   UNL A   1      45.240  28.397  33.675  1.00  0.00     0.057 A 
ATOM     87  C   UNL A   1      46.497  28.841  33.249  1.00  0.00     0.134 A 
ATOM     88  C   UNL A   1      45.200  27.381  34.638  1.00  0.00     0.134 A 
ATOM     89  F   UNL A   1      46.600  29.802  32.318  1.00  0.00    -0.206 F 
ATOM     90  C   UNL A   1      47.674  28.285  33.753  1.00  0.00     0.040 A 
ATOM     91  C   UNL A   1      46.370  26.831  35.163  1.00  0.00     0.040 A 
ATOM     92  F   UNL A   1      44.027  26.917  35.090  1.00  0.00    -0.206 F 
ATOM     93  C   UNL A   1      47.612  27.281  34.717  1.00  0.00     0.006 A 
ENDBRANCH  69  86
ENDBRANCH  43  44
ENDBRANCH  35  38
ENDBRANCH  33  34
ENDBRANCH  32  33
ENDBRANCH  31  32
ENDBRANCH  30  31
ENDBRANCH   1  30
TORSDOF 17
ENDMDL
MODEL 2
REMARK VINA RESULT:     -11.2      1.092      6.071
REMARK SMILES CC(C)(C(=O)NCCCCCCNC(=O)c1ccc(-c2c3nc(c(-c4c(F)cccc4F)c4ccc([nH]4)c(-c4c(F)cccc4F)c4nc(c(-c5c(F)cccc5F)c5ccc2[nH]5)C=C4)C=C3)cc1)c1ccc(NS(=O)(=O)c2c(F)cc(F)cc2F)cc1
REMARK SMILES IDX 8 1 7 2 6 3 4 4 5 5 2 7 1 8 3 9 70 10 71 11 88 12 72 13
REMARK SMILES IDX 87 14 73 15 74 16 75 18 76 19 77 20 78 21 79 22 85 23 80 24
REMARK SMILES IDX 81 25 84 26 86 27 82 28 83 29 9 30 10 31 11 32 12 33 13 34
REMARK SMILES IDX 14 35 15 37 16 38 17 39 69 40 18 41 68 42 19 43 20 44 21 45
REMARK SMILES IDX 62 46 22 47 67 48 61 49 63 50 23 51 66 52 60 53 59 54 24 56
REMARK SMILES IDX 50 57 33 58 49 59 34 60 37 61 48 62 64 63 35 64 36 65 47 67
REMARK SMILES IDX 65 68 38 69 25 70 26 71 31 72 27 73 28 74 30 75 32 76 29 77
REMARK SMILES IDX 51 78 52 79 57 80 53 81 54 82 56 83 58 84 55 85 39 86 40 87
REMARK SMILES IDX 45 88 41 89 42 90 44 91 46 92 43 93
REMARK H PARENT 6 6 74 17 13 36 63 55 37 66
REMARK Flexibility Score: inf
ROOT
ATOM      1  C   UNL A   1      35.293  29.444  27.228  1.00  0.00     0.021 C 
ENDROOT
BRANCH   1   2
ATOM      2  C   UNL A   1      34.277  28.531  26.541  1.00  0.00     0.116 C 
BRANCH   2   3
ATOM      3  N   UNL A   1      34.108  28.904  25.156  1.00  0.00    -0.355 N 
ATOM      4  C   UNL A   1      33.021  29.080  24.366  1.00  0.00     0.230 C 
ATOM      5  O   UNL A   1      33.293  29.281  23.176  1.00  0.00    -0.274 OA
ATOM      6  H   UNL A   1      34.960  29.063  24.689  1.00  0.00     0.163 HD
BRANCH   4   7
ATOM      7  C   UNL A   1      31.548  29.086  24.898  1.00  0.00     0.068 C 
ATOM      8  C   UNL A   1      31.456  29.788  26.276  1.00  0.00     0.026 C 
ATOM      9  C   UNL A   1      30.636  29.835  23.909  1.00  0.00     0.026 C 
BRANCH   7  10
ATOM     10  C   UNL A   1      31.076  27.607  25.012  1.00  0.00    -0.033 A 
ATOM     11  C   UNL A   1      31.113  26.926  26.232  1.00  0.00     0.007 A 
ATOM     12  C   UNL A   1      30.726  26.854  23.873  1.00  0.00     0.007 A 
ATOM     13  C   UNL A   1      30.865  25.558  26.307  1.00  0.00     0.027 A 
ATOM     14  C   UNL A   1      30.511  25.468  23.949  1.00  0.00     0.027 A 
ATOM     15  C   UNL A   1      30.604  24.804  25.169  1.00  0.00     0.049 A 
BRANCH  15  16
ATOM     16  N   UNL A   1      30.623  23.380  25.175  1.00  0.00    -0.279 N 
ATOM     17  H   UNL A   1      29.903  22.916  24.691  1.00  0.00     0.180 HD
BRANCH  16  18
ATOM     18  S   UNL A   1      31.772  22.431  25.942  1.00  0.00     0.267 S 
ATOM     19  O   UNL A   1      31.650  22.698  27.365  1.00  0.00    -0.201 OA
ATOM     20  O   UNL A   1      31.615  21.093  25.431  1.00  0.00    -0.201 OA
BRANCH  18  21
ATOM     21  C   UNL A   1      33.323  23.019  25.370  1.00  0.00     0.159 A 
ATOM     22  C   UNL A   1      34.341  23.262  26.288  1.00  0.00     0.149 A 
ATOM     23  C   UNL A   1      33.602  23.062  24.007  1.00  0.00     0.149 A 
ATOM     24  F   UNL A   1      34.112  23.221  27.607  1.00  0.00    -0.205 F 
ATOM     25  C   UNL A   1      35.648  23.473  25.852  1.00  0.00     0.080 A 
ATOM     26  C   UNL A   1      34.904  23.266  23.561  1.00  0.00     0.080 A 
ATOM     27  F   UNL A   1      32.659  22.844  23.085  1.00  0.00    -0.205 F 
ATOM     28  C   UNL A   1      35.920  23.452  24.489  1.00  0.00     0.129 A 
ATOM     29  F   UNL A   1      37.183  23.586  24.065  1.00  0.00    -0.207 F 
ENDBRANCH  18  21
ENDBRANCH  16  18
ENDBRANCH  15  16
ENDBRANCH   7  10
ENDBRANCH   4   7
ENDBRANCH   2   3
ENDBRANCH   1   2
BRANCH   1  30
ATOM     30  C   UNL A   1      34.668  30.484  28.169  1.00  0.00     0.002 C 
BRANCH  30  31
ATOM     31  C   UNL A   1      34.653  31.923  27.641  1.00  0.00     0.002 C 
BRANCH  31  32
ATOM     32  C   UNL A   1      33.423  32.749  28.022  1.00  0.00     0.021 C 
BRANCH  32  33
ATOM     33  C   UNL A   1      33.653  34.255  28.065  1.00  0.00     0.116 C 
BRANCH  33  34
ATOM     34  N   UNL A   1      33.270  34.833  29.342  1.00  0.00    -0.352 N 
ATOM     35  C   UNL A   1      33.763  34.567  30.595  1.00  0.00     0.251 C 
ATOM     36  H   UNL A   1      32.557  35.511  29.303  1.00  0.00     0.163 HD
ATOM     37  O   UNL A   1      33.206  35.017  31.590  1.00  0.00    -0.269 OA
BRANCH  35  38
ATOM     38  C   UNL A   1      34.958  33.711  30.745  1.00  0.00     0.039 A 
ATOM     39  C   UNL A   1      36.161  34.121  30.162  1.00  0.00     0.014 A 
ATOM     40  C   UNL A   1      34.893  32.509  31.458  1.00  0.00     0.014 A 
ATOM     41  C   UNL A   1      37.316  33.359  30.348  1.00  0.00     0.010 A 
ATOM     42  C   UNL A   1      36.057  31.781  31.690  1.00  0.00     0.010 A 
ATOM     43  C   UNL A   1      37.278  32.200  31.141  1.00  0.00    -0.014 A 
BRANCH  43  44
ATOM     44  C   UNL A   1      38.508  31.420  31.420  1.00  0.00     0.031 A 
ATOM     45  C   UNL A   1      39.453  31.860  32.501  1.00  0.00     0.074 A 
ATOM     46  C   UNL A   1      38.814  30.364  30.644  1.00  0.00     0.049 A 
ATOM     47  N   UNL A   1      40.619  31.368  32.829  1.00  0.00    -0.248 NA
ATOM     48  C   UNL A   1      39.042  33.024  33.301  1.00  0.00     0.031 C 
ATOM     49  C   UNL A   1      38.004  29.870  29.529  1.00  0.00     0.029 A 
ATOM     50  N   UNL A   1      39.903  29.529  30.660  1.00  0.00    -0.354 N 
ATOM     51  C   UNL A   1      41.090  32.169  33.861  1.00  0.00     0.074 A 
ATOM     52  C   UNL A   1      40.102  33.204  34.076  1.00  0.00     0.031 C 
ATOM     53  C   UNL A   1      38.622  28.817  28.970  1.00  0.00     0.029 A 
ATOM     54  C   UNL A   1      39.883  28.581  29.669  1.00  0.00     0.049 A 
ATOM     55  H   UNL A   1      40.629  29.605  31.321  1.00  0.00     0.167 HD
ATOM     56  C   UNL A   1      42.233  32.041  34.576  1.00  0.00     0.037 A 
ATOM     57  C   UNL A   1      40.785  27.635  29.348  1.00  0.00     0.037 A 
ATOM     58  C   UNL A   1      43.202  30.996  34.378  1.00  0.00     0.049 A 
ATOM     59  C   UNL A   1      42.040  27.505  30.162  1.00  0.00     0.074 A 
ATOM     60  C   UNL A   1      44.356  30.741  35.100  1.00  0.00     0.029 A 
ATOM     61  N   UNL A   1      43.132  30.034  33.383  1.00  0.00    -0.354 N 
ATOM     62  N   UNL A   1      42.442  28.229  31.177  1.00  0.00    -0.248 NA
ATOM     63  C   UNL A   1      42.965  26.426  29.788  1.00  0.00     0.031 C 
ATOM     64  C   UNL A   1      45.000  29.642  34.519  1.00  0.00     0.029 A 
ATOM     65  C   UNL A   1      44.231  29.195  33.457  1.00  0.00     0.049 A 
ATOM     66  H   UNL A   1      42.407  29.958  32.721  1.00  0.00     0.167 HD
ATOM     67  C   UNL A   1      43.657  27.688  31.573  1.00  0.00     0.074 A 
ATOM     68  C   UNL A   1      43.920  26.564  30.697  1.00  0.00     0.031 C 
ATOM     69  C   UNL A   1      44.481  28.086  32.572  1.00  0.00     0.037 A 
BRANCH  56  70
ATOM     70  C   UNL A   1      42.491  33.063  35.642  1.00  0.00     0.057 A 
ATOM     71  C   UNL A   1      43.221  34.229  35.383  1.00  0.00     0.134 A 
ATOM     72  C   UNL A   1      41.992  32.886  36.939  1.00  0.00     0.134 A 
ATOM     73  F   UNL A   1      43.737  34.450  34.164  1.00  0.00    -0.206 F 
ATOM     74  C   UNL A   1      43.469  35.173  36.381  1.00  0.00     0.040 A 
ATOM     75  C   UNL A   1      42.214  33.833  37.940  1.00  0.00     0.040 A 
ATOM     76  F   UNL A   1      41.281  31.792  37.253  1.00  0.00    -0.206 F 
ATOM     77  C   UNL A   1      42.961  34.976  37.664  1.00  0.00     0.006 A 
ENDBRANCH  56  70
BRANCH  57  78
ATOM     78  C   UNL A   1      40.520  26.728  28.206  1.00  0.00     0.057 A 
ATOM     79  C   UNL A   1      41.177  26.899  26.982  1.00  0.00     0.134 A 
ATOM     80  C   UNL A   1      39.621  25.661  28.316  1.00  0.00     0.134 A 
ATOM     81  F   UNL A   1      42.035  27.915  26.814  1.00  0.00    -0.206 F 
ATOM     82  C   UNL A   1      40.943  26.045  25.904  1.00  0.00     0.040 A 
ATOM     83  C   UNL A   1      39.392  24.788  27.252  1.00  0.00     0.040 A 
ATOM     84  F   UNL A   1      38.969  25.442  29.467  1.00  0.00    -0.206 F 
ATOM     85  C   UNL A   1      40.052  24.982  26.039  1.00  0.00     0.006 A 
ENDBRANCH  57  78
BRANCH  69  86
ATOM     86  C   UNL A   1      45.739  27.297  32.774  1.00  0.00     0.057 A 
ATOM     87  C   UNL A   1      46.944  27.672  32.167  1.00  0.00     0.134 A 
ATOM     88  C   UNL A   1      45.754  26.176  33.613  1.00  0.00     0.134 A 
ATOM     89  F   UNL A   1      46.990  28.729  31.341  1.00  0.00    -0.206 F 
ATOM     90  C   UNL A   1      48.120  26.950  32.377  1.00  0.00     0.040 A 
ATOM     91  C   UNL A   1      46.927  25.458  33.846  1.00  0.00     0.040 A 
ATOM     92  F   UNL A   1      44.633  25.770  34.227  1.00  0.00    -0.206 F 
ATOM     93  C   UNL A   1      48.114  25.843  33.224  1.00  0.00     0.006 A 
ENDBRANCH  69  86
ENDBRANCH  43  44
ENDBRANCH  35  38
ENDBRANCH  33  34
ENDBRANCH  32  33
ENDBRANCH  31  32
ENDBRANCH  30  31
ENDBRANCH   1  30
TORSDOF 17
ENDMDL
MODEL 3
REMARK VINA RESULT:     -10.9      5.438     10.321
REMARK SMILES CC(C)(C(=O)NCCCCCCNC(=O)c1ccc(-c2c3nc(c(-c4c(F)cccc4F)c4ccc([nH]4)c(-c4c(F)cccc4F)c4nc(c(-c5c(F)cccc5F)c5ccc2[nH]5)C=C4)C=C3)cc1)c1ccc(NS(=O)(=O)c2c(F)cc(F)cc2F)cc1
REMARK SMILES IDX 8 1 7 2 6 3 4 4 5 5 2 7 1 8 3 9 70 10 71 11 88 12 72 13
REMARK SMILES IDX 87 14 73 15 74 16 75 18 76 19 77 20 78 21 79 22 85 23 80 24
REMARK SMILES IDX 81 25 84 26 86 27 82 28 83 29 9 30 10 31 11 32 12 33 13 34
REMARK SMILES IDX 14 35 15 37 16 38 17 39 69 40 18 41 68 42 19 43 20 44 21 45
REMARK SMILES IDX 62 46 22 47 67 48 61 49 63 50 23 51 66 52 60 53 59 54 24 56
REMARK SMILES IDX 50 57 33 58 49 59 34 60 37 61 48 62 64 63 35 64 36 65 47 67
REMARK SMILES IDX 65 68 38 69 25 70 26 71 31 72 27 73 28 74 30 75 32 76 29 77
REMARK SMILES IDX 51 78 52 79 57 80 53 81 54 82 56 83 58 84 55 85 39 86 40 87
REMARK SMILES IDX 45 88 41 89 42 90 44 91 46 92 43 93
REMARK H PARENT 6 6 74 17 13 36 63 55 37 66
REMARK Flexibility Score: inf
ROOT
ATOM      1  C   UNL A   1      44.156  24.222  30.626  1.00  0.00     0.021 C 
ENDROOT
BRANCH   1   2
ATOM      2  C   UNL A   1      45.321  25.184  30.860  1.00  0.00     0.116 C 
BRANCH   2   3
ATOM      3  N   UNL A   1      44.949  26.533  30.503  1.00  0.00    -0.355 N 
ATOM      4  C   UNL A   1      45.488  27.457  29.669  1.00  0.00     0.230 C 
ATOM      5  O   UNL A   1      44.941  28.565  29.729  1.00  0.00    -0.274 OA
ATOM      6  H   UNL A   1      44.137  26.847  30.961  1.00  0.00     0.163 HD
BRANCH   4   7
ATOM      7  C   UNL A   1      46.659  27.156  28.675  1.00  0.00     0.068 C 
ATOM      8  C   UNL A   1      47.130  28.448  27.962  1.00  0.00     0.026 C 
ATOM      9  C   UNL A   1      47.855  26.558  29.439  1.00  0.00     0.026 C 
BRANCH   7  10
ATOM     10  C   UNL A   1      46.147  26.119  27.633  1.00  0.00    -0.033 A 
ATOM     11  C   UNL A   1      46.762  24.873  27.488  1.00  0.00     0.007 A 
ATOM     12  C   UNL A   1      45.138  26.444  26.703  1.00  0.00     0.007 A 
ATOM     13  C   UNL A   1      46.427  24.017  26.441  1.00  0.00     0.027 A 
ATOM     14  C   UNL A   1      44.829  25.591  25.630  1.00  0.00     0.027 A 
ATOM     15  C   UNL A   1      45.492  24.377  25.479  1.00  0.00     0.049 A 
BRANCH  15  16
ATOM     16  N   UNL A   1      45.333  23.656  24.261  1.00  0.00    -0.279 N 
ATOM     17  H   UNL A   1      45.930  23.892  23.515  1.00  0.00     0.180 HD
BRANCH  16  18
ATOM     18  S   UNL A   1      44.211  22.439  23.996  1.00  0.00     0.267 S 
ATOM     19  O   UNL A   1      43.004  22.825  24.708  1.00  0.00    -0.201 OA
ATOM     20  O   UNL A   1      44.180  22.204  22.575  1.00  0.00    -0.201 OA
BRANCH  18  21
ATOM     21  C   UNL A   1      44.892  21.004  24.739  1.00  0.00     0.159 A 
ATOM     22  C   UNL A   1      44.038  20.038  25.265  1.00  0.00     0.149 A 
ATOM     23  C   UNL A   1      46.253  20.735  24.638  1.00  0.00     0.149 A 
ATOM     24  F   UNL A   1      42.721  20.258  25.371  1.00  0.00    -0.205 F 
ATOM     25  C   UNL A   1      44.527  18.782  25.620  1.00  0.00     0.080 A 
ATOM     26  C   UNL A   1      46.752  19.482  24.983  1.00  0.00     0.080 A 
ATOM     27  F   UNL A   1      47.116  21.630  24.147  1.00  0.00    -0.205 F 
ATOM     28  C   UNL A   1      45.880  18.509  25.454  1.00  0.00     0.129 A 
ATOM     29  F   UNL A   1      46.346  17.285  25.728  1.00  0.00    -0.207 F 
ENDBRANCH  18  21
ENDBRANCH  16  18
ENDBRANCH  15  16
ENDBRANCH   7  10
ENDBRANCH   4   7
ENDBRANCH   2   3
ENDBRANCH   1   2
BRANCH   1  30
ATOM     30  C   UNL A   1      43.313  24.548  29.383  1.00  0.00     0.002 C 
BRANCH  30  31
ATOM     31  C   UNL A   1      43.256  23.444  28.321  1.00  0.00     0.002 C 
BRANCH  31  32
ATOM     32  C   UNL A   1      41.977  22.604  28.317  1.00  0.00     0.021 C 
BRANCH  32  33
ATOM     33  C   UNL A   1      40.773  23.278  27.670  1.00  0.00     0.116 C 
BRANCH  33  34
ATOM     34  N   UNL A   1      41.124  23.964  26.438  1.00  0.00    -0.352 N 
ATOM     35  C   UNL A   1      41.072  25.305  26.150  1.00  0.00     0.251 C 
ATOM     36  H   UNL A   1      41.444  23.386  25.708  1.00  0.00     0.163 HD
ATOM     37  O   UNL A   1      41.238  25.700  25.001  1.00  0.00    -0.269 OA
BRANCH  35  38
ATOM     38  C   UNL A   1      40.790  26.276  27.228  1.00  0.00     0.039 A 
ATOM     39  C   UNL A   1      39.727  26.026  28.100  1.00  0.00     0.014 A 
ATOM     40  C   UNL A   1      41.572  27.426  27.378  1.00  0.00     0.014 A 
ATOM     41  C   UNL A   1      39.486  26.897  29.164  1.00  0.00     0.010 A 
ATOM     42  C   UNL A   1      41.365  28.262  28.471  1.00  0.00     0.010 A 
ATOM     43  C   UNL A   1      40.324  28.004  29.375  1.00  0.00    -0.014 A 
BRANCH  43  44
ATOM     44  C   UNL A   1      40.138  28.896  30.545  1.00  0.00     0.031 A 
ATOM     45  C   UNL A   1      39.109  29.989  30.507  1.00  0.00     0.074 A 
ATOM     46  C   UNL A   1      40.954  28.774  31.609  1.00  0.00     0.049 A 
ATOM     47  N   UNL A   1      38.864  30.925  31.388  1.00  0.00    -0.248 NA
ATOM     48  C   UNL A   1      38.261  30.054  29.307  1.00  0.00     0.031 C 
ATOM     49  C   UNL A   1      42.026  27.786  31.743  1.00  0.00     0.029 A 
ATOM     50  N   UNL A   1      41.022  29.500  32.771  1.00  0.00    -0.354 N 
ATOM     51  C   UNL A   1      37.848  31.698  30.844  1.00  0.00     0.074 A 
ATOM     52  C   UNL A   1      37.550  31.147  29.540  1.00  0.00     0.031 C 
ATOM     53  C   UNL A   1      42.644  27.967  32.922  1.00  0.00     0.029 A 
ATOM     54  C   UNL A   1      42.030  29.099  33.611  1.00  0.00     0.049 A 
ATOM     55  H   UNL A   1      40.407  30.240  32.980  1.00  0.00     0.167 HD
ATOM     56  C   UNL A   1      37.208  32.759  31.391  1.00  0.00     0.037 A 
ATOM     57  C   UNL A   1      42.426  29.596  34.798  1.00  0.00     0.037 A 
ATOM     58  C   UNL A   1      37.487  33.289  32.699  1.00  0.00     0.049 A 
ATOM     59  C   UNL A   1      41.695  30.765  35.390  1.00  0.00     0.074 A 
ATOM     60  C   UNL A   1      36.844  34.316  33.370  1.00  0.00     0.029 A 
ATOM     61  N   UNL A   1      38.496  32.837  33.535  1.00  0.00    -0.354 N 
ATOM     62  N   UNL A   1      40.691  31.447  34.894  1.00  0.00    -0.248 NA
ATOM     63  C   UNL A   1      42.148  31.233  36.707  1.00  0.00     0.031 C 
ATOM     64  C   UNL A   1      37.486  34.505  34.599  1.00  0.00     0.029 A 
ATOM     65  C   UNL A   1      38.508  33.574  34.706  1.00  0.00     0.049 A 
ATOM     66  H   UNL A   1      39.113  32.098  33.326  1.00  0.00     0.167 HD
ATOM     67  C   UNL A   1      40.383  32.414  35.840  1.00  0.00     0.074 A 
ATOM     68  C   UNL A   1      41.297  32.222  36.948  1.00  0.00     0.031 C 
ATOM     69  C   UNL A   1      39.429  33.375  35.795  1.00  0.00     0.037 A 
BRANCH  56  70
ATOM     70  C   UNL A   1      36.138  33.412  30.568  1.00  0.00     0.057 A 
ATOM     71  C   UNL A   1      34.779  33.219  30.841  1.00  0.00     0.134 A 
ATOM     72  C   UNL A   1      36.471  34.254  29.500  1.00  0.00     0.134 A 
ATOM     73  F   UNL A   1      34.395  32.412  31.843  1.00  0.00    -0.206 F 
ATOM     74  C   UNL A   1      33.786  33.819  30.066  1.00  0.00     0.040 A 
ATOM     75  C   UNL A   1      35.487  34.879  28.731  1.00  0.00     0.040 A 
ATOM     76  F   UNL A   1      37.755  34.484  29.187  1.00  0.00    -0.206 F 
ATOM     77  C   UNL A   1      34.140  34.655  29.009  1.00  0.00     0.006 A 
ENDBRANCH  56  70
BRANCH  57  78
ATOM     78  C   UNL A   1      43.568  28.972  35.508  1.00  0.00     0.057 A 
ATOM     79  C   UNL A   1      44.877  29.422  35.302  1.00  0.00     0.134 A 
ATOM     80  C   UNL A   1      43.377  27.928  36.420  1.00  0.00     0.134 A 
ATOM     81  F   UNL A   1      45.121  30.407  34.427  1.00  0.00    -0.206 F 
ATOM     82  C   UNL A   1      45.958  28.850  35.973  1.00  0.00     0.040 A 
ATOM     83  C   UNL A   1      44.447  27.359  37.112  1.00  0.00     0.040 A 
ATOM     84  F   UNL A   1      42.144  27.461  36.664  1.00  0.00    -0.206 F 
ATOM     85  C   UNL A   1      45.744  27.818  36.886  1.00  0.00     0.006 A 
ENDBRANCH  57  78
BRANCH  69  86
ATOM     86  C   UNL A   1      39.323  34.286  36.980  1.00  0.00     0.057 A 
ATOM     87  C   UNL A   1      38.648  33.898  38.144  1.00  0.00     0.134 A 
ATOM     88  C   UNL A   1      39.934  35.546  36.972  1.00  0.00     0.134 A 
ATOM     89  F   UNL A   1      38.031  32.708  38.208  1.00  0.00    -0.206 F 
ATOM     90  C   UNL A   1      38.572  34.738  39.256  1.00  0.00     0.040 A 
ATOM     91  C   UNL A   1      39.881  36.386  38.084  1.00  0.00     0.040 A 
ATOM     92  F   UNL A   1      40.600  35.973  35.889  1.00  0.00    -0.206 F 
ATOM     93  C   UNL A   1      39.196  35.985  39.229  1.00  0.00     0.006 A 
ENDBRANCH  69  86
ENDBRANCH  43  44
ENDBRANCH  35  38
ENDBRANCH  33  34
ENDBRANCH  32  33
ENDBRANCH  31  32
ENDBRANCH  30  31
ENDBRANCH   1  30
TORSDOF 17
ENDMDL
