MODEL 1
REMARK VINA RESULT:     -11.1      0.000      0.000
REMARK SMILES C[C@H](S[C@H]1[NH+]=C(Cl)[NH+]=C2N=CN=C21)C(=O)NCCCCCCNC(=O)c1ccc(-c2c3nc(c(-c4c(F)cccc4F)c4ccc([nH]4)c(-c4c(F)cccc4F)c4nc(c(-c5c(F)cccc5F)c5ccc2[nH]5)C=C4)C=C3)cc1
REMARK SMILES IDX 19 1 18 2 17 3 16 4 14 5 15 6 2 8 1 9 3 10 4 11 5 12 13 13
REMARK SMILES IDX 6 14 9 16 12 17 7 18 8 19 10 20 11 21 20 23 21 24 22 25
REMARK SMILES IDX 23 26 24 27 25 29 26 30 27 31 79 32 28 33 78 34 29 35 30 36
REMARK SMILES IDX 31 37 72 38 32 39 77 40 71 41 73 42 33 43 76 44 70 45 69 46
REMARK SMILES IDX 34 48 60 49 43 50 59 51 44 52 47 53 58 54 74 55 45 56 46 57
REMARK SMILES IDX 57 59 75 60 48 61 35 62 36 63 41 64 37 65 38 66 40 67 42 68
REMARK SMILES IDX 39 69 61 70 62 71 67 72 63 73 64 74 66 75 68 76 65 77 49 78
REMARK SMILES IDX 50 79 55 80 51 81 52 82 54 83 56 84 53 85
REMARK H PARENT 16 7 5 15 8 22 23 28 73 47 47 58
REMARK Flexibility Score: inf
ROOT
ATOM      1  C   UNL A   1      40.968  20.908  27.098  1.00  0.00     0.002 C 
ENDROOT
BRANCH   1   2
ATOM      2  C   UNL A   1      40.235  20.877  25.753  1.00  0.00     0.021 C 
BRANCH   2   3
ATOM      3  C   UNL A   1      38.712  20.953  25.860  1.00  0.00     0.116 C 
BRANCH   3   4
ATOM      4  N   UNL A   1      38.173  22.175  25.287  1.00  0.00    -0.355 N 
ATOM      5  C   UNL A   1      36.900  22.649  25.233  1.00  0.00     0.233 C 
ATOM      6  O   UNL A   1      36.700  23.659  24.552  1.00  0.00    -0.274 OA
ATOM      7  H   UNL A   1      38.844  22.759  24.867  1.00  0.00     0.163 HD
BRANCH   5   8
ATOM      8  C   UNL A   1      35.733  21.971  25.940  1.00  0.00     0.139 C 
ATOM      9  C   UNL A   1      35.122  20.857  25.095  1.00  0.00     0.030 C 
BRANCH   8  10
ATOM     10  S   UNL A   1      34.500  23.197  26.523  1.00  0.00    -0.069 SA
BRANCH  10  11
ATOM     11  C   UNL A   1      32.985  22.604  25.675  1.00  0.00     0.384 C 
ATOM     12  N   UNL A   1      31.826  22.426  26.541  1.00  0.00    -0.156 N 
ATOM     13  C   UNL A   1      32.658  23.393  24.471  1.00  0.00     0.214 C 
ATOM     14  C   UNL A   1      30.667  22.875  26.228  1.00  0.00     0.514 C 
ATOM     15  H   UNL A   1      31.935  21.945  27.393  1.00  0.00     0.455 HD
ATOM     16  C   UNL A   1      31.274  23.835  24.305  1.00  0.00     0.338 C 
ATOM     17  N   UNL A   1      33.312  23.742  23.409  1.00  0.00    -0.225 NA
ATOM     18  Cl  UNL A   1      29.384  22.553  27.316  1.00  0.00     0.068 Cl
ATOM     19  N   UNL A   1      30.321  23.572  25.114  1.00  0.00    -0.118 N 
ATOM     20  N   UNL A   1      31.164  24.501  23.122  1.00  0.00    -0.173 NA
ATOM     21  C   UNL A   1      32.371  24.431  22.646  1.00  0.00     0.229 C 
ATOM     22  H   UNL A   1      29.395  23.856  24.941  1.00  0.00     0.464 HD
ENDBRANCH  10  11
ENDBRANCH   8  10
ENDBRANCH   5   8
ENDBRANCH   3   4
ENDBRANCH   2   3
ENDBRANCH   1   2
BRANCH   1  23
ATOM     23  C   UNL A   1      41.836  19.678  27.398  1.00  0.00     0.002 C 
BRANCH  23  24
ATOM     24  C   UNL A   1      42.372  18.919  26.177  1.00  0.00     0.021 C 
BRANCH  24  25
ATOM     25  C   UNL A   1      43.857  18.600  26.249  1.00  0.00     0.116 C 
BRANCH  25  26
ATOM     26  N   UNL A   1      44.493  18.609  24.933  1.00  0.00    -0.352 N 
ATOM     27  C   UNL A   1      44.640  19.676  24.066  1.00  0.00     0.251 C 
ATOM     28  H   UNL A   1      44.862  17.749  24.627  1.00  0.00     0.163 HD
ATOM     29  O   UNL A   1      44.835  19.511  22.877  1.00  0.00    -0.269 OA
BRANCH  27  30
ATOM     30  C   UNL A   1      44.571  21.033  24.633  1.00  0.00     0.039 A 
ATOM     31  C   UNL A   1      43.531  21.908  24.310  1.00  0.00     0.014 A 
ATOM     32  C   UNL A   1      45.561  21.395  25.540  1.00  0.00     0.014 A 
ATOM     33  C   UNL A   1      43.462  23.132  24.972  1.00  0.00     0.010 A 
ATOM     34  C   UNL A   1      45.395  22.515  26.309  1.00  0.00     0.010 A 
ATOM     35  C   UNL A   1      44.393  23.421  25.982  1.00  0.00    -0.014 A 
BRANCH  35  36
ATOM     36  C   UNL A   1      44.293  24.642  26.770  1.00  0.00     0.031 A 
ATOM     37  C   UNL A   1      45.407  25.604  26.568  1.00  0.00     0.074 A 
ATOM     38  C   UNL A   1      43.169  24.976  27.441  1.00  0.00     0.049 A 
ATOM     39  N   UNL A   1      46.334  25.933  27.406  1.00  0.00    -0.248 NA
ATOM     40  C   UNL A   1      45.595  26.176  25.224  1.00  0.00     0.031 C 
ATOM     41  C   UNL A   1      41.868  24.290  27.421  1.00  0.00     0.029 A 
ATOM     42  N   UNL A   1      42.915  26.075  28.205  1.00  0.00    -0.354 N 
ATOM     43  C   UNL A   1      47.084  26.924  26.774  1.00  0.00     0.074 A 
ATOM     44  C   UNL A   1      46.715  26.885  25.386  1.00  0.00     0.031 C 
ATOM     45  C   UNL A   1      40.916  25.104  27.927  1.00  0.00     0.029 A 
ATOM     46  C   UNL A   1      41.569  26.269  28.490  1.00  0.00     0.049 A 
ATOM     47  H   UNL A   1      43.623  26.678  28.527  1.00  0.00     0.167 HD
ATOM     48  C   UNL A   1      47.726  27.880  27.503  1.00  0.00     0.037 A 
ATOM     49  C   UNL A   1      41.024  27.317  29.147  1.00  0.00     0.037 A 
ATOM     50  C   UNL A   1      47.745  27.522  28.898  1.00  0.00     0.049 A 
ATOM     51  C   UNL A   1      42.099  27.951  29.940  1.00  0.00     0.074 A 
ATOM     52  C   UNL A   1      48.407  26.615  29.695  1.00  0.00     0.029 A 
ATOM     53  N   UNL A   1      46.638  27.944  29.587  1.00  0.00    -0.354 N 
ATOM     54  N   UNL A   1      42.703  27.364  30.935  1.00  0.00    -0.248 NA
ATOM     55  C   UNL A   1      42.772  29.129  29.408  1.00  0.00     0.031 C 
ATOM     56  C   UNL A   1      47.527  26.340  30.785  1.00  0.00     0.029 A 
ATOM     57  C   UNL A   1      46.378  27.117  30.645  1.00  0.00     0.049 A 
ATOM     58  H   UNL A   1      46.103  28.736  29.352  1.00  0.00     0.167 HD
ATOM     59  C   UNL A   1      44.004  27.825  30.870  1.00  0.00     0.074 A 
ATOM     60  C   UNL A   1      43.941  29.026  30.048  1.00  0.00     0.031 C 
ATOM     61  C   UNL A   1      45.050  27.018  31.215  1.00  0.00     0.037 A 
BRANCH  48  62
ATOM     62  C   UNL A   1      47.899  29.329  27.088  1.00  0.00     0.057 A 
ATOM     63  C   UNL A   1      49.164  29.934  27.234  1.00  0.00     0.134 A 
ATOM     64  C   UNL A   1      46.837  30.229  26.863  1.00  0.00     0.134 A 
ATOM     65  F   UNL A   1      50.258  29.192  27.469  1.00  0.00    -0.206 F 
ATOM     66  C   UNL A   1      49.343  31.324  27.230  1.00  0.00     0.040 A 
ATOM     67  C   UNL A   1      47.013  31.616  26.807  1.00  0.00     0.040 A 
ATOM     68  F   UNL A   1      45.561  29.833  26.793  1.00  0.00    -0.206 F 
ATOM     69  C   UNL A   1      48.263  32.171  27.022  1.00  0.00     0.006 A 
ENDBRANCH  48  62
BRANCH  49  70
ATOM     70  C   UNL A   1      39.707  27.952  28.934  1.00  0.00     0.057 A 
ATOM     71  C   UNL A   1      38.758  28.016  29.961  1.00  0.00     0.134 A 
ATOM     72  C   UNL A   1      39.469  28.763  27.811  1.00  0.00     0.134 A 
ATOM     73  F   UNL A   1      38.919  27.298  31.081  1.00  0.00    -0.206 F 
ATOM     74  C   UNL A   1      37.650  28.871  29.893  1.00  0.00     0.040 A 
ATOM     75  C   UNL A   1      38.366  29.619  27.730  1.00  0.00     0.040 A 
ATOM     76  F   UNL A   1      40.348  28.818  26.798  1.00  0.00    -0.206 F 
ATOM     77  C   UNL A   1      37.461  29.688  28.782  1.00  0.00     0.006 A 
ENDBRANCH  49  70
BRANCH  61  78
ATOM     78  C   UNL A   1      44.758  25.848  32.107  1.00  0.00     0.057 A 
ATOM     79  C   UNL A   1      44.534  24.539  31.661  1.00  0.00     0.134 A 
ATOM     80  C   UNL A   1      44.798  26.049  33.490  1.00  0.00     0.134 A 
ATOM     81  F   UNL A   1      44.556  24.234  30.359  1.00  0.00    -0.206 F 
ATOM     82  C   UNL A   1      44.320  23.485  32.556  1.00  0.00     0.040 A 
ATOM     83  C   UNL A   1      44.619  25.001  34.395  1.00  0.00     0.040 A 
ATOM     84  F   UNL A   1      45.050  27.270  33.989  1.00  0.00    -0.206 F 
ATOM     85  C   UNL A   1      44.369  23.714  33.928  1.00  0.00     0.006 A 
ENDBRANCH  61  78
ENDBRANCH  35  36
ENDBRANCH  27  30
ENDBRANCH  25  26
ENDBRANCH  24  25
ENDBRANCH  23  24
ENDBRANCH   1  23
TORSDOF 15
ENDMDL
MODEL 2
REMARK VINA RESULT:     -11.0      1.445      1.864
REMARK SMILES C[C@H](S[C@H]1[NH+]=C(Cl)[NH+]=C2N=CN=C21)C(=O)NCCCCCCNC(=O)c1ccc(-c2c3nc(c(-c4c(F)cccc4F)c4ccc([nH]4)c(-c4c(F)cccc4F)c4nc(c(-c5c(F)cccc5F)c5ccc2[nH]5)C=C4)C=C3)cc1
REMARK SMILES IDX 19 1 18 2 17 3 16 4 14 5 15 6 2 8 1 9 3 10 4 11 5 12 13 13
REMARK SMILES IDX 6 14 9 16 12 17 7 18 8 19 10 20 11 21 20 23 21 24 22 25
REMARK SMILES IDX 23 26 24 27 25 29 26 30 27 31 79 32 28 33 78 34 29 35 30 36
REMARK SMILES IDX 31 37 72 38 32 39 77 40 71 41 73 42 33 43 76 44 70 45 69 46
REMARK SMILES IDX 34 48 60 49 43 50 59 51 44 52 47 53 58 54 74 55 45 56 46 57
REMARK SMILES IDX 57 59 75 60 48 61 35 62 36 63 41 64 37 65 38 66 40 67 42 68
REMARK SMILES IDX 39 69 61 70 62 71 67 72 63 73 64 74 66 75 68 76 65 77 49 78
REMARK SMILES IDX 50 79 55 80 51 81 52 82 54 83 56 84 53 85
REMARK H PARENT 16 7 5 15 8 22 23 28 73 47 47 58
REMARK Flexibility Score: inf
ROOT
ATOM      1  C   UNL A   1      40.956  21.774  27.627  1.00  0.00     0.002 C 
ENDROOT
BRANCH   1   2
ATOM      2  C   UNL A   1      40.045  22.422  26.580  1.00  0.00     0.021 C 
BRANCH   2   3
ATOM      3  C   UNL A   1      38.895  21.534  26.103  1.00  0.00     0.116 C 
BRANCH   3   4
ATOM      4  N   UNL A   1      38.172  22.111  24.982  1.00  0.00    -0.355 N 
ATOM      5  C   UNL A   1      36.850  22.095  24.670  1.00  0.00     0.233 C 
ATOM      6  O   UNL A   1      36.521  22.546  23.569  1.00  0.00    -0.274 OA
ATOM      7  H   UNL A   1      38.738  22.596  24.339  1.00  0.00     0.163 HD
BRANCH   5   8
ATOM      8  C   UNL A   1      35.787  21.519  25.598  1.00  0.00     0.139 C 
ATOM      9  C   UNL A   1      35.030  20.362  24.952  1.00  0.00     0.030 C 
BRANCH   8  10
ATOM     10  S   UNL A   1      34.685  22.832  26.250  1.00  0.00    -0.069 SA
BRANCH  10  11
ATOM     11  C   UNL A   1      33.093  22.382  25.457  1.00  0.00     0.384 C 
ATOM     12  N   UNL A   1      31.960  22.277  26.368  1.00  0.00    -0.156 N 
ATOM     13  C   UNL A   1      32.781  23.221  24.284  1.00  0.00     0.214 C 
ATOM     14  C   UNL A   1      30.829  22.824  26.115  1.00  0.00     0.514 C 
ATOM     15  H   UNL A   1      32.066  21.769  27.205  1.00  0.00     0.455 HD
ATOM     16  C   UNL A   1      31.431  23.776  24.186  1.00  0.00     0.338 C 
ATOM     17  N   UNL A   1      33.417  23.542  23.201  1.00  0.00    -0.225 NA
ATOM     18  Cl  UNL A   1      29.571  22.581  27.250  1.00  0.00     0.068 Cl
ATOM     19  N   UNL A   1      30.495  23.572  25.030  1.00  0.00    -0.118 N 
ATOM     20  N   UNL A   1      31.327  24.476  23.022  1.00  0.00    -0.173 NA
ATOM     21  C   UNL A   1      32.504  24.321  22.493  1.00  0.00     0.229 C 
ATOM     22  H   UNL A   1      29.589  23.933  24.903  1.00  0.00     0.464 HD
ENDBRANCH  10  11
ENDBRANCH   8  10
ENDBRANCH   5   8
ENDBRANCH   3   4
ENDBRANCH   2   3
ENDBRANCH   1   2
BRANCH   1  23
ATOM     23  C   UNL A   1      41.003  20.241  27.593  1.00  0.00     0.002 C 
BRANCH  23  24
ATOM     24  C   UNL A   1      42.272  19.619  26.993  1.00  0.00     0.021 C 
BRANCH  24  25
ATOM     25  C   UNL A   1      42.384  19.775  25.485  1.00  0.00     0.116 C 
BRANCH  25  26
ATOM     26  N   UNL A   1      43.773  19.851  25.035  1.00  0.00    -0.352 N 
ATOM     27  C   UNL A   1      44.565  20.977  24.903  1.00  0.00     0.251 C 
ATOM     28  H   UNL A   1      44.196  18.994  24.796  1.00  0.00     0.163 HD
ATOM     29  O   UNL A   1      45.547  20.987  24.186  1.00  0.00    -0.269 OA
BRANCH  27  30
ATOM     30  C   UNL A   1      44.191  22.171  25.678  1.00  0.00     0.039 A 
ATOM     31  C   UNL A   1      44.675  22.386  26.971  1.00  0.00     0.014 A 
ATOM     32  C   UNL A   1      43.368  23.103  25.054  1.00  0.00     0.014 A 
ATOM     33  C   UNL A   1      44.377  23.592  27.601  1.00  0.00     0.010 A 
ATOM     34  C   UNL A   1      43.222  24.348  25.601  1.00  0.00     0.010 A 
ATOM     35  C   UNL A   1      43.659  24.574  26.900  1.00  0.00    -0.014 A 
BRANCH  35  36
ATOM     36  C   UNL A   1      43.418  25.887  27.483  1.00  0.00     0.031 A 
ATOM     37  C   UNL A   1      44.391  26.935  27.077  1.00  0.00     0.074 A 
ATOM     38  C   UNL A   1      42.277  26.186  28.141  1.00  0.00     0.049 A 
ATOM     39  N   UNL A   1      45.287  27.513  27.807  1.00  0.00    -0.248 NA
ATOM     40  C   UNL A   1      44.470  27.292  25.651  1.00  0.00     0.031 C 
ATOM     41  C   UNL A   1      41.077  25.349  28.293  1.00  0.00     0.029 A 
ATOM     42  N   UNL A   1      41.899  27.356  28.727  1.00  0.00    -0.354 N 
ATOM     43  C   UNL A   1      45.885  28.470  26.988  1.00  0.00     0.074 A 
ATOM     44  C   UNL A   1      45.490  28.154  25.643  1.00  0.00     0.031 C 
ATOM     45  C   UNL A   1      40.039  26.110  28.702  1.00  0.00     0.029 A 
ATOM     46  C   UNL A   1      40.546  27.425  29.038  1.00  0.00     0.049 A 
ATOM     47  H   UNL A   1      42.529  28.089  28.914  1.00  0.00     0.167 HD
ATOM     48  C   UNL A   1      46.413  29.608  27.522  1.00  0.00     0.037 A 
ATOM     49  C   UNL A   1      39.884  28.491  29.539  1.00  0.00     0.037 A 
ATOM     50  C   UNL A   1      46.512  29.493  28.954  1.00  0.00     0.049 A 
ATOM     51  C   UNL A   1      40.886  29.379  30.168  1.00  0.00     0.074 A 
ATOM     52  C   UNL A   1      47.307  28.823  29.857  1.00  0.00     0.029 A 
ATOM     53  N   UNL A   1      45.377  29.883  29.615  1.00  0.00    -0.354 N 
ATOM     54  N   UNL A   1      41.586  29.047  31.217  1.00  0.00    -0.248 NA
ATOM     55  C   UNL A   1      41.386  30.526  29.422  1.00  0.00     0.031 C 
ATOM     56  C   UNL A   1      46.498  28.626  31.017  1.00  0.00     0.029 A 
ATOM     57  C   UNL A   1      45.253  29.218  30.804  1.00  0.00     0.049 A 
ATOM     58  H   UNL A   1      44.737  30.551  29.279  1.00  0.00     0.167 HD
ATOM     59  C   UNL A   1      42.813  29.651  31.019  1.00  0.00     0.074 A 
ATOM     60  C   UNL A   1      42.573  30.680  30.016  1.00  0.00     0.031 C 
ATOM     61  C   UNL A   1      43.963  29.050  31.442  1.00  0.00     0.037 A 
BRANCH  48  62
ATOM     62  C   UNL A   1      46.384  30.977  26.869  1.00  0.00     0.057 A 
ATOM     63  C   UNL A   1      47.561  31.753  26.860  1.00  0.00     0.134 A 
ATOM     64  C   UNL A   1      45.209  31.684  26.546  1.00  0.00     0.134 A 
ATOM     65  F   UNL A   1      48.749  31.206  27.165  1.00  0.00    -0.206 F 
ATOM     66  C   UNL A   1      47.555  33.135  26.622  1.00  0.00     0.040 A 
ATOM     67  C   UNL A   1      45.198  33.053  26.257  1.00  0.00     0.040 A 
ATOM     68  F   UNL A   1      43.995  31.124  26.596  1.00  0.00    -0.206 F 
ATOM     69  C   UNL A   1      46.368  33.790  26.325  1.00  0.00     0.006 A 
ENDBRANCH  48  62
BRANCH  49  70
ATOM     70  C   UNL A   1      38.491  28.911  29.286  1.00  0.00     0.057 A 
ATOM     71  C   UNL A   1      37.564  29.016  30.329  1.00  0.00     0.134 A 
ATOM     72  C   UNL A   1      38.124  29.496  28.062  1.00  0.00     0.134 A 
ATOM     73  F   UNL A   1      37.842  28.512  31.540  1.00  0.00    -0.206 F 
ATOM     74  C   UNL A   1      36.351  29.701  30.176  1.00  0.00     0.040 A 
ATOM     75  C   UNL A   1      36.916  30.181  27.896  1.00  0.00     0.040 A 
ATOM     76  F   UNL A   1      38.966  29.501  27.017  1.00  0.00    -0.206 F 
ATOM     77  C   UNL A   1      36.033  30.300  28.962  1.00  0.00     0.006 A 
ENDBRANCH  49  70
BRANCH  61  78
ATOM     78  C   UNL A   1      43.849  28.019  32.526  1.00  0.00     0.057 A 
ATOM     79  C   UNL A   1      43.841  26.634  32.313  1.00  0.00     0.134 A 
ATOM     80  C   UNL A   1      43.841  28.457  33.854  1.00  0.00     0.134 A 
ATOM     81  F   UNL A   1      43.925  26.118  31.082  1.00  0.00    -0.206 F 
ATOM     82  C   UNL A   1      43.785  25.728  33.378  1.00  0.00     0.040 A 
ATOM     83  C   UNL A   1      43.819  27.564  34.926  1.00  0.00     0.040 A 
ATOM     84  F   UNL A   1      43.891  29.769  34.133  1.00  0.00    -0.206 F 
ATOM     85  C   UNL A   1      43.781  26.193  34.690  1.00  0.00     0.006 A 
ENDBRANCH  61  78
ENDBRANCH  35  36
ENDBRANCH  27  30
ENDBRANCH  25  26
ENDBRANCH  24  25
ENDBRANCH  23  24
ENDBRANCH   1  23
TORSDOF 15
ENDMDL
MODEL 3
REMARK VINA RESULT:     -10.7      2.065      2.745
REMARK SMILES C[C@H](S[C@H]1[NH+]=C(Cl)[NH+]=C2N=CN=C21)C(=O)NCCCCCCNC(=O)c1ccc(-c2c3nc(c(-c4c(F)cccc4F)c4ccc([nH]4)c(-c4c(F)cccc4F)c4nc(c(-c5c(F)cccc5F)c5ccc2[nH]5)C=C4)C=C3)cc1
REMARK SMILES IDX 19 1 18 2 17 3 16 4 14 5 15 6 2 8 1 9 3 10 4 11 5 12 13 13
REMARK SMILES IDX 6 14 9 16 12 17 7 18 8 19 10 20 11 21 20 23 21 24 22 25
REMARK SMILES IDX 23 26 24 27 25 29 26 30 27 31 79 32 28 33 78 34 29 35 30 36
REMARK SMILES IDX 31 37 72 38 32 39 77 40 71 41 73 42 33 43 76 44 70 45 69 46
REMARK SMILES IDX 34 48 60 49 43 50 59 51 44 52 47 53 58 54 74 55 45 56 46 57
REMARK SMILES IDX 57 59 75 60 48 61 35 62 36 63 41 64 37 65 38 66 40 67 42 68
REMARK SMILES IDX 39 69 61 70 62 71 67 72 63 73 64 74 66 75 68 76 65 77 49 78
REMARK SMILES IDX 50 79 55 80 51 81 52 82 54 83 56 84 53 85
REMARK H PARENT 16 7 5 15 8 22 23 28 73 47 47 58
REMARK Flexibility Score: inf
ROOT
ATOM      1  C   UNL A   1      40.308  22.282  27.500  1.00  0.00     0.002 C 
ENDROOT
BRANCH   1   2
ATOM      2  C   UNL A   1      39.760  21.840  26.140  1.00  0.00     0.021 C 
BRANCH   2   3
ATOM      3  C   UNL A   1      38.255  22.049  25.965  1.00  0.00     0.116 C 
BRANCH   3   4
ATOM      4  N   UNL A   1      37.907  22.509  24.631  1.00  0.00    -0.355 N 
ATOM      5  C   UNL A   1      36.698  22.680  24.034  1.00  0.00     0.233 C 
ATOM      6  O   UNL A   1      36.694  22.949  22.829  1.00  0.00    -0.274 OA
ATOM      7  H   UNL A   1      38.678  22.735  24.064  1.00  0.00     0.163 HD
BRANCH   5   8
ATOM      8  C   UNL A   1      35.377  22.518  24.777  1.00  0.00     0.139 C 
ATOM      9  C   UNL A   1      34.868  21.081  24.731  1.00  0.00     0.030 C 
BRANCH   8  10
ATOM     10  S   UNL A   1      34.137  23.745  24.210  1.00  0.00    -0.069 SA
BRANCH  10  11
ATOM     11  C   UNL A   1      33.527  24.395  25.813  1.00  0.00     0.384 C 
ATOM     12  N   UNL A   1      33.613  25.843  25.963  1.00  0.00    -0.156 N 
ATOM     13  C   UNL A   1      32.188  23.884  26.166  1.00  0.00     0.214 C 
ATOM     14  C   UNL A   1      32.632  26.542  26.400  1.00  0.00     0.514 C 
ATOM     15  H   UNL A   1      34.451  26.299  25.721  1.00  0.00     0.455 HD
ATOM     16  C   UNL A   1      31.191  24.850  26.627  1.00  0.00     0.338 C 
ATOM     17  N   UNL A   1      31.662  22.703  26.258  1.00  0.00    -0.225 NA
ATOM     18  Cl  UNL A   1      32.888  28.226  26.570  1.00  0.00     0.068 Cl
ATOM     19  N   UNL A   1      31.400  26.103  26.767  1.00  0.00    -0.118 N 
ATOM     20  N   UNL A   1      30.046  24.185  26.944  1.00  0.00    -0.173 NA
ATOM     21  C   UNL A   1      30.364  22.948  26.703  1.00  0.00     0.229 C 
ATOM     22  H   UNL A   1      30.711  26.711  27.120  1.00  0.00     0.464 HD
ENDBRANCH  10  11
ENDBRANCH   8  10
ENDBRANCH   5   8
ENDBRANCH   3   4
ENDBRANCH   2   3
ENDBRANCH   1   2
BRANCH   1  23
ATOM     23  C   UNL A   1      41.796  21.987  27.731  1.00  0.00     0.002 C 
BRANCH  23  24
ATOM     24  C   UNL A   1      42.306  20.640  27.198  1.00  0.00     0.021 C 
BRANCH  24  25
ATOM     25  C   UNL A   1      42.823  20.697  25.769  1.00  0.00     0.116 C 
BRANCH  25  26
ATOM     26  N   UNL A   1      44.262  20.456  25.687  1.00  0.00    -0.352 N 
ATOM     27  C   UNL A   1      45.276  21.390  25.580  1.00  0.00     0.251 C 
ATOM     28  H   UNL A   1      44.544  19.512  25.711  1.00  0.00     0.163 HD
ATOM     29  O   UNL A   1      46.374  21.093  25.149  1.00  0.00    -0.269 OA
BRANCH  27  30
ATOM     30  C   UNL A   1      44.991  22.765  26.022  1.00  0.00     0.039 A 
ATOM     31  C   UNL A   1      44.211  23.633  25.255  1.00  0.00     0.014 A 
ATOM     32  C   UNL A   1      45.494  23.151  27.260  1.00  0.00     0.014 A 
ATOM     33  C   UNL A   1      43.883  24.878  25.787  1.00  0.00     0.010 A 
ATOM     34  C   UNL A   1      45.030  24.296  27.849  1.00  0.00     0.010 A 
ATOM     35  C   UNL A   1      44.286  25.195  27.094  1.00  0.00    -0.014 A 
BRANCH  35  36
ATOM     36  C   UNL A   1      43.874  26.441  27.726  1.00  0.00     0.031 A 
ATOM     37  C   UNL A   1      44.780  27.592  27.477  1.00  0.00     0.074 A 
ATOM     38  C   UNL A   1      42.655  26.596  28.287  1.00  0.00     0.049 A 
ATOM     39  N   UNL A   1      45.549  28.195  28.323  1.00  0.00    -0.248 NA
ATOM     40  C   UNL A   1      44.955  28.050  26.089  1.00  0.00     0.031 C 
ATOM     41  C   UNL A   1      41.528  25.651  28.273  1.00  0.00     0.029 A 
ATOM     42  N   UNL A   1      42.120  27.688  28.901  1.00  0.00    -0.354 N 
ATOM     43  C   UNL A   1      46.129  29.252  27.623  1.00  0.00     0.074 A 
ATOM     44  C   UNL A   1      45.889  28.994  26.230  1.00  0.00     0.031 C 
ATOM     45  C   UNL A   1      40.392  26.291  28.624  1.00  0.00     0.029 A 
ATOM     46  C   UNL A   1      40.744  27.619  29.083  1.00  0.00     0.049 A 
ATOM     47  H   UNL A   1      42.661  28.458  29.190  1.00  0.00     0.167 HD
ATOM     48  C   UNL A   1      46.500  30.393  28.271  1.00  0.00     0.037 A 
ATOM     49  C   UNL A   1      39.945  28.590  29.579  1.00  0.00     0.037 A 
ATOM     50  C   UNL A   1      46.478  30.193  29.697  1.00  0.00     0.049 A 
ATOM     51  C   UNL A   1      40.799  29.516  30.353  1.00  0.00     0.074 A 
ATOM     52  C   UNL A   1      47.246  29.534  30.631  1.00  0.00     0.029 A 
ATOM     53  N   UNL A   1      45.257  30.438  30.266  1.00  0.00    -0.354 N 
ATOM     54  N   UNL A   1      41.428  29.176  31.444  1.00  0.00    -0.248 NA
ATOM     55  C   UNL A   1      41.258  30.749  29.727  1.00  0.00     0.031 C 
ATOM     56  C   UNL A   1      46.356  29.192  31.694  1.00  0.00     0.029 A 
ATOM     57  C   UNL A   1      45.087  29.687  31.397  1.00  0.00     0.049 A 
ATOM     58  H   UNL A   1      44.592  31.070  29.909  1.00  0.00     0.167 HD
ATOM     59  C   UNL A   1      42.608  29.894  31.401  1.00  0.00     0.074 A 
ATOM     60  C   UNL A   1      42.367  30.964  30.441  1.00  0.00     0.031 C 
ATOM     61  C   UNL A   1      43.765  29.368  31.897  1.00  0.00     0.037 A 
BRANCH  48  62
ATOM     62  C   UNL A   1      46.405  31.795  27.699  1.00  0.00     0.057 A 
ATOM     63  C   UNL A   1      45.155  32.263  27.246  1.00  0.00     0.134 A 
ATOM     64  C   UNL A   1      47.509  32.566  27.283  1.00  0.00     0.134 A 
ATOM     65  F   UNL A   1      44.022  31.612  27.558  1.00  0.00    -0.206 F 
ATOM     66  C   UNL A   1      45.023  33.365  26.390  1.00  0.00     0.040 A 
ATOM     67  C   UNL A   1      47.385  33.698  26.469  1.00  0.00     0.040 A 
ATOM     68  F   UNL A   1      48.772  32.215  27.545  1.00  0.00    -0.206 F 
ATOM     69  C   UNL A   1      46.143  34.083  25.993  1.00  0.00     0.006 A 
ENDBRANCH  48  62
BRANCH  49  70
ATOM     70  C   UNL A   1      38.548  28.905  29.218  1.00  0.00     0.057 A 
ATOM     71  C   UNL A   1      37.541  28.958  30.189  1.00  0.00     0.134 A 
ATOM     72  C   UNL A   1      38.231  29.443  27.959  1.00  0.00     0.134 A 
ATOM     73  F   UNL A   1      37.765  28.494  31.427  1.00  0.00    -0.206 F 
ATOM     74  C   UNL A   1      36.297  29.552  29.936  1.00  0.00     0.040 A 
ATOM     75  C   UNL A   1      36.993  30.037  27.692  1.00  0.00     0.040 A 
ATOM     76  F   UNL A   1      39.145  29.492  26.978  1.00  0.00    -0.206 F 
ATOM     77  C   UNL A   1      36.028  30.108  28.689  1.00  0.00     0.006 A 
ENDBRANCH  49  70
BRANCH  61  78
ATOM     78  C   UNL A   1      43.648  28.261  32.902  1.00  0.00     0.057 A 
ATOM     79  C   UNL A   1      43.761  26.896  32.605  1.00  0.00     0.134 A 
ATOM     80  C   UNL A   1      43.505  28.607  34.250  1.00  0.00     0.134 A 
ATOM     81  F   UNL A   1      43.978  26.471  31.356  1.00  0.00    -0.206 F 
ATOM     82  C   UNL A   1      43.694  25.919  33.605  1.00  0.00     0.040 A 
ATOM     83  C   UNL A   1      43.470  27.645  35.260  1.00  0.00     0.040 A 
ATOM     84  F   UNL A   1      43.434  29.898  34.612  1.00  0.00    -0.206 F 
ATOM     85  C   UNL A   1      43.555  26.294  34.938  1.00  0.00     0.006 A 
ENDBRANCH  61  78
ENDBRANCH  35  36
ENDBRANCH  27  30
ENDBRANCH  25  26
ENDBRANCH  24  25
ENDBRANCH  23  24
ENDBRANCH   1  23
TORSDOF 15
ENDMDL
