MODEL 1
REMARK VINA RESULT:     -10.8      0.000      0.000
REMARK SMILES [NH3+][C@H](C(=O)NCCCCCCNC(=O)c1ccc(-c2c3nc(c(-c4c(F)cccc4F)c4ccc([nH]4)c(-c4c(F)cccc4F)c4nc(c(-c5c(F)cccc5F)c5ccc2[nH]5)C=C4)C=C3)cc1)c1cccc(OCc2ccc(F)cc2)c1
REMARK SMILES IDX 7 1 6 2 5 3 3 4 4 5 2 7 1 8 69 12 70 13 83 14 71 15 73 16
REMARK SMILES IDX 72 17 74 18 75 19 76 20 77 21 82 22 78 23 81 24 79 25 80 26
REMARK SMILES IDX 8 27 9 28 10 29 11 30 12 31 13 32 14 34 15 35 16 36 68 37
REMARK SMILES IDX 17 38 67 39 18 40 19 41 20 42 61 43 21 44 66 45 60 46 62 47
REMARK SMILES IDX 22 48 65 49 59 50 58 51 23 53 49 54 32 55 48 56 33 57 36 58
REMARK SMILES IDX 47 59 63 60 34 61 35 62 46 64 64 65 37 66 24 67 25 68 30 69
REMARK SMILES IDX 26 70 27 71 29 72 31 73 28 74 50 75 51 76 56 77 52 78 53 79
REMARK SMILES IDX 55 80 57 81 54 82 38 83 39 84 44 85 40 86 41 87 43 88 45 89
REMARK SMILES IDX 42 90
REMARK H PARENT 5 6 1 9 1 10 1 11 12 33 62 52 36 63
REMARK Flexibility Score: inf
ROOT
ATOM      1  C   UNL A   1      31.436  28.277  27.160  1.00  0.00     0.021 C 
ENDROOT
BRANCH   1   2
ATOM      2  C   UNL A   1      31.885  26.982  26.483  1.00  0.00     0.116 C 
BRANCH   2   3
ATOM      3  N   UNL A   1      31.001  25.881  26.813  1.00  0.00    -0.351 N 
ATOM      4  C   UNL A   1      31.285  24.543  26.806  1.00  0.00     0.283 C 
ATOM      5  O   UNL A   1      30.366  23.746  27.018  1.00  0.00    -0.268 OA
ATOM      6  H   UNL A   1      30.084  26.127  27.072  1.00  0.00     0.163 HD
BRANCH   4   7
ATOM      7  C   UNL A   1      32.751  24.077  26.595  1.00  0.00     0.302 C 
BRANCH   7   8
ATOM      8  N   UNL A   1      33.053  22.942  27.498  1.00  0.00    -0.343 N 
ATOM      9  H   UNL A   1      32.415  22.171  27.298  1.00  0.00     0.345 HD
ATOM     10  H   UNL A   1      32.936  23.237  28.466  1.00  0.00     0.345 HD
ATOM     11  H   UNL A   1      34.014  22.636  27.349  1.00  0.00     0.345 HD
ENDBRANCH   7   8
BRANCH   7  12
ATOM     12  C   UNL A   1      33.045  23.711  25.151  1.00  0.00     0.023 A 
ATOM     13  C   UNL A   1      32.675  22.452  24.649  1.00  0.00     0.011 A 
ATOM     14  C   UNL A   1      33.640  24.637  24.278  1.00  0.00     0.057 A 
ATOM     15  C   UNL A   1      32.926  22.112  23.321  1.00  0.00     0.004 A 
ATOM     16  C   UNL A   1      33.758  24.345  22.919  1.00  0.00     0.120 A 
ATOM     17  C   UNL A   1      33.463  23.061  22.457  1.00  0.00     0.046 A 
BRANCH  16  18
ATOM     18  O   UNL A   1      34.007  25.258  21.931  1.00  0.00    -0.489 OA
BRANCH  18  19
ATOM     19  C   UNL A   1      32.896  25.901  21.290  1.00  0.00     0.265 C 
BRANCH  19  20
ATOM     20  C   UNL A   1      32.031  26.865  22.098  1.00  0.00    -0.011 A 
ATOM     21  C   UNL A   1      30.779  26.405  22.549  1.00  0.00     0.010 A 
ATOM     22  C   UNL A   1      32.370  28.203  22.359  1.00  0.00     0.010 A 
ATOM     23  C   UNL A   1      29.884  27.267  23.186  1.00  0.00     0.039 A 
ATOM     24  C   UNL A   1      31.460  29.076  22.959  1.00  0.00     0.039 A 
ATOM     25  C   UNL A   1      30.223  28.601  23.364  1.00  0.00     0.123 A 
ATOM     26  F   UNL A   1      29.346  29.438  23.933  1.00  0.00    -0.207 F 
ENDBRANCH  19  20
ENDBRANCH  18  19
ENDBRANCH  16  18
ENDBRANCH   7  12
ENDBRANCH   4   7
ENDBRANCH   2   3
ENDBRANCH   1   2
BRANCH   1  27
ATOM     27  C   UNL A   1      32.241  29.507  26.729  1.00  0.00     0.002 C 
BRANCH  27  28
ATOM     28  C   UNL A   1      31.417  30.618  26.070  1.00  0.00     0.002 C 
BRANCH  28  29
ATOM     29  C   UNL A   1      31.373  31.938  26.845  1.00  0.00     0.021 C 
BRANCH  29  30
ATOM     30  C   UNL A   1      32.737  32.582  27.075  1.00  0.00     0.116 C 
BRANCH  30  31
ATOM     31  N   UNL A   1      32.614  33.918  27.633  1.00  0.00    -0.352 N 
ATOM     32  C   UNL A   1      33.277  34.483  28.687  1.00  0.00     0.251 C 
ATOM     33  H   UNL A   1      31.958  34.501  27.187  1.00  0.00     0.163 HD
ATOM     34  O   UNL A   1      32.887  35.558  29.151  1.00  0.00    -0.269 OA
BRANCH  32  35
ATOM     35  C   UNL A   1      34.457  33.819  29.277  1.00  0.00     0.039 A 
ATOM     36  C   UNL A   1      35.732  34.232  28.880  1.00  0.00     0.014 A 
ATOM     37  C   UNL A   1      34.313  32.756  30.174  1.00  0.00     0.014 A 
ATOM     38  C   UNL A   1      36.860  33.594  29.396  1.00  0.00     0.010 A 
ATOM     39  C   UNL A   1      35.440  32.167  30.741  1.00  0.00     0.010 A 
ATOM     40  C   UNL A   1      36.724  32.562  30.337  1.00  0.00    -0.014 A 
BRANCH  40  41
ATOM     41  C   UNL A   1      37.913  31.847  30.862  1.00  0.00     0.031 A 
ATOM     42  C   UNL A   1      38.451  32.187  32.227  1.00  0.00     0.074 A 
ATOM     43  C   UNL A   1      38.530  30.922  30.103  1.00  0.00     0.049 A 
ATOM     44  N   UNL A   1      39.493  31.700  32.850  1.00  0.00    -0.248 NA
ATOM     45  C   UNL A   1      37.739  33.233  32.976  1.00  0.00     0.031 C 
ATOM     46  C   UNL A   1      38.132  30.535  28.749  1.00  0.00     0.029 A 
ATOM     47  N   UNL A   1      39.625  30.139  30.365  1.00  0.00    -0.354 N 
ATOM     48  C   UNL A   1      39.574  32.395  34.050  1.00  0.00     0.074 A 
ATOM     49  C   UNL A   1      38.507  33.372  34.046  1.00  0.00     0.031 C 
ATOM     50  C   UNL A   1      38.953  29.567  28.310  1.00  0.00     0.029 A 
ATOM     51  C   UNL A   1      39.950  29.287  29.339  1.00  0.00     0.049 A 
ATOM     52  H   UNL A   1      40.131  30.185  31.209  1.00  0.00     0.167 HD
ATOM     53  C   UNL A   1      40.442  32.221  35.075  1.00  0.00     0.037 A 
ATOM     54  C   UNL A   1      40.938  28.377  29.244  1.00  0.00     0.037 A 
ATOM     55  C   UNL A   1      41.476  31.220  35.095  1.00  0.00     0.049 A 
ATOM     56  C   UNL A   1      41.873  28.183  30.406  1.00  0.00     0.074 A 
ATOM     57  C   UNL A   1      42.365  30.918  36.111  1.00  0.00     0.029 A 
ATOM     58  N   UNL A   1      41.755  30.355  34.048  1.00  0.00    -0.354 N 
ATOM     59  N   UNL A   1      41.896  28.801  31.562  1.00  0.00    -0.248 NA
ATOM     60  C   UNL A   1      42.912  27.155  30.253  1.00  0.00     0.031 C 
ATOM     61  C   UNL A   1      43.205  29.891  35.665  1.00  0.00     0.029 A 
ATOM     62  C   UNL A   1      42.809  29.526  34.388  1.00  0.00     0.049 A 
ATOM     63  H   UNL A   1      41.273  30.333  33.189  1.00  0.00     0.167 HD
ATOM     64  C   UNL A   1      42.924  28.213  32.288  1.00  0.00     0.074 A 
ATOM     65  C   UNL A   1      43.495  27.184  31.443  1.00  0.00     0.031 C 
ATOM     66  C   UNL A   1      43.354  28.495  33.541  1.00  0.00     0.037 A 
BRANCH  53  67
ATOM     67  C   UNL A   1      40.306  33.133  36.259  1.00  0.00     0.057 A 
ATOM     68  C   UNL A   1      39.394  32.874  37.292  1.00  0.00     0.134 A 
ATOM     69  C   UNL A   1      41.110  34.273  36.379  1.00  0.00     0.134 A 
ATOM     70  F   UNL A   1      38.584  31.806  37.232  1.00  0.00    -0.206 F 
ATOM     71  C   UNL A   1      39.266  33.732  38.386  1.00  0.00     0.040 A 
ATOM     72  C   UNL A   1      41.011  35.124  37.482  1.00  0.00     0.040 A 
ATOM     73  F   UNL A   1      42.007  34.577  35.431  1.00  0.00    -0.206 F 
ATOM     74  C   UNL A   1      40.081  34.858  38.485  1.00  0.00     0.006 A 
ENDBRANCH  53  67
BRANCH  54  75
ATOM     75  C   UNL A   1      41.066  27.542  28.024  1.00  0.00     0.057 A 
ATOM     76  C   UNL A   1      41.847  27.966  26.943  1.00  0.00     0.134 A 
ATOM     77  C   UNL A   1      40.407  26.314  27.903  1.00  0.00     0.134 A 
ATOM     78  F   UNL A   1      42.488  29.143  26.994  1.00  0.00    -0.206 F 
ATOM     79  C   UNL A   1      41.954  27.208  25.776  1.00  0.00     0.040 A 
ATOM     80  C   UNL A   1      40.523  25.534  26.751  1.00  0.00     0.040 A 
ATOM     81  F   UNL A   1      39.650  25.848  28.907  1.00  0.00    -0.206 F 
ATOM     82  C   UNL A   1      41.293  25.985  25.680  1.00  0.00     0.006 A 
ENDBRANCH  54  75
BRANCH  66  83
ATOM     83  C   UNL A   1      44.461  27.648  34.094  1.00  0.00     0.057 A 
ATOM     84  C   UNL A   1      44.211  26.435  34.748  1.00  0.00     0.134 A 
ATOM     85  C   UNL A   1      45.797  28.038  33.943  1.00  0.00     0.134 A 
ATOM     86  F   UNL A   1      42.951  26.011  34.936  1.00  0.00    -0.206 F 
ATOM     87  C   UNL A   1      45.249  25.653  35.253  1.00  0.00     0.040 A 
ATOM     88  C   UNL A   1      46.846  27.254  34.422  1.00  0.00     0.040 A 
ATOM     89  F   UNL A   1      46.105  29.186  33.318  1.00  0.00    -0.206 F 
ATOM     90  C   UNL A   1      46.572  26.060  35.085  1.00  0.00     0.006 A 
ENDBRANCH  66  83
ENDBRANCH  40  41
ENDBRANCH  32  35
ENDBRANCH  30  31
ENDBRANCH  29  30
ENDBRANCH  28  29
ENDBRANCH  27  28
ENDBRANCH   1  27
TORSDOF 18
ENDMDL
MODEL 2
REMARK VINA RESULT:     -10.8      5.048      9.092
REMARK SMILES [NH3+][C@H](C(=O)NCCCCCCNC(=O)c1ccc(-c2c3nc(c(-c4c(F)cccc4F)c4ccc([nH]4)c(-c4c(F)cccc4F)c4nc(c(-c5c(F)cccc5F)c5ccc2[nH]5)C=C4)C=C3)cc1)c1cccc(OCc2ccc(F)cc2)c1
REMARK SMILES IDX 7 1 6 2 5 3 3 4 4 5 2 7 1 8 69 12 70 13 83 14 71 15 73 16
REMARK SMILES IDX 72 17 74 18 75 19 76 20 77 21 82 22 78 23 81 24 79 25 80 26
REMARK SMILES IDX 8 27 9 28 10 29 11 30 12 31 13 32 14 34 15 35 16 36 68 37
REMARK SMILES IDX 17 38 67 39 18 40 19 41 20 42 61 43 21 44 66 45 60 46 62 47
REMARK SMILES IDX 22 48 65 49 59 50 58 51 23 53 49 54 32 55 48 56 33 57 36 58
REMARK SMILES IDX 47 59 63 60 34 61 35 62 46 64 64 65 37 66 24 67 25 68 30 69
REMARK SMILES IDX 26 70 27 71 29 72 31 73 28 74 50 75 51 76 56 77 52 78 53 79
REMARK SMILES IDX 55 80 57 81 54 82 38 83 39 84 44 85 40 86 41 87 43 88 45 89
REMARK SMILES IDX 42 90
REMARK H PARENT 5 6 1 9 1 10 1 11 12 33 62 52 36 63
REMARK Flexibility Score: inf
ROOT
ATOM      1  C   UNL A   1      36.116  22.753  23.879  1.00  0.00     0.021 C 
ENDROOT
BRANCH   1   2
ATOM      2  C   UNL A   1      34.770  22.794  24.603  1.00  0.00     0.116 C 
BRANCH   2   3
ATOM      3  N   UNL A   1      33.779  21.986  23.921  1.00  0.00    -0.351 N 
ATOM      4  C   UNL A   1      32.880  22.383  22.969  1.00  0.00     0.283 C 
ATOM      5  O   UNL A   1      32.040  21.567  22.577  1.00  0.00    -0.268 OA
ATOM      6  H   UNL A   1      33.749  21.035  24.174  1.00  0.00     0.163 HD
BRANCH   4   7
ATOM      7  C   UNL A   1      32.984  23.813  22.374  1.00  0.00     0.302 C 
BRANCH   7   8
ATOM      8  N   UNL A   1      32.904  23.751  20.896  1.00  0.00    -0.343 N 
ATOM      9  H   UNL A   1      32.517  22.850  20.615  1.00  0.00     0.345 HD
ATOM     10  H   UNL A   1      33.837  23.858  20.501  1.00  0.00     0.345 HD
ATOM     11  H   UNL A   1      32.302  24.500  20.556  1.00  0.00     0.345 HD
ENDBRANCH   7   8
BRANCH   7  12
ATOM     12  C   UNL A   1      31.931  24.754  22.933  1.00  0.00     0.023 A 
ATOM     13  C   UNL A   1      31.220  24.414  24.097  1.00  0.00     0.011 A 
ATOM     14  C   UNL A   1      31.683  25.999  22.332  1.00  0.00     0.057 A 
ATOM     15  C   UNL A   1      30.262  25.277  24.626  1.00  0.00     0.004 A 
ATOM     16  C   UNL A   1      30.830  26.918  22.945  1.00  0.00     0.120 A 
ATOM     17  C   UNL A   1      30.073  26.530  24.052  1.00  0.00     0.046 A 
BRANCH  16  18
ATOM     18  O   UNL A   1      30.760  28.252  22.652  1.00  0.00    -0.489 OA
BRANCH  18  19
ATOM     19  C   UNL A   1      29.978  29.105  23.500  1.00  0.00     0.265 C 
BRANCH  19  20
ATOM     20  C   UNL A   1      29.216  30.272  22.878  1.00  0.00    -0.011 A 
ATOM     21  C   UNL A   1      28.726  30.114  21.568  1.00  0.00     0.010 A 
ATOM     22  C   UNL A   1      29.034  31.519  23.500  1.00  0.00     0.010 A 
ATOM     23  C   UNL A   1      28.128  31.179  20.891  1.00  0.00     0.039 A 
ATOM     24  C   UNL A   1      28.473  32.596  22.810  1.00  0.00     0.039 A 
ATOM     25  C   UNL A   1      28.028  32.418  21.510  1.00  0.00     0.123 A 
ATOM     26  F   UNL A   1      27.498  33.451  20.844  1.00  0.00    -0.207 F 
ENDBRANCH  19  20
ENDBRANCH  18  19
ENDBRANCH  16  18
ENDBRANCH   7  12
ENDBRANCH   4   7
ENDBRANCH   2   3
ENDBRANCH   1   2
BRANCH   1  27
ATOM     27  C   UNL A   1      37.183  21.930  24.610  1.00  0.00     0.002 C 
BRANCH  27  28
ATOM     28  C   UNL A   1      36.803  20.470  24.872  1.00  0.00     0.002 C 
BRANCH  28  29
ATOM     29  C   UNL A   1      37.985  19.505  25.001  1.00  0.00     0.021 C 
BRANCH  29  30
ATOM     30  C   UNL A   1      39.186  20.075  25.750  1.00  0.00     0.116 C 
BRANCH  30  31
ATOM     31  N   UNL A   1      40.219  19.073  25.953  1.00  0.00    -0.352 N 
ATOM     32  C   UNL A   1      41.565  19.236  26.126  1.00  0.00     0.251 C 
ATOM     33  H   UNL A   1      39.903  18.140  25.967  1.00  0.00     0.163 HD
ATOM     34  O   UNL A   1      42.313  18.257  26.069  1.00  0.00    -0.269 OA
BRANCH  32  35
ATOM     35  C   UNL A   1      42.134  20.576  26.381  1.00  0.00     0.039 A 
ATOM     36  C   UNL A   1      42.177  21.050  27.694  1.00  0.00     0.014 A 
ATOM     37  C   UNL A   1      42.570  21.386  25.328  1.00  0.00     0.014 A 
ATOM     38  C   UNL A   1      42.676  22.328  27.954  1.00  0.00     0.010 A 
ATOM     39  C   UNL A   1      43.132  22.632  25.596  1.00  0.00     0.010 A 
ATOM     40  C   UNL A   1      43.165  23.125  26.909  1.00  0.00    -0.014 A 
BRANCH  40  41
ATOM     41  C   UNL A   1      43.659  24.500  27.165  1.00  0.00     0.031 A 
ATOM     42  C   UNL A   1      42.697  25.572  27.604  1.00  0.00     0.074 A 
ATOM     43  C   UNL A   1      44.957  24.796  26.969  1.00  0.00     0.049 A 
ATOM     44  N   UNL A   1      42.923  26.838  27.848  1.00  0.00    -0.248 NA
ATOM     45  C   UNL A   1      41.289  25.174  27.761  1.00  0.00     0.031 C 
ATOM     46  C   UNL A   1      45.978  23.857  26.503  1.00  0.00     0.029 A 
ATOM     47  N   UNL A   1      45.639  25.974  27.136  1.00  0.00    -0.354 N 
ATOM     48  C   UNL A   1      41.687  27.389  28.164  1.00  0.00     0.074 A 
ATOM     49  C   UNL A   1      40.707  26.333  28.030  1.00  0.00     0.031 C 
ATOM     50  C   UNL A   1      47.163  24.488  26.451  1.00  0.00     0.029 A 
ATOM     51  C   UNL A   1      46.979  25.880  26.851  1.00  0.00     0.049 A 
ATOM     52  H   UNL A   1      45.208  26.808  27.432  1.00  0.00     0.167 HD
ATOM     53  C   UNL A   1      41.397  28.653  28.552  1.00  0.00     0.037 A 
ATOM     54  C   UNL A   1      47.949  26.810  26.913  1.00  0.00     0.037 A 
ATOM     55  C   UNL A   1      42.379  29.690  28.725  1.00  0.00     0.049 A 
ATOM     56  C   UNL A   1      47.606  28.201  27.374  1.00  0.00     0.074 A 
ATOM     57  C   UNL A   1      42.197  30.985  29.178  1.00  0.00     0.029 A 
ATOM     58  N   UNL A   1      43.731  29.547  28.454  1.00  0.00    -0.354 N 
ATOM     59  N   UNL A   1      46.444  28.689  27.734  1.00  0.00    -0.248 NA
ATOM     60  C   UNL A   1      48.713  29.164  27.448  1.00  0.00     0.031 C 
ATOM     61  C   UNL A   1      43.435  31.635  29.150  1.00  0.00     0.029 A 
ATOM     62  C   UNL A   1      44.394  30.732  28.720  1.00  0.00     0.049 A 
ATOM     63  H   UNL A   1      44.157  28.723  28.123  1.00  0.00     0.167 HD
ATOM     64  C   UNL A   1      46.685  30.004  28.113  1.00  0.00     0.074 A 
ATOM     65  C   UNL A   1      48.106  30.232  27.945  1.00  0.00     0.031 C 
ATOM     66  C   UNL A   1      45.812  30.937  28.563  1.00  0.00     0.037 A 
BRANCH  53  67
ATOM     67  C   UNL A   1      39.956  28.980  28.820  1.00  0.00     0.057 A 
ATOM     68  C   UNL A   1      39.424  28.970  30.117  1.00  0.00     0.134 A 
ATOM     69  C   UNL A   1      39.095  29.328  27.772  1.00  0.00     0.134 A 
ATOM     70  F   UNL A   1      40.191  28.631  31.165  1.00  0.00    -0.206 F 
ATOM     71  C   UNL A   1      38.080  29.265  30.357  1.00  0.00     0.040 A 
ATOM     72  C   UNL A   1      37.757  29.653  28.003  1.00  0.00     0.040 A 
ATOM     73  F   UNL A   1      39.541  29.363  26.508  1.00  0.00    -0.206 F 
ATOM     74  C   UNL A   1      37.245  29.614  29.299  1.00  0.00     0.006 A 
ENDBRANCH  53  67
BRANCH  54  75
ATOM     75  C   UNL A   1      49.349  26.449  26.578  1.00  0.00     0.057 A 
ATOM     76  C   UNL A   1      50.197  25.893  27.542  1.00  0.00     0.134 A 
ATOM     77  C   UNL A   1      49.874  26.659  25.298  1.00  0.00     0.134 A 
ATOM     78  F   UNL A   1      49.754  25.685  28.792  1.00  0.00    -0.206 F 
ATOM     79  C   UNL A   1      51.525  25.576  27.253  1.00  0.00     0.040 A 
ATOM     80  C   UNL A   1      51.194  26.325  24.988  1.00  0.00     0.040 A 
ATOM     81  F   UNL A   1      49.110  27.181  24.328  1.00  0.00    -0.206 F 
ATOM     82  C   UNL A   1      52.026  25.789  25.969  1.00  0.00     0.006 A 
ENDBRANCH  54  75
BRANCH  66  83
ATOM     83  C   UNL A   1      46.374  32.271  28.955  1.00  0.00     0.057 A 
ATOM     84  C   UNL A   1      46.835  32.529  30.252  1.00  0.00     0.134 A 
ATOM     85  C   UNL A   1      46.482  33.300  28.012  1.00  0.00     0.134 A 
ATOM     86  F   UNL A   1      46.747  31.588  31.205  1.00  0.00    -0.206 F 
ATOM     87  C   UNL A   1      47.360  33.773  30.603  1.00  0.00     0.040 A 
ATOM     88  C   UNL A   1      47.028  34.539  28.344  1.00  0.00     0.040 A 
ATOM     89  F   UNL A   1      46.067  33.114  26.750  1.00  0.00    -0.206 F 
ATOM     90  C   UNL A   1      47.463  34.781  29.645  1.00  0.00     0.006 A 
ENDBRANCH  66  83
ENDBRANCH  40  41
ENDBRANCH  32  35
ENDBRANCH  30  31
ENDBRANCH  29  30
ENDBRANCH  28  29
ENDBRANCH  27  28
ENDBRANCH   1  27
TORSDOF 18
ENDMDL
MODEL 3
REMARK VINA RESULT:     -10.8      2.354      3.852
REMARK SMILES [NH3+][C@H](C(=O)NCCCCCCNC(=O)c1ccc(-c2c3nc(c(-c4c(F)cccc4F)c4ccc([nH]4)c(-c4c(F)cccc4F)c4nc(c(-c5c(F)cccc5F)c5ccc2[nH]5)C=C4)C=C3)cc1)c1cccc(OCc2ccc(F)cc2)c1
REMARK SMILES IDX 7 1 6 2 5 3 3 4 4 5 2 7 1 8 69 12 70 13 83 14 71 15 73 16
REMARK SMILES IDX 72 17 74 18 75 19 76 20 77 21 82 22 78 23 81 24 79 25 80 26
REMARK SMILES IDX 8 27 9 28 10 29 11 30 12 31 13 32 14 34 15 35 16 36 68 37
REMARK SMILES IDX 17 38 67 39 18 40 19 41 20 42 61 43 21 44 66 45 60 46 62 47
REMARK SMILES IDX 22 48 65 49 59 50 58 51 23 53 49 54 32 55 48 56 33 57 36 58
REMARK SMILES IDX 47 59 63 60 34 61 35 62 46 64 64 65 37 66 24 67 25 68 30 69
REMARK SMILES IDX 26 70 27 71 29 72 31 73 28 74 50 75 51 76 56 77 52 78 53 79
REMARK SMILES IDX 55 80 57 81 54 82 38 83 39 84 44 85 40 86 41 87 43 88 45 89
REMARK SMILES IDX 42 90
REMARK H PARENT 5 6 1 9 1 10 1 11 12 33 62 52 36 63
REMARK Flexibility Score: inf
ROOT
ATOM      1  C   UNL A   1      34.103  28.711  26.121  1.00  0.00     0.021 C 
ENDROOT
BRANCH   1   2
ATOM      2  C   UNL A   1      33.360  29.338  24.941  1.00  0.00     0.116 C 
BRANCH   2   3
ATOM      3  N   UNL A   1      33.913  28.897  23.676  1.00  0.00    -0.351 N 
ATOM      4  C   UNL A   1      33.340  28.067  22.751  1.00  0.00     0.283 C 
ATOM      5  O   UNL A   1      34.014  27.721  21.776  1.00  0.00    -0.268 OA
ATOM      6  H   UNL A   1      34.811  29.235  23.456  1.00  0.00     0.163 HD
BRANCH   4   7
ATOM      7  C   UNL A   1      31.857  27.643  22.925  1.00  0.00     0.302 C 
BRANCH   7   8
ATOM      8  N   UNL A   1      31.302  27.208  21.622  1.00  0.00    -0.343 N 
ATOM      9  H   UNL A   1      30.920  28.015  21.129  1.00  0.00     0.345 HD
ATOM     10  H   UNL A   1      30.562  26.524  21.779  1.00  0.00     0.345 HD
ATOM     11  H   UNL A   1      32.041  26.785  21.061  1.00  0.00     0.345 HD
ENDBRANCH   7   8
BRANCH   7  12
ATOM     12  C   UNL A   1      31.680  26.561  23.976  1.00  0.00     0.023 A 
ATOM     13  C   UNL A   1      30.849  26.781  25.088  1.00  0.00     0.011 A 
ATOM     14  C   UNL A   1      32.296  25.307  23.833  1.00  0.00     0.057 A 
ATOM     15  C   UNL A   1      30.668  25.789  26.050  1.00  0.00     0.004 A 
ATOM     16  C   UNL A   1      31.998  24.272  24.720  1.00  0.00     0.120 A 
ATOM     17  C   UNL A   1      31.239  24.534  25.861  1.00  0.00     0.046 A 
BRANCH  16  18
ATOM     18  O   UNL A   1      32.263  22.947  24.509  1.00  0.00    -0.489 OA
BRANCH  18  19
ATOM     19  C   UNL A   1      33.272  22.589  23.554  1.00  0.00     0.265 C 
BRANCH  19  20
ATOM     20  C   UNL A   1      34.707  22.381  24.034  1.00  0.00    -0.011 A 
ATOM     21  C   UNL A   1      34.996  21.206  24.753  1.00  0.00     0.010 A 
ATOM     22  C   UNL A   1      35.739  23.320  23.869  1.00  0.00     0.010 A 
ATOM     23  C   UNL A   1      36.254  21.007  25.327  1.00  0.00     0.039 A 
ATOM     24  C   UNL A   1      36.983  23.141  24.477  1.00  0.00     0.039 A 
ATOM     25  C   UNL A   1      37.229  21.988  25.204  1.00  0.00     0.123 A 
ATOM     26  F   UNL A   1      38.418  21.817  25.795  1.00  0.00    -0.207 F 
ENDBRANCH  19  20
ENDBRANCH  18  19
ENDBRANCH  16  18
ENDBRANCH   7  12
ENDBRANCH   4   7
ENDBRANCH   2   3
ENDBRANCH   1   2
BRANCH   1  27
ATOM     27  C   UNL A   1      33.751  29.340  27.473  1.00  0.00     0.002 C 
BRANCH  27  28
ATOM     28  C   UNL A   1      34.007  30.848  27.568  1.00  0.00     0.002 C 
BRANCH  28  29
ATOM     29  C   UNL A   1      32.748  31.712  27.686  1.00  0.00     0.021 C 
BRANCH  29  30
ATOM     30  C   UNL A   1      32.826  33.046  26.951  1.00  0.00     0.116 C 
BRANCH  30  31
ATOM     31  N   UNL A   1      32.533  34.164  27.831  1.00  0.00    -0.352 N 
ATOM     32  C   UNL A   1      33.162  34.550  28.982  1.00  0.00     0.251 C 
ATOM     33  H   UNL A   1      31.771  34.726  27.559  1.00  0.00     0.163 HD
ATOM     34  O   UNL A   1      32.639  35.398  29.711  1.00  0.00    -0.269 OA
BRANCH  32  35
ATOM     35  C   UNL A   1      34.461  33.960  29.365  1.00  0.00     0.039 A 
ATOM     36  C   UNL A   1      35.583  34.236  28.580  1.00  0.00     0.014 A 
ATOM     37  C   UNL A   1      34.566  33.094  30.458  1.00  0.00     0.014 A 
ATOM     38  C   UNL A   1      36.813  33.660  28.900  1.00  0.00     0.010 A 
ATOM     39  C   UNL A   1      35.808  32.576  30.818  1.00  0.00     0.010 A 
ATOM     40  C   UNL A   1      36.938  32.832  30.026  1.00  0.00    -0.014 A 
BRANCH  40  41
ATOM     41  C   UNL A   1      38.228  32.179  30.354  1.00  0.00     0.031 A 
ATOM     42  C   UNL A   1      39.177  32.838  31.321  1.00  0.00     0.074 A 
ATOM     43  C   UNL A   1      38.565  31.019  29.761  1.00  0.00     0.049 A 
ATOM     44  N   UNL A   1      40.363  32.446  31.713  1.00  0.00    -0.248 NA
ATOM     45  C   UNL A   1      38.748  34.121  31.898  1.00  0.00     0.031 C 
ATOM     46  C   UNL A   1      37.751  30.305  28.776  1.00  0.00     0.029 A 
ATOM     47  N   UNL A   1      39.683  30.237  29.901  1.00  0.00    -0.354 N 
ATOM     48  C   UNL A   1      40.827  33.442  32.563  1.00  0.00     0.074 A 
ATOM     49  C   UNL A   1      39.820  34.480  32.588  1.00  0.00     0.031 C 
ATOM     50  C   UNL A   1      38.384  29.174  28.422  1.00  0.00     0.029 A 
ATOM     51  C   UNL A   1      39.657  29.099  29.133  1.00  0.00     0.049 A 
ATOM     52  H   UNL A   1      40.432  30.470  30.494  1.00  0.00     0.167 HD
ATOM     53  C   UNL A   1      41.978  33.480  33.276  1.00  0.00     0.037 A 
ATOM     54  C   UNL A   1      40.557  28.105  29.021  1.00  0.00     0.037 A 
ATOM     55  C   UNL A   1      42.958  32.427  33.282  1.00  0.00     0.049 A 
ATOM     56  C   UNL A   1      41.815  28.156  29.844  1.00  0.00     0.074 A 
ATOM     57  C   UNL A   1      44.125  32.338  34.020  1.00  0.00     0.029 A 
ATOM     58  N   UNL A   1      42.882  31.276  32.513  1.00  0.00    -0.354 N 
ATOM     59  N   UNL A   1      42.211  29.072  30.694  1.00  0.00    -0.248 NA
ATOM     60  C   UNL A   1      42.746  27.027  29.700  1.00  0.00     0.031 C 
ATOM     61  C   UNL A   1      44.772  31.148  33.673  1.00  0.00     0.029 A 
ATOM     62  C   UNL A   1      43.986  30.476  32.750  1.00  0.00     0.049 A 
ATOM     63  H   UNL A   1      42.150  31.059  31.891  1.00  0.00     0.167 HD
ATOM     64  C   UNL A   1      43.415  28.614  31.215  1.00  0.00     0.074 A 
ATOM     65  C   UNL A   1      43.680  27.335  30.588  1.00  0.00     0.031 C 
ATOM     66  C   UNL A   1      44.226  29.197  32.130  1.00  0.00     0.037 A 
BRANCH  53  67
ATOM     67  C   UNL A   1      42.233  34.700  34.112  1.00  0.00     0.057 A 
ATOM     68  C   UNL A   1      41.876  34.758  35.466  1.00  0.00     0.134 A 
ATOM     69  C   UNL A   1      42.862  35.825  33.562  1.00  0.00     0.134 A 
ATOM     70  F   UNL A   1      41.258  33.721  36.052  1.00  0.00    -0.206 F 
ATOM     71  C   UNL A   1      42.108  35.901  36.235  1.00  0.00     0.040 A 
ATOM     72  C   UNL A   1      43.124  36.962  34.328  1.00  0.00     0.040 A 
ATOM     73  F   UNL A   1      43.234  35.835  32.274  1.00  0.00    -0.206 F 
ATOM     74  C   UNL A   1      42.739  37.005  35.667  1.00  0.00     0.006 A 
ENDBRANCH  53  67
BRANCH  54  75
ATOM     75  C   UNL A   1      40.283  26.948  28.132  1.00  0.00     0.057 A 
ATOM     76  C   UNL A   1      39.478  25.888  28.563  1.00  0.00     0.134 A 
ATOM     77  C   UNL A   1      40.821  26.870  26.843  1.00  0.00     0.134 A 
ATOM     78  F   UNL A   1      38.949  25.898  29.795  1.00  0.00    -0.206 F 
ATOM     79  C   UNL A   1      39.235  24.778  27.751  1.00  0.00     0.040 A 
ATOM     80  C   UNL A   1      40.567  25.777  26.012  1.00  0.00     0.040 A 
ATOM     81  F   UNL A   1      41.592  27.859  26.369  1.00  0.00    -0.206 F 
ATOM     82  C   UNL A   1      39.778  24.724  26.469  1.00  0.00     0.006 A 
ENDBRANCH  54  75
BRANCH  66  83
ATOM     83  C   UNL A   1      45.447  28.434  32.549  1.00  0.00     0.057 A 
ATOM     84  C   UNL A   1      46.682  28.601  31.909  1.00  0.00     0.134 A 
ATOM     85  C   UNL A   1      45.392  27.542  33.627  1.00  0.00     0.134 A 
ATOM     86  F   UNL A   1      46.797  29.432  30.861  1.00  0.00    -0.206 F 
ATOM     87  C   UNL A   1      47.812  27.889  32.311  1.00  0.00     0.040 A 
ATOM     88  C   UNL A   1      46.521  26.843  34.054  1.00  0.00     0.040 A 
ATOM     89  F   UNL A   1      44.241  27.343  34.288  1.00  0.00    -0.206 F 
ATOM     90  C   UNL A   1      47.734  27.011  33.391  1.00  0.00     0.006 A 
ENDBRANCH  66  83
ENDBRANCH  40  41
ENDBRANCH  32  35
ENDBRANCH  30  31
ENDBRANCH  29  30
ENDBRANCH  28  29
ENDBRANCH  27  28
ENDBRANCH   1  27
TORSDOF 18
ENDMDL
