MODEL 1
REMARK VINA RESULT:     -12.5      0.000      0.000
REMARK SMILES O=C(NCCCCCCNC(=O)c1ccc(-c2c3nc(c(-c4c(F)cccc4F)c4ccc([nH]4)c(-c4c(F)cccc4F)c4nc(c(-c5c(F)cccc5F)c5ccc2[nH]5)C=C4)C=C3)cc1)C1=Cc2cc(S(F)(F)(F)(F)F)cc(Br)c2O[C@@H]1C(F)(F)F
REMARK SMILES IDX 7 1 6 2 5 3 4 4 3 5 1 6 2 7 67 9 68 10 83 11 69 12 82 13
REMARK SMILES IDX 70 14 81 15 71 16 79 17 78 18 80 19 84 20 85 21 86 22 87 23
REMARK SMILES IDX 72 24 73 25 74 26 75 27 76 28 77 29 8 30 9 31 10 32 11 33
REMARK SMILES IDX 12 35 13 36 14 37 66 38 15 39 65 40 16 41 17 42 18 43 59 44
REMARK SMILES IDX 19 45 64 46 58 47 60 48 20 49 63 50 57 51 56 52 21 54 47 55
REMARK SMILES IDX 30 56 46 57 31 58 34 59 45 60 61 61 32 62 33 63 44 65 62 66
REMARK SMILES IDX 35 67 22 68 23 69 28 70 24 71 25 72 27 73 29 74 26 75 48 76
REMARK SMILES IDX 49 77 54 78 50 79 51 80 53 81 55 82 52 83 36 84 37 85 42 86
REMARK SMILES IDX 38 87 39 88 41 89 43 90 40 91
REMARK H PARENT 3 8 10 34 60 53 34 64
REMARK Flexibility Score: inf
ROOT
ATOM      1  C   UNL A   1      37.824  21.308  25.051  1.00  0.00     0.002 C 
ENDROOT
BRANCH   1   2
ATOM      2  C   UNL A   1      38.512  22.165  26.101  1.00  0.00     0.002 C 
BRANCH   2   3
ATOM      3  C   UNL A   1      37.998  23.592  26.007  1.00  0.00     0.021 C 
BRANCH   3   4
ATOM      4  C   UNL A   1      36.519  23.577  25.658  1.00  0.00     0.116 C 
BRANCH   4   5
ATOM      5  N   UNL A   1      36.359  23.663  24.199  1.00  0.00    -0.352 N 
ATOM      6  O   UNL A   1      35.035  23.158  22.293  1.00  0.00    -0.270 OA
ATOM      7  C   UNL A   1      35.173  23.083  23.554  1.00  0.00     0.251 C 
ATOM      8  H   UNL A   1      37.047  24.109  23.654  1.00  0.00     0.163 HD
BRANCH   7   9
ATOM      9  C   UNL A   1      34.111  22.393  24.395  1.00  0.00     0.067 C 
ATOM     10  C   UNL A   1      33.215  23.135  25.100  1.00  0.00     0.025 C 
ATOM     11  C   UNL A   1      34.050  20.875  24.447  1.00  0.00     0.314 C 
ATOM     12  C   UNL A   1      33.276  24.653  25.047  1.00  0.00     0.020 A 
ATOM     13  O   UNL A   1      33.827  24.378  22.752  1.00  0.00    -0.474 OA
ATOM     14  C   UNL A   1      33.049  25.438  26.165  1.00  0.00     0.036 A 
ATOM     15  C   UNL A   1      33.437  25.194  23.846  1.00  0.00     0.142 A 
ATOM     16  C   UNL A   1      32.719  26.781  25.865  1.00  0.00     0.109 A 
ATOM     17  C   UNL A   1      33.231  26.539  23.652  1.00  0.00     0.062 A 
ATOM     18  C   UNL A   1      32.945  27.366  24.703  1.00  0.00     0.044 A 
ATOM     19  Br  UNL A   1      33.349  27.284  21.842  1.00  0.00    -0.047 Br
BRANCH  11  20
ATOM     20  C   UNL A   1      32.699  20.405  23.934  1.00  0.00     0.429 C 
ATOM     21  F   UNL A   1      31.803  20.479  24.913  1.00  0.00    -0.167 F 
ATOM     22  F   UNL A   1      32.316  21.178  22.922  1.00  0.00    -0.167 F 
ATOM     23  F   UNL A   1      32.798  19.146  23.516  1.00  0.00    -0.167 F 
ENDBRANCH  11  20
BRANCH  16  24
ATOM     24  S   UNL A   1      31.934  27.767  27.165  1.00  0.00     0.310 S 
ATOM     25  F   UNL A   1      31.633  28.962  26.168  1.00  0.00    -0.094 F 
ATOM     26  F   UNL A   1      33.328  28.445  27.447  1.00  0.00    -0.094 F 
ATOM     27  F   UNL A   1      31.264  28.611  28.284  1.00  0.00    -0.094 F 
ATOM     28  F   UNL A   1      30.522  27.179  26.774  1.00  0.00    -0.094 F 
ATOM     29  F   UNL A   1      32.580  26.986  25.951  1.00  0.00    -0.094 F 
ENDBRANCH  16  24
ENDBRANCH   7   9
ENDBRANCH   4   5
ENDBRANCH   3   4
ENDBRANCH   2   3
ENDBRANCH   1   2
BRANCH   1  30
ATOM     30  C   UNL A   1      38.454  19.925  25.035  1.00  0.00     0.021 C 
BRANCH  30  31
ATOM     31  C   UNL A   1      39.404  19.787  26.214  1.00  0.00     0.116 C 
BRANCH  31  32
ATOM     32  N   UNL A   1      40.486  18.855  25.864  1.00  0.00    -0.352 N 
ATOM     33  C   UNL A   1      41.889  19.270  26.009  1.00  0.00     0.251 C 
ATOM     34  H   UNL A   1      40.272  17.953  25.533  1.00  0.00     0.163 HD
ATOM     35  O   UNL A   1      42.825  18.465  25.706  1.00  0.00    -0.269 OA
BRANCH  33  36
ATOM     36  C   UNL A   1      42.221  20.663  26.521  1.00  0.00     0.039 A 
ATOM     37  C   UNL A   1      42.193  20.911  27.884  1.00  0.00     0.014 A 
ATOM     38  C   UNL A   1      42.532  21.618  25.653  1.00  0.00     0.014 A 
ATOM     39  C   UNL A   1      42.229  22.285  28.217  1.00  0.00     0.010 A 
ATOM     40  C   UNL A   1      42.686  22.918  26.070  1.00  0.00     0.010 A 
ATOM     41  C   UNL A   1      42.612  23.245  27.396  1.00  0.00    -0.014 A 
BRANCH  41  42
ATOM     42  C   UNL A   1      42.954  24.639  27.897  1.00  0.00     0.031 A 
ATOM     43  C   UNL A   1      44.298  24.940  28.128  1.00  0.00     0.074 A 
ATOM     44  C   UNL A   1      41.915  25.530  28.099  1.00  0.00     0.049 A 
ATOM     45  N   UNL A   1      44.813  26.102  28.533  1.00  0.00    -0.248 NA
ATOM     46  C   UNL A   1      45.401  23.984  27.947  1.00  0.00     0.031 C 
ATOM     47  C   UNL A   1      40.559  25.235  27.861  1.00  0.00     0.029 A 
ATOM     48  N   UNL A   1      41.991  26.828  28.554  1.00  0.00    -0.354 N 
ATOM     49  C   UNL A   1      46.141  26.012  28.621  1.00  0.00     0.074 A 
ATOM     50  C   UNL A   1      46.537  24.646  28.252  1.00  0.00     0.031 C 
ATOM     51  C   UNL A   1      39.826  26.336  28.179  1.00  0.00     0.029 A 
ATOM     52  C   UNL A   1      40.713  27.336  28.619  1.00  0.00     0.049 A 
ATOM     53  H   UNL A   1      42.817  27.309  28.790  1.00  0.00     0.167 HD
ATOM     54  C   UNL A   1      47.037  27.015  28.994  1.00  0.00     0.037 A 
ATOM     55  C   UNL A   1      40.322  28.598  29.039  1.00  0.00     0.037 A 
ATOM     56  C   UNL A   1      46.650  28.291  29.373  1.00  0.00     0.049 A 
ATOM     57  C   UNL A   1      41.215  29.583  29.468  1.00  0.00     0.074 A 
ATOM     58  C   UNL A   1      47.541  29.316  29.743  1.00  0.00     0.029 A 
ATOM     59  N   UNL A   1      45.370  28.791  29.462  1.00  0.00    -0.354 N 
ATOM     60  N   UNL A   1      42.545  29.506  29.518  1.00  0.00    -0.248 NA
ATOM     61  C   UNL A   1      40.809  30.912  29.945  1.00  0.00     0.031 C 
ATOM     62  C   UNL A   1      46.809  30.417  30.061  1.00  0.00     0.029 A 
ATOM     63  C   UNL A   1      45.447  30.096  29.894  1.00  0.00     0.049 A 
ATOM     64  H   UNL A   1      44.542  28.301  29.252  1.00  0.00     0.167 HD
ATOM     65  C   UNL A   1      43.056  30.655  29.964  1.00  0.00     0.074 A 
ATOM     66  C   UNL A   1      41.946  31.574  30.252  1.00  0.00     0.031 C 
ATOM     67  C   UNL A   1      44.404  30.976  30.139  1.00  0.00     0.037 A 
BRANCH  54  68
ATOM     68  C   UNL A   1      48.523  26.690  28.984  1.00  0.00     0.057 A 
ATOM     69  C   UNL A   1      49.322  26.966  27.887  1.00  0.00     0.134 A 
ATOM     70  C   UNL A   1      49.030  26.160  30.091  1.00  0.00     0.134 A 
ATOM     71  F   UNL A   1      48.920  27.719  26.867  1.00  0.00    -0.206 F 
ATOM     72  C   UNL A   1      50.606  26.375  27.951  1.00  0.00     0.040 A 
ATOM     73  C   UNL A   1      50.333  25.727  30.125  1.00  0.00     0.040 A 
ATOM     74  F   UNL A   1      48.270  26.048  31.176  1.00  0.00    -0.206 F 
ATOM     75  C   UNL A   1      51.165  25.914  29.055  1.00  0.00     0.006 A 
ENDBRANCH  54  68
BRANCH  55  76
ATOM     76  C   UNL A   1      38.838  28.928  29.033  1.00  0.00     0.057 A 
ATOM     77  C   UNL A   1      38.324  29.526  27.895  1.00  0.00     0.134 A 
ATOM     78  C   UNL A   1      38.073  28.693  30.093  1.00  0.00     0.134 A 
ATOM     79  F   UNL A   1      38.972  29.552  26.734  1.00  0.00    -0.206 F 
ATOM     80  C   UNL A   1      37.047  30.108  28.079  1.00  0.00     0.040 A 
ATOM     81  C   UNL A   1      36.788  29.175  30.149  1.00  0.00     0.040 A 
ATOM     82  F   UNL A   1      38.555  27.984  31.109  1.00  0.00    -0.206 F 
ATOM     83  C   UNL A   1      36.235  29.828  29.082  1.00  0.00     0.006 A 
ENDBRANCH  55  76
BRANCH  67  84
ATOM     84  C   UNL A   1      44.747  32.374  30.625  1.00  0.00     0.057 A 
ATOM     85  C   UNL A   1      44.855  32.613  31.985  1.00  0.00     0.134 A 
ATOM     86  C   UNL A   1      44.939  33.344  29.737  1.00  0.00     0.134 A 
ATOM     87  F   UNL A   1      44.923  31.640  32.890  1.00  0.00    -0.206 F 
ATOM     88  C   UNL A   1      44.886  33.986  32.325  1.00  0.00     0.040 A 
ATOM     89  C   UNL A   1      45.098  34.645  30.148  1.00  0.00     0.040 A 
ATOM     90  F   UNL A   1      44.978  33.052  28.441  1.00  0.00    -0.206 F 
ATOM     91  C   UNL A   1      45.154  34.962  31.477  1.00  0.00     0.006 A 
ENDBRANCH  67  84
ENDBRANCH  41  42
ENDBRANCH  33  36
ENDBRANCH  31  32
ENDBRANCH  30  31
ENDBRANCH   1  30
TORSDOF 15
ENDMDL
MODEL 2
REMARK VINA RESULT:     -12.4      0.275      5.955
REMARK SMILES O=C(NCCCCCCNC(=O)c1ccc(-c2c3nc(c(-c4c(F)cccc4F)c4ccc([nH]4)c(-c4c(F)cccc4F)c4nc(c(-c5c(F)cccc5F)c5ccc2[nH]5)C=C4)C=C3)cc1)C1=Cc2cc(S(F)(F)(F)(F)F)cc(Br)c2O[C@@H]1C(F)(F)F
REMARK SMILES IDX 7 1 6 2 5 3 4 4 3 5 1 6 2 7 67 9 68 10 83 11 69 12 82 13
REMARK SMILES IDX 70 14 81 15 71 16 79 17 78 18 80 19 84 20 85 21 86 22 87 23
REMARK SMILES IDX 72 24 73 25 74 26 75 27 76 28 77 29 8 30 9 31 10 32 11 33
REMARK SMILES IDX 12 35 13 36 14 37 66 38 15 39 65 40 16 41 17 42 18 43 59 44
REMARK SMILES IDX 19 45 64 46 58 47 60 48 20 49 63 50 57 51 56 52 21 54 47 55
REMARK SMILES IDX 30 56 46 57 31 58 34 59 45 60 61 61 32 62 33 63 44 65 62 66
REMARK SMILES IDX 35 67 22 68 23 69 28 70 24 71 25 72 27 73 29 74 26 75 48 76
REMARK SMILES IDX 49 77 54 78 50 79 51 80 53 81 55 82 52 83 36 84 37 85 42 86
REMARK SMILES IDX 38 87 39 88 41 89 43 90 40 91
REMARK H PARENT 3 8 10 34 60 53 34 64
REMARK Flexibility Score: inf
ROOT
ATOM      1  C   UNL A   1      37.834  21.274  25.085  1.00  0.00     0.002 C 
ENDROOT
BRANCH   1   2
ATOM      2  C   UNL A   1      38.543  22.146  26.108  1.00  0.00     0.002 C 
BRANCH   2   3
ATOM      3  C   UNL A   1      38.021  23.570  26.009  1.00  0.00     0.021 C 
BRANCH   3   4
ATOM      4  C   UNL A   1      36.542  23.545  25.657  1.00  0.00     0.116 C 
BRANCH   4   5
ATOM      5  N   UNL A   1      36.386  23.627  24.197  1.00  0.00    -0.352 N 
ATOM      6  O   UNL A   1      35.066  23.116  22.289  1.00  0.00    -0.270 OA
ATOM      7  C   UNL A   1      35.202  23.045  23.551  1.00  0.00     0.251 C 
ATOM      8  H   UNL A   1      37.075  24.072  23.652  1.00  0.00     0.163 HD
BRANCH   7   9
ATOM      9  C   UNL A   1      34.138  22.358  24.392  1.00  0.00     0.067 C 
ATOM     10  C   UNL A   1      33.239  23.101  25.092  1.00  0.00     0.025 C 
ATOM     11  C   UNL A   1      34.077  20.840  24.449  1.00  0.00     0.314 C 
ATOM     12  C   UNL A   1      33.299  24.619  25.034  1.00  0.00     0.020 A 
ATOM     13  O   UNL A   1      33.857  24.336  22.741  1.00  0.00    -0.474 OA
ATOM     14  C   UNL A   1      33.069  25.408  26.148  1.00  0.00     0.036 A 
ATOM     15  C   UNL A   1      33.463  25.156  23.831  1.00  0.00     0.142 A 
ATOM     16  C   UNL A   1      32.739  26.750  25.843  1.00  0.00     0.109 A 
ATOM     17  C   UNL A   1      33.257  26.500  23.632  1.00  0.00     0.062 A 
ATOM     18  C   UNL A   1      32.968  27.331  24.679  1.00  0.00     0.044 A 
ATOM     19  Br  UNL A   1      33.379  27.238  21.820  1.00  0.00    -0.047 Br
BRANCH  11  20
ATOM     20  C   UNL A   1      32.729  20.366  23.934  1.00  0.00     0.429 C 
ATOM     21  F   UNL A   1      32.825  19.101  23.538  1.00  0.00    -0.167 F 
ATOM     22  F   UNL A   1      31.826  20.458  24.906  1.00  0.00    -0.167 F 
ATOM     23  F   UNL A   1      32.354  21.126  22.909  1.00  0.00    -0.167 F 
ENDBRANCH  11  20
BRANCH  16  24
ATOM     24  S   UNL A   1      31.950  27.739  27.137  1.00  0.00     0.310 S 
ATOM     25  F   UNL A   1      31.625  28.919  26.129  1.00  0.00    -0.094 F 
ATOM     26  F   UNL A   1      33.337  28.440  27.401  1.00  0.00    -0.094 F 
ATOM     27  F   UNL A   1      31.277  28.587  28.252  1.00  0.00    -0.094 F 
ATOM     28  F   UNL A   1      30.543  27.128  26.764  1.00  0.00    -0.094 F 
ATOM     29  F   UNL A   1      32.597  26.953  25.928  1.00  0.00    -0.094 F 
ENDBRANCH  16  24
ENDBRANCH   7   9
ENDBRANCH   4   5
ENDBRANCH   3   4
ENDBRANCH   2   3
ENDBRANCH   1   2
BRANCH   1  30
ATOM     30  C   UNL A   1      38.514  19.916  25.020  1.00  0.00     0.021 C 
BRANCH  30  31
ATOM     31  C   UNL A   1      39.506  19.790  26.165  1.00  0.00     0.116 C 
BRANCH  31  32
ATOM     32  N   UNL A   1      40.607  18.903  25.763  1.00  0.00    -0.352 N 
ATOM     33  C   UNL A   1      42.000  19.352  25.898  1.00  0.00     0.251 C 
ATOM     34  H   UNL A   1      40.412  18.006  25.406  1.00  0.00     0.163 HD
ATOM     35  O   UNL A   1      42.952  18.585  25.550  1.00  0.00    -0.269 OA
BRANCH  33  36
ATOM     36  C   UNL A   1      42.302  20.736  26.450  1.00  0.00     0.039 A 
ATOM     37  C   UNL A   1      42.252  20.947  27.819  1.00  0.00     0.014 A 
ATOM     38  C   UNL A   1      42.611  21.719  25.613  1.00  0.00     0.014 A 
ATOM     39  C   UNL A   1      42.261  22.312  28.188  1.00  0.00     0.010 A 
ATOM     40  C   UNL A   1      42.739  23.009  26.065  1.00  0.00     0.010 A 
ATOM     41  C   UNL A   1      42.641  23.300  27.398  1.00  0.00    -0.014 A 
BRANCH  41  42
ATOM     42  C   UNL A   1      42.954  24.685  27.941  1.00  0.00     0.031 A 
ATOM     43  C   UNL A   1      41.895  25.579  28.104  1.00  0.00     0.074 A 
ATOM     44  C   UNL A   1      44.271  24.982  28.241  1.00  0.00     0.049 A 
ATOM     45  N   UNL A   1      41.946  26.820  28.593  1.00  0.00    -0.248 NA
ATOM     46  C   UNL A   1      40.499  25.278  27.755  1.00  0.00     0.031 C 
ATOM     47  C   UNL A   1      45.344  24.082  28.086  1.00  0.00     0.029 A 
ATOM     48  N   UNL A   1      44.782  26.164  28.730  1.00  0.00    -0.354 N 
ATOM     49  C   UNL A   1      40.725  27.358  28.614  1.00  0.00     0.074 A 
ATOM     50  C   UNL A   1      39.778  26.376  28.068  1.00  0.00     0.031 C 
ATOM     51  C   UNL A   1      46.485  24.716  28.465  1.00  0.00     0.029 A 
ATOM     52  C   UNL A   1      46.144  26.022  28.864  1.00  0.00     0.049 A 
ATOM     53  H   UNL A   1      44.261  26.971  28.947  1.00  0.00     0.167 HD
ATOM     54  C   UNL A   1      40.364  28.628  29.067  1.00  0.00     0.037 A 
ATOM     55  C   UNL A   1      47.057  26.967  29.306  1.00  0.00     0.037 A 
ATOM     56  C   UNL A   1      41.271  29.558  29.549  1.00  0.00     0.049 A 
ATOM     57  C   UNL A   1      46.703  28.259  29.705  1.00  0.00     0.074 A 
ATOM     58  C   UNL A   1      40.923  30.839  30.018  1.00  0.00     0.029 A 
ATOM     59  N   UNL A   1      42.637  29.425  29.660  1.00  0.00    -0.354 N 
ATOM     60  N   UNL A   1      45.478  28.783  29.763  1.00  0.00    -0.248 NA
ATOM     61  C   UNL A   1      47.665  29.279  30.143  1.00  0.00     0.031 C 
ATOM     62  C   UNL A   1      42.064  31.474  30.397  1.00  0.00     0.029 A 
ATOM     63  C   UNL A   1      43.144  30.599  30.171  1.00  0.00     0.049 A 
ATOM     64  H   UNL A   1      43.162  28.628  29.416  1.00  0.00     0.167 HD
ATOM     65  C   UNL A   1      45.535  30.038  30.212  1.00  0.00     0.074 A 
ATOM     66  C   UNL A   1      46.944  30.378  30.456  1.00  0.00     0.031 C 
ATOM     67  C   UNL A   1      44.469  30.913  30.430  1.00  0.00     0.037 A 
BRANCH  54  68
ATOM     68  C   UNL A   1      38.894  29.012  29.031  1.00  0.00     0.057 A 
ATOM     69  C   UNL A   1      38.311  29.562  27.901  1.00  0.00     0.134 A 
ATOM     70  C   UNL A   1      38.180  28.764  30.123  1.00  0.00     0.134 A 
ATOM     71  F   UNL A   1      38.914  29.593  26.716  1.00  0.00    -0.206 F 
ATOM     72  C   UNL A   1      37.016  30.087  28.122  1.00  0.00     0.040 A 
ATOM     73  C   UNL A   1      36.877  29.188  30.218  1.00  0.00     0.040 A 
ATOM     74  F   UNL A   1      38.732  28.099  31.133  1.00  0.00    -0.206 F 
ATOM     75  C   UNL A   1      36.255  29.793  29.160  1.00  0.00     0.006 A 
ENDBRANCH  54  68
BRANCH  55  76
ATOM     76  C   UNL A   1      48.525  26.578  29.358  1.00  0.00     0.057 A 
ATOM     77  C   UNL A   1      48.992  26.012  30.533  1.00  0.00     0.134 A 
ATOM     78  C   UNL A   1      49.339  26.809  28.335  1.00  0.00     0.134 A 
ATOM     79  F   UNL A   1      48.187  25.533  31.477  1.00  0.00    -0.206 F 
ATOM     80  C   UNL A   1      50.403  25.992  30.639  1.00  0.00     0.040 A 
ATOM     81  C   UNL A   1      50.696  26.638  28.466  1.00  0.00     0.040 A 
ATOM     82  F   UNL A   1      48.836  27.211  27.171  1.00  0.00    -0.206 F 
ATOM     83  C   UNL A   1      51.232  26.139  29.621  1.00  0.00     0.006 A 
ENDBRANCH  55  76
BRANCH  67  84
ATOM     84  C   UNL A   1      44.781  32.292  30.989  1.00  0.00     0.057 A 
ATOM     85  C   UNL A   1      45.002  33.344  30.116  1.00  0.00     0.134 A 
ATOM     86  C   UNL A   1      44.835  32.465  32.305  1.00  0.00     0.134 A 
ATOM     87  F   UNL A   1      44.713  33.283  28.818  1.00  0.00    -0.206 F 
ATOM     88  C   UNL A   1      45.562  34.490  30.728  1.00  0.00     0.040 A 
ATOM     89  C   UNL A   1      45.263  33.657  32.835  1.00  0.00     0.040 A 
ATOM     90  F   UNL A   1      44.471  31.476  33.115  1.00  0.00    -0.206 F 
ATOM     91  C   UNL A   1      45.557  34.722  32.029  1.00  0.00     0.006 A 
ENDBRANCH  67  84
ENDBRANCH  41  42
ENDBRANCH  33  36
ENDBRANCH  31  32
ENDBRANCH  30  31
ENDBRANCH   1  30
TORSDOF 15
ENDMDL
MODEL 3
REMARK VINA RESULT:     -12.3      4.687      9.024
REMARK SMILES O=C(NCCCCCCNC(=O)c1ccc(-c2c3nc(c(-c4c(F)cccc4F)c4ccc([nH]4)c(-c4c(F)cccc4F)c4nc(c(-c5c(F)cccc5F)c5ccc2[nH]5)C=C4)C=C3)cc1)C1=Cc2cc(S(F)(F)(F)(F)F)cc(Br)c2O[C@@H]1C(F)(F)F
REMARK SMILES IDX 7 1 6 2 5 3 4 4 3 5 1 6 2 7 67 9 68 10 83 11 69 12 82 13
REMARK SMILES IDX 70 14 81 15 71 16 79 17 78 18 80 19 84 20 85 21 86 22 87 23
REMARK SMILES IDX 72 24 73 25 74 26 75 27 76 28 77 29 8 30 9 31 10 32 11 33
REMARK SMILES IDX 12 35 13 36 14 37 66 38 15 39 65 40 16 41 17 42 18 43 59 44
REMARK SMILES IDX 19 45 64 46 58 47 60 48 20 49 63 50 57 51 56 52 21 54 47 55
REMARK SMILES IDX 30 56 46 57 31 58 34 59 45 60 61 61 32 62 33 63 44 65 62 66
REMARK SMILES IDX 35 67 22 68 23 69 28 70 24 71 25 72 27 73 29 74 26 75 48 76
REMARK SMILES IDX 49 77 54 78 50 79 51 80 53 81 55 82 52 83 36 84 37 85 42 86
REMARK SMILES IDX 38 87 39 88 41 89 43 90 40 91
REMARK H PARENT 3 8 10 34 60 53 34 64
REMARK Flexibility Score: inf
ROOT
ATOM      1  C   UNL A   1      32.316  30.804  26.936  1.00  0.00     0.002 C 
ENDROOT
BRANCH   1   2
ATOM      2  C   UNL A   1      33.806  30.881  27.226  1.00  0.00     0.002 C 
BRANCH   2   3
ATOM      3  C   UNL A   1      34.324  29.500  27.592  1.00  0.00     0.021 C 
BRANCH   3   4
ATOM      4  C   UNL A   1      33.753  28.473  26.627  1.00  0.00     0.116 C 
BRANCH   4   5
ATOM      5  N   UNL A   1      32.621  27.783  27.260  1.00  0.00    -0.352 N 
ATOM      6  O   UNL A   1      30.505  26.736  26.992  1.00  0.00    -0.270 OA
ATOM      7  C   UNL A   1      31.484  27.333  26.444  1.00  0.00     0.251 C 
ATOM      8  H   UNL A   1      32.622  27.622  28.232  1.00  0.00     0.163 HD
BRANCH   7   9
ATOM      9  C   UNL A   1      31.480  27.582  24.944  1.00  0.00     0.067 C 
ATOM     10  C   UNL A   1      32.205  26.779  24.120  1.00  0.00     0.025 C 
ATOM     11  C   UNL A   1      30.665  28.727  24.366  1.00  0.00     0.314 C 
ATOM     12  C   UNL A   1      33.019  25.633  24.699  1.00  0.00     0.020 A 
ATOM     13  O   UNL A   1      31.206  25.334  26.205  1.00  0.00    -0.474 OA
ATOM     14  C   UNL A   1      34.274  25.303  24.214  1.00  0.00     0.036 A 
ATOM     15  C   UNL A   1      32.416  24.884  25.613  1.00  0.00     0.142 A 
ATOM     16  C   UNL A   1      34.692  23.993  24.548  1.00  0.00     0.109 A 
ATOM     17  C   UNL A   1      32.951  23.676  25.993  1.00  0.00     0.062 A 
ATOM     18  C   UNL A   1      34.160  23.260  25.509  1.00  0.00     0.044 A 
ATOM     19  Br  UNL A   1      31.968  22.535  27.246  1.00  0.00    -0.047 Br
BRANCH  11  20
ATOM     20  C   UNL A   1      29.637  28.177  23.392  1.00  0.00     0.429 C 
ATOM     21  F   UNL A   1      29.200  26.999  23.828  1.00  0.00    -0.167 F 
ATOM     22  F   UNL A   1      28.615  29.022  23.302  1.00  0.00    -0.167 F 
ATOM     23  F   UNL A   1      30.195  28.027  22.195  1.00  0.00    -0.167 F 
ENDBRANCH  11  20
BRANCH  16  24
ATOM     24  S   UNL A   1      36.051  23.273  23.593  1.00  0.00     0.310 S 
ATOM     25  F   UNL A   1      35.895  21.866  24.307  1.00  0.00    -0.094 F 
ATOM     26  F   UNL A   1      37.037  23.676  24.754  1.00  0.00    -0.094 F 
ATOM     27  F   UNL A   1      37.220  22.660  22.774  1.00  0.00    -0.094 F 
ATOM     28  F   UNL A   1      35.029  22.755  22.507  1.00  0.00    -0.094 F 
ATOM     29  F   UNL A   1      34.839  23.792  24.466  1.00  0.00    -0.094 F 
ENDBRANCH  16  24
ENDBRANCH   7   9
ENDBRANCH   4   5
ENDBRANCH   3   4
ENDBRANCH   2   3
ENDBRANCH   1   2
BRANCH   1  30
ATOM     30  C   UNL A   1      31.729  32.206  26.931  1.00  0.00     0.021 C 
BRANCH  30  31
ATOM     31  C   UNL A   1      32.851  33.226  27.022  1.00  0.00     0.116 C 
BRANCH  31  32
ATOM     32  N   UNL A   1      32.361  34.433  27.705  1.00  0.00    -0.352 N 
ATOM     33  C   UNL A   1      33.042  34.921  28.913  1.00  0.00     0.251 C 
ATOM     34  H   UNL A   1      31.578  34.915  27.353  1.00  0.00     0.163 HD
ATOM     35  O   UNL A   1      32.618  35.964  29.504  1.00  0.00    -0.269 OA
BRANCH  33  36
ATOM     36  C   UNL A   1      34.251  34.178  29.458  1.00  0.00     0.039 A 
ATOM     37  C   UNL A   1      35.522  34.565  29.061  1.00  0.00     0.014 A 
ATOM     38  C   UNL A   1      34.071  33.172  30.305  1.00  0.00     0.014 A 
ATOM     39  C   UNL A   1      36.533  33.633  29.393  1.00  0.00     0.010 A 
ATOM     40  C   UNL A   1      35.128  32.386  30.693  1.00  0.00     0.010 A 
ATOM     41  C   UNL A   1      36.403  32.674  30.290  1.00  0.00    -0.014 A 
BRANCH  41  42
ATOM     42  C   UNL A   1      37.606  31.930  30.848  1.00  0.00     0.031 A 
ATOM     43  C   UNL A   1      38.183  30.933  30.059  1.00  0.00     0.074 A 
ATOM     44  C   UNL A   1      38.061  32.282  32.106  1.00  0.00     0.049 A 
ATOM     45  N   UNL A   1      39.254  30.191  30.342  1.00  0.00    -0.248 NA
ATOM     46  C   UNL A   1      37.681  30.534  28.736  1.00  0.00     0.031 C 
ATOM     47  C   UNL A   1      37.489  33.293  32.904  1.00  0.00     0.029 A 
ATOM     48  N   UNL A   1      39.118  31.742  32.805  1.00  0.00    -0.354 N 
ATOM     49  C   UNL A   1      39.516  29.356  29.334  1.00  0.00     0.074 A 
ATOM     50  C   UNL A   1      38.504  29.560  28.290  1.00  0.00     0.031 C 
ATOM     51  C   UNL A   1      38.183  33.352  34.071  1.00  0.00     0.029 A 
ATOM     52  C   UNL A   1      39.202  32.381  34.021  1.00  0.00     0.049 A 
ATOM     53  H   UNL A   1      39.712  31.023  32.488  1.00  0.00     0.167 HD
ATOM     54  C   UNL A   1      40.560  28.434  29.245  1.00  0.00     0.037 A 
ATOM     55  C   UNL A   1      40.106  32.144  35.045  1.00  0.00     0.037 A 
ATOM     56  C   UNL A   1      41.492  28.227  30.251  1.00  0.00     0.049 A 
ATOM     57  C   UNL A   1      41.115  31.180  34.979  1.00  0.00     0.074 A 
ATOM     58  C   UNL A   1      42.555  27.307  30.173  1.00  0.00     0.029 A 
ATOM     59  N   UNL A   1      41.560  28.849  31.478  1.00  0.00    -0.354 N 
ATOM     60  N   UNL A   1      41.401  30.374  33.956  1.00  0.00    -0.248 NA
ATOM     61  C   UNL A   1      42.058  30.898  36.069  1.00  0.00     0.031 C 
ATOM     62  C   UNL A   1      43.250  27.366  31.340  1.00  0.00     0.029 A 
ATOM     63  C   UNL A   1      42.631  28.325  32.167  1.00  0.00     0.049 A 
ATOM     64  H   UNL A   1      40.949  29.548  31.806  1.00  0.00     0.167 HD
ATOM     65  C   UNL A   1      42.448  29.602  34.257  1.00  0.00     0.074 A 
ATOM     66  C   UNL A   1      42.881  29.923  35.624  1.00  0.00     0.031 C 
ATOM     67  C   UNL A   1      43.060  28.646  33.445  1.00  0.00     0.037 A 
BRANCH  54  68
ATOM     68  C   UNL A   1      40.684  27.611  27.973  1.00  0.00     0.057 A 
ATOM     69  C   UNL A   1      40.068  26.378  27.838  1.00  0.00     0.134 A 
ATOM     70  C   UNL A   1      41.385  28.143  26.978  1.00  0.00     0.134 A 
ATOM     71  F   UNL A   1      39.159  25.925  28.697  1.00  0.00    -0.206 F 
ATOM     72  C   UNL A   1      40.491  25.647  26.704  1.00  0.00     0.040 A 
ATOM     73  C   UNL A   1      41.647  27.418  25.841  1.00  0.00     0.040 A 
ATOM     74  F   UNL A   1      41.837  29.389  27.084  1.00  0.00    -0.206 F 
ATOM     75  C   UNL A   1      41.118  26.169  25.666  1.00  0.00     0.006 A 
ENDBRANCH  54  68
BRANCH  55  76
ATOM     76  C   UNL A   1      39.993  32.978  36.310  1.00  0.00     0.057 A 
ATOM     77  C   UNL A   1      39.014  32.620  37.223  1.00  0.00     0.134 A 
ATOM     78  C   UNL A   1      40.772  34.034  36.515  1.00  0.00     0.134 A 
ATOM     79  F   UNL A   1      38.389  31.447  37.192  1.00  0.00    -0.206 F 
ATOM     80  C   UNL A   1      38.739  33.616  38.189  1.00  0.00     0.040 A 
ATOM     81  C   UNL A   1      40.529  34.891  37.560  1.00  0.00     0.040 A 
ATOM     82  F   UNL A   1      41.798  34.264  35.700  1.00  0.00    -0.206 F 
ATOM     83  C   UNL A   1      39.538  34.631  38.467  1.00  0.00     0.006 A 
ENDBRANCH  55  76
BRANCH  67  84
ATOM     84  C   UNL A   1      44.274  27.914  33.996  1.00  0.00     0.057 A 
ATOM     85  C   UNL A   1      44.098  26.710  34.659  1.00  0.00     0.134 A 
ATOM     86  C   UNL A   1      45.482  28.441  33.832  1.00  0.00     0.134 A 
ATOM     87  F   UNL A   1      42.958  26.025  34.628  1.00  0.00    -0.206 F 
ATOM     88  C   UNL A   1      45.240  26.276  35.371  1.00  0.00     0.040 A 
ATOM     89  C   UNL A   1      46.576  27.884  34.449  1.00  0.00     0.040 A 
ATOM     90  F   UNL A   1      45.634  29.515  33.065  1.00  0.00    -0.206 F 
ATOM     91  C   UNL A   1      46.465  26.727  35.170  1.00  0.00     0.006 A 
ENDBRANCH  67  84
ENDBRANCH  41  42
ENDBRANCH  33  36
ENDBRANCH  31  32
ENDBRANCH  30  31
ENDBRANCH   1  30
TORSDOF 15
ENDMDL
