MODEL 1
REMARK VINA RESULT:     -12.3      0.000      0.000
REMARK SMILES CCc1cc(N2CCC[C@H](C(=O)NCCCCCCNC(=O)c3ccc(-c4c5nc(c(-c6c(F)cccc6F)c6ccc([nH]6)c(-c6c(F)cccc6F)c6nc(c(-c7c(F)cccc7F)c7ccc4[nH]7)C=C6)C=C5)cc3)C2)nc(-c2ccc(Cl)cc2)n1
REMARK SMILES IDX 16 1 15 2 14 3 13 4 11 5 12 6 10 8 6 9 7 10 77 11 8 12 9 13
REMARK SMILES IDX 5 14 3 15 4 16 87 17 79 18 78 19 2 20 1 21 80 22 81 23 86 24
REMARK SMILES IDX 82 25 85 26 83 27 84 28 17 29 18 30 19 31 20 32 21 33 22 35
REMARK SMILES IDX 23 36 24 37 76 38 25 39 75 40 26 41 27 42 28 43 69 44 29 45
REMARK SMILES IDX 74 46 68 47 70 48 30 49 73 50 67 51 66 52 31 54 57 55 40 56
REMARK SMILES IDX 56 57 41 58 44 59 55 60 71 61 42 62 43 63 54 65 72 66 45 67
REMARK SMILES IDX 32 68 33 69 38 70 34 71 35 72 37 73 39 74 36 75 58 76 59 77
REMARK SMILES IDX 64 78 60 79 61 80 63 81 65 82 62 83 46 84 47 85 52 86 48 87
REMARK SMILES IDX 49 88 51 89 53 90 50 91
REMARK H PARENT 13 7 20 34 70 53 44 64
REMARK Flexibility Score: inf
ROOT
ATOM      1  C   UNL A   1      31.820  29.350  27.225  1.00  0.00     0.002 C 
ENDROOT
BRANCH   1   2
ATOM      2  C   UNL A   1      32.961  28.371  26.945  1.00  0.00     0.021 C 
BRANCH   2   3
ATOM      3  C   UNL A   1      32.499  27.023  26.399  1.00  0.00     0.116 C 
BRANCH   3   4
ATOM      4  N   UNL A   1      31.107  26.724  26.629  1.00  0.00    -0.356 N 
ATOM      5  C   UNL A   1      30.289  25.918  25.903  1.00  0.00     0.224 C 
ATOM      6  O   UNL A   1      29.337  25.408  26.505  1.00  0.00    -0.275 OA
ATOM      7  H   UNL A   1      30.698  27.160  27.412  1.00  0.00     0.163 HD
BRANCH   5   8
ATOM      8  C   UNL A   1      30.475  25.628  24.409  1.00  0.00     0.098 C 
ATOM      9  N   UNL A   1      32.730  24.776  23.986  1.00  0.00    -0.356 N 
ATOM     10  C   UNL A   1      33.089  25.741  22.958  1.00  0.00     0.118 C 
ATOM     11  C   UNL A   1      31.332  24.403  24.121  1.00  0.00     0.131 C 
ATOM     12  C   UNL A   1      32.240  27.019  23.074  1.00  0.00     0.022 C 
ATOM     13  C   UNL A   1      30.783  26.833  23.514  1.00  0.00     0.017 C 
BRANCH   9  14
ATOM     14  C   UNL A   1      33.673  23.895  24.481  1.00  0.00     0.132 A 
ATOM     15  C   UNL A   1      35.855  23.376  25.241  1.00  0.00     0.046 A 
ATOM     16  C   UNL A   1      34.926  24.332  24.869  1.00  0.00     0.070 A 
ATOM     17  N   UNL A   1      35.569  22.061  25.213  1.00  0.00    -0.233 NA
ATOM     18  C   UNL A   1      34.342  21.720  24.796  1.00  0.00     0.161 A 
ATOM     19  N   UNL A   1      33.373  22.586  24.447  1.00  0.00    -0.211 NA
BRANCH  15  20
ATOM     20  C   UNL A   1      37.281  23.705  25.592  1.00  0.00     0.053 C 
ATOM     21  C   UNL A   1      38.213  22.516  25.751  1.00  0.00     0.011 C 
ENDBRANCH  15  20
BRANCH  18  22
ATOM     22  C   UNL A   1      34.083  20.289  24.626  1.00  0.00     0.019 A 
ATOM     23  C   UNL A   1      35.128  19.350  24.664  1.00  0.00     0.013 A 
ATOM     24  C   UNL A   1      32.772  19.811  24.436  1.00  0.00     0.013 A 
ATOM     25  C   UNL A   1      34.867  17.977  24.585  1.00  0.00     0.021 A 
ATOM     26  C   UNL A   1      32.507  18.439  24.352  1.00  0.00     0.021 A 
ATOM     27  C   UNL A   1      33.557  17.528  24.444  1.00  0.00     0.041 A 
ATOM     28  Cl  UNL A   1      33.227  15.840  24.410  1.00  0.00    -0.084 Cl
ENDBRANCH  18  22
ENDBRANCH   9  14
ENDBRANCH   5   8
ENDBRANCH   3   4
ENDBRANCH   2   3
ENDBRANCH   1   2
BRANCH   1  29
ATOM     29  C   UNL A   1      31.525  30.333  26.091  1.00  0.00     0.002 C 
BRANCH  29  30
ATOM     30  C   UNL A   1      31.365  31.799  26.489  1.00  0.00     0.021 C 
BRANCH  30  31
ATOM     31  C   UNL A   1      32.625  32.423  27.061  1.00  0.00     0.116 C 
BRANCH  31  32
ATOM     32  N   UNL A   1      32.414  33.812  27.446  1.00  0.00    -0.352 N 
ATOM     33  C   UNL A   1      33.002  34.557  28.434  1.00  0.00     0.251 C 
ATOM     34  H   UNL A   1      31.743  34.293  26.910  1.00  0.00     0.163 HD
ATOM     35  O   UNL A   1      32.528  35.640  28.756  1.00  0.00    -0.269 OA
BRANCH  33  36
ATOM     36  C   UNL A   1      34.211  34.049  29.110  1.00  0.00     0.039 A 
ATOM     37  C   UNL A   1      34.068  33.232  30.234  1.00  0.00     0.014 A 
ATOM     38  C   UNL A   1      35.481  34.401  28.648  1.00  0.00     0.014 A 
ATOM     39  C   UNL A   1      35.205  32.726  30.863  1.00  0.00     0.010 A 
ATOM     40  C   UNL A   1      36.605  33.817  29.212  1.00  0.00     0.010 A 
ATOM     41  C   UNL A   1      36.479  32.988  30.335  1.00  0.00    -0.014 A 
BRANCH  41  42
ATOM     42  C   UNL A   1      37.703  32.430  30.955  1.00  0.00     0.031 A 
ATOM     43  C   UNL A   1      38.373  31.234  30.339  1.00  0.00     0.074 A 
ATOM     44  C   UNL A   1      38.160  32.956  32.106  1.00  0.00     0.049 A 
ATOM     45  N   UNL A   1      39.396  30.545  30.774  1.00  0.00    -0.248 NA
ATOM     46  C   UNL A   1      37.793  30.720  29.086  1.00  0.00     0.031 C 
ATOM     47  C   UNL A   1      37.559  34.084  32.821  1.00  0.00     0.029 A 
ATOM     48  N   UNL A   1      39.231  32.603  32.885  1.00  0.00    -0.354 N 
ATOM     49  C   UNL A   1      39.570  29.513  29.861  1.00  0.00     0.074 A 
ATOM     50  C   UNL A   1      38.510  29.626  28.884  1.00  0.00     0.031 C 
ATOM     51  C   UNL A   1      38.286  34.347  33.918  1.00  0.00     0.029 A 
ATOM     52  C   UNL A   1      39.376  33.381  34.007  1.00  0.00     0.049 A 
ATOM     53  H   UNL A   1      39.839  31.860  32.662  1.00  0.00     0.167 HD
ATOM     54  C   UNL A   1      40.543  28.573  29.824  1.00  0.00     0.037 A 
ATOM     55  C   UNL A   1      40.283  33.316  34.999  1.00  0.00     0.037 A 
ATOM     56  C   UNL A   1      41.609  28.487  30.787  1.00  0.00     0.049 A 
ATOM     57  C   UNL A   1      41.350  32.259  34.938  1.00  0.00     0.074 A 
ATOM     58  C   UNL A   1      42.680  27.612  30.811  1.00  0.00     0.029 A 
ATOM     59  N   UNL A   1      41.735  29.307  31.899  1.00  0.00    -0.354 N 
ATOM     60  N   UNL A   1      41.546  31.331  34.033  1.00  0.00    -0.248 NA
ATOM     61  C   UNL A   1      42.327  32.243  36.035  1.00  0.00     0.031 C 
ATOM     62  C   UNL A   1      43.426  27.870  31.965  1.00  0.00     0.029 A 
ATOM     63  C   UNL A   1      42.853  28.943  32.629  1.00  0.00     0.049 A 
ATOM     64  H   UNL A   1      41.120  30.039  32.134  1.00  0.00     0.167 HD
ATOM     65  C   UNL A   1      42.683  30.641  34.432  1.00  0.00     0.074 A 
ATOM     66  C   UNL A   1      43.141  31.268  35.656  1.00  0.00     0.031 C 
ATOM     67  C   UNL A   1      43.294  29.586  33.842  1.00  0.00     0.037 A 
BRANCH  54  68
ATOM     68  C   UNL A   1      40.497  27.570  28.708  1.00  0.00     0.057 A 
ATOM     69  C   UNL A   1      39.712  26.410  28.785  1.00  0.00     0.134 A 
ATOM     70  C   UNL A   1      41.225  27.776  27.529  1.00  0.00     0.134 A 
ATOM     71  F   UNL A   1      39.000  26.144  29.890  1.00  0.00    -0.206 F 
ATOM     72  C   UNL A   1      39.678  25.480  27.745  1.00  0.00     0.040 A 
ATOM     73  C   UNL A   1      41.174  26.868  26.469  1.00  0.00     0.040 A 
ATOM     74  F   UNL A   1      41.994  28.867  27.385  1.00  0.00    -0.206 F 
ATOM     75  C   UNL A   1      40.405  25.712  26.580  1.00  0.00     0.006 A 
ENDBRANCH  54  68
BRANCH  55  76
ATOM     76  C   UNL A   1      40.237  34.293  36.116  1.00  0.00     0.057 A 
ATOM     77  C   UNL A   1      39.489  34.032  37.271  1.00  0.00     0.134 A 
ATOM     78  C   UNL A   1      40.932  35.506  36.059  1.00  0.00     0.134 A 
ATOM     79  F   UNL A   1      38.789  32.893  37.378  1.00  0.00    -0.206 F 
ATOM     80  C   UNL A   1      39.416  34.952  38.317  1.00  0.00     0.040 A 
ATOM     81  C   UNL A   1      40.890  36.423  37.110  1.00  0.00     0.040 A 
ATOM     82  F   UNL A   1      41.677  35.811  34.985  1.00  0.00    -0.206 F 
ATOM     83  C   UNL A   1      40.122  36.150  38.240  1.00  0.00     0.006 A 
ENDBRANCH  55  76
BRANCH  67  84
ATOM     84  C   UNL A   1      44.545  29.068  34.489  1.00  0.00     0.057 A 
ATOM     85  C   UNL A   1      44.524  28.003  35.397  1.00  0.00     0.134 A 
ATOM     86  C   UNL A   1      45.793  29.617  34.163  1.00  0.00     0.134 A 
ATOM     87  F   UNL A   1      43.360  27.442  35.761  1.00  0.00    -0.206 F 
ATOM     88  C   UNL A   1      45.696  27.518  35.979  1.00  0.00     0.040 A 
ATOM     89  C   UNL A   1      46.974  29.120  34.715  1.00  0.00     0.040 A 
ATOM     90  F   UNL A   1      45.884  30.632  33.292  1.00  0.00    -0.206 F 
ATOM     91  C   UNL A   1      46.926  28.072  35.631  1.00  0.00     0.006 A 
ENDBRANCH  67  84
ENDBRANCH  41  42
ENDBRANCH  33  36
ENDBRANCH  31  32
ENDBRANCH  30  31
ENDBRANCH  29  30
ENDBRANCH   1  29
TORSDOF 16
ENDMDL
MODEL 2
REMARK VINA RESULT:     -12.1      5.021     10.430
REMARK SMILES CCc1cc(N2CCC[C@H](C(=O)NCCCCCCNC(=O)c3ccc(-c4c5nc(c(-c6c(F)cccc6F)c6ccc([nH]6)c(-c6c(F)cccc6F)c6nc(c(-c7c(F)cccc7F)c7ccc4[nH]7)C=C6)C=C5)cc3)C2)nc(-c2ccc(Cl)cc2)n1
REMARK SMILES IDX 16 1 15 2 14 3 13 4 11 5 12 6 10 8 6 9 7 10 77 11 8 12 9 13
REMARK SMILES IDX 5 14 3 15 4 16 87 17 79 18 78 19 2 20 1 21 80 22 81 23 86 24
REMARK SMILES IDX 82 25 85 26 83 27 84 28 17 29 18 30 19 31 20 32 21 33 22 35
REMARK SMILES IDX 23 36 24 37 76 38 25 39 75 40 26 41 27 42 28 43 69 44 29 45
REMARK SMILES IDX 74 46 68 47 70 48 30 49 73 50 67 51 66 52 31 54 57 55 40 56
REMARK SMILES IDX 56 57 41 58 44 59 55 60 71 61 42 62 43 63 54 65 72 66 45 67
REMARK SMILES IDX 32 68 33 69 38 70 34 71 35 72 37 73 39 74 36 75 58 76 59 77
REMARK SMILES IDX 64 78 60 79 61 80 63 81 65 82 62 83 46 84 47 85 52 86 48 87
REMARK SMILES IDX 49 88 51 89 53 90 50 91
REMARK H PARENT 13 7 20 34 70 53 44 64
REMARK Flexibility Score: inf
ROOT
ATOM      1  C   UNL A   1      35.503  20.323  25.001  1.00  0.00     0.002 C 
ENDROOT
BRANCH   1   2
ATOM      2  C   UNL A   1      34.923  21.303  26.022  1.00  0.00     0.021 C 
BRANCH   2   3
ATOM      3  C   UNL A   1      35.561  22.689  25.980  1.00  0.00     0.116 C 
BRANCH   3   4
ATOM      4  N   UNL A   1      34.704  23.761  26.418  1.00  0.00    -0.356 N 
ATOM      5  C   UNL A   1      33.580  24.238  25.819  1.00  0.00     0.224 C 
ATOM      6  O   UNL A   1      32.745  24.775  26.556  1.00  0.00    -0.275 OA
ATOM      7  H   UNL A   1      34.964  24.204  27.258  1.00  0.00     0.163 HD
BRANCH   5   8
ATOM      8  C   UNL A   1      33.311  24.158  24.312  1.00  0.00     0.098 C 
ATOM      9  N   UNL A   1      31.538  25.725  23.685  1.00  0.00    -0.356 N 
ATOM     10  C   UNL A   1      30.685  24.759  23.011  1.00  0.00     0.118 C 
ATOM     11  C   UNL A   1      32.974  25.499  23.675  1.00  0.00     0.131 C 
ATOM     12  C   UNL A   1      30.969  23.328  23.501  1.00  0.00     0.022 C 
ATOM     13  C   UNL A   1      32.428  22.999  23.838  1.00  0.00     0.017 C 
BRANCH   9  14
ATOM     14  C   UNL A   1      31.100  27.018  23.901  1.00  0.00     0.132 A 
ATOM     15  C   UNL A   1      29.835  28.926  23.297  1.00  0.00     0.046 A 
ATOM     16  C   UNL A   1      30.135  27.590  23.094  1.00  0.00     0.070 A 
ATOM     17  N   UNL A   1      30.468  29.661  24.231  1.00  0.00    -0.233 NA
ATOM     18  C   UNL A   1      31.411  29.038  24.949  1.00  0.00     0.161 A 
ATOM     19  N   UNL A   1      31.741  27.739  24.836  1.00  0.00    -0.211 NA
BRANCH  15  20
ATOM     20  C   UNL A   1      28.876  29.696  22.429  1.00  0.00     0.053 C 
ATOM     21  C   UNL A   1      28.029  30.735  23.144  1.00  0.00     0.011 C 
ENDBRANCH  15  20
BRANCH  18  22
ATOM     22  C   UNL A   1      32.198  29.874  25.859  1.00  0.00     0.019 A 
ATOM     23  C   UNL A   1      31.711  31.111  26.316  1.00  0.00     0.013 A 
ATOM     24  C   UNL A   1      33.461  29.451  26.316  1.00  0.00     0.013 A 
ATOM     25  C   UNL A   1      32.428  31.867  27.251  1.00  0.00     0.021 A 
ATOM     26  C   UNL A   1      34.183  30.207  27.247  1.00  0.00     0.021 A 
ATOM     27  C   UNL A   1      33.654  31.404  27.722  1.00  0.00     0.041 A 
ATOM     28  Cl  UNL A   1      34.507  32.300  28.918  1.00  0.00    -0.084 Cl
ENDBRANCH  18  22
ENDBRANCH   9  14
ENDBRANCH   5   8
ENDBRANCH   3   4
ENDBRANCH   2   3
ENDBRANCH   1   2
BRANCH   1  29
ATOM     29  C   UNL A   1      36.958  20.589  24.609  1.00  0.00     0.002 C 
BRANCH  29  30
ATOM     30  C   UNL A   1      37.972  19.518  25.001  1.00  0.00     0.021 C 
BRANCH  30  31
ATOM     31  C   UNL A   1      39.162  20.051  25.780  1.00  0.00     0.116 C 
BRANCH  31  32
ATOM     32  N   UNL A   1      40.218  19.055  25.904  1.00  0.00    -0.352 N 
ATOM     33  C   UNL A   1      41.570  19.212  26.058  1.00  0.00     0.251 C 
ATOM     34  H   UNL A   1      39.911  18.120  25.874  1.00  0.00     0.163 HD
ATOM     35  O   UNL A   1      42.324  18.256  25.911  1.00  0.00    -0.269 OA
BRANCH  33  36
ATOM     36  C   UNL A   1      42.117  20.537  26.403  1.00  0.00     0.039 A 
ATOM     37  C   UNL A   1      42.520  21.394  25.375  1.00  0.00     0.014 A 
ATOM     38  C   UNL A   1      42.254  20.922  27.738  1.00  0.00     0.014 A 
ATOM     39  C   UNL A   1      43.012  22.660  25.691  1.00  0.00     0.010 A 
ATOM     40  C   UNL A   1      42.648  22.215  28.046  1.00  0.00     0.010 A 
ATOM     41  C   UNL A   1      43.048  23.090  27.027  1.00  0.00    -0.014 A 
BRANCH  41  42
ATOM     42  C   UNL A   1      43.526  24.444  27.391  1.00  0.00     0.031 A 
ATOM     43  C   UNL A   1      42.540  25.492  27.825  1.00  0.00     0.074 A 
ATOM     44  C   UNL A   1      44.832  24.742  27.258  1.00  0.00     0.049 A 
ATOM     45  N   UNL A   1      42.743  26.754  28.100  1.00  0.00    -0.248 NA
ATOM     46  C   UNL A   1      41.131  25.075  27.929  1.00  0.00     0.031 C 
ATOM     47  C   UNL A   1      45.870  23.819  26.794  1.00  0.00     0.029 A 
ATOM     48  N   UNL A   1      45.507  25.912  27.489  1.00  0.00    -0.354 N 
ATOM     49  C   UNL A   1      41.492  27.282  28.391  1.00  0.00     0.074 A 
ATOM     50  C   UNL A   1      40.528  26.222  28.198  1.00  0.00     0.031 C 
ATOM     51  C   UNL A   1      47.054  24.450  26.802  1.00  0.00     0.029 A 
ATOM     52  C   UNL A   1      46.852  25.831  27.228  1.00  0.00     0.049 A 
ATOM     53  H   UNL A   1      45.069  26.734  27.810  1.00  0.00     0.167 HD
ATOM     54  C   UNL A   1      41.179  28.530  28.810  1.00  0.00     0.037 A 
ATOM     55  C   UNL A   1      47.813  26.770  27.315  1.00  0.00     0.037 A 
ATOM     56  C   UNL A   1      42.151  29.570  29.025  1.00  0.00     0.049 A 
ATOM     57  C   UNL A   1      47.439  28.151  27.777  1.00  0.00     0.074 A 
ATOM     58  C   UNL A   1      41.950  30.851  29.505  1.00  0.00     0.029 A 
ATOM     59  N   UNL A   1      43.509  29.443  28.770  1.00  0.00    -0.354 N 
ATOM     60  N   UNL A   1      46.262  28.619  28.116  1.00  0.00    -0.248 NA
ATOM     61  C   UNL A   1      48.527  29.132  27.873  1.00  0.00     0.031 C 
ATOM     62  C   UNL A   1      43.180  31.517  29.493  1.00  0.00     0.029 A 
ATOM     63  C   UNL A   1      44.155  30.633  29.060  1.00  0.00     0.049 A 
ATOM     64  H   UNL A   1      43.948  28.629  28.433  1.00  0.00     0.167 HD
ATOM     65  C   UNL A   1      46.471  29.939  28.496  1.00  0.00     0.074 A 
ATOM     66  C   UNL A   1      47.892  30.191  28.357  1.00  0.00     0.031 C 
ATOM     67  C   UNL A   1      45.572  30.859  28.921  1.00  0.00     0.037 A 
BRANCH  54  68
ATOM     68  C   UNL A   1      39.731  28.834  29.064  1.00  0.00     0.057 A 
ATOM     69  C   UNL A   1      39.155  28.694  30.335  1.00  0.00     0.134 A 
ATOM     70  C   UNL A   1      38.905  29.299  28.033  1.00  0.00     0.134 A 
ATOM     71  F   UNL A   1      39.886  28.241  31.365  1.00  0.00    -0.206 F 
ATOM     72  C   UNL A   1      37.807  28.974  30.563  1.00  0.00     0.040 A 
ATOM     73  C   UNL A   1      37.563  29.613  28.255  1.00  0.00     0.040 A 
ATOM     74  F   UNL A   1      39.390  29.462  26.792  1.00  0.00    -0.206 F 
ATOM     75  C   UNL A   1      37.009  29.442  29.522  1.00  0.00     0.006 A 
ENDBRANCH  54  68
BRANCH  55  76
ATOM     76  C   UNL A   1      49.219  26.430  26.983  1.00  0.00     0.057 A 
ATOM     77  C   UNL A   1      50.112  26.004  27.973  1.00  0.00     0.134 A 
ATOM     78  C   UNL A   1      49.706  26.523  25.674  1.00  0.00     0.134 A 
ATOM     79  F   UNL A   1      49.708  25.909  29.248  1.00  0.00    -0.206 F 
ATOM     80  C   UNL A   1      51.442  25.705  27.679  1.00  0.00     0.040 A 
ATOM     81  C   UNL A   1      51.028  26.201  25.360  1.00  0.00     0.040 A 
ATOM     82  F   UNL A   1      48.899  26.914  24.676  1.00  0.00    -0.206 F 
ATOM     83  C   UNL A   1      51.902  25.799  26.367  1.00  0.00     0.006 A 
ENDBRANCH  55  76
BRANCH  67  84
ATOM     84  C   UNL A   1      46.103  32.210  29.303  1.00  0.00     0.057 A 
ATOM     85  C   UNL A   1      46.557  32.489  30.597  1.00  0.00     0.134 A 
ATOM     86  C   UNL A   1      46.200  33.231  28.348  1.00  0.00     0.134 A 
ATOM     87  F   UNL A   1      46.480  31.559  31.562  1.00  0.00    -0.206 F 
ATOM     88  C   UNL A   1      47.066  33.743  30.936  1.00  0.00     0.040 A 
ATOM     89  C   UNL A   1      46.735  34.479  28.667  1.00  0.00     0.040 A 
ATOM     90  F   UNL A   1      45.792  33.026  27.087  1.00  0.00    -0.206 F 
ATOM     91  C   UNL A   1      47.164  34.740  29.967  1.00  0.00     0.006 A 
ENDBRANCH  67  84
ENDBRANCH  41  42
ENDBRANCH  33  36
ENDBRANCH  31  32
ENDBRANCH  30  31
ENDBRANCH  29  30
ENDBRANCH   1  29
TORSDOF 16
ENDMDL
MODEL 3
REMARK VINA RESULT:     -12.0      1.756      6.397
REMARK SMILES CCc1cc(N2CCC[C@H](C(=O)NCCCCCCNC(=O)c3ccc(-c4c5nc(c(-c6c(F)cccc6F)c6ccc([nH]6)c(-c6c(F)cccc6F)c6nc(c(-c7c(F)cccc7F)c7ccc4[nH]7)C=C6)C=C5)cc3)C2)nc(-c2ccc(Cl)cc2)n1
REMARK SMILES IDX 16 1 15 2 14 3 13 4 11 5 12 6 10 8 6 9 7 10 77 11 8 12 9 13
REMARK SMILES IDX 5 14 3 15 4 16 87 17 79 18 78 19 2 20 1 21 80 22 81 23 86 24
REMARK SMILES IDX 82 25 85 26 83 27 84 28 17 29 18 30 19 31 20 32 21 33 22 35
REMARK SMILES IDX 23 36 24 37 76 38 25 39 75 40 26 41 27 42 28 43 69 44 29 45
REMARK SMILES IDX 74 46 68 47 70 48 30 49 73 50 67 51 66 52 31 54 57 55 40 56
REMARK SMILES IDX 56 57 41 58 44 59 55 60 71 61 42 62 43 63 54 65 72 66 45 67
REMARK SMILES IDX 32 68 33 69 38 70 34 71 35 72 37 73 39 74 36 75 58 76 59 77
REMARK SMILES IDX 64 78 60 79 61 80 63 81 65 82 62 83 46 84 47 85 52 86 48 87
REMARK SMILES IDX 49 88 51 89 53 90 50 91
REMARK H PARENT 13 7 20 34 70 53 44 64
REMARK Flexibility Score: inf
ROOT
ATOM      1  C   UNL A   1      34.349  32.321  28.928  1.00  0.00     0.002 C 
ENDROOT
BRANCH   1   2
ATOM      2  C   UNL A   1      34.906  31.344  27.890  1.00  0.00     0.021 C 
BRANCH   2   3
ATOM      3  C   UNL A   1      33.838  30.497  27.203  1.00  0.00     0.116 C 
BRANCH   3   4
ATOM      4  N   UNL A   1      34.317  29.699  26.103  1.00  0.00    -0.356 N 
ATOM      5  C   UNL A   1      33.633  28.779  25.372  1.00  0.00     0.224 C 
ATOM      6  O   UNL A   1      34.029  28.584  24.217  1.00  0.00    -0.275 OA
ATOM      7  H   UNL A   1      35.258  29.837  25.849  1.00  0.00     0.163 HD
BRANCH   5   8
ATOM      8  C   UNL A   1      32.437  27.980  25.900  1.00  0.00     0.098 C 
ATOM      9  N   UNL A   1      32.774  25.588  25.502  1.00  0.00    -0.356 N 
ATOM     10  C   UNL A   1      31.520  25.351  24.805  1.00  0.00     0.118 C 
ATOM     11  C   UNL A   1      32.814  26.636  26.509  1.00  0.00     0.131 C 
ATOM     12  C   UNL A   1      30.967  26.651  24.195  1.00  0.00     0.022 C 
ATOM     13  C   UNL A   1      31.196  27.934  25.001  1.00  0.00     0.017 C 
BRANCH   9  14
ATOM     14  C   UNL A   1      33.732  24.595  25.581  1.00  0.00     0.132 A 
ATOM     15  C   UNL A   1      35.978  23.863  25.753  1.00  0.00     0.046 A 
ATOM     16  C   UNL A   1      35.062  24.900  25.806  1.00  0.00     0.070 A 
ATOM     17  N   UNL A   1      35.604  22.600  25.473  1.00  0.00    -0.233 NA
ATOM     18  C   UNL A   1      34.301  22.396  25.238  1.00  0.00     0.161 A 
ATOM     19  N   UNL A   1      33.344  23.339  25.300  1.00  0.00    -0.211 NA
BRANCH  15  20
ATOM     20  C   UNL A   1      37.463  24.069  25.883  1.00  0.00     0.053 C 
ATOM     21  C   UNL A   1      38.308  22.807  25.857  1.00  0.00     0.011 C 
ENDBRANCH  15  20
BRANCH  18  22
ATOM     22  C   UNL A   1      33.920  21.054  24.791  1.00  0.00     0.019 A 
ATOM     23  C   UNL A   1      32.708  20.829  24.115  1.00  0.00     0.013 A 
ATOM     24  C   UNL A   1      34.767  19.952  25.014  1.00  0.00     0.013 A 
ATOM     25  C   UNL A   1      32.386  19.561  23.616  1.00  0.00     0.021 A 
ATOM     26  C   UNL A   1      34.446  18.682  24.522  1.00  0.00     0.021 A 
ATOM     27  C   UNL A   1      33.263  18.497  23.810  1.00  0.00     0.041 A 
ATOM     28  Cl  UNL A   1      32.899  16.953  23.144  1.00  0.00    -0.084 Cl
ENDBRANCH  18  22
ENDBRANCH   9  14
ENDBRANCH   5   8
ENDBRANCH   3   4
ENDBRANCH   2   3
ENDBRANCH   1   2
BRANCH   1  29
ATOM     29  C   UNL A   1      34.373  33.790  28.504  1.00  0.00     0.002 C 
BRANCH  29  30
ATOM     30  C   UNL A   1      33.074  34.571  28.693  1.00  0.00     0.021 C 
BRANCH  30  31
ATOM     31  C   UNL A   1      33.276  35.991  29.191  1.00  0.00     0.116 C 
BRANCH  31  32
ATOM     32  N   UNL A   1      32.530  36.245  30.417  1.00  0.00    -0.352 N 
ATOM     33  C   UNL A   1      32.668  35.699  31.667  1.00  0.00     0.251 C 
ATOM     34  H   UNL A   1      31.815  36.916  30.335  1.00  0.00     0.163 HD
ATOM     35  O   UNL A   1      31.797  35.868  32.513  1.00  0.00    -0.269 OA
BRANCH  33  36
ATOM     36  C   UNL A   1      33.869  34.908  31.990  1.00  0.00     0.039 A 
ATOM     37  C   UNL A   1      35.129  35.491  31.835  1.00  0.00     0.014 A 
ATOM     38  C   UNL A   1      33.751  33.585  32.422  1.00  0.00     0.014 A 
ATOM     39  C   UNL A   1      36.269  34.760  32.164  1.00  0.00     0.010 A 
ATOM     40  C   UNL A   1      34.877  32.895  32.844  1.00  0.00     0.010 A 
ATOM     41  C   UNL A   1      36.148  33.469  32.703  1.00  0.00    -0.014 A 
BRANCH  41  42
ATOM     42  C   UNL A   1      37.337  32.682  33.103  1.00  0.00     0.031 A 
ATOM     43  C   UNL A   1      38.038  32.993  34.395  1.00  0.00     0.074 A 
ATOM     44  C   UNL A   1      37.823  31.745  32.266  1.00  0.00     0.049 A 
ATOM     45  N   UNL A   1      39.141  32.483  34.881  1.00  0.00    -0.248 NA
ATOM     46  C   UNL A   1      37.441  34.043  35.238  1.00  0.00     0.031 C 
ATOM     47  C   UNL A   1      37.255  31.397  30.962  1.00  0.00     0.029 A 
ATOM     48  N   UNL A   1      38.913  30.923  32.384  1.00  0.00    -0.354 N 
ATOM     49  C   UNL A   1      39.375  33.159  36.071  1.00  0.00     0.074 A 
ATOM     50  C   UNL A   1      38.339  34.159  36.204  1.00  0.00     0.031 C 
ATOM     51  C   UNL A   1      37.984  30.413  30.414  1.00  0.00     0.029 A 
ATOM     52  C   UNL A   1      39.094  30.093  31.305  1.00  0.00     0.049 A 
ATOM     53  H   UNL A   1      39.510  30.927  33.167  1.00  0.00     0.167 HD
ATOM     54  C   UNL A   1      40.350  32.946  36.985  1.00  0.00     0.037 A 
ATOM     55  C   UNL A   1      40.055  29.182  31.062  1.00  0.00     0.037 A 
ATOM     56  C   UNL A   1      41.361  31.930  36.855  1.00  0.00     0.049 A 
ATOM     57  C   UNL A   1      41.130  28.968  32.090  1.00  0.00     0.074 A 
ATOM     58  C   UNL A   1      42.359  31.589  37.749  1.00  0.00     0.029 A 
ATOM     59  N   UNL A   1      41.500  31.093  35.757  1.00  0.00    -0.354 N 
ATOM     60  N   UNL A   1      41.302  29.566  33.244  1.00  0.00    -0.248 NA
ATOM     61  C   UNL A   1      42.143  27.950  31.784  1.00  0.00     0.031 C 
ATOM     62  C   UNL A   1      43.134  30.578  37.170  1.00  0.00     0.029 A 
ATOM     63  C   UNL A   1      42.584  30.252  35.941  1.00  0.00     0.049 A 
ATOM     64  H   UNL A   1      40.915  31.097  34.965  1.00  0.00     0.167 HD
ATOM     65  C   UNL A   1      42.422  28.976  33.817  1.00  0.00     0.074 A 
ATOM     66  C   UNL A   1      42.879  27.963  32.887  1.00  0.00     0.031 C 
ATOM     67  C   UNL A   1      43.018  29.246  35.004  1.00  0.00     0.037 A 
BRANCH  54  68
ATOM     68  C   UNL A   1      40.365  33.826  38.202  1.00  0.00     0.057 A 
ATOM     69  C   UNL A   1      39.582  33.545  39.330  1.00  0.00     0.134 A 
ATOM     70  C   UNL A   1      41.193  34.955  38.259  1.00  0.00     0.134 A 
ATOM     71  F   UNL A   1      38.757  32.487  39.338  1.00  0.00    -0.206 F 
ATOM     72  C   UNL A   1      39.598  34.370  40.456  1.00  0.00     0.040 A 
ATOM     73  C   UNL A   1      41.241  35.771  39.391  1.00  0.00     0.040 A 
ATOM     74  F   UNL A   1      41.973  35.282  37.217  1.00  0.00    -0.206 F 
ATOM     75  C   UNL A   1      40.435  35.483  40.490  1.00  0.00     0.006 A 
ENDBRANCH  54  68
BRANCH  55  76
ATOM     76  C   UNL A   1      40.028  28.389  29.807  1.00  0.00     0.057 A 
ATOM     77  C   UNL A   1      40.744  28.803  28.677  1.00  0.00     0.134 A 
ATOM     78  C   UNL A   1      39.290  27.205  29.703  1.00  0.00     0.134 A 
ATOM     79  F   UNL A   1      41.458  29.938  28.710  1.00  0.00    -0.206 F 
ATOM     80  C   UNL A   1      40.707  28.082  27.484  1.00  0.00     0.040 A 
ATOM     81  C   UNL A   1      39.266  26.458  28.524  1.00  0.00     0.040 A 
ATOM     82  F   UNL A   1      38.591  26.747  30.753  1.00  0.00    -0.206 F 
ATOM     83  C   UNL A   1      39.970  26.902  27.407  1.00  0.00     0.006 A 
ENDBRANCH  55  76
BRANCH  67  84
ATOM     84  C   UNL A   1      44.205  28.408  35.380  1.00  0.00     0.057 A 
ATOM     85  C   UNL A   1      44.073  27.218  36.104  1.00  0.00     0.134 A 
ATOM     86  C   UNL A   1      45.493  28.779  34.972  1.00  0.00     0.134 A 
ATOM     87  F   UNL A   1      42.868  26.813  36.536  1.00  0.00    -0.206 F 
ATOM     88  C   UNL A   1      45.183  26.438  36.432  1.00  0.00     0.040 A 
ATOM     89  C   UNL A   1      46.606  27.992  35.268  1.00  0.00     0.040 A 
ATOM     90  F   UNL A   1      45.688  29.903  34.266  1.00  0.00    -0.206 F 
ATOM     91  C   UNL A   1      46.453  26.821  36.006  1.00  0.00     0.006 A 
ENDBRANCH  67  84
ENDBRANCH  41  42
ENDBRANCH  33  36
ENDBRANCH  31  32
ENDBRANCH  30  31
ENDBRANCH  29  30
ENDBRANCH   1  29
TORSDOF 16
ENDMDL
