MODEL 1
REMARK VINA RESULT:     -10.9      0.000      0.000
REMARK SMILES C[C@@H](Oc1cncc(C(=O)NCCCCCCNC(=O)c2ccc(-c3c4nc(c(-c5c(F)cccc5F)c5ccc([nH]5)c(-c5c(F)cccc5F)c5nc(c(-c6c(F)cccc6F)c6ccc3[nH]6)C=C5)C=C4)cc2)n1)C(F)(F)F
REMARK SMILES IDX 14 1 13 2 12 3 11 4 9 5 10 6 8 8 4 9 5 10 75 11 6 12 7 13
REMARK SMILES IDX 3 14 2 15 1 16 76 17 77 18 78 19 79 20 15 21 16 22 17 23
REMARK SMILES IDX 18 24 19 25 20 27 21 28 22 29 74 30 23 31 73 32 24 33 25 34
REMARK SMILES IDX 26 35 67 36 27 37 72 38 66 39 68 40 28 41 71 42 65 43 64 44
REMARK SMILES IDX 29 46 55 47 38 48 54 49 39 50 42 51 53 52 69 53 40 54 41 55
REMARK SMILES IDX 52 57 70 58 43 59 30 60 31 61 36 62 32 63 33 64 35 65 37 66
REMARK SMILES IDX 34 67 56 68 57 69 62 70 58 71 59 72 61 73 63 74 60 75 44 76
REMARK SMILES IDX 45 77 50 78 46 79 47 80 49 81 51 82 48 83
REMARK H PARENT 11 7 18 26 68 45 42 56
REMARK Flexibility Score: inf
ROOT
ATOM      1  C   UNL A   1      32.085  29.369  27.226  1.00  0.00     0.002 C 
ENDROOT
BRANCH   1   2
ATOM      2  C   UNL A   1      33.095  28.297  26.797  1.00  0.00     0.021 C 
BRANCH   2   3
ATOM      3  C   UNL A   1      33.638  28.489  25.382  1.00  0.00     0.116 C 
BRANCH   3   4
ATOM      4  N   UNL A   1      33.569  27.242  24.643  1.00  0.00    -0.351 N 
ATOM      5  C   UNL A   1      32.531  26.607  24.008  1.00  0.00     0.271 C 
ATOM      6  O   UNL A   1      32.757  25.483  23.551  1.00  0.00    -0.267 OA
ATOM      7  H   UNL A   1      34.427  26.763  24.587  1.00  0.00     0.163 HD
BRANCH   5   8
ATOM      8  C   UNL A   1      31.185  27.216  23.802  1.00  0.00     0.150 A 
ATOM      9  C   UNL A   1      29.799  28.858  23.004  1.00  0.00     0.233 A 
ATOM     10  C   UNL A   1      28.704  28.023  23.190  1.00  0.00     0.179 A 
ATOM     11  N   UNL A   1      31.056  28.473  23.301  1.00  0.00    -0.205 NA
ATOM     12  N   UNL A   1      28.807  26.797  23.749  1.00  0.00    -0.257 NA
ATOM     13  C   UNL A   1      30.075  26.408  24.037  1.00  0.00     0.145 A 
BRANCH   9  14
ATOM     14  O   UNL A   1      29.677  30.025  22.300  1.00  0.00    -0.464 OA
BRANCH  14  15
ATOM     15  C   UNL A   1      28.329  30.539  22.268  1.00  0.00     0.277 C 
ATOM     16  C   UNL A   1      28.010  31.045  20.860  1.00  0.00     0.063 C 
BRANCH  15  17
ATOM     17  C   UNL A   1      28.221  31.704  23.259  1.00  0.00     0.425 C 
ATOM     18  F   UNL A   1      27.009  31.712  23.866  1.00  0.00    -0.167 F 
ATOM     19  F   UNL A   1      29.152  31.617  24.235  1.00  0.00    -0.167 F 
ATOM     20  F   UNL A   1      28.371  32.900  22.646  1.00  0.00    -0.167 F 
ENDBRANCH  15  17
ENDBRANCH  14  15
ENDBRANCH   9  14
ENDBRANCH   5   8
ENDBRANCH   3   4
ENDBRANCH   2   3
ENDBRANCH   1   2
BRANCH   1  21
ATOM     21  C   UNL A   1      31.693  30.367  26.131  1.00  0.00     0.002 C 
BRANCH  21  22
ATOM     22  C   UNL A   1      31.463  31.800  26.616  1.00  0.00     0.021 C 
BRANCH  22  23
ATOM     23  C   UNL A   1      32.690  32.460  27.233  1.00  0.00     0.116 C 
BRANCH  23  24
ATOM     24  N   UNL A   1      32.444  33.851  27.579  1.00  0.00    -0.352 N 
ATOM     25  C   UNL A   1      33.069  34.636  28.512  1.00  0.00     0.251 C 
ATOM     26  H   UNL A   1      31.725  34.292  27.071  1.00  0.00     0.163 HD
ATOM     27  O   UNL A   1      32.599  35.730  28.819  1.00  0.00    -0.269 OA
BRANCH  25  28
ATOM     28  C   UNL A   1      34.305  34.157  29.166  1.00  0.00     0.039 A 
ATOM     29  C   UNL A   1      34.201  33.408  30.341  1.00  0.00     0.014 A 
ATOM     30  C   UNL A   1      35.560  34.446  28.625  1.00  0.00     0.014 A 
ATOM     31  C   UNL A   1      35.355  32.900  30.941  1.00  0.00     0.010 A 
ATOM     32  C   UNL A   1      36.702  33.875  29.180  1.00  0.00     0.010 A 
ATOM     33  C   UNL A   1      36.611  33.101  30.346  1.00  0.00    -0.014 A 
BRANCH  33  34
ATOM     34  C   UNL A   1      37.840  32.505  30.928  1.00  0.00     0.031 A 
ATOM     35  C   UNL A   1      38.447  31.272  30.317  1.00  0.00     0.074 A 
ATOM     36  C   UNL A   1      38.377  33.040  32.041  1.00  0.00     0.049 A 
ATOM     37  N   UNL A   1      39.476  30.570  30.719  1.00  0.00    -0.248 NA
ATOM     38  C   UNL A   1      37.795  30.742  29.108  1.00  0.00     0.031 C 
ATOM     39  C   UNL A   1      37.855  34.207  32.756  1.00  0.00     0.029 A 
ATOM     40  N   UNL A   1      39.474  32.667  32.776  1.00  0.00    -0.354 N 
ATOM     41  C   UNL A   1      39.592  29.518  29.819  1.00  0.00     0.074 A 
ATOM     42  C   UNL A   1      38.492  29.637  28.887  1.00  0.00     0.031 C 
ATOM     43  C   UNL A   1      38.641  34.464  33.813  1.00  0.00     0.029 A 
ATOM     44  C   UNL A   1      39.697  33.458  33.876  1.00  0.00     0.049 A 
ATOM     45  H   UNL A   1      40.049  31.903  32.536  1.00  0.00     0.167 HD
ATOM     46  C   UNL A   1      40.543  28.556  29.759  1.00  0.00     0.037 A 
ATOM     47  C   UNL A   1      40.638  33.375  34.836  1.00  0.00     0.037 A 
ATOM     48  C   UNL A   1      41.642  28.447  30.683  1.00  0.00     0.049 A 
ATOM     49  C   UNL A   1      41.668  32.283  34.760  1.00  0.00     0.074 A 
ATOM     50  C   UNL A   1      42.681  27.532  30.682  1.00  0.00     0.029 A 
ATOM     51  N   UNL A   1      41.841  29.277  31.776  1.00  0.00    -0.354 N 
ATOM     52  N   UNL A   1      41.804  31.334  33.867  1.00  0.00    -0.248 NA
ATOM     53  C   UNL A   1      42.684  32.256  35.823  1.00  0.00     0.031 C 
ATOM     54  C   UNL A   1      43.481  27.778  31.802  1.00  0.00     0.029 A 
ATOM     55  C   UNL A   1      42.974  28.882  32.469  1.00  0.00     0.049 A 
ATOM     56  H   UNL A   1      41.263  30.035  32.023  1.00  0.00     0.167 HD
ATOM     57  C   UNL A   1      42.932  30.615  34.241  1.00  0.00     0.074 A 
ATOM     58  C   UNL A   1      43.454  31.251  35.433  1.00  0.00     0.031 C 
ATOM     59  C   UNL A   1      43.486  29.528  33.651  1.00  0.00     0.037 A 
BRANCH  46  60
ATOM     60  C   UNL A   1      40.439  27.547  28.651  1.00  0.00     0.057 A 
ATOM     61  C   UNL A   1      39.626  26.410  28.762  1.00  0.00     0.134 A 
ATOM     62  C   UNL A   1      41.127  27.730  27.445  1.00  0.00     0.134 A 
ATOM     63  F   UNL A   1      38.948  26.168  29.894  1.00  0.00    -0.206 F 
ATOM     64  C   UNL A   1      39.523  25.480  27.726  1.00  0.00     0.040 A 
ATOM     65  C   UNL A   1      41.008  26.824  26.391  1.00  0.00     0.040 A 
ATOM     66  F   UNL A   1      41.918  28.800  27.267  1.00  0.00    -0.206 F 
ATOM     67  C   UNL A   1      40.209  25.691  26.533  1.00  0.00     0.006 A 
ENDBRANCH  46  60
BRANCH  47  68
ATOM     68  C   UNL A   1      40.653  34.359  35.949  1.00  0.00     0.057 A 
ATOM     69  C   UNL A   1      39.951  34.122  37.137  1.00  0.00     0.134 A 
ATOM     70  C   UNL A   1      41.355  35.566  35.848  1.00  0.00     0.134 A 
ATOM     71  F   UNL A   1      39.243  32.992  37.289  1.00  0.00    -0.206 F 
ATOM     72  C   UNL A   1      39.925  35.058  38.172  1.00  0.00     0.040 A 
ATOM     73  C   UNL A   1      41.363  36.499  36.887  1.00  0.00     0.040 A 
ATOM     74  F   UNL A   1      42.055  35.851  34.740  1.00  0.00    -0.206 F 
ATOM     75  C   UNL A   1      40.638  36.250  38.049  1.00  0.00     0.006 A 
ENDBRANCH  47  68
BRANCH  59  76
ATOM     76  C   UNL A   1      44.743  28.978  34.263  1.00  0.00     0.057 A 
ATOM     77  C   UNL A   1      44.716  27.966  35.230  1.00  0.00     0.134 A 
ATOM     78  C   UNL A   1      45.997  29.443  33.848  1.00  0.00     0.134 A 
ATOM     79  F   UNL A   1      43.547  27.486  35.680  1.00  0.00    -0.206 F 
ATOM     80  C   UNL A   1      45.891  27.454  35.783  1.00  0.00     0.040 A 
ATOM     81  C   UNL A   1      47.180  28.918  34.370  1.00  0.00     0.040 A 
ATOM     82  F   UNL A   1      46.095  30.404  32.917  1.00  0.00    -0.206 F 
ATOM     83  C   UNL A   1      47.129  27.924  35.346  1.00  0.00     0.006 A 
ENDBRANCH  59  76
ENDBRANCH  33  34
ENDBRANCH  25  28
ENDBRANCH  23  24
ENDBRANCH  22  23
ENDBRANCH  21  22
ENDBRANCH   1  21
TORSDOF 16
ENDMDL
MODEL 2
REMARK VINA RESULT:     -10.8      0.937      6.334
REMARK SMILES C[C@@H](Oc1cncc(C(=O)NCCCCCCNC(=O)c2ccc(-c3c4nc(c(-c5c(F)cccc5F)c5ccc([nH]5)c(-c5c(F)cccc5F)c5nc(c(-c6c(F)cccc6F)c6ccc3[nH]6)C=C5)C=C4)cc2)n1)C(F)(F)F
REMARK SMILES IDX 14 1 13 2 12 3 11 4 9 5 10 6 8 8 4 9 5 10 75 11 6 12 7 13
REMARK SMILES IDX 3 14 2 15 1 16 76 17 77 18 78 19 79 20 15 21 16 22 17 23
REMARK SMILES IDX 18 24 19 25 20 27 21 28 22 29 74 30 23 31 73 32 24 33 25 34
REMARK SMILES IDX 26 35 67 36 27 37 72 38 66 39 68 40 28 41 71 42 65 43 64 44
REMARK SMILES IDX 29 46 55 47 38 48 54 49 39 50 42 51 53 52 69 53 40 54 41 55
REMARK SMILES IDX 52 57 70 58 43 59 30 60 31 61 36 62 32 63 33 64 35 65 37 66
REMARK SMILES IDX 34 67 56 68 57 69 62 70 58 71 59 72 61 73 63 74 60 75 44 76
REMARK SMILES IDX 45 77 50 78 46 79 47 80 49 81 51 82 48 83
REMARK H PARENT 11 7 18 26 68 45 42 56
REMARK Flexibility Score: inf
ROOT
ATOM      1  C   UNL A   1      32.715  29.879  25.572  1.00  0.00     0.002 C 
ENDROOT
BRANCH   1   2
ATOM      2  C   UNL A   1      33.482  28.770  26.304  1.00  0.00     0.021 C 
BRANCH   2   3
ATOM      3  C   UNL A   1      32.686  27.477  26.477  1.00  0.00     0.116 C 
BRANCH   3   4
ATOM      4  N   UNL A   1      32.887  26.605  25.335  1.00  0.00    -0.351 N 
ATOM      5  C   UNL A   1      32.081  26.286  24.271  1.00  0.00     0.271 C 
ATOM      6  O   UNL A   1      32.489  25.413  23.500  1.00  0.00    -0.267 OA
ATOM      7  H   UNL A   1      33.764  26.160  25.321  1.00  0.00     0.163 HD
BRANCH   5   8
ATOM      8  C   UNL A   1      30.784  26.963  23.976  1.00  0.00     0.150 A 
ATOM      9  C   UNL A   1      29.535  28.627  23.015  1.00  0.00     0.233 A 
ATOM     10  C   UNL A   1      28.382  27.882  23.226  1.00  0.00     0.179 A 
ATOM     11  N   UNL A   1      30.755  28.186  23.381  1.00  0.00    -0.205 NA
ATOM     12  N   UNL A   1      28.386  26.697  23.876  1.00  0.00    -0.257 NA
ATOM     13  C   UNL A   1      29.617  26.249  24.233  1.00  0.00     0.145 A 
BRANCH   9  14
ATOM     14  O   UNL A   1      29.511  29.743  22.223  1.00  0.00    -0.464 OA
BRANCH  14  15
ATOM     15  C   UNL A   1      28.235  30.417  22.218  1.00  0.00     0.277 C 
ATOM     16  C   UNL A   1      28.028  31.104  20.866  1.00  0.00     0.063 C 
BRANCH  15  17
ATOM     17  C   UNL A   1      28.231  31.475  23.327  1.00  0.00     0.425 C 
ATOM     18  F   UNL A   1      27.277  31.203  24.251  1.00  0.00    -0.167 F 
ATOM     19  F   UNL A   1      29.414  31.519  23.980  1.00  0.00    -0.167 F 
ATOM     20  F   UNL A   1      27.978  32.712  22.842  1.00  0.00    -0.167 F 
ENDBRANCH  15  17
ENDBRANCH  14  15
ENDBRANCH   9  14
ENDBRANCH   5   8
ENDBRANCH   3   4
ENDBRANCH   2   3
ENDBRANCH   1   2
BRANCH   1  21
ATOM     21  C   UNL A   1      31.455  30.378  26.289  1.00  0.00     0.002 C 
BRANCH  21  22
ATOM     22  C   UNL A   1      31.389  31.892  26.501  1.00  0.00     0.021 C 
BRANCH  22  23
ATOM     23  C   UNL A   1      32.708  32.526  26.927  1.00  0.00     0.116 C 
BRANCH  23  24
ATOM     24  N   UNL A   1      32.528  33.887  27.408  1.00  0.00    -0.352 N 
ATOM     25  C   UNL A   1      33.135  34.522  28.459  1.00  0.00     0.251 C 
ATOM     26  H   UNL A   1      31.877  34.429  26.906  1.00  0.00     0.163 HD
ATOM     27  O   UNL A   1      32.716  35.609  28.854  1.00  0.00    -0.269 OA
BRANCH  25  28
ATOM     28  C   UNL A   1      34.287  33.889  29.134  1.00  0.00     0.039 A 
ATOM     29  C   UNL A   1      34.050  32.976  30.163  1.00  0.00     0.014 A 
ATOM     30  C   UNL A   1      35.597  34.197  28.754  1.00  0.00     0.014 A 
ATOM     31  C   UNL A   1      35.125  32.328  30.773  1.00  0.00     0.010 A 
ATOM     32  C   UNL A   1      36.662  33.494  29.309  1.00  0.00     0.010 A 
ATOM     33  C   UNL A   1      36.437  32.556  30.327  1.00  0.00    -0.014 A 
BRANCH  33  34
ATOM     34  C   UNL A   1      37.586  31.819  30.913  1.00  0.00     0.031 A 
ATOM     35  C   UNL A   1      38.090  32.168  32.286  1.00  0.00     0.074 A 
ATOM     36  C   UNL A   1      38.211  30.872  30.185  1.00  0.00     0.049 A 
ATOM     37  N   UNL A   1      39.116  31.685  32.938  1.00  0.00    -0.248 NA
ATOM     38  C   UNL A   1      37.359  33.220  33.012  1.00  0.00     0.031 C 
ATOM     39  C   UNL A   1      37.847  30.475  28.824  1.00  0.00     0.029 A 
ATOM     40  N   UNL A   1      39.292  30.082  30.483  1.00  0.00    -0.354 N 
ATOM     41  C   UNL A   1      39.156  32.372  34.144  1.00  0.00     0.074 A 
ATOM     42  C   UNL A   1      38.091  33.351  34.108  1.00  0.00     0.031 C 
ATOM     43  C   UNL A   1      38.677  29.504  28.412  1.00  0.00     0.029 A 
ATOM     44  C   UNL A   1      39.656  29.239  29.462  1.00  0.00     0.049 A 
ATOM     45  H   UNL A   1      39.761  30.115  31.349  1.00  0.00     0.167 HD
ATOM     46  C   UNL A   1      39.989  32.188  35.197  1.00  0.00     0.037 A 
ATOM     47  C   UNL A   1      40.674  28.361  29.375  1.00  0.00     0.037 A 
ATOM     48  C   UNL A   1      41.041  31.207  35.233  1.00  0.00     0.049 A 
ATOM     49  C   UNL A   1      41.599  28.192  30.548  1.00  0.00     0.074 A 
ATOM     50  C   UNL A   1      41.912  30.915  36.269  1.00  0.00     0.029 A 
ATOM     51  N   UNL A   1      41.370  30.362  34.183  1.00  0.00    -0.354 N 
ATOM     52  N   UNL A   1      41.585  28.804  31.708  1.00  0.00    -0.248 NA
ATOM     53  C   UNL A   1      42.677  27.203  30.405  1.00  0.00     0.031 C 
ATOM     54  C   UNL A   1      42.799  29.928  35.828  1.00  0.00     0.029 A 
ATOM     55  C   UNL A   1      42.445  29.563  34.540  1.00  0.00     0.049 A 
ATOM     56  H   UNL A   1      40.908  30.334  33.314  1.00  0.00     0.167 HD
ATOM     57  C   UNL A   1      42.630  28.257  32.440  1.00  0.00     0.074 A 
ATOM     58  C   UNL A   1      43.245  27.250  31.601  1.00  0.00     0.031 C 
ATOM     59  C   UNL A   1      43.043  28.560  33.695  1.00  0.00     0.037 A 
BRANCH  46  60
ATOM     60  C   UNL A   1      39.788  33.065  36.400  1.00  0.00     0.057 A 
ATOM     61  C   UNL A   1      40.480  34.274  36.556  1.00  0.00     0.134 A 
ATOM     62  C   UNL A   1      38.867  32.718  37.397  1.00  0.00     0.134 A 
ATOM     63  F   UNL A   1      41.384  34.662  35.644  1.00  0.00    -0.206 F 
ATOM     64  C   UNL A   1      40.283  35.092  37.670  1.00  0.00     0.040 A 
ATOM     65  C   UNL A   1      38.640  33.542  38.500  1.00  0.00     0.040 A 
ATOM     66  F   UNL A   1      38.165  31.577  37.309  1.00  0.00    -0.206 F 
ATOM     67  C   UNL A   1      39.354  34.730  38.642  1.00  0.00     0.006 A 
ENDBRANCH  46  60
BRANCH  47  68
ATOM     68  C   UNL A   1      40.869  27.568  28.134  1.00  0.00     0.057 A 
ATOM     69  C   UNL A   1      41.650  28.053  27.077  1.00  0.00     0.134 A 
ATOM     70  C   UNL A   1      40.266  26.316  27.965  1.00  0.00     0.134 A 
ATOM     71  F   UNL A   1      42.239  29.255  27.171  1.00  0.00    -0.206 F 
ATOM     72  C   UNL A   1      41.805  27.335  25.891  1.00  0.00     0.040 A 
ATOM     73  C   UNL A   1      40.436  25.572  26.796  1.00  0.00     0.040 A 
ATOM     74  F   UNL A   1      39.511  25.790  28.941  1.00  0.00    -0.206 F 
ATOM     75  C   UNL A   1      41.199  26.087  25.751  1.00  0.00     0.006 A 
ENDBRANCH  47  68
BRANCH  59  76
ATOM     76  C   UNL A   1      44.191  27.768  34.252  1.00  0.00     0.057 A 
ATOM     77  C   UNL A   1      44.003  26.539  34.897  1.00  0.00     0.134 A 
ATOM     78  C   UNL A   1      45.507  28.225  34.106  1.00  0.00     0.134 A 
ATOM     79  F   UNL A   1      42.766  26.050  35.080  1.00  0.00    -0.206 F 
ATOM     80  C   UNL A   1      45.078  25.805  35.399  1.00  0.00     0.040 A 
ATOM     81  C   UNL A   1      46.594  27.486  34.577  1.00  0.00     0.040 A 
ATOM     82  F   UNL A   1      45.760  29.389  33.489  1.00  0.00    -0.206 F 
ATOM     83  C   UNL A   1      46.380  26.275  35.232  1.00  0.00     0.006 A 
ENDBRANCH  59  76
ENDBRANCH  33  34
ENDBRANCH  25  28
ENDBRANCH  23  24
ENDBRANCH  22  23
ENDBRANCH  21  22
ENDBRANCH   1  21
TORSDOF 16
ENDMDL
MODEL 3
REMARK VINA RESULT:     -10.8      6.139     10.460
REMARK SMILES C[C@@H](Oc1cncc(C(=O)NCCCCCCNC(=O)c2ccc(-c3c4nc(c(-c5c(F)cccc5F)c5ccc([nH]5)c(-c5c(F)cccc5F)c5nc(c(-c6c(F)cccc6F)c6ccc3[nH]6)C=C5)C=C4)cc2)n1)C(F)(F)F
REMARK SMILES IDX 14 1 13 2 12 3 11 4 9 5 10 6 8 8 4 9 5 10 75 11 6 12 7 13
REMARK SMILES IDX 3 14 2 15 1 16 76 17 77 18 78 19 79 20 15 21 16 22 17 23
REMARK SMILES IDX 18 24 19 25 20 27 21 28 22 29 74 30 23 31 73 32 24 33 25 34
REMARK SMILES IDX 26 35 67 36 27 37 72 38 66 39 68 40 28 41 71 42 65 43 64 44
REMARK SMILES IDX 29 46 55 47 38 48 54 49 39 50 42 51 53 52 69 53 40 54 41 55
REMARK SMILES IDX 52 57 70 58 43 59 30 60 31 61 36 62 32 63 33 64 35 65 37 66
REMARK SMILES IDX 34 67 56 68 57 69 62 70 58 71 59 72 61 73 63 74 60 75 44 76
REMARK SMILES IDX 45 77 50 78 46 79 47 80 49 81 51 82 48 83
REMARK H PARENT 11 7 18 26 68 45 42 56
REMARK Flexibility Score: inf
ROOT
ATOM      1  C   UNL A   1      37.422  22.116  25.352  1.00  0.00     0.002 C 
ENDROOT
BRANCH   1   2
ATOM      2  C   UNL A   1      37.042  23.359  24.537  1.00  0.00     0.021 C 
BRANCH   2   3
ATOM      3  C   UNL A   1      35.681  23.258  23.850  1.00  0.00     0.116 C 
BRANCH   3   4
ATOM      4  N   UNL A   1      34.615  23.469  24.812  1.00  0.00    -0.351 N 
ATOM      5  C   UNL A   1      33.484  22.746  25.101  1.00  0.00     0.271 C 
ATOM      6  O   UNL A   1      32.694  23.242  25.909  1.00  0.00    -0.267 OA
ATOM      7  H   UNL A   1      34.723  24.280  25.358  1.00  0.00     0.163 HD
BRANCH   5   8
ATOM      8  C   UNL A   1      33.192  21.396  24.539  1.00  0.00     0.150 A 
ATOM      9  C   UNL A   1      32.962  19.124  24.728  1.00  0.00     0.233 A 
ATOM     10  C   UNL A   1      32.309  19.088  23.503  1.00  0.00     0.179 A 
ATOM     11  N   UNL A   1      33.412  20.272  25.271  1.00  0.00    -0.205 NA
ATOM     12  N   UNL A   1      32.142  20.186  22.731  1.00  0.00    -0.257 NA
ATOM     13  C   UNL A   1      32.587  21.343  23.286  1.00  0.00     0.145 A 
BRANCH   9  14
ATOM     14  O   UNL A   1      32.976  18.025  25.545  1.00  0.00    -0.464 OA
BRANCH  14  15
ATOM     15  C   UNL A   1      32.994  16.775  24.825  1.00  0.00     0.277 C 
ATOM     16  C   UNL A   1      32.528  15.648  25.750  1.00  0.00     0.063 C 
BRANCH  15  17
ATOM     17  C   UNL A   1      34.430  16.489  24.367  1.00  0.00     0.425 C 
ATOM     18  F   UNL A   1      34.468  16.213  23.041  1.00  0.00    -0.167 F 
ATOM     19  F   UNL A   1      35.240  17.551  24.575  1.00  0.00    -0.167 F 
ATOM     20  F   UNL A   1      34.961  15.427  25.014  1.00  0.00    -0.167 F 
ENDBRANCH  15  17
ENDBRANCH  14  15
ENDBRANCH   9  14
ENDBRANCH   5   8
ENDBRANCH   3   4
ENDBRANCH   2   3
ENDBRANCH   1   2
BRANCH   1  21
ATOM     21  C   UNL A   1      37.057  20.777  24.700  1.00  0.00     0.002 C 
BRANCH  21  22
ATOM     22  C   UNL A   1      38.037  19.635  24.978  1.00  0.00     0.021 C 
BRANCH  22  23
ATOM     23  C   UNL A   1      39.090  19.953  26.033  1.00  0.00     0.116 C 
BRANCH  23  24
ATOM     24  N   UNL A   1      40.191  19.003  26.007  1.00  0.00    -0.352 N 
ATOM     25  C   UNL A   1      41.540  19.237  26.068  1.00  0.00     0.251 C 
ATOM     26  H   UNL A   1      39.930  18.056  25.934  1.00  0.00     0.163 HD
ATOM     27  O   UNL A   1      42.339  18.334  25.826  1.00  0.00    -0.269 OA
BRANCH  25  28
ATOM     28  C   UNL A   1      42.036  20.587  26.408  1.00  0.00     0.039 A 
ATOM     29  C   UNL A   1      42.286  21.495  25.377  1.00  0.00     0.014 A 
ATOM     30  C   UNL A   1      42.257  20.954  27.738  1.00  0.00     0.014 A 
ATOM     31  C   UNL A   1      42.701  22.792  25.683  1.00  0.00     0.010 A 
ATOM     32  C   UNL A   1      42.596  22.269  28.046  1.00  0.00     0.010 A 
ATOM     33  C   UNL A   1      42.827  23.199  27.021  1.00  0.00    -0.014 A 
BRANCH  33  34
ATOM     34  C   UNL A   1      43.194  24.596  27.367  1.00  0.00     0.031 A 
ATOM     35  C   UNL A   1      44.634  25.030  27.338  1.00  0.00     0.074 A 
ATOM     36  C   UNL A   1      42.237  25.458  27.762  1.00  0.00     0.049 A 
ATOM     37  N   UNL A   1      45.157  26.183  27.668  1.00  0.00    -0.248 NA
ATOM     38  C   UNL A   1      45.620  24.026  26.905  1.00  0.00     0.031 C 
ATOM     39  C   UNL A   1      40.812  25.145  27.877  1.00  0.00     0.029 A 
ATOM     40  N   UNL A   1      42.320  26.771  28.152  1.00  0.00    -0.354 N 
ATOM     41  C   UNL A   1      46.527  26.043  27.487  1.00  0.00     0.074 A 
ATOM     42  C   UNL A   1      46.761  24.675  27.079  1.00  0.00     0.031 C 
ATOM     43  C   UNL A   1      40.153  26.238  28.291  1.00  0.00     0.029 A 
ATOM     44  C   UNL A   1      41.112  27.317  28.510  1.00  0.00     0.049 A 
ATOM     45  H   UNL A   1      43.167  27.274  28.174  1.00  0.00     0.167 HD
ATOM     46  C   UNL A   1      47.499  26.976  27.623  1.00  0.00     0.037 A 
ATOM     47  C   UNL A   1      40.811  28.545  28.975  1.00  0.00     0.037 A 
ATOM     48  C   UNL A   1      47.261  28.340  28.020  1.00  0.00     0.049 A 
ATOM     49  C   UNL A   1      41.912  29.555  29.140  1.00  0.00     0.074 A 
ATOM     50  C   UNL A   1      48.174  29.373  28.147  1.00  0.00     0.029 A 
ATOM     51  N   UNL A   1      46.020  28.859  28.360  1.00  0.00    -0.354 N 
ATOM     52  N   UNL A   1      43.195  29.429  28.904  1.00  0.00    -0.248 NA
ATOM     53  C   UNL A   1      41.521  30.886  29.630  1.00  0.00     0.031 C 
ATOM     54  C   UNL A   1      47.494  30.503  28.611  1.00  0.00     0.029 A 
ATOM     55  C   UNL A   1      46.147  30.191  28.716  1.00  0.00     0.049 A 
ATOM     56  H   UNL A   1      45.174  28.355  28.348  1.00  0.00     0.167 HD
ATOM     57  C   UNL A   1      43.760  30.665  29.187  1.00  0.00     0.074 A 
ATOM     58  C   UNL A   1      42.676  31.534  29.595  1.00  0.00     0.031 C 
ATOM     59  C   UNL A   1      45.058  31.047  29.115  1.00  0.00     0.037 A 
BRANCH  46  60
ATOM     60  C   UNL A   1      48.911  26.553  27.334  1.00  0.00     0.057 A 
ATOM     61  C   UNL A   1      49.753  26.058  28.339  1.00  0.00     0.134 A 
ATOM     62  C   UNL A   1      49.425  26.605  26.032  1.00  0.00     0.134 A 
ATOM     63  F   UNL A   1      49.329  25.992  29.610  1.00  0.00    -0.206 F 
ATOM     64  C   UNL A   1      51.062  25.656  28.065  1.00  0.00     0.040 A 
ATOM     65  C   UNL A   1      50.720  26.176  25.740  1.00  0.00     0.040 A 
ATOM     66  F   UNL A   1      48.671  27.061  25.020  1.00  0.00    -0.206 F 
ATOM     67  C   UNL A   1      51.545  25.706  26.760  1.00  0.00     0.006 A 
ENDBRANCH  46  60
BRANCH  47  68
ATOM     68  C   UNL A   1      39.406  28.889  29.312  1.00  0.00     0.057 A 
ATOM     69  C   UNL A   1      38.545  29.444  28.358  1.00  0.00     0.134 A 
ATOM     70  C   UNL A   1      38.894  28.689  30.600  1.00  0.00     0.134 A 
ATOM     71  F   UNL A   1      38.981  29.678  27.110  1.00  0.00    -0.206 F 
ATOM     72  C   UNL A   1      37.237  29.809  28.676  1.00  0.00     0.040 A 
ATOM     73  C   UNL A   1      37.578  29.022  30.925  1.00  0.00     0.040 A 
ATOM     74  F   UNL A   1      39.664  28.153  31.559  1.00  0.00    -0.206 F 
ATOM     75  C   UNL A   1      36.749  29.593  29.964  1.00  0.00     0.006 A 
ENDBRANCH  47  68
BRANCH  59  76
ATOM     76  C   UNL A   1      45.375  32.477  29.449  1.00  0.00     0.057 A 
ATOM     77  C   UNL A   1      45.322  33.493  28.487  1.00  0.00     0.134 A 
ATOM     78  C   UNL A   1      45.700  32.845  30.760  1.00  0.00     0.134 A 
ATOM     79  F   UNL A   1      45.028  33.206  27.209  1.00  0.00    -0.206 F 
ATOM     80  C   UNL A   1      45.605  34.821  28.811  1.00  0.00     0.040 A 
ATOM     81  C   UNL A   1      45.956  34.173  31.104  1.00  0.00     0.040 A 
ATOM     82  F   UNL A   1      45.758  31.923  31.734  1.00  0.00    -0.206 F 
ATOM     83  C   UNL A   1      45.916  35.165  30.126  1.00  0.00     0.006 A 
ENDBRANCH  59  76
ENDBRANCH  33  34
ENDBRANCH  25  28
ENDBRANCH  23  24
ENDBRANCH  22  23
ENDBRANCH  21  22
ENDBRANCH   1  21
TORSDOF 16
ENDMDL
