MODEL 1
REMARK VINA RESULT:     -11.0      0.000      0.000
REMARK SMILES COc1cc(/C=C/C(=O)NCCCCCCNC(=O)c2ccc(-c3c4nc(c(-c5c(F)cccc5F)c5ccc([nH]5)c(-c5c(F)cccc5F)c5nc(c(-c6c(F)cccc6F)c6ccc3[nH]6)C=C5)C=C4)cc2)cc(OC)c1O
REMARK SMILES IDX 13 1 12 2 11 3 10 4 8 5 9 6 7 8 6 9 5 10 3 11 4 12 78 13
REMARK SMILES IDX 75 14 74 15 2 16 1 17 79 18 76 20 77 21 14 22 15 23 16 24
REMARK SMILES IDX 17 25 18 26 19 28 20 29 21 30 73 31 22 32 72 33 23 34 24 35
REMARK SMILES IDX 25 36 66 37 26 38 71 39 65 40 67 41 27 42 70 43 64 44 63 45
REMARK SMILES IDX 28 47 54 48 37 49 53 50 38 51 41 52 52 53 68 54 39 55 40 56
REMARK SMILES IDX 51 58 69 59 42 60 29 61 30 62 35 63 31 64 32 65 34 66 36 67
REMARK SMILES IDX 33 68 55 69 56 70 61 71 57 72 58 73 60 74 62 75 59 76 43 77
REMARK SMILES IDX 44 78 49 79 45 80 46 81 48 82 50 83 47 84
REMARK H PARENT 10 7 79 19 17 27 67 46 41 57
REMARK Flexibility Score: inf
ROOT
ATOM      1  C   UNL A   1      35.289  20.514  25.132  1.00  0.00     0.002 C 
ENDROOT
BRANCH   1   2
ATOM      2  C   UNL A   1      34.178  21.338  24.466  1.00  0.00     0.021 C 
BRANCH   2   3
ATOM      3  C   UNL A   1      32.774  20.927  24.911  1.00  0.00     0.116 C 
BRANCH   3   4
ATOM      4  N   UNL A   1      32.538  21.370  26.271  1.00  0.00    -0.353 N 
ATOM      5  C   UNL A   1      32.508  22.607  26.823  1.00  0.00     0.243 C 
ATOM      6  O   UNL A   1      32.264  22.724  28.023  1.00  0.00    -0.270 OA
ATOM      7  H   UNL A   1      32.369  20.638  26.909  1.00  0.00     0.163 HD
BRANCH   5   8
ATOM      8  C   UNL A   1      32.655  23.829  26.001  1.00  0.00     0.072 C 
ATOM      9  C   UNL A   1      33.531  24.824  26.206  1.00  0.00     0.014 C 
BRANCH   9  10
ATOM     10  C   UNL A   1      33.629  26.012  25.345  1.00  0.00    -0.018 A 
ATOM     11  C   UNL A   1      33.688  27.070  23.145  1.00  0.00     0.165 A 
ATOM     12  C   UNL A   1      33.672  25.924  23.953  1.00  0.00     0.058 A 
ATOM     13  C   UNL A   1      33.649  28.336  23.751  1.00  0.00     0.200 A 
ATOM     14  C   UNL A   1      33.624  28.448  25.151  1.00  0.00     0.165 A 
ATOM     15  C   UNL A   1      33.611  27.281  25.930  1.00  0.00     0.058 A 
BRANCH  11  16
ATOM     16  O   UNL A   1      33.720  26.750  21.815  1.00  0.00    -0.493 OA
ATOM     17  C   UNL A   1      32.654  26.024  21.228  1.00  0.00     0.278 C 
ENDBRANCH  11  16
BRANCH  13  18
ATOM     18  O   UNL A   1      33.590  29.466  22.985  1.00  0.00    -0.502 OA
ATOM     19  H   UNL A   1      32.806  29.979  22.968  1.00  0.00     0.293 HD
ENDBRANCH  13  18
BRANCH  14  20
ATOM     20  O   UNL A   1      33.581  29.581  25.921  1.00  0.00    -0.493 OA
ATOM     21  C   UNL A   1      33.946  29.502  27.290  1.00  0.00     0.278 C 
ENDBRANCH  14  20
ENDBRANCH   9  10
ENDBRANCH   5   8
ENDBRANCH   3   4
ENDBRANCH   2   3
ENDBRANCH   1   2
BRANCH   1  22
ATOM     22  C   UNL A   1      36.689  21.137  25.045  1.00  0.00     0.002 C 
BRANCH  22  23
ATOM     23  C   UNL A   1      37.831  20.128  24.900  1.00  0.00     0.021 C 
BRANCH  23  24
ATOM     24  C   UNL A   1      39.082  20.491  25.693  1.00  0.00     0.116 C 
BRANCH  24  25
ATOM     25  N   UNL A   1      39.967  19.346  25.853  1.00  0.00    -0.352 N 
ATOM     26  C   UNL A   1      41.321  19.318  26.075  1.00  0.00     0.251 C 
ATOM     27  H   UNL A   1      39.531  18.465  25.792  1.00  0.00     0.163 HD
ATOM     28  O   UNL A   1      41.956  18.281  25.940  1.00  0.00    -0.269 OA
BRANCH  26  29
ATOM     29  C   UNL A   1      42.011  20.564  26.465  1.00  0.00     0.039 A 
ATOM     30  C   UNL A   1      42.557  21.380  25.473  1.00  0.00     0.014 A 
ATOM     31  C   UNL A   1      42.095  20.931  27.811  1.00  0.00     0.014 A 
ATOM     32  C   UNL A   1      43.118  22.610  25.825  1.00  0.00     0.010 A 
ATOM     33  C   UNL A   1      42.589  22.184  28.153  1.00  0.00     0.010 A 
ATOM     34  C   UNL A   1      43.093  23.040  27.161  1.00  0.00    -0.014 A 
BRANCH  34  35
ATOM     35  C   UNL A   1      43.547  24.399  27.547  1.00  0.00     0.031 A 
ATOM     36  C   UNL A   1      42.549  25.447  27.947  1.00  0.00     0.074 A 
ATOM     37  C   UNL A   1      44.854  24.711  27.445  1.00  0.00     0.049 A 
ATOM     38  N   UNL A   1      42.739  26.716  28.200  1.00  0.00    -0.248 NA
ATOM     39  C   UNL A   1      41.146  25.016  28.050  1.00  0.00     0.031 C 
ATOM     40  C   UNL A   1      45.914  23.789  27.033  1.00  0.00     0.029 A 
ATOM     41  N   UNL A   1      45.511  25.897  27.658  1.00  0.00    -0.354 N 
ATOM     42  C   UNL A   1      41.484  27.236  28.484  1.00  0.00     0.074 A 
ATOM     43  C   UNL A   1      40.532  26.158  28.322  1.00  0.00     0.031 C 
ATOM     44  C   UNL A   1      47.088  24.439  27.038  1.00  0.00     0.029 A 
ATOM     45  C   UNL A   1      46.859  25.833  27.400  1.00  0.00     0.049 A 
ATOM     46  H   UNL A   1      45.059  26.716  27.967  1.00  0.00     0.167 HD
ATOM     47  C   UNL A   1      41.158  28.496  28.862  1.00  0.00     0.037 A 
ATOM     48  C   UNL A   1      47.801  26.796  27.429  1.00  0.00     0.037 A 
ATOM     49  C   UNL A   1      42.113  29.561  29.028  1.00  0.00     0.049 A 
ATOM     50  C   UNL A   1      47.405  28.198  27.803  1.00  0.00     0.074 A 
ATOM     51  C   UNL A   1      41.891  30.855  29.464  1.00  0.00     0.029 A 
ATOM     52  N   UNL A   1      43.469  29.458  28.755  1.00  0.00    -0.354 N 
ATOM     53  N   UNL A   1      46.225  28.661  28.136  1.00  0.00    -0.248 NA
ATOM     54  C   UNL A   1      48.469  29.211  27.799  1.00  0.00     0.031 C 
ATOM     55  C   UNL A   1      43.101  31.553  29.397  1.00  0.00     0.029 A 
ATOM     56  C   UNL A   1      44.088  30.677  28.976  1.00  0.00     0.049 A 
ATOM     57  H   UNL A   1      43.924  28.640  28.449  1.00  0.00     0.167 HD
ATOM     58  C   UNL A   1      46.409  30.012  28.405  1.00  0.00     0.074 A 
ATOM     59  C   UNL A   1      47.817  30.289  28.211  1.00  0.00     0.031 C 
ATOM     60  C   UNL A   1      45.493  30.938  28.779  1.00  0.00     0.037 A 
BRANCH  47  61
ATOM     61  C   UNL A   1      39.709  28.792  29.115  1.00  0.00     0.057 A 
ATOM     62  C   UNL A   1      38.852  29.224  28.095  1.00  0.00     0.134 A 
ATOM     63  C   UNL A   1      39.153  28.604  30.388  1.00  0.00     0.134 A 
ATOM     64  F   UNL A   1      39.321  29.433  26.856  1.00  0.00    -0.206 F 
ATOM     65  C   UNL A   1      37.501  29.484  28.335  1.00  0.00     0.040 A 
ATOM     66  C   UNL A   1      37.798  28.832  30.634  1.00  0.00     0.040 A 
ATOM     67  F   UNL A   1      39.914  28.184  31.410  1.00  0.00    -0.206 F 
ATOM     68  C   UNL A   1      36.970  29.280  29.608  1.00  0.00     0.006 A 
ENDBRANCH  47  61
BRANCH  48  69
ATOM     69  C   UNL A   1      49.209  26.469  27.092  1.00  0.00     0.057 A 
ATOM     70  C   UNL A   1      49.694  26.621  25.787  1.00  0.00     0.134 A 
ATOM     71  C   UNL A   1      50.104  25.992  28.059  1.00  0.00     0.134 A 
ATOM     72  F   UNL A   1      48.881  27.056  24.813  1.00  0.00    -0.206 F 
ATOM     73  C   UNL A   1      51.008  26.294  25.452  1.00  0.00     0.040 A 
ATOM     74  C   UNL A   1      51.429  25.688  27.743  1.00  0.00     0.040 A 
ATOM     75  F   UNL A   1      49.705  25.831  29.330  1.00  0.00    -0.206 F 
ATOM     76  C   UNL A   1      51.882  25.831  26.434  1.00  0.00     0.006 A 
ENDBRANCH  48  69
BRANCH  60  77
ATOM     77  C   UNL A   1      45.983  32.335  29.025  1.00  0.00     0.057 A 
ATOM     78  C   UNL A   1      45.946  33.316  28.026  1.00  0.00     0.134 A 
ATOM     79  C   UNL A   1      46.440  32.718  30.293  1.00  0.00     0.134 A 
ATOM     80  F   UNL A   1      45.533  33.011  26.787  1.00  0.00    -0.206 F 
ATOM     81  C   UNL A   1      46.360  34.626  28.277  1.00  0.00     0.040 A 
ATOM     82  C   UNL A   1      46.829  34.031  30.562  1.00  0.00     0.040 A 
ATOM     83  F   UNL A   1      46.493  31.829  31.295  1.00  0.00    -0.206 F 
ATOM     84  C   UNL A   1      46.792  34.988  29.551  1.00  0.00     0.006 A 
ENDBRANCH  60  77
ENDBRANCH  34  35
ENDBRANCH  26  29
ENDBRANCH  24  25
ENDBRANCH  23  24
ENDBRANCH  22  23
ENDBRANCH   1  22
TORSDOF 17
ENDMDL
MODEL 2
REMARK VINA RESULT:     -10.9      1.815      2.468
REMARK SMILES COc1cc(/C=C/C(=O)NCCCCCCNC(=O)c2ccc(-c3c4nc(c(-c5c(F)cccc5F)c5ccc([nH]5)c(-c5c(F)cccc5F)c5nc(c(-c6c(F)cccc6F)c6ccc3[nH]6)C=C5)C=C4)cc2)cc(OC)c1O
REMARK SMILES IDX 13 1 12 2 11 3 10 4 8 5 9 6 7 8 6 9 5 10 3 11 4 12 78 13
REMARK SMILES IDX 75 14 74 15 2 16 1 17 79 18 76 20 77 21 14 22 15 23 16 24
REMARK SMILES IDX 17 25 18 26 19 28 20 29 21 30 73 31 22 32 72 33 23 34 24 35
REMARK SMILES IDX 25 36 66 37 26 38 71 39 65 40 67 41 27 42 70 43 64 44 63 45
REMARK SMILES IDX 28 47 54 48 37 49 53 50 38 51 41 52 52 53 68 54 39 55 40 56
REMARK SMILES IDX 51 58 69 59 42 60 29 61 30 62 35 63 31 64 32 65 34 66 36 67
REMARK SMILES IDX 33 68 55 69 56 70 61 71 57 72 58 73 60 74 62 75 59 76 43 77
REMARK SMILES IDX 44 78 49 79 45 80 46 81 48 82 50 83 47 84
REMARK H PARENT 10 7 79 19 17 27 67 46 41 57
REMARK Flexibility Score: inf
ROOT
ATOM      1  C   UNL A   1      34.618  21.274  24.646  1.00  0.00     0.002 C 
ENDROOT
BRANCH   1   2
ATOM      2  C   UNL A   1      33.346  21.039  25.472  1.00  0.00     0.021 C 
BRANCH   2   3
ATOM      3  C   UNL A   1      32.116  21.742  24.897  1.00  0.00     0.116 C 
BRANCH   3   4
ATOM      4  N   UNL A   1      31.248  22.180  25.973  1.00  0.00    -0.353 N 
ATOM      5  C   UNL A   1      30.731  23.396  26.275  1.00  0.00     0.243 C 
ATOM      6  O   UNL A   1      29.993  23.509  27.251  1.00  0.00    -0.270 OA
ATOM      7  H   UNL A   1      30.989  21.464  26.598  1.00  0.00     0.163 HD
BRANCH   5   8
ATOM      8  C   UNL A   1      30.944  24.571  25.399  1.00  0.00     0.072 C 
ATOM      9  C   UNL A   1      30.143  25.642  25.299  1.00  0.00     0.014 C 
BRANCH   9  10
ATOM     10  C   UNL A   1      30.415  26.781  24.411  1.00  0.00    -0.018 A 
ATOM     11  C   UNL A   1      31.958  28.285  23.259  1.00  0.00     0.165 A 
ATOM     12  C   UNL A   1      31.708  27.247  24.168  1.00  0.00     0.058 A 
ATOM     13  C   UNL A   1      30.880  28.863  22.569  1.00  0.00     0.200 A 
ATOM     14  C   UNL A   1      29.569  28.424  22.812  1.00  0.00     0.165 A 
ATOM     15  C   UNL A   1      29.355  27.384  23.729  1.00  0.00     0.058 A 
BRANCH  11  16
ATOM     16  O   UNL A   1      33.293  28.570  23.172  1.00  0.00    -0.493 OA
ATOM     17  C   UNL A   1      34.028  28.204  22.017  1.00  0.00     0.278 C 
ENDBRANCH  11  16
BRANCH  13  18
ATOM     18  O   UNL A   1      31.103  29.826  21.625  1.00  0.00    -0.502 OA
ATOM     19  H   UNL A   1      30.396  30.132  21.093  1.00  0.00     0.293 HD
ENDBRANCH  13  18
BRANCH  14  20
ATOM     20  O   UNL A   1      28.400  28.856  22.241  1.00  0.00    -0.493 OA
ATOM     21  C   UNL A   1      27.759  30.008  22.764  1.00  0.00     0.278 C 
ENDBRANCH  14  20
ENDBRANCH   9  10
ENDBRANCH   5   8
ENDBRANCH   3   4
ENDBRANCH   2   3
ENDBRANCH   1   2
BRANCH   1  22
ATOM     22  C   UNL A   1      35.902  21.422  25.473  1.00  0.00     0.002 C 
BRANCH  22  23
ATOM     23  C   UNL A   1      37.072  20.556  25.001  1.00  0.00     0.021 C 
BRANCH  23  24
ATOM     24  C   UNL A   1      38.414  20.937  25.618  1.00  0.00     0.116 C 
BRANCH  24  25
ATOM     25  N   UNL A   1      39.313  19.795  25.694  1.00  0.00    -0.352 N 
ATOM     26  C   UNL A   1      40.658  19.765  25.968  1.00  0.00     0.251 C 
ATOM     27  H   UNL A   1      38.897  18.919  25.524  1.00  0.00     0.163 HD
ATOM     28  O   UNL A   1      41.318  18.757  25.751  1.00  0.00    -0.269 OA
BRANCH  26  29
ATOM     29  C   UNL A   1      41.307  20.974  26.514  1.00  0.00     0.039 A 
ATOM     30  C   UNL A   1      41.885  21.893  25.636  1.00  0.00     0.014 A 
ATOM     31  C   UNL A   1      41.324  21.202  27.892  1.00  0.00     0.014 A 
ATOM     32  C   UNL A   1      42.407  23.088  26.136  1.00  0.00     0.010 A 
ATOM     33  C   UNL A   1      41.780  22.421  28.381  1.00  0.00     0.010 A 
ATOM     34  C   UNL A   1      42.313  23.380  27.506  1.00  0.00    -0.014 A 
BRANCH  34  35
ATOM     35  C   UNL A   1      42.726  24.698  28.048  1.00  0.00     0.031 A 
ATOM     36  C   UNL A   1      41.700  25.758  28.325  1.00  0.00     0.074 A 
ATOM     37  C   UNL A   1      44.038  24.967  28.202  1.00  0.00     0.049 A 
ATOM     38  N   UNL A   1      41.875  27.004  28.684  1.00  0.00    -0.248 NA
ATOM     39  C   UNL A   1      40.290  25.374  28.149  1.00  0.00     0.031 C 
ATOM     40  C   UNL A   1      45.130  24.030  27.931  1.00  0.00     0.029 A 
ATOM     41  N   UNL A   1      44.675  26.114  28.600  1.00  0.00    -0.354 N 
ATOM     42  C   UNL A   1      40.603  27.553  28.769  1.00  0.00     0.074 A 
ATOM     43  C   UNL A   1      39.668  26.521  28.375  1.00  0.00     0.031 C 
ATOM     44  C   UNL A   1      46.301  24.635  28.185  1.00  0.00     0.029 A 
ATOM     45  C   UNL A   1      46.046  26.015  28.584  1.00  0.00     0.049 A 
ATOM     46  H   UNL A   1      44.197  26.931  28.871  1.00  0.00     0.167 HD
ATOM     47  C   UNL A   1      40.247  28.802  29.158  1.00  0.00     0.037 A 
ATOM     48  C   UNL A   1      46.992  26.939  28.839  1.00  0.00     0.037 A 
ATOM     49  C   UNL A   1      41.184  29.820  29.556  1.00  0.00     0.049 A 
ATOM     50  C   UNL A   1      46.572  28.332  29.220  1.00  0.00     0.074 A 
ATOM     51  C   UNL A   1      40.920  31.096  30.022  1.00  0.00     0.029 A 
ATOM     52  N   UNL A   1      42.563  29.683  29.524  1.00  0.00    -0.354 N 
ATOM     53  N   UNL A   1      45.364  28.821  29.364  1.00  0.00    -0.248 NA
ATOM     54  C   UNL A   1      47.646  29.305  29.467  1.00  0.00     0.031 C 
ATOM     55  C   UNL A   1      42.141  31.751  30.215  1.00  0.00     0.029 A 
ATOM     56  C   UNL A   1      43.164  30.864  29.926  1.00  0.00     0.049 A 
ATOM     57  H   UNL A   1      43.044  28.867  29.257  1.00  0.00     0.167 HD
ATOM     58  C   UNL A   1      45.531  30.146  29.742  1.00  0.00     0.074 A 
ATOM     59  C   UNL A   1      46.958  30.382  29.820  1.00  0.00     0.031 C 
ATOM     60  C   UNL A   1      44.588  31.084  30.000  1.00  0.00     0.037 A 
BRANCH  47  61
ATOM     61  C   UNL A   1      38.784  29.137  29.165  1.00  0.00     0.057 A 
ATOM     62  C   UNL A   1      38.010  29.051  30.329  1.00  0.00     0.134 A 
ATOM     63  C   UNL A   1      38.150  29.589  28.000  1.00  0.00     0.134 A 
ATOM     64  F   UNL A   1      38.552  28.617  31.476  1.00  0.00    -0.206 F 
ATOM     65  C   UNL A   1      36.652  29.379  30.330  1.00  0.00     0.040 A 
ATOM     66  C   UNL A   1      36.800  29.948  27.995  1.00  0.00     0.040 A 
ATOM     67  F   UNL A   1      38.833  29.703  26.851  1.00  0.00    -0.206 F 
ATOM     68  C   UNL A   1      36.046  29.835  29.161  1.00  0.00     0.006 A 
ENDBRANCH  47  61
BRANCH  48  69
ATOM     69  C   UNL A   1      48.429  26.580  28.741  1.00  0.00     0.057 A 
ATOM     70  C   UNL A   1      49.151  26.803  27.562  1.00  0.00     0.134 A 
ATOM     71  C   UNL A   1      49.116  26.001  29.816  1.00  0.00     0.134 A 
ATOM     72  F   UNL A   1      48.544  27.337  26.492  1.00  0.00    -0.206 F 
ATOM     73  C   UNL A   1      50.495  26.447  27.448  1.00  0.00     0.040 A 
ATOM     74  C   UNL A   1      50.468  25.666  29.725  1.00  0.00     0.040 A 
ATOM     75  F   UNL A   1      48.485  25.767  30.976  1.00  0.00    -0.206 F 
ATOM     76  C   UNL A   1      51.160  25.882  28.535  1.00  0.00     0.006 A 
ENDBRANCH  48  69
BRANCH  60  77
ATOM     77  C   UNL A   1      45.062  32.447  30.413  1.00  0.00     0.057 A 
ATOM     78  C   UNL A   1      45.337  32.758  31.751  1.00  0.00     0.134 A 
ATOM     79  C   UNL A   1      45.306  33.438  29.454  1.00  0.00     0.134 A 
ATOM     80  F   UNL A   1      45.111  31.858  32.720  1.00  0.00    -0.206 F 
ATOM     81  C   UNL A   1      45.823  34.013  32.121  1.00  0.00     0.040 A 
ATOM     82  C   UNL A   1      45.819  34.687  29.809  1.00  0.00     0.040 A 
ATOM     83  F   UNL A   1      45.072  33.202  28.155  1.00  0.00    -0.206 F 
ATOM     84  C   UNL A   1      46.076  34.977  31.147  1.00  0.00     0.006 A 
ENDBRANCH  60  77
ENDBRANCH  34  35
ENDBRANCH  26  29
ENDBRANCH  24  25
ENDBRANCH  23  24
ENDBRANCH  22  23
ENDBRANCH   1  22
TORSDOF 17
ENDMDL
MODEL 3
REMARK VINA RESULT:     -10.9      2.535      7.592
REMARK SMILES COc1cc(/C=C/C(=O)NCCCCCCNC(=O)c2ccc(-c3c4nc(c(-c5c(F)cccc5F)c5ccc([nH]5)c(-c5c(F)cccc5F)c5nc(c(-c6c(F)cccc6F)c6ccc3[nH]6)C=C5)C=C4)cc2)cc(OC)c1O
REMARK SMILES IDX 13 1 12 2 11 3 10 4 8 5 9 6 7 8 6 9 5 10 3 11 4 12 78 13
REMARK SMILES IDX 75 14 74 15 2 16 1 17 79 18 76 20 77 21 14 22 15 23 16 24
REMARK SMILES IDX 17 25 18 26 19 28 20 29 21 30 73 31 22 32 72 33 23 34 24 35
REMARK SMILES IDX 25 36 66 37 26 38 71 39 65 40 67 41 27 42 70 43 64 44 63 45
REMARK SMILES IDX 28 47 54 48 37 49 53 50 38 51 41 52 52 53 68 54 39 55 40 56
REMARK SMILES IDX 51 58 69 59 42 60 29 61 30 62 35 63 31 64 32 65 34 66 36 67
REMARK SMILES IDX 33 68 55 69 56 70 61 71 57 72 58 73 60 74 62 75 59 76 43 77
REMARK SMILES IDX 44 78 49 79 45 80 46 81 48 82 50 83 47 84
REMARK H PARENT 10 7 79 19 17 27 67 46 41 57
REMARK Flexibility Score: inf
ROOT
ATOM      1  C   UNL A   1      30.970  26.985  25.241  1.00  0.00     0.002 C 
ENDROOT
BRANCH   1   2
ATOM      2  C   UNL A   1      31.449  27.648  23.941  1.00  0.00     0.021 C 
BRANCH   2   3
ATOM      3  C   UNL A   1      30.663  27.197  22.710  1.00  0.00     0.116 C 
BRANCH   3   4
ATOM      4  N   UNL A   1      31.577  26.859  21.636  1.00  0.00    -0.353 N 
ATOM      5  C   UNL A   1      32.563  25.932  21.551  1.00  0.00     0.243 C 
ATOM      6  O   UNL A   1      33.199  25.827  20.504  1.00  0.00    -0.270 OA
ATOM      7  H   UNL A   1      31.461  27.401  20.823  1.00  0.00     0.163 HD
BRANCH   5   8
ATOM      8  C   UNL A   1      32.823  24.970  22.646  1.00  0.00     0.072 C 
ATOM      9  C   UNL A   1      33.876  24.979  23.476  1.00  0.00     0.014 C 
BRANCH   9  10
ATOM     10  C   UNL A   1      34.073  23.994  24.550  1.00  0.00    -0.018 A 
ATOM     11  C   UNL A   1      35.449  22.367  25.745  1.00  0.00     0.165 A 
ATOM     12  C   UNL A   1      35.246  23.247  24.672  1.00  0.00     0.058 A 
ATOM     13  C   UNL A   1      34.451  22.243  26.726  1.00  0.00     0.200 A 
ATOM     14  C   UNL A   1      33.256  22.971  26.613  1.00  0.00     0.165 A 
ATOM     15  C   UNL A   1      33.085  23.841  25.525  1.00  0.00     0.058 A 
BRANCH  11  16
ATOM     16  O   UNL A   1      36.668  21.750  25.669  1.00  0.00    -0.493 OA
ATOM     17  C   UNL A   1      36.781  20.457  25.102  1.00  0.00     0.278 C 
ENDBRANCH  11  16
BRANCH  13  18
ATOM     18  O   UNL A   1      34.655  21.450  27.819  1.00  0.00    -0.502 OA
ATOM     19  H   UNL A   1      35.356  20.829  27.824  1.00  0.00     0.293 HD
ENDBRANCH  13  18
BRANCH  14  20
ATOM     20  O   UNL A   1      32.178  22.988  27.460  1.00  0.00    -0.493 OA
ATOM     21  C   UNL A   1      30.882  23.205  26.926  1.00  0.00     0.278 C 
ENDBRANCH  14  20
ENDBRANCH   9  10
ENDBRANCH   5   8
ENDBRANCH   3   4
ENDBRANCH   2   3
ENDBRANCH   1   2
BRANCH   1  22
ATOM     22  C   UNL A   1      31.711  27.442  26.504  1.00  0.00     0.002 C 
BRANCH  22  23
ATOM     23  C   UNL A   1      32.585  28.685  26.320  1.00  0.00     0.021 C 
BRANCH  23  24
ATOM     24  C   UNL A   1      33.636  28.870  27.410  1.00  0.00     0.116 C 
BRANCH  24  25
ATOM     25  N   UNL A   1      33.705  30.253  27.859  1.00  0.00    -0.352 N 
ATOM     26  C   UNL A   1      34.711  30.897  28.536  1.00  0.00     0.251 C 
ATOM     27  H   UNL A   1      32.919  30.806  27.645  1.00  0.00     0.163 HD
ATOM     28  O   UNL A   1      34.516  31.988  29.056  1.00  0.00    -0.269 OA
BRANCH  26  29
ATOM     29  C   UNL A   1      36.033  30.249  28.647  1.00  0.00     0.039 A 
ATOM     30  C   UNL A   1      36.904  30.287  27.556  1.00  0.00     0.014 A 
ATOM     31  C   UNL A   1      36.414  29.624  29.837  1.00  0.00     0.014 A 
ATOM     32  C   UNL A   1      38.194  29.769  27.687  1.00  0.00     0.010 A 
ATOM     33  C   UNL A   1      37.720  29.172  29.989  1.00  0.00     0.010 A 
ATOM     34  C   UNL A   1      38.625  29.253  28.920  1.00  0.00    -0.014 A 
BRANCH  34  35
ATOM     35  C   UNL A   1      40.031  28.829  29.134  1.00  0.00     0.031 A 
ATOM     36  C   UNL A   1      41.040  29.798  29.679  1.00  0.00     0.074 A 
ATOM     37  C   UNL A   1      40.414  27.595  28.748  1.00  0.00     0.049 A 
ATOM     38  N   UNL A   1      42.332  29.652  29.823  1.00  0.00    -0.248 NA
ATOM     39  C   UNL A   1      40.532  31.115  30.092  1.00  0.00     0.031 C 
ATOM     40  C   UNL A   1      39.533  26.578  28.172  1.00  0.00     0.029 A 
ATOM     41  N   UNL A   1      41.648  26.997  28.761  1.00  0.00    -0.354 N 
ATOM     42  C   UNL A   1      42.792  30.857  30.335  1.00  0.00     0.074 A 
ATOM     43  C   UNL A   1      41.651  31.742  30.428  1.00  0.00     0.031 C 
ATOM     44  C   UNL A   1      40.251  25.477  27.900  1.00  0.00     0.029 A 
ATOM     45  C   UNL A   1      41.650  25.729  28.232  1.00  0.00     0.049 A 
ATOM     46  H   UNL A   1      42.457  27.435  29.115  1.00  0.00     0.167 HD
ATOM     47  C   UNL A   1      44.052  31.189  30.708  1.00  0.00     0.037 A 
ATOM     48  C   UNL A   1      42.667  24.873  28.017  1.00  0.00     0.037 A 
ATOM     49  C   UNL A   1      45.180  30.300  30.619  1.00  0.00     0.049 A 
ATOM     50  C   UNL A   1      44.064  25.284  28.394  1.00  0.00     0.074 A 
ATOM     51  C   UNL A   1      46.484  30.522  31.025  1.00  0.00     0.029 A 
ATOM     52  N   UNL A   1      45.142  29.025  30.076  1.00  0.00    -0.354 N 
ATOM     53  N   UNL A   1      44.476  26.402  28.941  1.00  0.00    -0.248 NA
ATOM     54  C   UNL A   1      45.137  24.319  28.118  1.00  0.00     0.031 C 
ATOM     55  C   UNL A   1      47.248  29.405  30.674  1.00  0.00     0.029 A 
ATOM     56  C   UNL A   1      46.408  28.463  30.102  1.00  0.00     0.049 A 
ATOM     57  H   UNL A   1      44.336  28.584  29.724  1.00  0.00     0.167 HD
ATOM     58  C   UNL A   1      45.849  26.265  29.097  1.00  0.00     0.074 A 
ATOM     59  C   UNL A   1      46.198  24.950  28.602  1.00  0.00     0.031 C 
ATOM     60  C   UNL A   1      46.740  27.151  29.606  1.00  0.00     0.037 A 
BRANCH  47  61
ATOM     61  C   UNL A   1      44.276  32.575  31.241  1.00  0.00     0.057 A 
ATOM     62  C   UNL A   1      44.590  33.650  30.400  1.00  0.00     0.134 A 
ATOM     63  C   UNL A   1      44.135  32.845  32.609  1.00  0.00     0.134 A 
ATOM     64  F   UNL A   1      44.748  33.459  29.082  1.00  0.00    -0.206 F 
ATOM     65  C   UNL A   1      44.782  34.939  30.902  1.00  0.00     0.040 A 
ATOM     66  C   UNL A   1      44.296  34.135  33.119  1.00  0.00     0.040 A 
ATOM     67  F   UNL A   1      43.827  31.864  33.470  1.00  0.00    -0.206 F 
ATOM     68  C   UNL A   1      44.628  35.184  32.265  1.00  0.00     0.006 A 
ENDBRANCH  47  61
BRANCH  48  69
ATOM     69  C   UNL A   1      42.405  23.542  27.412  1.00  0.00     0.057 A 
ATOM     70  C   UNL A   1      42.033  22.449  28.203  1.00  0.00     0.134 A 
ATOM     71  C   UNL A   1      42.523  23.328  26.032  1.00  0.00     0.134 A 
ATOM     72  F   UNL A   1      41.922  22.587  29.532  1.00  0.00    -0.206 F 
ATOM     73  C   UNL A   1      41.808  21.188  27.650  1.00  0.00     0.040 A 
ATOM     74  C   UNL A   1      42.273  22.078  25.462  1.00  0.00     0.040 A 
ATOM     75  F   UNL A   1      42.868  24.335  25.217  1.00  0.00    -0.206 F 
ATOM     76  C   UNL A   1      41.922  21.001  26.274  1.00  0.00     0.006 A 
ENDBRANCH  48  69
BRANCH  60  77
ATOM     77  C   UNL A   1      48.177  26.723  29.674  1.00  0.00     0.057 A 
ATOM     78  C   UNL A   1      48.680  25.995  30.760  1.00  0.00     0.134 A 
ATOM     79  C   UNL A   1      49.052  26.988  28.612  1.00  0.00     0.134 A 
ATOM     80  F   UNL A   1      47.899  25.721  31.815  1.00  0.00    -0.206 F 
ATOM     81  C   UNL A   1      50.006  25.560  30.793  1.00  0.00     0.040 A 
ATOM     82  C   UNL A   1      50.371  26.533  28.621  1.00  0.00     0.040 A 
ATOM     83  F   UNL A   1      48.631  27.672  27.538  1.00  0.00    -0.206 F 
ATOM     84  C   UNL A   1      50.852  25.819  29.717  1.00  0.00     0.006 A 
ENDBRANCH  60  77
ENDBRANCH  34  35
ENDBRANCH  26  29
ENDBRANCH  24  25
ENDBRANCH  23  24
ENDBRANCH  22  23
ENDBRANCH   1  22
TORSDOF 17
ENDMDL
