MODEL 1
REMARK VINA RESULT:      -9.3      0.000      0.000
REMARK SMILES CCc1n[nH]c2cc(CCC(=O)NCCCCCCNC(=O)c3ccc(-c4c5nc(c(-c6c(F)cccc6F)c6ccc([nH]6)c(-c6c(F)cccc6F)c6nc(c(-c7c(F)cccc7F)c7ccc4[nH]7)C=C6)C=C5)cc3)ccc12
REMARK SMILES IDX 16 1 15 2 14 3 13 4 11 5 12 6 10 8 9 9 8 10 3 11 4 12 79 13
REMARK SMILES IDX 5 14 6 15 78 16 7 18 77 19 2 20 1 21 17 22 18 23 19 24 20 25
REMARK SMILES IDX 21 26 22 28 23 29 24 30 76 31 25 32 75 33 26 34 27 35 28 36
REMARK SMILES IDX 69 37 29 38 74 39 68 40 70 41 30 42 73 43 67 44 66 45 31 47
REMARK SMILES IDX 57 48 40 49 56 50 41 51 44 52 55 53 71 54 42 55 43 56 54 58
REMARK SMILES IDX 72 59 45 60 32 61 33 62 38 63 34 64 35 65 37 66 39 67 36 68
REMARK SMILES IDX 58 69 59 70 64 71 60 72 61 73 63 74 65 75 62 76 46 77 47 78
REMARK SMILES IDX 52 79 48 80 49 81 51 82 53 83 50 84
REMARK H PARENT 13 7 5 17 20 27 70 46 44 57
REMARK Flexibility Score: inf
ROOT
ATOM      1  C   UNL A   1      46.370  22.187  24.268  1.00  0.00     0.002 C 
ENDROOT
BRANCH   1   2
ATOM      2  C   UNL A   1      46.033  23.156  25.403  1.00  0.00     0.021 C 
BRANCH   2   3
ATOM      3  C   UNL A   1      46.297  24.637  25.129  1.00  0.00     0.116 C 
BRANCH   3   4
ATOM      4  N   UNL A   1      45.041  25.366  25.074  1.00  0.00    -0.356 N 
ATOM      5  C   UNL A   1      44.779  26.672  25.362  1.00  0.00     0.220 C 
ATOM      6  O   UNL A   1      43.603  27.011  25.515  1.00  0.00    -0.275 OA
ATOM      7  H   UNL A   1      44.262  24.838  24.788  1.00  0.00     0.163 HD
BRANCH   5   8
ATOM      8  C   UNL A   1      45.894  27.699  25.448  1.00  0.00     0.105 C 
BRANCH   8   9
ATOM      9  C   UNL A   1      45.998  28.374  26.820  1.00  0.00     0.045 C 
BRANCH   9  10
ATOM     10  C   UNL A   1      45.580  29.828  26.799  1.00  0.00    -0.045 A 
ATOM     11  C   UNL A   1      44.639  33.844  26.064  1.00  0.00     0.070 A 
ATOM     12  N   UNL A   1      45.843  34.318  25.709  1.00  0.00    -0.180 NA
ATOM     13  C   UNL A   1      44.703  32.474  26.442  1.00  0.00     0.023 A 
ATOM     14  N   UNL A   1      46.669  33.272  25.898  1.00  0.00    -0.278 N 
ATOM     15  C   UNL A   1      46.041  32.127  26.307  1.00  0.00     0.066 A 
ATOM     16  C   UNL A   1      43.788  31.493  26.857  1.00  0.00     0.012 A 
ATOM     17  H   UNL A   1      47.641  33.327  25.754  1.00  0.00     0.190 HD
ATOM     18  C   UNL A   1      46.522  30.827  26.508  1.00  0.00     0.032 A 
ATOM     19  C   UNL A   1      44.238  30.176  27.020  1.00  0.00     0.004 A 
BRANCH  11  20
ATOM     20  C   UNL A   1      43.437  34.731  26.027  1.00  0.00     0.055 C 
ATOM     21  C   UNL A   1      42.998  35.233  27.395  1.00  0.00     0.011 C 
ENDBRANCH  11  20
ENDBRANCH   9  10
ENDBRANCH   8   9
ENDBRANCH   5   8
ENDBRANCH   3   4
ENDBRANCH   2   3
ENDBRANCH   1   2
BRANCH   1  22
ATOM     22  C   UNL A   1      46.322  20.698  24.639  1.00  0.00     0.002 C 
BRANCH  22  23
ATOM     23  C   UNL A   1      45.003  19.962  24.357  1.00  0.00     0.021 C 
BRANCH  23  24
ATOM     24  C   UNL A   1      44.532  18.998  25.448  1.00  0.00     0.116 C 
BRANCH  24  25
ATOM     25  N   UNL A   1      43.100  18.757  25.417  1.00  0.00    -0.352 N 
ATOM     26  C   UNL A   1      42.045  19.532  25.839  1.00  0.00     0.251 C 
ATOM     27  H   UNL A   1      42.840  17.891  25.027  1.00  0.00     0.163 HD
ATOM     28  O   UNL A   1      40.913  19.054  25.803  1.00  0.00    -0.269 OA
BRANCH  26  29
ATOM     29  C   UNL A   1      42.221  20.908  26.378  1.00  0.00     0.039 A 
ATOM     30  C   UNL A   1      42.184  21.070  27.770  1.00  0.00     0.014 A 
ATOM     31  C   UNL A   1      42.332  22.042  25.573  1.00  0.00     0.014 A 
ATOM     32  C   UNL A   1      42.319  22.340  28.347  1.00  0.00     0.010 A 
ATOM     33  C   UNL A   1      42.524  23.307  26.153  1.00  0.00     0.010 A 
ATOM     34  C   UNL A   1      42.530  23.474  27.548  1.00  0.00    -0.014 A 
BRANCH  34  35
ATOM     35  C   UNL A   1      42.765  24.814  28.169  1.00  0.00     0.031 A 
ATOM     36  C   UNL A   1      44.126  25.209  28.690  1.00  0.00     0.074 A 
ATOM     37  C   UNL A   1      41.745  25.689  28.292  1.00  0.00     0.049 A 
ATOM     38  N   UNL A   1      44.501  26.329  29.261  1.00  0.00    -0.248 NA
ATOM     39  C   UNL A   1      45.199  24.214  28.567  1.00  0.00     0.031 C 
ATOM     40  C   UNL A   1      40.366  25.444  27.869  1.00  0.00     0.029 A 
ATOM     41  N   UNL A   1      41.709  26.965  28.807  1.00  0.00    -0.354 N 
ATOM     42  C   UNL A   1      45.847  26.170  29.570  1.00  0.00     0.074 A 
ATOM     43  C   UNL A   1      46.208  24.826  29.170  1.00  0.00     0.031 C 
ATOM     44  C   UNL A   1      39.629  26.539  28.112  1.00  0.00     0.029 A 
ATOM     45  C   UNL A   1      40.467  27.552  28.746  1.00  0.00     0.049 A 
ATOM     46  H   UNL A   1      42.499  27.415  29.184  1.00  0.00     0.167 HD
ATOM     47  C   UNL A   1      46.711  27.061  30.117  1.00  0.00     0.037 A 
ATOM     48  C   UNL A   1      40.043  28.765  29.158  1.00  0.00     0.037 A 
ATOM     49  C   UNL A   1      46.369  28.407  30.506  1.00  0.00     0.049 A 
ATOM     50  C   UNL A   1      41.013  29.725  29.788  1.00  0.00     0.074 A 
ATOM     51  C   UNL A   1      47.197  29.392  31.019  1.00  0.00     0.029 A 
ATOM     52  N   UNL A   1      45.098  28.955  30.435  1.00  0.00    -0.354 N 
ATOM     53  N   UNL A   1      42.297  29.579  30.010  1.00  0.00    -0.248 NA
ATOM     54  C   UNL A   1      40.476  31.025  30.223  1.00  0.00     0.031 C 
ATOM     55  C   UNL A   1      46.419  30.516  31.309  1.00  0.00     0.029 A 
ATOM     56  C   UNL A   1      45.116  30.255  30.921  1.00  0.00     0.049 A 
ATOM     57  H   UNL A   1      44.301  28.492  30.090  1.00  0.00     0.167 HD
ATOM     58  C   UNL A   1      42.725  30.776  30.574  1.00  0.00     0.074 A 
ATOM     59  C   UNL A   1      41.568  31.641  30.651  1.00  0.00     0.031 C 
ATOM     60  C   UNL A   1      43.968  31.123  30.988  1.00  0.00     0.037 A 
BRANCH  47  61
ATOM     61  C   UNL A   1      48.130  26.610  30.333  1.00  0.00     0.057 A 
ATOM     62  C   UNL A   1      48.522  25.938  31.498  1.00  0.00     0.134 A 
ATOM     63  C   UNL A   1      49.101  26.804  29.342  1.00  0.00     0.134 A 
ATOM     64  F   UNL A   1      47.642  25.721  32.487  1.00  0.00    -0.206 F 
ATOM     65  C   UNL A   1      49.836  25.503  31.683  1.00  0.00     0.040 A 
ATOM     66  C   UNL A   1      50.411  26.348  29.504  1.00  0.00     0.040 A 
ATOM     67  F   UNL A   1      48.791  27.426  28.195  1.00  0.00    -0.206 F 
ATOM     68  C   UNL A   1      50.783  25.702  30.681  1.00  0.00     0.006 A 
ENDBRANCH  47  61
BRANCH  48  69
ATOM     69  C   UNL A   1      38.618  29.153  28.979  1.00  0.00     0.057 A 
ATOM     70  C   UNL A   1      38.140  29.607  27.743  1.00  0.00     0.134 A 
ATOM     71  C   UNL A   1      37.709  29.109  30.043  1.00  0.00     0.134 A 
ATOM     72  F   UNL A   1      38.967  29.696  26.691  1.00  0.00    -0.206 F 
ATOM     73  C   UNL A   1      36.818  30.024  27.578  1.00  0.00     0.040 A 
ATOM     74  C   UNL A   1      36.377  29.495  29.884  1.00  0.00     0.040 A 
ATOM     75  F   UNL A   1      38.102  28.681  31.252  1.00  0.00    -0.206 F 
ATOM     76  C   UNL A   1      35.931  29.964  28.650  1.00  0.00     0.006 A 
ENDBRANCH  48  69
BRANCH  60  77
ATOM     77  C   UNL A   1      44.162  32.514  31.522  1.00  0.00     0.057 A 
ATOM     78  C   UNL A   1      43.915  32.841  32.860  1.00  0.00     0.134 A 
ATOM     79  C   UNL A   1      44.645  33.533  30.689  1.00  0.00     0.134 A 
ATOM     80  F   UNL A   1      43.439  31.917  33.709  1.00  0.00    -0.206 F 
ATOM     81  C   UNL A   1      44.118  34.135  33.347  1.00  0.00     0.040 A 
ATOM     82  C   UNL A   1      44.880  34.823  31.171  1.00  0.00     0.040 A 
ATOM     83  F   UNL A   1      44.911  33.290  29.397  1.00  0.00    -0.206 F 
ATOM     84  C   UNL A   1      44.610  35.128  32.502  1.00  0.00     0.006 A 
ENDBRANCH  60  77
ENDBRANCH  34  35
ENDBRANCH  26  29
ENDBRANCH  24  25
ENDBRANCH  23  24
ENDBRANCH  22  23
ENDBRANCH   1  22
TORSDOF 16
ENDMDL
MODEL 2
REMARK VINA RESULT:      -9.1      5.054     10.641
REMARK SMILES CCc1n[nH]c2cc(CCC(=O)NCCCCCCNC(=O)c3ccc(-c4c5nc(c(-c6c(F)cccc6F)c6ccc([nH]6)c(-c6c(F)cccc6F)c6nc(c(-c7c(F)cccc7F)c7ccc4[nH]7)C=C6)C=C5)cc3)ccc12
REMARK SMILES IDX 16 1 15 2 14 3 13 4 11 5 12 6 10 8 9 9 8 10 3 11 4 12 79 13
REMARK SMILES IDX 5 14 6 15 78 16 7 18 77 19 2 20 1 21 17 22 18 23 19 24 20 25
REMARK SMILES IDX 21 26 22 28 23 29 24 30 76 31 25 32 75 33 26 34 27 35 28 36
REMARK SMILES IDX 69 37 29 38 74 39 68 40 70 41 30 42 73 43 67 44 66 45 31 47
REMARK SMILES IDX 57 48 40 49 56 50 41 51 44 52 55 53 71 54 42 55 43 56 54 58
REMARK SMILES IDX 72 59 45 60 32 61 33 62 38 63 34 64 35 65 37 66 39 67 36 68
REMARK SMILES IDX 58 69 59 70 64 71 60 72 61 73 63 74 65 75 62 76 46 77 47 78
REMARK SMILES IDX 52 79 48 80 49 81 51 82 53 83 50 84
REMARK H PARENT 13 7 5 17 20 27 70 46 44 57
REMARK Flexibility Score: inf
ROOT
ATOM      1  C   UNL A   1      31.544  26.901  26.826  1.00  0.00     0.002 C 
ENDROOT
BRANCH   1   2
ATOM      2  C   UNL A   1      32.308  25.660  26.362  1.00  0.00     0.021 C 
BRANCH   2   3
ATOM      3  C   UNL A   1      31.552  24.332  26.438  1.00  0.00     0.116 C 
BRANCH   3   4
ATOM      4  N   UNL A   1      32.265  23.308  25.692  1.00  0.00    -0.356 N 
ATOM      5  C   UNL A   1      32.008  22.793  24.457  1.00  0.00     0.220 C 
ATOM      6  O   UNL A   1      32.572  21.745  24.134  1.00  0.00    -0.275 OA
ATOM      7  H   UNL A   1      33.051  22.929  26.147  1.00  0.00     0.163 HD
BRANCH   5   8
ATOM      8  C   UNL A   1      31.091  23.506  23.480  1.00  0.00     0.105 C 
BRANCH   8   9
ATOM      9  C   UNL A   1      31.757  24.688  22.768  1.00  0.00     0.045 C 
BRANCH   9  10
ATOM     10  C   UNL A   1      30.997  25.986  22.935  1.00  0.00    -0.045 A 
ATOM     11  C   UNL A   1      28.874  29.590  22.686  1.00  0.00     0.070 A 
ATOM     12  N   UNL A   1      29.736  30.334  21.976  1.00  0.00    -0.180 NA
ATOM     13  C   UNL A   1      29.405  28.301  22.974  1.00  0.00     0.023 A 
ATOM     14  N   UNL A   1      30.817  29.543  21.850  1.00  0.00    -0.278 N 
ATOM     15  C   UNL A   1      30.670  28.298  22.400  1.00  0.00     0.066 A 
ATOM     16  C   UNL A   1      28.956  27.143  23.629  1.00  0.00     0.012 A 
ATOM     17  H   UNL A   1      31.642  29.834  21.400  1.00  0.00     0.190 HD
ATOM     18  C   UNL A   1      31.506  27.174  22.389  1.00  0.00     0.032 A 
ATOM     19  C   UNL A   1      29.756  25.994  23.592  1.00  0.00     0.004 A 
BRANCH  11  20
ATOM     20  C   UNL A   1      27.540  30.140  23.072  1.00  0.00     0.055 C 
ATOM     21  C   UNL A   1      27.584  31.581  23.559  1.00  0.00     0.011 C 
ENDBRANCH  11  20
ENDBRANCH   9  10
ENDBRANCH   8   9
ENDBRANCH   5   8
ENDBRANCH   3   4
ENDBRANCH   2   3
ENDBRANCH   1   2
BRANCH   1  22
ATOM     22  C   UNL A   1      31.719  28.147  25.947  1.00  0.00     0.002 C 
BRANCH  22  23
ATOM     23  C   UNL A   1      33.127  28.760  25.898  1.00  0.00     0.021 C 
BRANCH  23  24
ATOM     24  C   UNL A   1      33.876  28.815  27.230  1.00  0.00     0.116 C 
BRANCH  24  25
ATOM     25  N   UNL A   1      33.827  30.122  27.860  1.00  0.00    -0.352 N 
ATOM     26  C   UNL A   1      34.773  30.815  28.578  1.00  0.00     0.251 C 
ATOM     27  H   UNL A   1      32.969  30.594  27.754  1.00  0.00     0.163 HD
ATOM     28  O   UNL A   1      34.448  31.877  29.108  1.00  0.00    -0.269 OA
BRANCH  26  29
ATOM     29  C   UNL A   1      36.160  30.313  28.778  1.00  0.00     0.039 A 
ATOM     30  C   UNL A   1      37.040  30.383  27.690  1.00  0.00     0.014 A 
ATOM     31  C   UNL A   1      36.595  29.704  29.956  1.00  0.00     0.014 A 
ATOM     32  C   UNL A   1      38.353  29.908  27.800  1.00  0.00     0.010 A 
ATOM     33  C   UNL A   1      37.928  29.280  30.083  1.00  0.00     0.010 A 
ATOM     34  C   UNL A   1      38.830  29.383  29.011  1.00  0.00    -0.014 A 
BRANCH  34  35
ATOM     35  C   UNL A   1      40.258  28.962  29.152  1.00  0.00     0.031 A 
ATOM     36  C   UNL A   1      41.294  29.887  29.741  1.00  0.00     0.074 A 
ATOM     37  C   UNL A   1      40.644  27.739  28.730  1.00  0.00     0.049 A 
ATOM     38  N   UNL A   1      42.576  29.681  29.932  1.00  0.00    -0.248 NA
ATOM     39  C   UNL A   1      40.837  31.220  30.157  1.00  0.00     0.031 C 
ATOM     40  C   UNL A   1      39.770  26.744  28.110  1.00  0.00     0.029 A 
ATOM     41  N   UNL A   1      41.875  27.123  28.761  1.00  0.00    -0.354 N 
ATOM     42  C   UNL A   1      43.076  30.856  30.480  1.00  0.00     0.074 A 
ATOM     43  C   UNL A   1      41.970  31.788  30.543  1.00  0.00     0.031 C 
ATOM     44  C   UNL A   1      40.480  25.635  27.847  1.00  0.00     0.029 A 
ATOM     45  C   UNL A   1      41.870  25.850  28.240  1.00  0.00     0.049 A 
ATOM     46  H   UNL A   1      42.683  27.553  29.123  1.00  0.00     0.167 HD
ATOM     47  C   UNL A   1      44.332  31.133  30.911  1.00  0.00     0.037 A 
ATOM     48  C   UNL A   1      42.868  24.955  28.086  1.00  0.00     0.037 A 
ATOM     49  C   UNL A   1      45.439  30.211  30.868  1.00  0.00     0.049 A 
ATOM     50  C   UNL A   1      44.259  25.297  28.545  1.00  0.00     0.074 A 
ATOM     51  C   UNL A   1      46.732  30.394  31.333  1.00  0.00     0.029 A 
ATOM     52  N   UNL A   1      45.391  28.937  30.324  1.00  0.00    -0.354 N 
ATOM     53  N   UNL A   1      44.696  26.389  29.122  1.00  0.00    -0.248 NA
ATOM     54  C   UNL A   1      45.298  24.276  28.336  1.00  0.00     0.031 C 
ATOM     55  C   UNL A   1      47.479  29.255  31.021  1.00  0.00     0.029 A 
ATOM     56  C   UNL A   1      46.638  28.336  30.416  1.00  0.00     0.049 A 
ATOM     57  H   UNL A   1      44.591  28.521  29.930  1.00  0.00     0.167 HD
ATOM     58  C   UNL A   1      46.046  26.173  29.376  1.00  0.00     0.074 A 
ATOM     59  C   UNL A   1      46.355  24.842  28.899  1.00  0.00     0.031 C 
ATOM     60  C   UNL A   1      46.946  27.006  29.954  1.00  0.00     0.037 A 
BRANCH  47  61
ATOM     61  C   UNL A   1      44.586  32.505  31.474  1.00  0.00     0.057 A 
ATOM     62  C   UNL A   1      44.431  32.784  32.838  1.00  0.00     0.134 A 
ATOM     63  C   UNL A   1      45.040  33.543  30.651  1.00  0.00     0.134 A 
ATOM     64  F   UNL A   1      43.997  31.836  33.682  1.00  0.00    -0.206 F 
ATOM     65  C   UNL A   1      44.689  34.054  33.358  1.00  0.00     0.040 A 
ATOM     66  C   UNL A   1      45.330  34.810  31.164  1.00  0.00     0.040 A 
ATOM     67  F   UNL A   1      45.226  33.342  29.338  1.00  0.00    -0.206 F 
ATOM     68  C   UNL A   1      45.146  35.069  32.521  1.00  0.00     0.006 A 
ENDBRANCH  47  61
BRANCH  48  69
ATOM     69  C   UNL A   1      42.589  23.630  27.473  1.00  0.00     0.057 A 
ATOM     70  C   UNL A   1      42.612  23.455  26.083  1.00  0.00     0.134 A 
ATOM     71  C   UNL A   1      42.263  22.515  28.255  1.00  0.00     0.134 A 
ATOM     72  F   UNL A   1      42.893  24.489  25.277  1.00  0.00    -0.206 F 
ATOM     73  C   UNL A   1      42.300  22.228  25.494  1.00  0.00     0.040 A 
ATOM     74  C   UNL A   1      41.978  21.276  27.681  1.00  0.00     0.040 A 
ATOM     75  F   UNL A   1      42.226  22.615  29.593  1.00  0.00    -0.206 F 
ATOM     76  C   UNL A   1      41.987  21.132  26.295  1.00  0.00     0.006 A 
ENDBRANCH  48  69
BRANCH  60  77
ATOM     77  C   UNL A   1      48.344  26.494  30.150  1.00  0.00     0.057 A 
ATOM     78  C   UNL A   1      49.357  26.708  29.207  1.00  0.00     0.134 A 
ATOM     79  C   UNL A   1      48.692  25.810  31.323  1.00  0.00     0.134 A 
ATOM     80  F   UNL A   1      49.090  27.344  28.055  1.00  0.00    -0.206 F 
ATOM     81  C   UNL A   1      50.658  26.242  29.412  1.00  0.00     0.040 A 
ATOM     82  C   UNL A   1      49.996  25.365  31.553  1.00  0.00     0.040 A 
ATOM     83  F   UNL A   1      47.775  25.576  32.273  1.00  0.00    -0.206 F 
ATOM     84  C   UNL A   1      50.982  25.574  30.592  1.00  0.00     0.006 A 
ENDBRANCH  60  77
ENDBRANCH  34  35
ENDBRANCH  26  29
ENDBRANCH  24  25
ENDBRANCH  23  24
ENDBRANCH  22  23
ENDBRANCH   1  22
TORSDOF 16
ENDMDL
MODEL 3
REMARK VINA RESULT:      -8.9      0.367      6.231
REMARK SMILES CCc1n[nH]c2cc(CCC(=O)NCCCCCCNC(=O)c3ccc(-c4c5nc(c(-c6c(F)cccc6F)c6ccc([nH]6)c(-c6c(F)cccc6F)c6nc(c(-c7c(F)cccc7F)c7ccc4[nH]7)C=C6)C=C5)cc3)ccc12
REMARK SMILES IDX 16 1 15 2 14 3 13 4 11 5 12 6 10 8 9 9 8 10 3 11 4 12 79 13
REMARK SMILES IDX 5 14 6 15 78 16 7 18 77 19 2 20 1 21 17 22 18 23 19 24 20 25
REMARK SMILES IDX 21 26 22 28 23 29 24 30 76 31 25 32 75 33 26 34 27 35 28 36
REMARK SMILES IDX 69 37 29 38 74 39 68 40 70 41 30 42 73 43 67 44 66 45 31 47
REMARK SMILES IDX 57 48 40 49 56 50 41 51 44 52 55 53 71 54 42 55 43 56 54 58
REMARK SMILES IDX 72 59 45 60 32 61 33 62 38 63 34 64 35 65 37 66 39 67 36 68
REMARK SMILES IDX 58 69 59 70 64 71 60 72 61 73 63 74 65 75 62 76 46 77 47 78
REMARK SMILES IDX 52 79 48 80 49 81 51 82 53 83 50 84
REMARK H PARENT 13 7 5 17 20 27 70 46 44 57
REMARK Flexibility Score: inf
ROOT
ATOM      1  C   UNL A   1      46.371  22.150  24.268  1.00  0.00     0.002 C 
ENDROOT
BRANCH   1   2
ATOM      2  C   UNL A   1      45.849  23.157  25.295  1.00  0.00     0.021 C 
BRANCH   2   3
ATOM      3  C   UNL A   1      46.115  24.632  24.992  1.00  0.00     0.116 C 
BRANCH   3   4
ATOM      4  N   UNL A   1      44.866  25.377  25.000  1.00  0.00    -0.356 N 
ATOM      5  C   UNL A   1      44.636  26.688  25.293  1.00  0.00     0.220 C 
ATOM      6  O   UNL A   1      43.474  27.041  25.506  1.00  0.00    -0.275 OA
ATOM      7  H   UNL A   1      44.066  24.856  24.760  1.00  0.00     0.163 HD
BRANCH   5   8
ATOM      8  C   UNL A   1      45.766  27.701  25.312  1.00  0.00     0.105 C 
BRANCH   8   9
ATOM      9  C   UNL A   1      46.065  28.257  26.708  1.00  0.00     0.045 C 
BRANCH   9  10
ATOM     10  C   UNL A   1      45.661  29.707  26.868  1.00  0.00    -0.045 A 
ATOM     11  C   UNL A   1      44.664  33.768  26.613  1.00  0.00     0.070 A 
ATOM     12  N   UNL A   1      45.811  34.273  26.135  1.00  0.00    -0.180 NA
ATOM     13  C   UNL A   1      44.766  32.370  26.861  1.00  0.00     0.023 A 
ATOM     14  N   UNL A   1      46.646  33.218  26.118  1.00  0.00    -0.278 N 
ATOM     15  C   UNL A   1      46.070  32.040  26.512  1.00  0.00     0.066 A 
ATOM     16  C   UNL A   1      43.910  31.356  27.315  1.00  0.00     0.012 A 
ATOM     17  H   UNL A   1      47.589  33.287  25.846  1.00  0.00     0.190 HD
ATOM     18  C   UNL A   1      46.563  30.729  26.534  1.00  0.00     0.032 A 
ATOM     19  C   UNL A   1      44.366  30.031  27.302  1.00  0.00     0.004 A 
BRANCH  11  20
ATOM     20  C   UNL A   1      43.476  34.651  26.818  1.00  0.00     0.055 C 
ATOM     21  C   UNL A   1      43.103  34.854  28.279  1.00  0.00     0.011 C 
ENDBRANCH  11  20
ENDBRANCH   9  10
ENDBRANCH   8   9
ENDBRANCH   5   8
ENDBRANCH   3   4
ENDBRANCH   2   3
ENDBRANCH   1   2
BRANCH   1  22
ATOM     22  C   UNL A   1      46.262  20.675  24.680  1.00  0.00     0.002 C 
BRANCH  22  23
ATOM     23  C   UNL A   1      44.919  19.982  24.398  1.00  0.00     0.021 C 
BRANCH  23  24
ATOM     24  C   UNL A   1      44.438  19.002  25.470  1.00  0.00     0.116 C 
BRANCH  24  25
ATOM     25  N   UNL A   1      42.999  18.805  25.459  1.00  0.00    -0.352 N 
ATOM     26  C   UNL A   1      41.974  19.609  25.900  1.00  0.00     0.251 C 
ATOM     27  H   UNL A   1      42.708  17.950  25.067  1.00  0.00     0.163 HD
ATOM     28  O   UNL A   1      40.827  19.166  25.877  1.00  0.00    -0.269 OA
BRANCH  26  29
ATOM     29  C   UNL A   1      42.200  20.975  26.446  1.00  0.00     0.039 A 
ATOM     30  C   UNL A   1      42.279  21.114  27.838  1.00  0.00     0.014 A 
ATOM     31  C   UNL A   1      42.247  22.123  25.653  1.00  0.00     0.014 A 
ATOM     32  C   UNL A   1      42.467  22.374  28.423  1.00  0.00     0.010 A 
ATOM     33  C   UNL A   1      42.492  23.377  26.236  1.00  0.00     0.010 A 
ATOM     34  C   UNL A   1      42.615  23.521  27.628  1.00  0.00    -0.014 A 
BRANCH  34  35
ATOM     35  C   UNL A   1      42.906  24.849  28.250  1.00  0.00     0.031 A 
ATOM     36  C   UNL A   1      41.824  25.886  28.428  1.00  0.00     0.074 A 
ATOM     37  C   UNL A   1      44.162  25.148  28.646  1.00  0.00     0.049 A 
ATOM     38  N   UNL A   1      41.906  27.089  28.944  1.00  0.00    -0.248 NA
ATOM     39  C   UNL A   1      40.480  25.532  27.953  1.00  0.00     0.031 C 
ATOM     40  C   UNL A   1      45.322  24.267  28.512  1.00  0.00     0.029 A 
ATOM     41  N   UNL A   1      44.673  26.276  29.245  1.00  0.00    -0.354 N 
ATOM     42  C   UNL A   1      40.632  27.636  28.849  1.00  0.00     0.074 A 
ATOM     43  C   UNL A   1      39.808  26.653  28.178  1.00  0.00     0.031 C 
ATOM     44  C   UNL A   1      46.399  24.872  29.039  1.00  0.00     0.029 A 
ATOM     45  C   UNL A   1      46.020  26.200  29.512  1.00  0.00     0.049 A 
ATOM     46  H   UNL A   1      44.125  27.065  29.463  1.00  0.00     0.167 HD
ATOM     47  C   UNL A   1      40.179  28.834  29.294  1.00  0.00     0.037 A 
ATOM     48  C   UNL A   1      46.862  27.095  30.068  1.00  0.00     0.037 A 
ATOM     49  C   UNL A   1      40.984  29.817  29.976  1.00  0.00     0.049 A 
ATOM     50  C   UNL A   1      46.342  28.430  30.526  1.00  0.00     0.074 A 
ATOM     51  C   UNL A   1      40.591  31.035  30.506  1.00  0.00     0.029 A 
ATOM     52  N   UNL A   1      42.344  29.701  30.216  1.00  0.00    -0.354 N 
ATOM     53  N   UNL A   1      45.120  28.901  30.487  1.00  0.00    -0.248 NA
ATOM     54  C   UNL A   1      47.321  29.360  31.113  1.00  0.00     0.031 C 
ATOM     55  C   UNL A   1      41.721  31.680  31.017  1.00  0.00     0.029 A 
ATOM     56  C   UNL A   1      42.809  30.839  30.860  1.00  0.00     0.049 A 
ATOM     57  H   UNL A   1      42.898  28.927  29.966  1.00  0.00     0.167 HD
ATOM     58  C   UNL A   1      45.176  30.160  31.074  1.00  0.00     0.074 A 
ATOM     59  C   UNL A   1      46.551  30.377  31.469  1.00  0.00     0.031 C 
ATOM     60  C   UNL A   1      44.175  31.053  31.267  1.00  0.00     0.037 A 
BRANCH  47  61
ATOM     61  C   UNL A   1      38.730  29.161  29.056  1.00  0.00     0.057 A 
ATOM     62  C   UNL A   1      37.780  29.100  30.084  1.00  0.00     0.134 A 
ATOM     63  C   UNL A   1      38.291  29.590  27.797  1.00  0.00     0.134 A 
ATOM     64  F   UNL A   1      38.133  28.695  31.313  1.00  0.00    -0.206 F 
ATOM     65  C   UNL A   1      36.441  29.425  29.861  1.00  0.00     0.040 A 
ATOM     66  C   UNL A   1      36.959  29.946  27.570  1.00  0.00     0.040 A 
ATOM     67  F   UNL A   1      39.149  29.687  26.771  1.00  0.00    -0.206 F 
ATOM     68  C   UNL A   1      36.029  29.855  28.603  1.00  0.00     0.006 A 
ENDBRANCH  47  61
BRANCH  48  69
ATOM     69  C   UNL A   1      48.301  26.758  30.234  1.00  0.00     0.057 A 
ATOM     70  C   UNL A   1      49.226  27.001  29.210  1.00  0.00     0.134 A 
ATOM     71  C   UNL A   1      48.781  26.158  31.405  1.00  0.00     0.134 A 
ATOM     72  F   UNL A   1      48.825  27.550  28.055  1.00  0.00    -0.206 F 
ATOM     73  C   UNL A   1      50.569  26.640  29.336  1.00  0.00     0.040 A 
ATOM     74  C   UNL A   1      50.126  25.819  31.555  1.00  0.00     0.040 A 
ATOM     75  F   UNL A   1      47.948  25.902  32.425  1.00  0.00    -0.206 F 
ATOM     76  C   UNL A   1      51.023  26.052  30.515  1.00  0.00     0.006 A 
ENDBRANCH  48  69
BRANCH  60  77
ATOM     77  C   UNL A   1      44.510  32.334  31.977  1.00  0.00     0.057 A 
ATOM     78  C   UNL A   1      45.051  33.439  31.309  1.00  0.00     0.134 A 
ATOM     79  C   UNL A   1      44.248  32.475  33.346  1.00  0.00     0.134 A 
ATOM     80  F   UNL A   1      45.339  33.367  30.000  1.00  0.00    -0.206 F 
ATOM     81  C   UNL A   1      45.340  34.630  31.980  1.00  0.00     0.040 A 
ATOM     82  C   UNL A   1      44.505  33.671  34.022  1.00  0.00     0.040 A 
ATOM     83  F   UNL A   1      43.723  31.460  34.049  1.00  0.00    -0.206 F 
ATOM     84  C   UNL A   1      45.059  34.750  33.339  1.00  0.00     0.006 A 
ENDBRANCH  60  77
ENDBRANCH  34  35
ENDBRANCH  26  29
ENDBRANCH  24  25
ENDBRANCH  23  24
ENDBRANCH  22  23
ENDBRANCH   1  22
TORSDOF 16
ENDMDL
