MODEL 1
REMARK VINA RESULT:      -9.7      0.000      0.000
REMARK SMILES CCCOCCO[C@H]1CC[C@@]([NH3+])(C(=O)NCCCCCCNC(=O)c2ccc(-c3c4nc(c(-c5c(F)cccc5F)c5ccc([nH]5)c(-c5c(F)cccc5F)c5nc(c(-c6c(F)cccc6F)c6ccc3[nH]6)C=C5)C=C4)cc2)C1
REMARK SMILES IDX 16 1 15 2 13 3 14 4 11 6 8 7 9 8 79 9 10 10 7 11 6 12 5 13
REMARK SMILES IDX 4 14 3 15 2 16 1 17 12 18 17 22 18 23 19 24 20 25 21 26
REMARK SMILES IDX 22 27 23 28 24 30 25 31 26 32 78 33 27 34 77 35 28 36 29 37
REMARK SMILES IDX 30 38 71 39 31 40 76 41 70 42 72 43 32 44 75 45 69 46 68 47
REMARK SMILES IDX 33 49 59 50 42 51 58 52 43 53 46 54 57 55 73 56 44 57 45 58
REMARK SMILES IDX 56 60 74 61 47 62 34 63 35 64 40 65 36 66 37 67 39 68 41 69
REMARK SMILES IDX 38 70 60 71 61 72 66 73 62 74 63 75 65 76 67 77 64 78 48 79
REMARK SMILES IDX 49 80 54 81 50 82 51 83 53 84 55 85 52 86
REMARK H PARENT 15 5 12 19 12 20 12 21 22 29 72 48 46 59
REMARK Flexibility Score: inf
ROOT
ATOM      1  C   UNL A   1      35.454  21.818  25.932  1.00  0.00     0.116 C 
ENDROOT
BRANCH   1   2
ATOM      2  N   UNL A   1      34.587  21.949  27.082  1.00  0.00    -0.351 N 
ATOM      3  C   UNL A   1      33.492  22.734  27.284  1.00  0.00     0.281 C 
ATOM      4  O   UNL A   1      32.870  22.540  28.332  1.00  0.00    -0.268 OA
ATOM      5  H   UNL A   1      34.827  21.374  27.846  1.00  0.00     0.163 HD
BRANCH   3   6
ATOM      6  C   UNL A   1      32.979  23.717  26.178  1.00  0.00     0.176 C 
ATOM      7  C   UNL A   1      31.587  22.372  24.726  1.00  0.00     0.125 C 
ATOM      8  C   UNL A   1      30.688  23.450  25.312  1.00  0.00     0.039 C 
ATOM      9  C   UNL A   1      32.971  23.029  24.799  1.00  0.00     0.111 C 
ATOM     10  C   UNL A   1      31.522  24.178  26.353  1.00  0.00     0.082 C 
BRANCH   7  11
ATOM     11  O   UNL A   1      31.655  21.099  25.344  1.00  0.00    -0.376 OA
BRANCH  11  12
ATOM     12  C   UNL A   1      32.406  20.023  24.803  1.00  0.00     0.189 C 
BRANCH  12  13
ATOM     13  C   UNL A   1      32.725  18.824  25.710  1.00  0.00     0.188 C 
BRANCH  13  14
ATOM     14  O   UNL A   1      32.250  17.561  25.263  1.00  0.00    -0.379 OA
BRANCH  14  15
ATOM     15  C   UNL A   1      33.090  16.437  25.499  1.00  0.00     0.160 C 
BRANCH  15  16
ATOM     16  C   UNL A   1      34.119  16.169  24.393  1.00  0.00     0.025 C 
ATOM     17  C   UNL A   1      33.941  16.951  23.098  1.00  0.00     0.006 C 
ENDBRANCH  15  16
ENDBRANCH  14  15
ENDBRANCH  13  14
ENDBRANCH  12  13
ENDBRANCH  11  12
ENDBRANCH   7  11
BRANCH   6  18
ATOM     18  N   UNL A   1      33.903  24.875  26.175  1.00  0.00    -0.345 N 
ATOM     19  H   UNL A   1      34.217  25.056  25.221  1.00  0.00     0.345 HD
ATOM     20  H   UNL A   1      34.710  24.669  26.765  1.00  0.00     0.345 HD
ATOM     21  H   UNL A   1      33.419  25.697  26.535  1.00  0.00     0.345 HD
ENDBRANCH   6  18
ENDBRANCH   3   6
ENDBRANCH   1   2
BRANCH   1  22
ATOM     22  C   UNL A   1      36.700  22.693  26.093  1.00  0.00     0.021 C 
BRANCH  22  23
ATOM     23  C   UNL A   1      37.971  22.087  25.485  1.00  0.00     0.002 C 
BRANCH  23  24
ATOM     24  C   UNL A   1      37.727  20.937  24.506  1.00  0.00     0.002 C 
BRANCH  24  25
ATOM     25  C   UNL A   1      38.330  19.595  24.929  1.00  0.00     0.021 C 
BRANCH  25  26
ATOM     26  C   UNL A   1      39.265  19.676  26.131  1.00  0.00     0.116 C 
BRANCH  26  27
ATOM     27  N   UNL A   1      40.547  19.048  25.859  1.00  0.00    -0.352 N 
ATOM     28  C   UNL A   1      41.800  19.597  25.870  1.00  0.00     0.251 C 
ATOM     29  H   UNL A   1      40.509  18.091  25.634  1.00  0.00     0.163 HD
ATOM     30  O   UNL A   1      42.750  18.972  25.395  1.00  0.00    -0.269 OA
BRANCH  28  31
ATOM     31  C   UNL A   1      42.019  20.942  26.439  1.00  0.00     0.039 A 
ATOM     32  C   UNL A   1      41.962  21.102  27.824  1.00  0.00     0.014 A 
ATOM     33  C   UNL A   1      42.250  22.047  25.611  1.00  0.00     0.014 A 
ATOM     34  C   UNL A   1      42.176  22.362  28.383  1.00  0.00     0.010 A 
ATOM     35  C   UNL A   1      42.537  23.288  26.173  1.00  0.00     0.010 A 
ATOM     36  C   UNL A   1      42.488  23.460  27.563  1.00  0.00    -0.014 A 
BRANCH  36  37
ATOM     37  C   UNL A   1      42.767  24.788  28.163  1.00  0.00     0.031 A 
ATOM     38  C   UNL A   1      44.168  25.180  28.540  1.00  0.00     0.074 A 
ATOM     39  C   UNL A   1      41.746  25.635  28.385  1.00  0.00     0.049 A 
ATOM     40  N   UNL A   1      44.606  26.316  29.019  1.00  0.00    -0.248 NA
ATOM     41  C   UNL A   1      45.209  24.153  28.380  1.00  0.00     0.031 C 
ATOM     42  C   UNL A   1      40.336  25.348  28.118  1.00  0.00     0.029 A 
ATOM     43  N   UNL A   1      41.739  26.917  28.874  1.00  0.00    -0.354 N 
ATOM     44  C   UNL A   1      45.969  26.141  29.218  1.00  0.00     0.074 A 
ATOM     45  C   UNL A   1      46.273  24.770  28.872  1.00  0.00     0.031 C 
ATOM     46  C   UNL A   1      39.606  26.438  28.397  1.00  0.00     0.029 A 
ATOM     47  C   UNL A   1      40.492  27.490  28.884  1.00  0.00     0.049 A 
ATOM     48  H   UNL A   1      42.549  27.380  29.186  1.00  0.00     0.167 HD
ATOM     49  C   UNL A   1      46.891  27.048  29.626  1.00  0.00     0.037 A 
ATOM     50  C   UNL A   1      40.109  28.733  29.230  1.00  0.00     0.037 A 
ATOM     51  C   UNL A   1      46.586  28.414  29.964  1.00  0.00     0.049 A 
ATOM     52  C   UNL A   1      41.146  29.723  29.675  1.00  0.00     0.074 A 
ATOM     53  C   UNL A   1      47.452  29.427  30.339  1.00  0.00     0.029 A 
ATOM     54  N   UNL A   1      45.309  28.958  29.974  1.00  0.00    -0.354 N 
ATOM     55  N   UNL A   1      42.443  29.570  29.787  1.00  0.00    -0.248 NA
ATOM     56  C   UNL A   1      40.664  31.063  30.032  1.00  0.00     0.031 C 
ATOM     57  C   UNL A   1      46.693  30.571  30.618  1.00  0.00     0.029 A 
ATOM     58  C   UNL A   1      45.360  30.284  30.371  1.00  0.00     0.049 A 
ATOM     59  H   UNL A   1      44.487  28.471  29.735  1.00  0.00     0.167 HD
ATOM     60  C   UNL A   1      42.937  30.798  30.206  1.00  0.00     0.074 A 
ATOM     61  C   UNL A   1      41.799  31.690  30.306  1.00  0.00     0.031 C 
ATOM     62  C   UNL A   1      44.216  31.156  30.482  1.00  0.00     0.037 A 
BRANCH  49  63
ATOM     63  C   UNL A   1      48.315  26.577  29.726  1.00  0.00     0.057 A 
ATOM     64  C   UNL A   1      48.814  25.976  30.890  1.00  0.00     0.134 A 
ATOM     65  C   UNL A   1      49.199  26.731  28.652  1.00  0.00     0.134 A 
ATOM     66  F   UNL A   1      48.024  25.810  31.962  1.00  0.00    -0.206 F 
ATOM     67  C   UNL A   1      50.149  25.580  30.996  1.00  0.00     0.040 A 
ATOM     68  C   UNL A   1      50.529  26.314  28.734  1.00  0.00     0.040 A 
ATOM     69  F   UNL A   1      48.788  27.294  27.505  1.00  0.00    -0.206 F 
ATOM     70  C   UNL A   1      51.010  25.746  29.913  1.00  0.00     0.006 A 
ENDBRANCH  49  63
BRANCH  50  71
ATOM     71  C   UNL A   1      38.684  29.126  29.103  1.00  0.00     0.057 A 
ATOM     72  C   UNL A   1      38.166  29.552  27.874  1.00  0.00     0.134 A 
ATOM     73  C   UNL A   1      37.806  29.069  30.190  1.00  0.00     0.134 A 
ATOM     74  F   UNL A   1      38.963  29.640  26.799  1.00  0.00    -0.206 F 
ATOM     75  C   UNL A   1      36.827  29.917  27.733  1.00  0.00     0.040 A 
ATOM     76  C   UNL A   1      36.460  29.412  30.059  1.00  0.00     0.040 A 
ATOM     77  F   UNL A   1      38.241  28.662  31.391  1.00  0.00    -0.206 F 
ATOM     78  C   UNL A   1      35.968  29.842  28.828  1.00  0.00     0.006 A 
ENDBRANCH  50  71
BRANCH  62  79
ATOM     79  C   UNL A   1      44.443  32.579  30.903  1.00  0.00     0.057 A 
ATOM     80  C   UNL A   1      44.707  33.592  29.972  1.00  0.00     0.134 A 
ATOM     81  C   UNL A   1      44.402  32.938  32.256  1.00  0.00     0.134 A 
ATOM     82  F   UNL A   1      44.773  33.311  28.662  1.00  0.00    -0.206 F 
ATOM     83  C   UNL A   1      44.958  34.905  30.374  1.00  0.00     0.040 A 
ATOM     84  C   UNL A   1      44.624  34.253  32.668  1.00  0.00     0.040 A 
ATOM     85  F   UNL A   1      44.147  32.019  33.198  1.00  0.00    -0.206 F 
ATOM     86  C   UNL A   1      44.914  35.239  31.727  1.00  0.00     0.006 A 
ENDBRANCH  62  79
ENDBRANCH  36  37
ENDBRANCH  28  31
ENDBRANCH  26  27
ENDBRANCH  25  26
ENDBRANCH  24  25
ENDBRANCH  23  24
ENDBRANCH  22  23
ENDBRANCH   1  22
TORSDOF 20
ENDMDL
MODEL 2
REMARK VINA RESULT:      -9.7      4.868      9.793
REMARK SMILES CCCOCCO[C@H]1CC[C@@]([NH3+])(C(=O)NCCCCCCNC(=O)c2ccc(-c3c4nc(c(-c5c(F)cccc5F)c5ccc([nH]5)c(-c5c(F)cccc5F)c5nc(c(-c6c(F)cccc6F)c6ccc3[nH]6)C=C5)C=C4)cc2)C1
REMARK SMILES IDX 16 1 15 2 13 3 14 4 11 6 8 7 9 8 79 9 10 10 7 11 6 12 5 13
REMARK SMILES IDX 4 14 3 15 2 16 1 17 12 18 17 22 18 23 19 24 20 25 21 26
REMARK SMILES IDX 22 27 23 28 24 30 25 31 26 32 78 33 27 34 77 35 28 36 29 37
REMARK SMILES IDX 30 38 71 39 31 40 76 41 70 42 72 43 32 44 75 45 69 46 68 47
REMARK SMILES IDX 33 49 59 50 42 51 58 52 43 53 46 54 57 55 73 56 44 57 45 58
REMARK SMILES IDX 56 60 74 61 47 62 34 63 35 64 40 65 36 66 37 67 39 68 41 69
REMARK SMILES IDX 38 70 60 71 61 72 66 73 62 74 63 75 65 76 67 77 64 78 48 79
REMARK SMILES IDX 49 80 54 81 50 82 51 83 53 84 55 85 52 86
REMARK H PARENT 15 5 12 19 12 20 12 21 22 29 72 48 46 59
REMARK Flexibility Score: inf
ROOT
ATOM      1  C   UNL A   1      32.404  27.593  26.948  1.00  0.00     0.116 C 
ENDROOT
BRANCH   1   2
ATOM      2  N   UNL A   1      31.353  26.599  26.900  1.00  0.00    -0.351 N 
ATOM      3  C   UNL A   1      31.295  25.398  26.260  1.00  0.00     0.281 C 
ATOM      4  O   UNL A   1      30.308  24.699  26.505  1.00  0.00    -0.268 OA
ATOM      5  H   UNL A   1      30.546  26.829  27.416  1.00  0.00     0.163 HD
BRANCH   3   6
ATOM      6  C   UNL A   1      32.487  24.883  25.385  1.00  0.00     0.176 C 
ATOM      7  C   UNL A   1      32.025  25.677  23.146  1.00  0.00     0.125 C 
ATOM      8  C   UNL A   1      33.341  26.312  23.568  1.00  0.00     0.039 C 
ATOM      9  C   UNL A   1      31.986  24.408  24.007  1.00  0.00     0.111 C 
ATOM     10  C   UNL A   1      33.535  25.952  25.031  1.00  0.00     0.082 C 
BRANCH   7  11
ATOM     11  O   UNL A   1      30.811  26.385  23.327  1.00  0.00    -0.376 OA
BRANCH  11  12
ATOM     12  C   UNL A   1      30.766  27.788  23.538  1.00  0.00     0.189 C 
BRANCH  12  13
ATOM     13  C   UNL A   1      30.873  28.715  22.317  1.00  0.00     0.188 C 
BRANCH  13  14
ATOM     14  O   UNL A   1      29.644  29.201  21.794  1.00  0.00    -0.379 OA
BRANCH  14  15
ATOM     15  C   UNL A   1      29.119  30.387  22.381  1.00  0.00     0.160 C 
BRANCH  15  16
ATOM     16  C   UNL A   1      27.704  30.239  22.955  1.00  0.00     0.025 C 
ATOM     17  C   UNL A   1      27.180  28.818  23.109  1.00  0.00     0.006 C 
ENDBRANCH  15  16
ENDBRANCH  14  15
ENDBRANCH  13  14
ENDBRANCH  12  13
ENDBRANCH  11  12
ENDBRANCH   7  11
BRANCH   6  18
ATOM     18  N   UNL A   1      33.107  23.760  26.127  1.00  0.00    -0.345 N 
ATOM     19  H   UNL A   1      32.685  23.691  27.054  1.00  0.00     0.345 HD
ATOM     20  H   UNL A   1      34.109  23.927  26.222  1.00  0.00     0.345 HD
ATOM     21  H   UNL A   1      32.953  22.890  25.618  1.00  0.00     0.345 HD
ENDBRANCH   6  18
ENDBRANCH   3   6
ENDBRANCH   1   2
BRANCH   1  22
ATOM     22  C   UNL A   1      31.818  28.988  27.179  1.00  0.00     0.021 C 
BRANCH  22  23
ATOM     23  C   UNL A   1      32.239  30.023  26.129  1.00  0.00     0.002 C 
BRANCH  23  24
ATOM     24  C   UNL A   1      31.127  30.977  25.688  1.00  0.00     0.002 C 
BRANCH  24  25
ATOM     25  C   UNL A   1      31.109  32.322  26.419  1.00  0.00     0.021 C 
BRANCH  25  26
ATOM     26  C   UNL A   1      32.446  32.724  27.031  1.00  0.00     0.116 C 
BRANCH  26  27
ATOM     27  N   UNL A   1      32.402  34.067  27.585  1.00  0.00    -0.352 N 
ATOM     28  C   UNL A   1      33.136  34.608  28.604  1.00  0.00     0.251 C 
ATOM     29  H   UNL A   1      31.750  34.675  27.168  1.00  0.00     0.163 HD
ATOM     30  O   UNL A   1      32.809  35.692  29.091  1.00  0.00    -0.269 OA
BRANCH  28  31
ATOM     31  C   UNL A   1      34.314  33.892  29.135  1.00  0.00     0.039 A 
ATOM     32  C   UNL A   1      35.586  34.304  28.734  1.00  0.00     0.014 A 
ATOM     33  C   UNL A   1      34.167  32.802  30.000  1.00  0.00     0.014 A 
ATOM     34  C   UNL A   1      36.712  33.649  29.231  1.00  0.00     0.010 A 
ATOM     35  C   UNL A   1      35.293  32.197  30.553  1.00  0.00     0.010 A 
ATOM     36  C   UNL A   1      36.575  32.605  30.163  1.00  0.00    -0.014 A 
BRANCH  36  37
ATOM     37  C   UNL A   1      37.776  31.945  30.730  1.00  0.00     0.031 A 
ATOM     38  C   UNL A   1      38.257  32.285  32.111  1.00  0.00     0.074 A 
ATOM     39  C   UNL A   1      38.446  31.047  29.984  1.00  0.00     0.049 A 
ATOM     40  N   UNL A   1      39.250  31.767  32.790  1.00  0.00    -0.248 NA
ATOM     41  C   UNL A   1      37.546  33.363  32.815  1.00  0.00     0.031 C 
ATOM     42  C   UNL A   1      38.113  30.677  28.607  1.00  0.00     0.029 A 
ATOM     43  N   UNL A   1      39.537  30.272  30.283  1.00  0.00    -0.354 N 
ATOM     44  C   UNL A   1      39.283  32.456  33.996  1.00  0.00     0.074 A 
ATOM     45  C   UNL A   1      38.255  33.472  33.928  1.00  0.00     0.031 C 
ATOM     46  C   UNL A   1      38.948  29.710  28.200  1.00  0.00     0.029 A 
ATOM     47  C   UNL A   1      39.889  29.411  29.274  1.00  0.00     0.049 A 
ATOM     48  H   UNL A   1      40.020  30.328  31.139  1.00  0.00     0.167 HD
ATOM     49  C   UNL A   1      40.078  32.244  35.073  1.00  0.00     0.037 A 
ATOM     50  C   UNL A   1      40.851  28.471  29.229  1.00  0.00     0.037 A 
ATOM     51  C   UNL A   1      41.096  31.228  35.139  1.00  0.00     0.049 A 
ATOM     52  C   UNL A   1      41.717  28.250  30.435  1.00  0.00     0.074 A 
ATOM     53  C   UNL A   1      41.920  30.897  36.201  1.00  0.00     0.029 A 
ATOM     54  N   UNL A   1      41.432  30.381  34.094  1.00  0.00    -0.354 N 
ATOM     55  N   UNL A   1      41.690  28.856  31.597  1.00  0.00    -0.248 NA
ATOM     56  C   UNL A   1      42.744  27.206  30.324  1.00  0.00     0.031 C 
ATOM     57  C   UNL A   1      42.786  29.878  35.781  1.00  0.00     0.029 A 
ATOM     58  C   UNL A   1      42.467  29.542  34.475  1.00  0.00     0.049 A 
ATOM     59  H   UNL A   1      40.999  30.376  33.209  1.00  0.00     0.167 HD
ATOM     60  C   UNL A   1      42.677  28.253  32.365  1.00  0.00     0.074 A 
ATOM     61  C   UNL A   1      43.271  27.219  31.540  1.00  0.00     0.031 C 
ATOM     62  C   UNL A   1      43.059  28.529  33.637  1.00  0.00     0.037 A 
BRANCH  49  63
ATOM     63  C   UNL A   1      39.868  33.139  36.263  1.00  0.00     0.057 A 
ATOM     64  C   UNL A   1      38.937  32.830  37.265  1.00  0.00     0.134 A 
ATOM     65  C   UNL A   1      40.598  34.325  36.407  1.00  0.00     0.134 A 
ATOM     66  F   UNL A   1      38.194  31.715  37.182  1.00  0.00    -0.206 F 
ATOM     67  C   UNL A   1      38.712  33.685  38.345  1.00  0.00     0.040 A 
ATOM     68  C   UNL A   1      40.403  35.175  37.498  1.00  0.00     0.040 A 
ATOM     69  F   UNL A   1      41.509  34.681  35.489  1.00  0.00    -0.206 F 
ATOM     70  C   UNL A   1      39.450  34.861  38.466  1.00  0.00     0.006 A 
ENDBRANCH  49  63
BRANCH  50  71
ATOM     71  C   UNL A   1      40.996  27.625  28.020  1.00  0.00     0.057 A 
ATOM     72  C   UNL A   1      41.809  28.032  26.955  1.00  0.00     0.134 A 
ATOM     73  C   UNL A   1      40.348  26.391  27.903  1.00  0.00     0.134 A 
ATOM     74  F   UNL A   1      42.444  29.212  27.003  1.00  0.00    -0.206 F 
ATOM     75  C   UNL A   1      41.964  27.247  25.812  1.00  0.00     0.040 A 
ATOM     76  C   UNL A   1      40.511  25.585  26.775  1.00  0.00     0.040 A 
ATOM     77  F   UNL A   1      39.562  25.943  28.893  1.00  0.00    -0.206 F 
ATOM     78  C   UNL A   1      41.318  26.015  25.723  1.00  0.00     0.006 A 
ENDBRANCH  50  71
BRANCH  62  79
ATOM     79  C   UNL A   1      44.160  27.684  34.209  1.00  0.00     0.057 A 
ATOM     80  C   UNL A   1      43.903  26.454  34.827  1.00  0.00     0.134 A 
ATOM     81  C   UNL A   1      45.493  28.110  34.147  1.00  0.00     0.134 A 
ATOM     82  F   UNL A   1      42.646  25.996  34.933  1.00  0.00    -0.206 F 
ATOM     83  C   UNL A   1      44.927  25.694  35.395  1.00  0.00     0.040 A 
ATOM     84  C   UNL A   1      46.529  27.346  34.685  1.00  0.00     0.040 A 
ATOM     85  F   UNL A   1      45.810  29.275  33.561  1.00  0.00    -0.206 F 
ATOM     86  C   UNL A   1      46.246  26.139  35.321  1.00  0.00     0.006 A 
ENDBRANCH  62  79
ENDBRANCH  36  37
ENDBRANCH  28  31
ENDBRANCH  26  27
ENDBRANCH  25  26
ENDBRANCH  24  25
ENDBRANCH  23  24
ENDBRANCH  22  23
ENDBRANCH   1  22
TORSDOF 20
ENDMDL
MODEL 3
REMARK VINA RESULT:      -9.5      1.577      3.344
REMARK SMILES CCCOCCO[C@H]1CC[C@@]([NH3+])(C(=O)NCCCCCCNC(=O)c2ccc(-c3c4nc(c(-c5c(F)cccc5F)c5ccc([nH]5)c(-c5c(F)cccc5F)c5nc(c(-c6c(F)cccc6F)c6ccc3[nH]6)C=C5)C=C4)cc2)C1
REMARK SMILES IDX 16 1 15 2 13 3 14 4 11 6 8 7 9 8 79 9 10 10 7 11 6 12 5 13
REMARK SMILES IDX 4 14 3 15 2 16 1 17 12 18 17 22 18 23 19 24 20 25 21 26
REMARK SMILES IDX 22 27 23 28 24 30 25 31 26 32 78 33 27 34 77 35 28 36 29 37
REMARK SMILES IDX 30 38 71 39 31 40 76 41 70 42 72 43 32 44 75 45 69 46 68 47
REMARK SMILES IDX 33 49 59 50 42 51 58 52 43 53 46 54 57 55 73 56 44 57 45 58
REMARK SMILES IDX 56 60 74 61 47 62 34 63 35 64 40 65 36 66 37 67 39 68 41 69
REMARK SMILES IDX 38 70 60 71 61 72 66 73 62 74 63 75 65 76 67 77 64 78 48 79
REMARK SMILES IDX 49 80 54 81 50 82 51 83 53 84 55 85 52 86
REMARK H PARENT 15 5 12 19 12 20 12 21 22 29 72 48 46 59
REMARK Flexibility Score: inf
ROOT
ATOM      1  C   UNL A   1      34.323  22.234  26.380  1.00  0.00     0.116 C 
ENDROOT
BRANCH   1   2
ATOM      2  N   UNL A   1      33.445  23.268  26.885  1.00  0.00    -0.351 N 
ATOM      3  C   UNL A   1      32.131  23.519  26.631  1.00  0.00     0.281 C 
ATOM      4  O   UNL A   1      31.606  24.405  27.310  1.00  0.00    -0.268 OA
ATOM      5  H   UNL A   1      33.868  23.894  27.517  1.00  0.00     0.163 HD
BRANCH   3   6
ATOM      6  C   UNL A   1      31.308  22.629  25.639  1.00  0.00     0.176 C 
ATOM      7  C   UNL A   1      32.151  23.179  23.439  1.00  0.00     0.125 C 
ATOM      8  C   UNL A   1      32.433  21.700  23.653  1.00  0.00     0.039 C 
ATOM      9  C   UNL A   1      30.952  23.420  24.365  1.00  0.00     0.111 C 
ATOM     10  C   UNL A   1      32.063  21.403  25.096  1.00  0.00     0.082 C 
BRANCH   7  11
ATOM     11  O   UNL A   1      33.152  24.137  23.735  1.00  0.00    -0.376 OA
BRANCH  11  12
ATOM     12  C   UNL A   1      33.053  25.497  23.341  1.00  0.00     0.189 C 
BRANCH  12  13
ATOM     13  C   UNL A   1      32.442  26.502  24.331  1.00  0.00     0.188 C 
BRANCH  13  14
ATOM     14  O   UNL A   1      32.238  27.819  23.836  1.00  0.00    -0.379 OA
BRANCH  14  15
ATOM     15  C   UNL A   1      31.787  28.794  24.769  1.00  0.00     0.160 C 
BRANCH  15  16
ATOM     16  C   UNL A   1      32.108  28.470  26.233  1.00  0.00     0.025 C 
ATOM     17  C   UNL A   1      32.227  29.656  27.180  1.00  0.00     0.006 C 
ENDBRANCH  15  16
ENDBRANCH  14  15
ENDBRANCH  13  14
ENDBRANCH  12  13
ENDBRANCH  11  12
ENDBRANCH   7  11
BRANCH   6  18
ATOM     18  N   UNL A   1      30.078  22.217  26.355  1.00  0.00    -0.345 N 
ATOM     19  H   UNL A   1      29.293  22.204  25.702  1.00  0.00     0.345 HD
ATOM     20  H   UNL A   1      29.883  22.880  27.106  1.00  0.00     0.345 HD
ATOM     21  H   UNL A   1      30.209  21.286  26.748  1.00  0.00     0.345 HD
ENDBRANCH   6  18
ENDBRANCH   3   6
ENDBRANCH   1   2
BRANCH   1  22
ATOM     22  C   UNL A   1      35.627  22.841  25.856  1.00  0.00     0.021 C 
BRANCH  22  23
ATOM     23  C   UNL A   1      36.337  21.980  24.805  1.00  0.00     0.002 C 
BRANCH  23  24
ATOM     24  C   UNL A   1      36.129  20.473  24.964  1.00  0.00     0.002 C 
BRANCH  24  25
ATOM     25  C   UNL A   1      37.409  19.638  24.885  1.00  0.00     0.021 C 
BRANCH  25  26
ATOM     26  C   UNL A   1      38.619  20.273  25.561  1.00  0.00     0.116 C 
BRANCH  26  27
ATOM     27  N   UNL A   1      39.730  19.343  25.662  1.00  0.00    -0.352 N 
ATOM     28  C   UNL A   1      41.031  19.582  26.012  1.00  0.00     0.251 C 
ATOM     29  H   UNL A   1      39.517  18.406  25.447  1.00  0.00     0.163 HD
ATOM     30  O   UNL A   1      41.887  18.715  25.826  1.00  0.00    -0.269 OA
BRANCH  28  31
ATOM     31  C   UNL A   1      41.417  20.879  26.601  1.00  0.00     0.039 A 
ATOM     32  C   UNL A   1      41.921  21.874  25.761  1.00  0.00     0.014 A 
ATOM     33  C   UNL A   1      41.311  21.107  27.978  1.00  0.00     0.014 A 
ATOM     34  C   UNL A   1      42.283  23.110  26.295  1.00  0.00     0.010 A 
ATOM     35  C   UNL A   1      41.602  22.366  28.498  1.00  0.00     0.010 A 
ATOM     36  C   UNL A   1      42.104  23.374  27.664  1.00  0.00    -0.014 A 
BRANCH  36  37
ATOM     37  C   UNL A   1      42.440  24.708  28.220  1.00  0.00     0.031 A 
ATOM     38  C   UNL A   1      43.859  25.057  28.568  1.00  0.00     0.074 A 
ATOM     39  C   UNL A   1      41.454  25.599  28.428  1.00  0.00     0.049 A 
ATOM     40  N   UNL A   1      44.346  26.191  29.007  1.00  0.00    -0.248 NA
ATOM     41  C   UNL A   1      44.860  23.988  28.428  1.00  0.00     0.031 C 
ATOM     42  C   UNL A   1      40.031  25.357  28.187  1.00  0.00     0.029 A 
ATOM     43  N   UNL A   1      41.501  26.894  28.878  1.00  0.00    -0.354 N 
ATOM     44  C   UNL A   1      45.704  25.971  29.195  1.00  0.00     0.074 A 
ATOM     45  C   UNL A   1      45.952  24.579  28.888  1.00  0.00     0.031 C 
ATOM     46  C   UNL A   1      39.346  26.482  28.440  1.00  0.00     0.029 A 
ATOM     47  C   UNL A   1      40.277  27.515  28.885  1.00  0.00     0.049 A 
ATOM     48  H   UNL A   1      42.332  27.336  29.165  1.00  0.00     0.167 HD
ATOM     49  C   UNL A   1      46.664  26.854  29.564  1.00  0.00     0.037 A 
ATOM     50  C   UNL A   1      39.945  28.781  29.197  1.00  0.00     0.037 A 
ATOM     51  C   UNL A   1      46.414  28.240  29.863  1.00  0.00     0.049 A 
ATOM     52  C   UNL A   1      41.024  29.744  29.599  1.00  0.00     0.074 A 
ATOM     53  C   UNL A   1      47.323  29.231  30.196  1.00  0.00     0.029 A 
ATOM     54  N   UNL A   1      45.159  28.831  29.872  1.00  0.00    -0.354 N 
ATOM     55  N   UNL A   1      42.316  29.545  29.700  1.00  0.00    -0.248 NA
ATOM     56  C   UNL A   1      40.598  31.112  29.920  1.00  0.00     0.031 C 
ATOM     57  C   UNL A   1      46.611  30.411  30.449  1.00  0.00     0.029 A 
ATOM     58  C   UNL A   1      45.265  30.167  30.226  1.00  0.00     0.049 A 
ATOM     59  H   UNL A   1      44.317  28.369  29.657  1.00  0.00     0.167 HD
ATOM     60  C   UNL A   1      42.861  30.766  30.075  1.00  0.00     0.074 A 
ATOM     61  C   UNL A   1      41.759  31.703  30.161  1.00  0.00     0.031 C 
ATOM     62  C   UNL A   1      44.156  31.084  30.324  1.00  0.00     0.037 A 
BRANCH  49  63
ATOM     63  C   UNL A   1      48.070  26.333  29.662  1.00  0.00     0.057 A 
ATOM     64  C   UNL A   1      48.572  25.776  30.846  1.00  0.00     0.134 A 
ATOM     65  C   UNL A   1      48.936  26.394  28.563  1.00  0.00     0.134 A 
ATOM     66  F   UNL A   1      47.799  25.699  31.941  1.00  0.00    -0.206 F 
ATOM     67  C   UNL A   1      49.892  25.334  30.947  1.00  0.00     0.040 A 
ATOM     68  C   UNL A   1      50.251  25.929  28.642  1.00  0.00     0.040 A 
ATOM     69  F   UNL A   1      48.522  26.910  27.395  1.00  0.00    -0.206 F 
ATOM     70  C   UNL A   1      50.736  25.407  29.840  1.00  0.00     0.006 A 
ENDBRANCH  49  63
BRANCH  50  71
ATOM     71  C   UNL A   1      38.535  29.223  29.074  1.00  0.00     0.057 A 
ATOM     72  C   UNL A   1      38.020  29.643  27.842  1.00  0.00     0.134 A 
ATOM     73  C   UNL A   1      37.665  29.220  30.170  1.00  0.00     0.134 A 
ATOM     74  F   UNL A   1      38.810  29.681  26.759  1.00  0.00    -0.206 F 
ATOM     75  C   UNL A   1      36.694  30.055  27.706  1.00  0.00     0.040 A 
ATOM     76  C   UNL A   1      36.331  29.610  30.045  1.00  0.00     0.040 A 
ATOM     77  F   UNL A   1      38.097  28.821  31.376  1.00  0.00    -0.206 F 
ATOM     78  C   UNL A   1      35.843  30.032  28.809  1.00  0.00     0.006 A 
ENDBRANCH  50  71
BRANCH  62  79
ATOM     79  C   UNL A   1      44.441  32.509  30.699  1.00  0.00     0.057 A 
ATOM     80  C   UNL A   1      44.474  32.929  32.035  1.00  0.00     0.134 A 
ATOM     81  C   UNL A   1      44.680  33.474  29.712  1.00  0.00     0.134 A 
ATOM     82  F   UNL A   1      44.239  32.057  33.028  1.00  0.00    -0.206 F 
ATOM     83  C   UNL A   1      44.699  34.264  32.375  1.00  0.00     0.040 A 
ATOM     84  C   UNL A   1      44.934  34.806  30.041  1.00  0.00     0.040 A 
ATOM     85  F   UNL A   1      44.671  33.137  28.414  1.00  0.00    -0.206 F 
ATOM     86  C   UNL A   1      44.933  35.207  31.375  1.00  0.00     0.006 A 
ENDBRANCH  62  79
ENDBRANCH  36  37
ENDBRANCH  28  31
ENDBRANCH  26  27
ENDBRANCH  25  26
ENDBRANCH  24  25
ENDBRANCH  23  24
ENDBRANCH  22  23
ENDBRANCH   1  22
TORSDOF 20
ENDMDL
