MODEL 1
REMARK VINA RESULT:     -12.1      0.000      0.000
REMARK SMILES C[C@@]1(C(=O)NCCCCCCNC(=O)c2ccc(-c3c4nc(c(-c5c(F)cccc5F)c5ccc([nH]5)c(-c5c(F)cccc5F)c5nc(c(-c6c(F)cccc6F)c6ccc3[nH]6)C=C5)C=C4)cc2)[C@@H]2C=C[C@@]3(CN(c4ccccc4)C(=O)[C@H]13)O2
REMARK SMILES IDX 9 1 8 2 7 3 6 4 5 5 3 6 4 7 2 9 1 10 69 11 83 12 70 13 84 14
REMARK SMILES IDX 72 15 81 16 71 17 73 18 74 19 82 20 75 21 76 22 80 23 77 24
REMARK SMILES IDX 79 25 78 26 10 27 11 28 12 29 13 30 14 32 15 33 16 34 68 35
REMARK SMILES IDX 17 36 67 37 18 38 19 39 20 40 61 41 21 42 66 43 60 44 62 45
REMARK SMILES IDX 22 46 65 47 59 48 58 49 23 51 49 52 32 53 48 54 33 55 36 56
REMARK SMILES IDX 47 57 63 58 34 59 35 60 46 62 64 63 37 64 24 65 25 66 30 67
REMARK SMILES IDX 26 68 27 69 29 70 31 71 28 72 50 73 51 74 56 75 52 76 53 77
REMARK SMILES IDX 55 78 57 79 54 80 38 81 39 82 44 83 40 84 41 85 43 86 45 87
REMARK SMILES IDX 42 88
REMARK H PARENT 5 8 12 31 62 50 36 61
REMARK Flexibility Score: inf
ROOT
ATOM      1  C   UNL A   1      35.955  20.531  24.950  1.00  0.00     0.002 C 
ENDROOT
BRANCH   1   2
ATOM      2  C   UNL A   1      34.621  19.786  24.866  1.00  0.00     0.002 C 
BRANCH   2   3
ATOM      3  C   UNL A   1      33.516  20.235  25.819  1.00  0.00     0.021 C 
BRANCH   3   4
ATOM      4  C   UNL A   1      33.911  21.232  26.904  1.00  0.00     0.116 C 
BRANCH   4   5
ATOM      5  N   UNL A   1      32.862  22.154  27.273  1.00  0.00    -0.356 N 
ATOM      6  C   UNL A   1      32.172  23.121  26.626  1.00  0.00     0.229 C 
ATOM      7  O   UNL A   1      31.219  23.561  27.289  1.00  0.00    -0.274 OA
ATOM      8  H   UNL A   1      32.585  22.055  28.212  1.00  0.00     0.163 HD
BRANCH   6   9
ATOM      9  C   UNL A   1      32.408  23.669  25.197  1.00  0.00     0.091 C 
ATOM     10  C   UNL A   1      31.464  22.853  24.258  1.00  0.00     0.026 C 
ATOM     11  C   UNL A   1      33.845  23.501  24.606  1.00  0.00     0.158 C 
ATOM     12  C   UNL A   1      32.186  25.149  24.883  1.00  0.00     0.135 C 
ATOM     13  C   UNL A   1      34.892  24.096  25.486  1.00  0.00     0.004 C 
ATOM     14  O   UNL A   1      33.846  24.563  23.539  1.00  0.00    -0.360 OA
ATOM     15  C   UNL A   1      33.575  25.639  24.444  1.00  0.00     0.118 C 
ATOM     16  C   UNL A   1      31.706  26.280  25.726  1.00  0.00     0.234 C 
ATOM     17  C   UNL A   1      34.729  25.419  25.390  1.00  0.00     0.009 C 
ATOM     18  C   UNL A   1      33.270  27.085  24.110  1.00  0.00     0.166 C 
ATOM     19  N   UNL A   1      32.347  27.434  25.205  1.00  0.00    -0.309 N 
ATOM     20  O   UNL A   1      30.837  26.191  26.574  1.00  0.00    -0.274 OA
BRANCH  19  21
ATOM     21  C   UNL A   1      32.157  28.754  25.677  1.00  0.00     0.044 A 
ATOM     22  C   UNL A   1      32.849  29.221  26.802  1.00  0.00     0.026 A 
ATOM     23  C   UNL A   1      31.264  29.628  25.041  1.00  0.00     0.026 A 
ATOM     24  C   UNL A   1      32.661  30.529  27.264  1.00  0.00     0.002 A 
ATOM     25  C   UNL A   1      31.055  30.925  25.518  1.00  0.00     0.002 A 
ATOM     26  C   UNL A   1      31.759  31.378  26.626  1.00  0.00     0.000 A 
ENDBRANCH  19  21
ENDBRANCH   6   9
ENDBRANCH   4   5
ENDBRANCH   3   4
ENDBRANCH   2   3
ENDBRANCH   1   2
BRANCH   1  27
ATOM     27  C   UNL A   1      37.233  19.687  24.949  1.00  0.00     0.021 C 
BRANCH  27  28
ATOM     28  C   UNL A   1      38.473  20.309  25.585  1.00  0.00     0.116 C 
BRANCH  28  29
ATOM     29  N   UNL A   1      39.604  19.404  25.635  1.00  0.00    -0.352 N 
ATOM     30  C   UNL A   1      40.901  19.613  26.029  1.00  0.00     0.251 C 
ATOM     31  H   UNL A   1      39.410  18.487  25.336  1.00  0.00     0.163 HD
ATOM     32  O   UNL A   1      41.728  18.717  25.877  1.00  0.00    -0.269 OA
BRANCH  30  33
ATOM     33  C   UNL A   1      41.333  20.906  26.608  1.00  0.00     0.039 A 
ATOM     34  C   UNL A   1      41.806  21.892  25.736  1.00  0.00     0.014 A 
ATOM     35  C   UNL A   1      41.338  21.140  27.987  1.00  0.00     0.014 A 
ATOM     36  C   UNL A   1      42.235  23.124  26.235  1.00  0.00     0.010 A 
ATOM     37  C   UNL A   1      41.709  22.393  28.481  1.00  0.00     0.010 A 
ATOM     38  C   UNL A   1      42.167  23.395  27.611  1.00  0.00    -0.014 A 
BRANCH  38  39
ATOM     39  C   UNL A   1      42.579  24.718  28.143  1.00  0.00     0.031 A 
ATOM     40  C   UNL A   1      41.564  25.804  28.361  1.00  0.00     0.074 A 
ATOM     41  C   UNL A   1      43.881  24.957  28.393  1.00  0.00     0.049 A 
ATOM     42  N   UNL A   1      41.742  27.028  28.790  1.00  0.00    -0.248 NA
ATOM     43  C   UNL A   1      40.167  25.478  28.035  1.00  0.00     0.031 C 
ATOM     44  C   UNL A   1      44.972  24.005  28.176  1.00  0.00     0.029 A 
ATOM     45  N   UNL A   1      44.507  26.078  28.876  1.00  0.00    -0.354 N 
ATOM     46  C   UNL A   1      40.486  27.621  28.773  1.00  0.00     0.074 A 
ATOM     47  C   UNL A   1      39.562  26.637  28.251  1.00  0.00     0.031 C 
ATOM     48  C   UNL A   1      46.131  24.579  28.538  1.00  0.00     0.029 A 
ATOM     49  C   UNL A   1      45.869  25.942  28.990  1.00  0.00     0.049 A 
ATOM     50  H   UNL A   1      44.025  26.903  29.118  1.00  0.00     0.167 HD
ATOM     51  C   UNL A   1      40.131  28.866  29.175  1.00  0.00     0.037 A 
ATOM     52  C   UNL A   1      46.802  26.817  29.410  1.00  0.00     0.037 A 
ATOM     53  C   UNL A   1      41.043  29.838  29.717  1.00  0.00     0.049 A 
ATOM     54  C   UNL A   1      46.380  28.180  29.877  1.00  0.00     0.074 A 
ATOM     55  C   UNL A   1      40.767  31.106  30.200  1.00  0.00     0.029 A 
ATOM     56  N   UNL A   1      42.409  29.650  29.850  1.00  0.00    -0.354 N 
ATOM     57  N   UNL A   1      45.180  28.706  29.911  1.00  0.00    -0.248 NA
ATOM     58  C   UNL A   1      47.441  29.066  30.376  1.00  0.00     0.031 C 
ATOM     59  C   UNL A   1      41.973  31.695  30.599  1.00  0.00     0.029 A 
ATOM     60  C   UNL A   1      42.993  30.781  30.395  1.00  0.00     0.049 A 
ATOM     61  H   UNL A   1      42.894  28.831  29.594  1.00  0.00     0.167 HD
ATOM     62  C   UNL A   1      45.338  29.977  30.448  1.00  0.00     0.074 A 
ATOM     63  C   UNL A   1      46.747  30.136  30.742  1.00  0.00     0.031 C 
ATOM     64  C   UNL A   1      44.399  30.926  30.677  1.00  0.00     0.037 A 
BRANCH  51  65
ATOM     65  C   UNL A   1      38.683  29.240  29.045  1.00  0.00     0.057 A 
ATOM     66  C   UNL A   1      38.135  29.642  27.820  1.00  0.00     0.134 A 
ATOM     67  C   UNL A   1      37.825  29.180  30.150  1.00  0.00     0.134 A 
ATOM     68  F   UNL A   1      38.906  29.733  26.727  1.00  0.00    -0.206 F 
ATOM     69  C   UNL A   1      36.790  29.999  27.705  1.00  0.00     0.040 A 
ATOM     70  C   UNL A   1      36.473  29.512  30.042  1.00  0.00     0.040 A 
ATOM     71  F   UNL A   1      38.285  28.797  31.350  1.00  0.00    -0.206 F 
ATOM     72  C   UNL A   1      35.954  29.930  28.817  1.00  0.00     0.006 A 
ENDBRANCH  51  65
BRANCH  52  73
ATOM     73  C   UNL A   1      48.227  26.412  29.434  1.00  0.00     0.057 A 
ATOM     74  C   UNL A   1      48.777  25.770  30.549  1.00  0.00     0.134 A 
ATOM     75  C   UNL A   1      49.070  26.649  28.342  1.00  0.00     0.134 A 
ATOM     76  F   UNL A   1      48.022  25.534  31.631  1.00  0.00    -0.206 F 
ATOM     77  C   UNL A   1      50.118  25.385  30.582  1.00  0.00     0.040 A 
ATOM     78  C   UNL A   1      50.408  26.253  28.354  1.00  0.00     0.040 A 
ATOM     79  F   UNL A   1      48.598  27.255  27.242  1.00  0.00    -0.206 F 
ATOM     80  C   UNL A   1      50.936  25.623  29.479  1.00  0.00     0.006 A 
ENDBRANCH  52  73
BRANCH  64  81
ATOM     81  C   UNL A   1      44.866  32.213  31.288  1.00  0.00     0.057 A 
ATOM     82  C   UNL A   1      45.259  33.301  30.499  1.00  0.00     0.134 A 
ATOM     83  C   UNL A   1      44.902  32.373  32.678  1.00  0.00     0.134 A 
ATOM     84  F   UNL A   1      45.260  33.205  29.160  1.00  0.00    -0.206 F 
ATOM     85  C   UNL A   1      45.690  34.498  31.071  1.00  0.00     0.040 A 
ATOM     86  C   UNL A   1      45.313  33.571  33.263  1.00  0.00     0.040 A 
ATOM     87  F   UNL A   1      44.533  31.370  33.490  1.00  0.00    -0.206 F 
ATOM     88  C   UNL A   1      45.714  34.637  32.459  1.00  0.00     0.006 A 
ENDBRANCH  64  81
ENDBRANCH  38  39
ENDBRANCH  30  33
ENDBRANCH  28  29
ENDBRANCH  27  28
ENDBRANCH   1  27
TORSDOF 14
ENDMDL
MODEL 2
REMARK VINA RESULT:     -12.1      2.146      7.760
REMARK SMILES C[C@@]1(C(=O)NCCCCCCNC(=O)c2ccc(-c3c4nc(c(-c5c(F)cccc5F)c5ccc([nH]5)c(-c5c(F)cccc5F)c5nc(c(-c6c(F)cccc6F)c6ccc3[nH]6)C=C5)C=C4)cc2)[C@@H]2C=C[C@@]3(CN(c4ccccc4)C(=O)[C@H]13)O2
REMARK SMILES IDX 9 1 8 2 7 3 6 4 5 5 3 6 4 7 2 9 1 10 69 11 83 12 70 13 84 14
REMARK SMILES IDX 72 15 81 16 71 17 73 18 74 19 82 20 75 21 76 22 80 23 77 24
REMARK SMILES IDX 79 25 78 26 10 27 11 28 12 29 13 30 14 32 15 33 16 34 68 35
REMARK SMILES IDX 17 36 67 37 18 38 19 39 20 40 61 41 21 42 66 43 60 44 62 45
REMARK SMILES IDX 22 46 65 47 59 48 58 49 23 51 49 52 32 53 48 54 33 55 36 56
REMARK SMILES IDX 47 57 63 58 34 59 35 60 46 62 64 63 37 64 24 65 25 66 30 67
REMARK SMILES IDX 26 68 27 69 29 70 31 71 28 72 50 73 51 74 56 75 52 76 53 77
REMARK SMILES IDX 55 78 57 79 54 80 38 81 39 82 44 83 40 84 41 85 43 86 45 87
REMARK SMILES IDX 42 88
REMARK H PARENT 5 8 12 31 62 50 36 61
REMARK Flexibility Score: inf
ROOT
ATOM      1  C   UNL A   1      33.069  29.126  24.756  1.00  0.00     0.002 C 
ENDROOT
BRANCH   1   2
ATOM      2  C   UNL A   1      31.727  28.574  24.269  1.00  0.00     0.002 C 
BRANCH   2   3
ATOM      3  C   UNL A   1      31.512  28.511  22.759  1.00  0.00     0.021 C 
BRANCH   3   4
ATOM      4  C   UNL A   1      31.360  27.122  22.147  1.00  0.00     0.116 C 
BRANCH   4   5
ATOM      5  N   UNL A   1      32.511  26.267  22.322  1.00  0.00    -0.356 N 
ATOM      6  C   UNL A   1      32.783  25.177  23.077  1.00  0.00     0.229 C 
ATOM      7  O   UNL A   1      33.865  24.643  22.783  1.00  0.00    -0.274 OA
ATOM      8  H   UNL A   1      33.274  26.540  21.763  1.00  0.00     0.163 HD
BRANCH   6   9
ATOM      9  C   UNL A   1      31.903  24.533  24.176  1.00  0.00     0.091 C 
ATOM     10  C   UNL A   1      30.458  25.084  23.953  1.00  0.00     0.026 C 
ATOM     11  C   UNL A   1      32.263  24.873  25.657  1.00  0.00     0.158 C 
ATOM     12  C   UNL A   1      31.792  23.012  24.293  1.00  0.00     0.135 C 
ATOM     13  C   UNL A   1      33.684  24.549  25.982  1.00  0.00     0.004 C 
ATOM     14  O   UNL A   1      31.620  23.722  26.384  1.00  0.00    -0.360 OA
ATOM     15  C   UNL A   1      32.362  22.714  25.689  1.00  0.00     0.118 C 
ATOM     16  C   UNL A   1      32.370  21.910  23.475  1.00  0.00     0.234 C 
ATOM     17  C   UNL A   1      33.749  23.215  26.003  1.00  0.00     0.009 C 
ATOM     18  C   UNL A   1      32.179  21.211  25.751  1.00  0.00     0.166 C 
ATOM     19  N   UNL A   1      32.551  20.829  24.377  1.00  0.00    -0.309 N 
ATOM     20  O   UNL A   1      32.502  21.941  22.266  1.00  0.00    -0.274 OA
BRANCH  19  21
ATOM     21  C   UNL A   1      33.046  19.551  24.028  1.00  0.00     0.044 A 
ATOM     22  C   UNL A   1      32.364  18.742  23.111  1.00  0.00     0.026 A 
ATOM     23  C   UNL A   1      34.227  19.051  24.598  1.00  0.00     0.026 A 
ATOM     24  C   UNL A   1      32.858  17.479  22.766  1.00  0.00     0.002 A 
ATOM     25  C   UNL A   1      34.706  17.779  24.275  1.00  0.00     0.002 A 
ATOM     26  C   UNL A   1      34.025  16.995  23.353  1.00  0.00     0.000 A 
ENDBRANCH  19  21
ENDBRANCH   6   9
ENDBRANCH   4   5
ENDBRANCH   3   4
ENDBRANCH   2   3
ENDBRANCH   1   2
BRANCH   1  27
ATOM     27  C   UNL A   1      33.927  28.213  25.636  1.00  0.00     0.021 C 
BRANCH  27  28
ATOM     28  C   UNL A   1      33.755  28.347  27.147  1.00  0.00     0.116 C 
BRANCH  28  29
ATOM     29  N   UNL A   1      33.650  29.723  27.589  1.00  0.00    -0.352 N 
ATOM     30  C   UNL A   1      34.561  30.534  28.216  1.00  0.00     0.251 C 
ATOM     31  H   UNL A   1      32.779  30.146  27.412  1.00  0.00     0.163 HD
ATOM     32  O   UNL A   1      34.210  31.645  28.606  1.00  0.00    -0.269 OA
BRANCH  30  33
ATOM     33  C   UNL A   1      35.953  30.089  28.458  1.00  0.00     0.039 A 
ATOM     34  C   UNL A   1      36.860  30.159  27.396  1.00  0.00     0.014 A 
ATOM     35  C   UNL A   1      36.361  29.552  29.683  1.00  0.00     0.014 A 
ATOM     36  C   UNL A   1      38.181  29.741  27.571  1.00  0.00     0.010 A 
ATOM     37  C   UNL A   1      37.697  29.190  29.877  1.00  0.00     0.010 A 
ATOM     38  C   UNL A   1      38.618  29.276  28.821  1.00  0.00    -0.014 A 
BRANCH  38  39
ATOM     39  C   UNL A   1      40.032  28.873  29.027  1.00  0.00     0.031 A 
ATOM     40  C   UNL A   1      41.017  29.827  29.639  1.00  0.00     0.074 A 
ATOM     41  C   UNL A   1      40.440  27.654  28.623  1.00  0.00     0.049 A 
ATOM     42  N   UNL A   1      42.296  29.661  29.869  1.00  0.00    -0.248 NA
ATOM     43  C   UNL A   1      40.504  31.150  30.025  1.00  0.00     0.031 C 
ATOM     44  C   UNL A   1      39.595  26.654  27.969  1.00  0.00     0.029 A 
ATOM     45  N   UNL A   1      41.672  27.056  28.695  1.00  0.00    -0.354 N 
ATOM     46  C   UNL A   1      42.741  30.859  30.413  1.00  0.00     0.074 A 
ATOM     47  C   UNL A   1      41.607  31.757  30.439  1.00  0.00     0.031 C 
ATOM     48  C   UNL A   1      40.331  25.560  27.713  1.00  0.00     0.029 A 
ATOM     49  C   UNL A   1      41.701  25.790  28.162  1.00  0.00     0.049 A 
ATOM     50  H   UNL A   1      42.462  27.492  29.091  1.00  0.00     0.167 HD
ATOM     51  C   UNL A   1      43.978  31.175  30.869  1.00  0.00     0.037 A 
ATOM     52  C   UNL A   1      42.716  24.913  28.048  1.00  0.00     0.037 A 
ATOM     53  C   UNL A   1      45.101  30.276  30.866  1.00  0.00     0.049 A 
ATOM     54  C   UNL A   1      44.070  25.276  28.586  1.00  0.00     0.074 A 
ATOM     55  C   UNL A   1      46.379  30.489  31.355  1.00  0.00     0.029 A 
ATOM     56  N   UNL A   1      45.081  28.989  30.351  1.00  0.00    -0.354 N 
ATOM     57  N   UNL A   1      44.462  26.391  29.152  1.00  0.00    -0.248 NA
ATOM     58  C   UNL A   1      45.120  24.253  28.480  1.00  0.00     0.031 C 
ATOM     59  C   UNL A   1      47.140  29.339  31.109  1.00  0.00     0.029 A 
ATOM     60  C   UNL A   1      46.326  28.400  30.497  1.00  0.00     0.049 A 
ATOM     61  H   UNL A   1      44.297  28.558  29.940  1.00  0.00     0.167 HD
ATOM     62  C   UNL A   1      45.796  26.200  29.485  1.00  0.00     0.074 A 
ATOM     63  C   UNL A   1      46.142  24.855  29.073  1.00  0.00     0.031 C 
ATOM     64  C   UNL A   1      46.657  27.062  30.078  1.00  0.00     0.037 A 
BRANCH  51  65
ATOM     65  C   UNL A   1      44.173  32.559  31.415  1.00  0.00     0.057 A 
ATOM     66  C   UNL A   1      43.990  32.846  32.774  1.00  0.00     0.134 A 
ATOM     67  C   UNL A   1      44.564  33.611  30.578  1.00  0.00     0.134 A 
ATOM     68  F   UNL A   1      43.603  31.885  33.625  1.00  0.00    -0.206 F 
ATOM     69  C   UNL A   1      44.163  34.137  33.277  1.00  0.00     0.040 A 
ATOM     70  C   UNL A   1      44.762  34.902  31.073  1.00  0.00     0.040 A 
ATOM     71  F   UNL A   1      44.761  33.403  29.268  1.00  0.00    -0.206 F 
ATOM     72  C   UNL A   1      44.554  35.168  32.425  1.00  0.00     0.006 A 
ENDBRANCH  51  65
BRANCH  52  73
ATOM     73  C   UNL A   1      42.476  23.592  27.420  1.00  0.00     0.057 A 
ATOM     74  C   UNL A   1      42.106  22.484  28.190  1.00  0.00     0.134 A 
ATOM     75  C   UNL A   1      42.602  23.409  26.039  1.00  0.00     0.134 A 
ATOM     76  F   UNL A   1      41.989  22.596  29.521  1.00  0.00    -0.206 F 
ATOM     77  C   UNL A   1      41.878  21.236  27.609  1.00  0.00     0.040 A 
ATOM     78  C   UNL A   1      42.359  22.171  25.442  1.00  0.00     0.040 A 
ATOM     79  F   UNL A   1      42.947  24.436  25.248  1.00  0.00    -0.206 F 
ATOM     80  C   UNL A   1      42.000  21.079  26.230  1.00  0.00     0.006 A 
ENDBRANCH  52  73
BRANCH  64  81
ATOM     81  C   UNL A   1      48.050  26.569  30.328  1.00  0.00     0.057 A 
ATOM     82  C   UNL A   1      48.394  25.912  31.516  1.00  0.00     0.134 A 
ATOM     83  C   UNL A   1      49.050  26.730  29.362  1.00  0.00     0.134 A 
ATOM     84  F   UNL A   1      47.484  25.739  32.486  1.00  0.00    -0.206 F 
ATOM     85  C   UNL A   1      49.692  25.451  31.744  1.00  0.00     0.040 A 
ATOM     86  C   UNL A   1      50.346  26.257  29.569  1.00  0.00     0.040 A 
ATOM     87  F   UNL A   1      48.783  27.345  28.200  1.00  0.00    -0.206 F 
ATOM     88  C   UNL A   1      50.672  25.619  30.766  1.00  0.00     0.006 A 
ENDBRANCH  64  81
ENDBRANCH  38  39
ENDBRANCH  30  33
ENDBRANCH  28  29
ENDBRANCH  27  28
ENDBRANCH   1  27
TORSDOF 14
ENDMDL
MODEL 3
REMARK VINA RESULT:     -12.0      1.174      1.787
REMARK SMILES C[C@@]1(C(=O)NCCCCCCNC(=O)c2ccc(-c3c4nc(c(-c5c(F)cccc5F)c5ccc([nH]5)c(-c5c(F)cccc5F)c5nc(c(-c6c(F)cccc6F)c6ccc3[nH]6)C=C5)C=C4)cc2)[C@@H]2C=C[C@@]3(CN(c4ccccc4)C(=O)[C@H]13)O2
REMARK SMILES IDX 9 1 8 2 7 3 6 4 5 5 3 6 4 7 2 9 1 10 69 11 83 12 70 13 84 14
REMARK SMILES IDX 72 15 81 16 71 17 73 18 74 19 82 20 75 21 76 22 80 23 77 24
REMARK SMILES IDX 79 25 78 26 10 27 11 28 12 29 13 30 14 32 15 33 16 34 68 35
REMARK SMILES IDX 17 36 67 37 18 38 19 39 20 40 61 41 21 42 66 43 60 44 62 45
REMARK SMILES IDX 22 46 65 47 59 48 58 49 23 51 49 52 32 53 48 54 33 55 36 56
REMARK SMILES IDX 47 57 63 58 34 59 35 60 46 62 64 63 37 64 24 65 25 66 30 67
REMARK SMILES IDX 26 68 27 69 29 70 31 71 28 72 50 73 51 74 56 75 52 76 53 77
REMARK SMILES IDX 55 78 57 79 54 80 38 81 39 82 44 83 40 84 41 85 43 86 45 87
REMARK SMILES IDX 42 88
REMARK H PARENT 5 8 12 31 62 50 36 61
REMARK Flexibility Score: inf
ROOT
ATOM      1  C   UNL A   1      36.111  19.934  25.001  1.00  0.00     0.002 C 
ENDROOT
BRANCH   1   2
ATOM      2  C   UNL A   1      35.416  21.297  24.950  1.00  0.00     0.002 C 
BRANCH   2   3
ATOM      3  C   UNL A   1      34.598  21.704  26.172  1.00  0.00     0.021 C 
BRANCH   3   4
ATOM      4  C   UNL A   1      34.613  23.183  26.544  1.00  0.00     0.116 C 
BRANCH   4   5
ATOM      5  N   UNL A   1      33.305  23.749  26.783  1.00  0.00    -0.356 N 
ATOM      6  C   UNL A   1      32.259  24.094  25.998  1.00  0.00     0.229 C 
ATOM      7  O   UNL A   1      31.244  24.391  26.648  1.00  0.00    -0.274 OA
ATOM      8  H   UNL A   1      33.137  23.923  27.737  1.00  0.00     0.163 HD
BRANCH   6   9
ATOM      9  C   UNL A   1      32.189  24.105  24.451  1.00  0.00     0.091 C 
ATOM     10  C   UNL A   1      31.759  22.665  24.025  1.00  0.00     0.026 C 
ATOM     11  C   UNL A   1      33.520  24.394  23.687  1.00  0.00     0.158 C 
ATOM     12  C   UNL A   1      31.269  25.084  23.720  1.00  0.00     0.135 C 
ATOM     13  C   UNL A   1      34.148  25.680  24.110  1.00  0.00     0.004 C 
ATOM     14  O   UNL A   1      32.995  24.852  22.352  1.00  0.00    -0.360 OA
ATOM     15  C   UNL A   1      32.239  25.941  22.890  1.00  0.00     0.118 C 
ATOM     16  C   UNL A   1      30.302  26.100  24.222  1.00  0.00     0.234 C 
ATOM     17  C   UNL A   1      33.358  26.640  23.621  1.00  0.00     0.009 C 
ATOM     18  C   UNL A   1      31.263  26.848  22.168  1.00  0.00     0.166 C 
ATOM     19  N   UNL A   1      30.294  27.126  23.243  1.00  0.00    -0.309 N 
ATOM     20  O   UNL A   1      29.593  25.955  25.200  1.00  0.00    -0.274 OA
BRANCH  19  21
ATOM     21  C   UNL A   1      29.485  28.287  23.285  1.00  0.00     0.044 A 
ATOM     22  C   UNL A   1      28.108  28.212  23.046  1.00  0.00     0.026 A 
ATOM     23  C   UNL A   1      30.041  29.546  23.556  1.00  0.00     0.026 A 
ATOM     24  C   UNL A   1      27.310  29.362  23.092  1.00  0.00     0.002 A 
ATOM     25  C   UNL A   1      29.251  30.698  23.574  1.00  0.00     0.002 A 
ATOM     26  C   UNL A   1      27.883  30.605  23.349  1.00  0.00     0.000 A 
ENDBRANCH  19  21
ENDBRANCH   6   9
ENDBRANCH   4   5
ENDBRANCH   3   4
ENDBRANCH   2   3
ENDBRANCH   1   2
BRANCH   1  27
ATOM     27  C   UNL A   1      37.596  19.887  24.632  1.00  0.00     0.021 C 
BRANCH  27  28
ATOM     28  C   UNL A   1      38.595  20.204  25.742  1.00  0.00     0.116 C 
BRANCH  28  29
ATOM     29  N   UNL A   1      39.761  19.342  25.724  1.00  0.00    -0.352 N 
ATOM     30  C   UNL A   1      41.068  19.597  26.051  1.00  0.00     0.251 C 
ATOM     31  H   UNL A   1      39.585  18.420  25.428  1.00  0.00     0.163 HD
ATOM     32  O   UNL A   1      41.919  18.734  25.848  1.00  0.00    -0.269 OA
BRANCH  30  33
ATOM     33  C   UNL A   1      41.481  20.901  26.619  1.00  0.00     0.039 A 
ATOM     34  C   UNL A   1      42.025  21.854  25.751  1.00  0.00     0.014 A 
ATOM     35  C   UNL A   1      41.400  21.178  27.987  1.00  0.00     0.014 A 
ATOM     36  C   UNL A   1      42.439  23.095  26.239  1.00  0.00     0.010 A 
ATOM     37  C   UNL A   1      41.757  22.440  28.467  1.00  0.00     0.010 A 
ATOM     38  C   UNL A   1      42.286  23.408  27.599  1.00  0.00    -0.014 A 
BRANCH  38  39
ATOM     39  C   UNL A   1      42.683  24.742  28.117  1.00  0.00     0.031 A 
ATOM     40  C   UNL A   1      41.653  25.811  28.343  1.00  0.00     0.074 A 
ATOM     41  C   UNL A   1      43.984  25.004  28.348  1.00  0.00     0.049 A 
ATOM     42  N   UNL A   1      41.816  27.042  28.762  1.00  0.00    -0.248 NA
ATOM     43  C   UNL A   1      40.257  25.461  28.039  1.00  0.00     0.031 C 
ATOM     44  C   UNL A   1      45.088  24.070  28.121  1.00  0.00     0.029 A 
ATOM     45  N   UNL A   1      44.598  26.139  28.815  1.00  0.00    -0.354 N 
ATOM     46  C   UNL A   1      40.550  27.613  28.760  1.00  0.00     0.074 A 
ATOM     47  C   UNL A   1      39.636  26.610  28.256  1.00  0.00     0.031 C 
ATOM     48  C   UNL A   1      46.242  24.665  28.463  1.00  0.00     0.029 A 
ATOM     49  C   UNL A   1      45.963  26.026  28.910  1.00  0.00     0.049 A 
ATOM     50  H   UNL A   1      44.105  26.957  29.059  1.00  0.00     0.167 HD
ATOM     51  C   UNL A   1      40.179  28.854  29.159  1.00  0.00     0.037 A 
ATOM     52  C   UNL A   1      46.887  26.919  29.313  1.00  0.00     0.037 A 
ATOM     53  C   UNL A   1      41.082  29.845  29.682  1.00  0.00     0.049 A 
ATOM     54  C   UNL A   1      46.448  28.278  29.777  1.00  0.00     0.074 A 
ATOM     55  C   UNL A   1      40.792  31.111  30.161  1.00  0.00     0.029 A 
ATOM     56  N   UNL A   1      42.453  29.680  29.797  1.00  0.00    -0.354 N 
ATOM     57  N   UNL A   1      45.241  28.785  29.825  1.00  0.00    -0.248 NA
ATOM     58  C   UNL A   1      47.501  29.185  30.255  1.00  0.00     0.031 C 
ATOM     59  C   UNL A   1      41.993  31.723  30.540  1.00  0.00     0.029 A 
ATOM     60  C   UNL A   1      43.026  30.825  30.326  1.00  0.00     0.049 A 
ATOM     61  H   UNL A   1      42.949  28.869  29.539  1.00  0.00     0.167 HD
ATOM     62  C   UNL A   1      45.384  30.061  30.352  1.00  0.00     0.074 A 
ATOM     63  C   UNL A   1      46.795  30.245  30.625  1.00  0.00     0.031 C 
ATOM     64  C   UNL A   1      44.432  30.996  30.588  1.00  0.00     0.037 A 
BRANCH  51  65
ATOM     65  C   UNL A   1      38.724  29.203  29.047  1.00  0.00     0.057 A 
ATOM     66  C   UNL A   1      38.159  29.622  27.835  1.00  0.00     0.134 A 
ATOM     67  C   UNL A   1      37.875  29.102  30.156  1.00  0.00     0.134 A 
ATOM     68  F   UNL A   1      38.921  29.751  26.739  1.00  0.00    -0.206 F 
ATOM     69  C   UNL A   1      36.807  29.954  27.736  1.00  0.00     0.040 A 
ATOM     70  C   UNL A   1      36.516  29.410  30.064  1.00  0.00     0.040 A 
ATOM     71  F   UNL A   1      38.351  28.702  31.344  1.00  0.00    -0.206 F 
ATOM     72  C   UNL A   1      35.981  29.844  28.853  1.00  0.00     0.006 A 
ENDBRANCH  51  65
BRANCH  52  73
ATOM     73  C   UNL A   1      48.319  26.539  29.319  1.00  0.00     0.057 A 
ATOM     74  C   UNL A   1      49.152  26.845  28.236  1.00  0.00     0.134 A 
ATOM     75  C   UNL A   1      48.891  25.872  30.407  1.00  0.00     0.134 A 
ATOM     76  F   UNL A   1      48.654  27.468  27.158  1.00  0.00    -0.206 F 
ATOM     77  C   UNL A   1      50.502  26.492  28.231  1.00  0.00     0.040 A 
ATOM     78  C   UNL A   1      50.244  25.529  30.424  1.00  0.00     0.040 A 
ATOM     79  F   UNL A   1      48.145  25.558  31.477  1.00  0.00    -0.206 F 
ATOM     80  C   UNL A   1      51.052  25.836  29.331  1.00  0.00     0.006 A 
ENDBRANCH  52  73
BRANCH  64  81
ATOM     81  C   UNL A   1      44.886  32.294  31.185  1.00  0.00     0.057 A 
ATOM     82  C   UNL A   1      45.254  33.382  30.383  1.00  0.00     0.134 A 
ATOM     83  C   UNL A   1      44.934  32.465  32.573  1.00  0.00     0.134 A 
ATOM     84  F   UNL A   1      45.243  33.276  29.046  1.00  0.00    -0.206 F 
ATOM     85  C   UNL A   1      45.673  34.590  30.943  1.00  0.00     0.040 A 
ATOM     86  C   UNL A   1      45.332  33.674  33.145  1.00  0.00     0.040 A 
ATOM     87  F   UNL A   1      44.589  31.463  33.396  1.00  0.00    -0.206 F 
ATOM     88  C   UNL A   1      45.709  34.739  32.329  1.00  0.00     0.006 A 
ENDBRANCH  64  81
ENDBRANCH  38  39
ENDBRANCH  30  33
ENDBRANCH  28  29
ENDBRANCH  27  28
ENDBRANCH   1  27
TORSDOF 14
ENDMDL
