MODEL 1
REMARK VINA RESULT:     -11.1      0.000      0.000
REMARK SMILES C[C@@H](C(=O)NCCCCCCNC(=O)c1ccc(-c2c3nc(c(-c4c(F)cccc4F)c4ccc([nH]4)c(-c4c(F)cccc4F)c4nc(c(-c5c(F)cccc5F)c5ccc2[nH]5)C=C4)C=C3)cc1)N1C(=O)/C(=C/c2ccc(N(C)C)cc2)SC1=S
REMARK SMILES IDX 8 1 7 2 6 3 5 4 3 5 4 6 2 8 1 9 69 10 70 11 84 12 71 13
REMARK SMILES IDX 72 14 83 15 85 16 73 17 74 18 75 19 82 20 76 21 81 22 77 23
REMARK SMILES IDX 78 24 79 25 80 26 9 27 10 28 11 29 12 30 13 31 14 33 15 34
REMARK SMILES IDX 16 35 68 36 17 37 67 38 18 39 19 40 20 41 61 42 21 43 66 44
REMARK SMILES IDX 60 45 62 46 22 47 65 48 59 49 58 50 23 52 49 53 32 54 48 55
REMARK SMILES IDX 33 56 36 57 47 58 63 59 34 60 35 61 46 63 64 64 37 65 24 66
REMARK SMILES IDX 25 67 30 68 26 69 27 70 29 71 31 72 28 73 50 74 51 75 56 76
REMARK SMILES IDX 52 77 53 78 55 79 57 80 54 81 38 82 39 83 44 84 40 85 41 86
REMARK SMILES IDX 43 87 45 88 42 89
REMARK H PARENT 5 7 12 32 62 51 36 62
REMARK Flexibility Score: inf
ROOT
ATOM      1  C   UNL A   1      38.206  23.692  26.576  1.00  0.00     0.002 C 
ENDROOT
BRANCH   1   2
ATOM      2  C   UNL A   1      37.014  23.710  25.612  1.00  0.00     0.021 C 
BRANCH   2   3
ATOM      3  C   UNL A   1      35.837  22.834  26.058  1.00  0.00     0.116 C 
BRANCH   3   4
ATOM      4  N   UNL A   1      35.707  21.688  25.175  1.00  0.00    -0.354 N 
ATOM      5  C   UNL A   1      34.730  20.728  25.145  1.00  0.00     0.242 C 
ATOM      6  O   UNL A   1      35.004  19.644  24.625  1.00  0.00    -0.273 OA
ATOM      7  H   UNL A   1      36.421  21.588  24.505  1.00  0.00     0.163 HD
BRANCH   5   8
ATOM      8  C   UNL A   1      33.355  21.012  25.807  1.00  0.00     0.178 C 
ATOM      9  C   UNL A   1      32.592  19.683  25.755  1.00  0.00     0.042 C 
BRANCH   8  10
ATOM     10  N   UNL A   1      32.683  22.149  25.119  1.00  0.00    -0.281 N 
ATOM     11  C   UNL A   1      32.119  23.142  25.920  1.00  0.00     0.266 C 
ATOM     12  C   UNL A   1      32.259  22.205  23.806  1.00  0.00     0.149 C 
ATOM     13  O   UNL A   1      31.938  23.075  27.129  1.00  0.00    -0.268 OA
ATOM     14  C   UNL A   1      31.610  24.264  25.086  1.00  0.00     0.081 C 
ATOM     15  S   UNL A   1      31.678  23.820  23.432  1.00  0.00    -0.054 SA
ATOM     16  S   UNL A   1      32.161  21.017  22.638  1.00  0.00    -0.052 S 
ATOM     17  C   UNL A   1      31.143  25.415  25.591  1.00  0.00     0.029 C 
BRANCH  17  18
ATOM     18  C   UNL A   1      30.537  26.468  24.767  1.00  0.00    -0.024 A 
ATOM     19  C   UNL A   1      29.269  26.325  24.214  1.00  0.00     0.010 A 
ATOM     20  C   UNL A   1      31.216  27.667  24.568  1.00  0.00     0.010 A 
ATOM     21  C   UNL A   1      28.680  27.388  23.502  1.00  0.00     0.026 A 
ATOM     22  C   UNL A   1      30.617  28.717  23.862  1.00  0.00     0.026 A 
ATOM     23  C   UNL A   1      29.327  28.622  23.310  1.00  0.00     0.036 A 
BRANCH  23  24
ATOM     24  N   UNL A   1      28.759  29.683  22.616  1.00  0.00    -0.378 N 
ATOM     25  C   UNL A   1      27.458  30.258  22.931  1.00  0.00     0.143 C 
ATOM     26  C   UNL A   1      29.546  30.419  21.628  1.00  0.00     0.143 C 
ENDBRANCH  23  24
ENDBRANCH  17  18
ENDBRANCH   8  10
ENDBRANCH   5   8
ENDBRANCH   3   4
ENDBRANCH   2   3
ENDBRANCH   1   2
BRANCH   1  27
ATOM     27  C   UNL A   1      39.381  22.816  26.131  1.00  0.00     0.002 C 
BRANCH  27  28
ATOM     28  C   UNL A   1      39.272  21.344  26.529  1.00  0.00     0.021 C 
BRANCH  28  29
ATOM     29  C   UNL A   1      39.446  20.363  25.376  1.00  0.00     0.116 C 
BRANCH  29  30
ATOM     30  N   UNL A   1      40.308  19.246  25.733  1.00  0.00    -0.352 N 
ATOM     31  C   UNL A   1      41.620  19.272  26.137  1.00  0.00     0.251 C 
ATOM     32  H   UNL A   1      39.895  18.353  25.677  1.00  0.00     0.163 HD
ATOM     33  O   UNL A   1      42.272  18.237  26.223  1.00  0.00    -0.269 OA
BRANCH  31  34
ATOM     34  C   UNL A   1      42.247  20.570  26.452  1.00  0.00     0.039 A 
ATOM     35  C   UNL A   1      42.726  21.371  25.411  1.00  0.00     0.014 A 
ATOM     36  C   UNL A   1      42.339  20.999  27.779  1.00  0.00     0.014 A 
ATOM     37  C   UNL A   1      43.248  22.634  25.698  1.00  0.00     0.010 A 
ATOM     38  C   UNL A   1      42.792  22.284  28.054  1.00  0.00     0.010 A 
ATOM     39  C   UNL A   1      43.258  23.111  27.019  1.00  0.00    -0.014 A 
BRANCH  39  40
ATOM     40  C   UNL A   1      43.777  24.455  27.367  1.00  0.00     0.031 A 
ATOM     41  C   UNL A   1      42.814  25.531  27.782  1.00  0.00     0.074 A 
ATOM     42  C   UNL A   1      45.083  24.739  27.208  1.00  0.00     0.049 A 
ATOM     43  N   UNL A   1      43.023  26.811  27.957  1.00  0.00    -0.248 NA
ATOM     44  C   UNL A   1      41.418  25.114  27.991  1.00  0.00     0.031 C 
ATOM     45  C   UNL A   1      46.111  23.791  26.780  1.00  0.00     0.029 A 
ATOM     46  N   UNL A   1      45.762  25.922  27.360  1.00  0.00    -0.354 N 
ATOM     47  C   UNL A   1      41.783  27.356  28.261  1.00  0.00     0.074 A 
ATOM     48  C   UNL A   1      40.819  26.276  28.201  1.00  0.00     0.031 C 
ATOM     49  C   UNL A   1      47.291  24.427  26.706  1.00  0.00     0.029 A 
ATOM     50  C   UNL A   1      47.094  25.836  27.038  1.00  0.00     0.049 A 
ATOM     51  H   UNL A   1      45.335  26.753  27.671  1.00  0.00     0.167 HD
ATOM     52  C   UNL A   1      41.475  28.635  28.577  1.00  0.00     0.037 A 
ATOM     53  C   UNL A   1      48.044  26.790  26.994  1.00  0.00     0.037 A 
ATOM     54  C   UNL A   1      42.442  29.697  28.665  1.00  0.00     0.049 A 
ATOM     55  C   UNL A   1      47.685  28.206  27.351  1.00  0.00     0.074 A 
ATOM     56  C   UNL A   1      42.246  31.014  29.037  1.00  0.00     0.029 A 
ATOM     57  N   UNL A   1      43.792  29.558  28.375  1.00  0.00    -0.354 N 
ATOM     58  N   UNL A   1      46.519  28.701  27.686  1.00  0.00    -0.248 NA
ATOM     59  C   UNL A   1      48.773  29.193  27.331  1.00  0.00     0.031 C 
ATOM     60  C   UNL A   1      43.469  31.684  28.930  1.00  0.00     0.029 A 
ATOM     61  C   UNL A   1      44.438  30.771  28.543  1.00  0.00     0.049 A 
ATOM     62  H   UNL A   1      44.226  28.721  28.092  1.00  0.00     0.167 HD
ATOM     63  C   UNL A   1      46.736  30.048  27.949  1.00  0.00     0.074 A 
ATOM     64  C   UNL A   1      48.148  30.291  27.734  1.00  0.00     0.031 C 
ATOM     65  C   UNL A   1      45.848  30.993  28.341  1.00  0.00     0.037 A 
BRANCH  52  66
ATOM     66  C   UNL A   1      40.031  28.950  28.838  1.00  0.00     0.057 A 
ATOM     67  C   UNL A   1      39.481  28.906  30.126  1.00  0.00     0.134 A 
ATOM     68  C   UNL A   1      39.175  29.300  27.785  1.00  0.00     0.134 A 
ATOM     69  F   UNL A   1      40.242  28.566  31.179  1.00  0.00    -0.206 F 
ATOM     70  C   UNL A   1      38.127  29.157  30.353  1.00  0.00     0.040 A 
ATOM     71  C   UNL A   1      37.826  29.585  28.003  1.00  0.00     0.040 A 
ATOM     72  F   UNL A   1      39.636  29.369  26.527  1.00  0.00    -0.206 F 
ATOM     73  C   UNL A   1      37.296  29.502  29.289  1.00  0.00     0.006 A 
ENDBRANCH  52  66
BRANCH  53  74
ATOM     74  C   UNL A   1      49.431  26.425  26.615  1.00  0.00     0.057 A 
ATOM     75  C   UNL A   1      50.341  25.961  27.571  1.00  0.00     0.134 A 
ATOM     76  C   UNL A   1      49.874  26.505  25.288  1.00  0.00     0.134 A 
ATOM     77  F   UNL A   1      49.981  25.878  28.860  1.00  0.00    -0.206 F 
ATOM     78  C   UNL A   1      51.644  25.597  27.225  1.00  0.00     0.040 A 
ATOM     79  C   UNL A   1      51.166  26.124  24.924  1.00  0.00     0.040 A 
ATOM     80  F   UNL A   1      49.046  26.934  24.323  1.00  0.00    -0.206 F 
ATOM     81  C   UNL A   1      52.057  25.672  25.896  1.00  0.00     0.006 A 
ENDBRANCH  53  74
BRANCH  65  82
ATOM     82  C   UNL A   1      46.375  32.370  28.617  1.00  0.00     0.057 A 
ATOM     83  C   UNL A   1      46.862  32.742  29.875  1.00  0.00     0.134 A 
ATOM     84  C   UNL A   1      46.462  33.313  27.583  1.00  0.00     0.134 A 
ATOM     85  F   UNL A   1      46.796  31.889  30.909  1.00  0.00    -0.206 F 
ATOM     86  C   UNL A   1      47.410  34.007  30.098  1.00  0.00     0.040 A 
ATOM     87  C   UNL A   1      47.029  34.570  27.789  1.00  0.00     0.040 A 
ATOM     88  F   UNL A   1      46.019  33.015  26.352  1.00  0.00    -0.206 F 
ATOM     89  C   UNL A   1      47.504  34.920  29.050  1.00  0.00     0.006 A 
ENDBRANCH  65  82
ENDBRANCH  39  40
ENDBRANCH  31  34
ENDBRANCH  29  30
ENDBRANCH  28  29
ENDBRANCH  27  28
ENDBRANCH   1  27
TORSDOF 16
ENDMDL
MODEL 2
REMARK VINA RESULT:     -11.1      5.650     11.209
REMARK SMILES C[C@@H](C(=O)NCCCCCCNC(=O)c1ccc(-c2c3nc(c(-c4c(F)cccc4F)c4ccc([nH]4)c(-c4c(F)cccc4F)c4nc(c(-c5c(F)cccc5F)c5ccc2[nH]5)C=C4)C=C3)cc1)N1C(=O)/C(=C/c2ccc(N(C)C)cc2)SC1=S
REMARK SMILES IDX 8 1 7 2 6 3 5 4 3 5 4 6 2 8 1 9 69 10 70 11 84 12 71 13
REMARK SMILES IDX 72 14 83 15 85 16 73 17 74 18 75 19 82 20 76 21 81 22 77 23
REMARK SMILES IDX 78 24 79 25 80 26 9 27 10 28 11 29 12 30 13 31 14 33 15 34
REMARK SMILES IDX 16 35 68 36 17 37 67 38 18 39 19 40 20 41 61 42 21 43 66 44
REMARK SMILES IDX 60 45 62 46 22 47 65 48 59 49 58 50 23 52 49 53 32 54 48 55
REMARK SMILES IDX 33 56 36 57 47 58 63 59 34 60 35 61 46 63 64 64 37 65 24 66
REMARK SMILES IDX 25 67 30 68 26 69 27 70 29 71 31 72 28 73 50 74 51 75 56 76
REMARK SMILES IDX 52 77 53 78 55 79 57 80 54 81 38 82 39 83 44 84 40 85 41 86
REMARK SMILES IDX 43 87 45 88 42 89
REMARK H PARENT 5 7 12 32 62 51 36 62
REMARK Flexibility Score: inf
ROOT
ATOM      1  C   UNL A   1      38.090  33.476  30.210  1.00  0.00     0.002 C 
ENDROOT
BRANCH   1   2
ATOM      2  C   UNL A   1      38.914  34.561  30.914  1.00  0.00     0.021 C 
BRANCH   2   3
ATOM      3  C   UNL A   1      39.940  34.015  31.914  1.00  0.00     0.116 C 
BRANCH   3   4
ATOM      4  N   UNL A   1      39.828  34.724  33.177  1.00  0.00    -0.354 N 
ATOM      5  C   UNL A   1      38.985  34.484  34.230  1.00  0.00     0.242 C 
ATOM      6  O   UNL A   1      38.754  35.413  35.007  1.00  0.00    -0.273 OA
ATOM      7  H   UNL A   1      40.444  35.482  33.293  1.00  0.00     0.163 HD
BRANCH   5   8
ATOM      8  C   UNL A   1      38.312  33.092  34.372  1.00  0.00     0.178 C 
ATOM      9  C   UNL A   1      37.313  33.234  35.526  1.00  0.00     0.042 C 
BRANCH   8  10
ATOM     10  N   UNL A   1      39.350  32.042  34.567  1.00  0.00    -0.281 N 
ATOM     11  C   UNL A   1      39.256  30.892  33.783  1.00  0.00     0.266 C 
ATOM     12  C   UNL A   1      40.215  31.902  35.635  1.00  0.00     0.149 C 
ATOM     13  O   UNL A   1      38.294  30.563  33.100  1.00  0.00    -0.268 OA
ATOM     14  C   UNL A   1      40.433  30.010  34.000  1.00  0.00     0.081 C 
ATOM     15  S   UNL A   1      41.357  30.607  35.315  1.00  0.00    -0.054 SA
ATOM     16  S   UNL A   1      40.268  32.686  37.107  1.00  0.00    -0.052 S 
ATOM     17  C   UNL A   1      40.679  28.904  33.282  1.00  0.00     0.029 C 
BRANCH  17  18
ATOM     18  C   UNL A   1      41.780  27.979  33.578  1.00  0.00    -0.024 A 
ATOM     19  C   UNL A   1      43.027  28.111  32.977  1.00  0.00     0.010 A 
ATOM     20  C   UNL A   1      41.601  26.971  34.521  1.00  0.00     0.010 A 
ATOM     21  C   UNL A   1      44.088  27.261  33.348  1.00  0.00     0.026 A 
ATOM     22  C   UNL A   1      42.666  26.137  34.884  1.00  0.00     0.026 A 
ATOM     23  C   UNL A   1      43.948  26.254  34.318  1.00  0.00     0.036 A 
BRANCH  23  24
ATOM     24  N   UNL A   1      44.985  25.412  34.701  1.00  0.00    -0.378 N 
ATOM     25  C   UNL A   1      45.398  24.236  33.946  1.00  0.00     0.143 C 
ATOM     26  C   UNL A   1      45.859  25.781  35.812  1.00  0.00     0.143 C 
ENDBRANCH  23  24
ENDBRANCH  17  18
ENDBRANCH   8  10
ENDBRANCH   5   8
ENDBRANCH   3   4
ENDBRANCH   2   3
ENDBRANCH   1   2
BRANCH   1  27
ATOM     27  C   UNL A   1      37.640  33.829  28.790  1.00  0.00     0.002 C 
BRANCH  27  28
ATOM     28  C   UNL A   1      36.151  33.613  28.516  1.00  0.00     0.021 C 
BRANCH  28  29
ATOM     29  C   UNL A   1      35.451  32.699  29.514  1.00  0.00     0.116 C 
BRANCH  29  30
ATOM     30  N   UNL A   1      34.565  31.749  28.859  1.00  0.00    -0.352 N 
ATOM     31  C   UNL A   1      34.880  30.548  28.273  1.00  0.00     0.251 C 
ATOM     32  H   UNL A   1      33.612  32.001  28.833  1.00  0.00     0.163 HD
ATOM     33  O   UNL A   1      34.055  29.944  27.596  1.00  0.00    -0.269 OA
BRANCH  31  34
ATOM     34  C   UNL A   1      36.236  29.996  28.454  1.00  0.00     0.039 A 
ATOM     35  C   UNL A   1      37.171  30.120  27.423  1.00  0.00     0.014 A 
ATOM     36  C   UNL A   1      36.584  29.375  29.657  1.00  0.00     0.014 A 
ATOM     37  C   UNL A   1      38.478  29.671  27.619  1.00  0.00     0.010 A 
ATOM     38  C   UNL A   1      37.903  28.994  29.875  1.00  0.00     0.010 A 
ATOM     39  C   UNL A   1      38.860  29.131  28.858  1.00  0.00    -0.014 A 
BRANCH  39  40
ATOM     40  C   UNL A   1      40.244  28.666  29.121  1.00  0.00     0.031 A 
ATOM     41  C   UNL A   1      41.238  29.618  29.723  1.00  0.00     0.074 A 
ATOM     42  C   UNL A   1      40.633  27.440  28.724  1.00  0.00     0.049 A 
ATOM     43  N   UNL A   1      42.531  29.483  29.873  1.00  0.00    -0.248 NA
ATOM     44  C   UNL A   1      40.709  30.911  30.183  1.00  0.00     0.031 C 
ATOM     45  C   UNL A   1      39.771  26.437  28.099  1.00  0.00     0.029 A 
ATOM     46  N   UNL A   1      41.868  26.842  28.762  1.00  0.00    -0.354 N 
ATOM     47  C   UNL A   1      42.973  30.684  30.411  1.00  0.00     0.074 A 
ATOM     48  C   UNL A   1      41.819  31.552  30.517  1.00  0.00     0.031 C 
ATOM     49  C   UNL A   1      40.502  25.347  27.814  1.00  0.00     0.029 A 
ATOM     50  C   UNL A   1      41.890  25.592  28.197  1.00  0.00     0.049 A 
ATOM     51  H   UNL A   1      42.662  27.269  29.159  1.00  0.00     0.167 HD
ATOM     52  C   UNL A   1      44.224  31.029  30.796  1.00  0.00     0.037 A 
ATOM     53  C   UNL A   1      42.918  24.747  27.989  1.00  0.00     0.037 A 
ATOM     54  C   UNL A   1      45.361  30.151  30.716  1.00  0.00     0.049 A 
ATOM     55  C   UNL A   1      44.301  25.145  28.426  1.00  0.00     0.074 A 
ATOM     56  C   UNL A   1      46.659  30.380  31.136  1.00  0.00     0.029 A 
ATOM     57  N   UNL A   1      45.332  28.873  30.177  1.00  0.00    -0.354 N 
ATOM     58  N   UNL A   1      44.700  26.264  28.979  1.00  0.00    -0.248 NA
ATOM     59  C   UNL A   1      45.373  24.163  28.215  1.00  0.00     0.031 C 
ATOM     60  C   UNL A   1      47.426  29.257  30.812  1.00  0.00     0.029 A 
ATOM     61  C   UNL A   1      46.594  28.307  30.238  1.00  0.00     0.049 A 
ATOM     62  H   UNL A   1      44.533  28.434  29.806  1.00  0.00     0.167 HD
ATOM     63  C   UNL A   1      46.060  26.110  29.215  1.00  0.00     0.074 A 
ATOM     64  C   UNL A   1      46.418  24.788  28.743  1.00  0.00     0.031 C 
ATOM     65  C   UNL A   1      46.931  26.983  29.779  1.00  0.00     0.037 A 
BRANCH  52  66
ATOM     66  C   UNL A   1      44.420  32.420  31.326  1.00  0.00     0.057 A 
ATOM     67  C   UNL A   1      44.323  32.715  32.693  1.00  0.00     0.134 A 
ATOM     68  C   UNL A   1      44.709  33.481  30.458  1.00  0.00     0.134 A 
ATOM     69  F   UNL A   1      44.036  31.748  33.578  1.00  0.00    -0.206 F 
ATOM     70  C   UNL A   1      44.463  34.019  33.172  1.00  0.00     0.040 A 
ATOM     71  C   UNL A   1      44.883  34.783  30.928  1.00  0.00     0.040 A 
ATOM     72  F   UNL A   1      44.824  33.269  29.138  1.00  0.00    -0.206 F 
ATOM     73  C   UNL A   1      44.748  35.057  32.287  1.00  0.00     0.006 A 
ENDBRANCH  52  66
BRANCH  53  74
ATOM     74  C   UNL A   1      42.668  23.430  27.351  1.00  0.00     0.057 A 
ATOM     75  C   UNL A   1      42.812  23.260  25.970  1.00  0.00     0.134 A 
ATOM     76  C   UNL A   1      42.306  22.307  28.106  1.00  0.00     0.134 A 
ATOM     77  F   UNL A   1      43.139  24.302  25.192  1.00  0.00    -0.206 F 
ATOM     78  C   UNL A   1      42.597  22.023  25.359  1.00  0.00     0.040 A 
ATOM     79  C   UNL A   1      42.111  21.059  27.512  1.00  0.00     0.040 A 
ATOM     80  F   UNL A   1      42.162  22.403  29.436  1.00  0.00    -0.206 F 
ATOM     81  C   UNL A   1      42.253  20.916  26.133  1.00  0.00     0.006 A 
ENDBRANCH  53  74
BRANCH  65  82
ATOM     82  C   UNL A   1      48.346  26.526  29.969  1.00  0.00     0.057 A 
ATOM     83  C   UNL A   1      48.747  25.797  31.095  1.00  0.00     0.134 A 
ATOM     84  C   UNL A   1      49.304  26.759  28.973  1.00  0.00     0.134 A 
ATOM     85  F   UNL A   1      47.881  25.550  32.090  1.00  0.00    -0.206 F 
ATOM     86  C   UNL A   1      50.054  25.322  31.226  1.00  0.00     0.040 A 
ATOM     87  C   UNL A   1      50.605  26.269  29.083  1.00  0.00     0.040 A 
ATOM     88  F   UNL A   1      48.981  27.446  27.866  1.00  0.00    -0.206 F 
ATOM     89  C   UNL A   1      50.983  25.550  30.213  1.00  0.00     0.006 A 
ENDBRANCH  65  82
ENDBRANCH  39  40
ENDBRANCH  31  34
ENDBRANCH  29  30
ENDBRANCH  28  29
ENDBRANCH  27  28
ENDBRANCH   1  27
TORSDOF 16
ENDMDL
MODEL 3
REMARK VINA RESULT:     -10.8      0.940      6.031
REMARK SMILES C[C@@H](C(=O)NCCCCCCNC(=O)c1ccc(-c2c3nc(c(-c4c(F)cccc4F)c4ccc([nH]4)c(-c4c(F)cccc4F)c4nc(c(-c5c(F)cccc5F)c5ccc2[nH]5)C=C4)C=C3)cc1)N1C(=O)/C(=C/c2ccc(N(C)C)cc2)SC1=S
REMARK SMILES IDX 8 1 7 2 6 3 5 4 3 5 4 6 2 8 1 9 69 10 70 11 84 12 71 13
REMARK SMILES IDX 72 14 83 15 85 16 73 17 74 18 75 19 82 20 76 21 81 22 77 23
REMARK SMILES IDX 78 24 79 25 80 26 9 27 10 28 11 29 12 30 13 31 14 33 15 34
REMARK SMILES IDX 16 35 68 36 17 37 67 38 18 39 19 40 20 41 61 42 21 43 66 44
REMARK SMILES IDX 60 45 62 46 22 47 65 48 59 49 58 50 23 52 49 53 32 54 48 55
REMARK SMILES IDX 33 56 36 57 47 58 63 59 34 60 35 61 46 63 64 64 37 65 24 66
REMARK SMILES IDX 25 67 30 68 26 69 27 70 29 71 31 72 28 73 50 74 51 75 56 76
REMARK SMILES IDX 52 77 53 78 55 79 57 80 54 81 38 82 39 83 44 84 40 85 41 86
REMARK SMILES IDX 43 87 45 88 42 89
REMARK H PARENT 5 7 12 32 62 51 36 62
REMARK Flexibility Score: inf
ROOT
ATOM      1  C   UNL A   1      38.114  23.496  26.512  1.00  0.00     0.002 C 
ENDROOT
BRANCH   1   2
ATOM      2  C   UNL A   1      36.868  23.779  25.665  1.00  0.00     0.021 C 
BRANCH   2   3
ATOM      3  C   UNL A   1      35.655  22.913  26.029  1.00  0.00     0.116 C 
BRANCH   3   4
ATOM      4  N   UNL A   1      35.592  21.754  25.156  1.00  0.00    -0.354 N 
ATOM      5  C   UNL A   1      34.640  20.771  25.093  1.00  0.00     0.242 C 
ATOM      6  O   UNL A   1      34.962  19.687  24.601  1.00  0.00    -0.273 OA
ATOM      7  H   UNL A   1      36.338  21.662  24.520  1.00  0.00     0.163 HD
BRANCH   5   8
ATOM      8  C   UNL A   1      33.230  21.030  25.689  1.00  0.00     0.178 C 
ATOM      9  C   UNL A   1      32.460  19.716  25.508  1.00  0.00     0.042 C 
BRANCH   8  10
ATOM     10  N   UNL A   1      32.611  22.215  25.035  1.00  0.00    -0.281 N 
ATOM     11  C   UNL A   1      32.039  23.181  25.864  1.00  0.00     0.266 C 
ATOM     12  C   UNL A   1      32.240  22.349  23.711  1.00  0.00     0.149 C 
ATOM     13  O   UNL A   1      31.809  23.057  27.061  1.00  0.00    -0.268 OA
ATOM     14  C   UNL A   1      31.588  24.355  25.071  1.00  0.00     0.081 C 
ATOM     15  S   UNL A   1      31.710  23.994  23.399  1.00  0.00    -0.054 SA
ATOM     16  S   UNL A   1      32.161  21.223  22.481  1.00  0.00    -0.052 S 
ATOM     17  C   UNL A   1      31.127  25.490  25.615  1.00  0.00     0.029 C 
BRANCH  17  18
ATOM     18  C   UNL A   1      30.578  26.598  24.825  1.00  0.00    -0.024 A 
ATOM     19  C   UNL A   1      29.387  26.470  24.117  1.00  0.00     0.010 A 
ATOM     20  C   UNL A   1      31.227  27.829  24.815  1.00  0.00     0.010 A 
ATOM     21  C   UNL A   1      28.842  27.579  23.439  1.00  0.00     0.026 A 
ATOM     22  C   UNL A   1      30.671  28.924  24.141  1.00  0.00     0.026 A 
ATOM     23  C   UNL A   1      29.456  28.843  23.435  1.00  0.00     0.036 A 
BRANCH  23  24
ATOM     24  N   UNL A   1      28.930  29.948  22.778  1.00  0.00    -0.378 N 
ATOM     25  C   UNL A   1      29.218  30.282  21.389  1.00  0.00     0.143 C 
ATOM     26  C   UNL A   1      27.881  30.747  23.409  1.00  0.00     0.143 C 
ENDBRANCH  23  24
ENDBRANCH  17  18
ENDBRANCH   8  10
ENDBRANCH   5   8
ENDBRANCH   3   4
ENDBRANCH   2   3
ENDBRANCH   1   2
BRANCH   1  27
ATOM     27  C   UNL A   1      39.144  22.575  25.854  1.00  0.00     0.002 C 
BRANCH  27  28
ATOM     28  C   UNL A   1      39.186  21.153  26.415  1.00  0.00     0.021 C 
BRANCH  28  29
ATOM     29  C   UNL A   1      39.657  20.096  25.424  1.00  0.00     0.116 C 
BRANCH  29  30
ATOM     30  N   UNL A   1      40.628  19.187  26.012  1.00  0.00    -0.352 N 
ATOM     31  C   UNL A   1      41.864  19.477  26.538  1.00  0.00     0.251 C 
ATOM     32  H   UNL A   1      40.366  18.238  26.036  1.00  0.00     0.163 HD
ATOM     33  O   UNL A   1      42.649  18.582  26.828  1.00  0.00    -0.269 OA
BRANCH  31  34
ATOM     34  C   UNL A   1      42.244  20.889  26.736  1.00  0.00     0.039 A 
ATOM     35  C   UNL A   1      42.608  21.663  25.631  1.00  0.00     0.014 A 
ATOM     36  C   UNL A   1      42.218  21.448  28.017  1.00  0.00     0.014 A 
ATOM     37  C   UNL A   1      42.892  23.020  25.803  1.00  0.00     0.010 A 
ATOM     38  C   UNL A   1      42.430  22.812  28.174  1.00  0.00     0.010 A 
ATOM     39  C   UNL A   1      42.777  23.610  27.072  1.00  0.00    -0.014 A 
BRANCH  39  40
ATOM     40  C   UNL A   1      43.042  25.051  27.297  1.00  0.00     0.031 A 
ATOM     41  C   UNL A   1      44.426  25.589  27.069  1.00  0.00     0.074 A 
ATOM     42  C   UNL A   1      42.081  25.845  27.803  1.00  0.00     0.049 A 
ATOM     43  N   UNL A   1      44.920  26.763  27.370  1.00  0.00    -0.248 NA
ATOM     44  C   UNL A   1      45.393  24.666  26.455  1.00  0.00     0.031 C 
ATOM     45  C   UNL A   1      40.707  25.434  28.097  1.00  0.00     0.029 A 
ATOM     46  N   UNL A   1      42.124  27.162  28.189  1.00  0.00    -0.354 N 
ATOM     47  C   UNL A   1      46.261  26.707  27.014  1.00  0.00     0.074 A 
ATOM     48  C   UNL A   1      46.513  25.370  26.520  1.00  0.00     0.031 C 
ATOM     49  C   UNL A   1      40.039  26.477  28.615  1.00  0.00     0.029 A 
ATOM     50  C   UNL A   1      40.947  27.615  28.729  1.00  0.00     0.049 A 
ATOM     51  H   UNL A   1      42.924  27.727  28.086  1.00  0.00     0.167 HD
ATOM     52  C   UNL A   1      47.195  27.684  27.078  1.00  0.00     0.037 A 
ATOM     53  C   UNL A   1      40.640  28.807  29.276  1.00  0.00     0.037 A 
ATOM     54  C   UNL A   1      46.930  29.021  27.542  1.00  0.00     0.049 A 
ATOM     55  C   UNL A   1      41.689  29.883  29.337  1.00  0.00     0.074 A 
ATOM     56  C   UNL A   1      47.790  30.103  27.591  1.00  0.00     0.029 A 
ATOM     57  N   UNL A   1      45.710  29.454  28.040  1.00  0.00    -0.354 N 
ATOM     58  N   UNL A   1      42.941  29.836  28.952  1.00  0.00    -0.248 NA
ATOM     59  C   UNL A   1      41.283  31.177  29.902  1.00  0.00     0.031 C 
ATOM     60  C   UNL A   1      47.102  31.181  28.158  1.00  0.00     0.029 A 
ATOM     61  C   UNL A   1      45.798  30.784  28.414  1.00  0.00     0.049 A 
ATOM     62  H   UNL A   1      44.901  28.898  28.117  1.00  0.00     0.167 HD
ATOM     63  C   UNL A   1      43.464  31.100  29.195  1.00  0.00     0.074 A 
ATOM     64  C   UNL A   1      42.391  31.892  29.761  1.00  0.00     0.031 C 
ATOM     65  C   UNL A   1      44.716  31.563  28.961  1.00  0.00     0.037 A 
BRANCH  52  66
ATOM     66  C   UNL A   1      48.589  27.333  26.646  1.00  0.00     0.057 A 
ATOM     67  C   UNL A   1      49.568  26.918  27.559  1.00  0.00     0.134 A 
ATOM     68  C   UNL A   1      48.960  27.413  25.297  1.00  0.00     0.134 A 
ATOM     69  F   UNL A   1      49.284  26.832  28.868  1.00  0.00    -0.206 F 
ATOM     70  C   UNL A   1      50.874  26.636  27.154  1.00  0.00     0.040 A 
ATOM     71  C   UNL A   1      50.254  27.103  24.875  1.00  0.00     0.040 A 
ATOM     72  F   UNL A   1      48.071  27.796  24.367  1.00  0.00    -0.206 F 
ATOM     73  C   UNL A   1      51.218  26.725  25.807  1.00  0.00     0.006 A 
ENDBRANCH  52  66
BRANCH  53  74
ATOM     74  C   UNL A   1      39.269  29.047  29.791  1.00  0.00     0.057 A 
ATOM     75  C   UNL A   1      38.943  28.779  31.125  1.00  0.00     0.134 A 
ATOM     76  C   UNL A   1      38.261  29.573  28.974  1.00  0.00     0.134 A 
ATOM     77  F   UNL A   1      39.862  28.257  31.952  1.00  0.00    -0.206 F 
ATOM     78  C   UNL A   1      37.663  29.017  31.627  1.00  0.00     0.040 A 
ATOM     79  C   UNL A   1      36.983  29.838  29.468  1.00  0.00     0.040 A 
ATOM     80  F   UNL A   1      38.513  29.861  27.688  1.00  0.00    -0.206 F 
ATOM     81  C   UNL A   1      36.680  29.555  30.799  1.00  0.00     0.006 A 
ENDBRANCH  53  74
BRANCH  65  82
ATOM     82  C   UNL A   1      44.991  33.006  29.265  1.00  0.00     0.057 A 
ATOM     83  C   UNL A   1      45.537  33.417  30.486  1.00  0.00     0.134 A 
ATOM     84  C   UNL A   1      44.771  33.988  28.289  1.00  0.00     0.134 A 
ATOM     85  F   UNL A   1      45.760  32.528  31.466  1.00  0.00    -0.206 F 
ATOM     86  C   UNL A   1      45.848  34.757  30.729  1.00  0.00     0.040 A 
ATOM     87  C   UNL A   1      45.100  35.325  28.512  1.00  0.00     0.040 A 
ATOM     88  F   UNL A   1      44.256  33.657  27.095  1.00  0.00    -0.206 F 
ATOM     89  C   UNL A   1      45.639  35.712  29.736  1.00  0.00     0.006 A 
ENDBRANCH  65  82
ENDBRANCH  39  40
ENDBRANCH  31  34
ENDBRANCH  29  30
ENDBRANCH  28  29
ENDBRANCH  27  28
ENDBRANCH   1  27
TORSDOF 16
ENDMDL
