MODEL 1
REMARK VINA RESULT:      -9.2      0.000      0.000
REMARK SMILES C[C@@H](C(=O)NCCCCCCNC(=O)c1ccc(-c2c3nc(c(-c4c(F)cccc4F)c4ccc([nH]4)c(-c4c(F)cccc4F)c4nc(c(-c5c(F)cccc5F)c5ccc2[nH]5)C=C4)C=C3)cc1)c1ccc(C[C@@H]2CCC[C@@H]2O)cc1Br
REMARK SMILES IDX 7 1 6 2 5 3 3 4 4 5 2 7 1 8 69 9 70 10 81 11 71 12 80 13
REMARK SMILES IDX 82 14 72 15 73 16 74 17 75 18 78 19 76 20 77 21 79 22 8 24
REMARK SMILES IDX 9 25 10 26 11 27 12 28 13 29 14 31 15 32 16 33 68 34 17 35
REMARK SMILES IDX 67 36 18 37 19 38 20 39 61 40 21 41 66 42 60 43 62 44 22 45
REMARK SMILES IDX 65 46 59 47 58 48 23 50 49 51 32 52 48 53 33 54 36 55 47 56
REMARK SMILES IDX 63 57 34 58 35 59 46 61 64 62 37 63 24 64 25 65 30 66 26 67
REMARK SMILES IDX 27 68 29 69 31 70 28 71 50 72 51 73 56 74 52 75 53 76 55 77
REMARK SMILES IDX 57 78 54 79 38 80 39 81 44 82 40 83 41 84 43 85 45 86 42 87
REMARK H PARENT 5 6 79 23 12 30 62 49 36 60
REMARK Flexibility Score: inf
ROOT
ATOM      1  C   UNL A   1      35.939  33.851  35.119  1.00  0.00     0.021 C 
ENDROOT
BRANCH   1   2
ATOM      2  C   UNL A   1      37.326  33.422  34.629  1.00  0.00     0.116 C 
BRANCH   2   3
ATOM      3  N   UNL A   1      37.828  32.352  35.468  1.00  0.00    -0.356 N 
ATOM      4  C   UNL A   1      38.160  31.073  35.123  1.00  0.00     0.227 C 
ATOM      5  O   UNL A   1      38.213  30.239  36.029  1.00  0.00    -0.274 OA
ATOM      6  H   UNL A   1      37.946  32.578  36.419  1.00  0.00     0.163 HD
BRANCH   4   7
ATOM      7  C   UNL A   1      38.475  30.741  33.651  1.00  0.00     0.106 C 
ATOM      8  C   UNL A   1      37.205  30.162  33.003  1.00  0.00     0.023 C 
BRANCH   7   9
ATOM      9  C   UNL A   1      39.704  29.828  33.528  1.00  0.00    -0.022 A 
ATOM     10  C   UNL A   1      39.638  28.645  32.772  1.00  0.00     0.006 A 
ATOM     11  C   UNL A   1      40.925  30.101  34.176  1.00  0.00     0.022 A 
ATOM     12  C   UNL A   1      40.687  27.729  32.752  1.00  0.00     0.004 A 
ATOM     13  C   UNL A   1      41.957  29.149  34.201  1.00  0.00     0.019 A 
ATOM     14  Br  UNL A   1      41.285  31.760  35.040  1.00  0.00    -0.051 Br
ATOM     15  C   UNL A   1      41.818  27.923  33.539  1.00  0.00    -0.047 A 
BRANCH  15  16
ATOM     16  C   UNL A   1      42.852  26.832  33.672  1.00  0.00     0.041 C 
BRANCH  16  17
ATOM     17  C   UNL A   1      43.160  26.295  35.094  1.00  0.00     0.022 C 
ATOM     18  C   UNL A   1      44.448  25.474  35.247  1.00  0.00     0.007 C 
ATOM     19  C   UNL A   1      42.115  25.375  35.735  1.00  0.00     0.117 C 
ATOM     20  C   UNL A   1      44.038  23.997  35.242  1.00  0.00     0.003 C 
ATOM     21  C   UNL A   1      42.514  23.967  35.309  1.00  0.00     0.032 C 
BRANCH  19  22
ATOM     22  O   UNL A   1      40.785  25.710  35.402  1.00  0.00    -0.393 OA
ATOM     23  H   UNL A   1      40.203  24.961  35.606  1.00  0.00     0.210 HD
ENDBRANCH  19  22
ENDBRANCH  16  17
ENDBRANCH  15  16
ENDBRANCH   7   9
ENDBRANCH   4   7
ENDBRANCH   2   3
ENDBRANCH   1   2
BRANCH   1  24
ATOM     24  C   UNL A   1      34.889  33.918  34.002  1.00  0.00     0.002 C 
BRANCH  24  25
ATOM     25  C   UNL A   1      34.724  35.300  33.364  1.00  0.00     0.002 C 
BRANCH  25  26
ATOM     26  C   UNL A   1      33.434  35.479  32.562  1.00  0.00     0.021 C 
BRANCH  26  27
ATOM     27  C   UNL A   1      33.623  36.220  31.244  1.00  0.00     0.116 C 
BRANCH  27  28
ATOM     28  N   UNL A   1      32.828  35.635  30.174  1.00  0.00    -0.352 N 
ATOM     29  C   UNL A   1      33.199  34.694  29.247  1.00  0.00     0.251 C 
ATOM     30  H   UNL A   1      31.899  35.959  30.107  1.00  0.00     0.163 HD
ATOM     31  O   UNL A   1      32.488  34.449  28.279  1.00  0.00    -0.269 OA
BRANCH  29  32
ATOM     32  C   UNL A   1      34.482  33.988  29.424  1.00  0.00     0.039 A 
ATOM     33  C   UNL A   1      35.574  34.344  28.630  1.00  0.00     0.014 A 
ATOM     34  C   UNL A   1      34.605  32.998  30.403  1.00  0.00     0.014 A 
ATOM     35  C   UNL A   1      36.816  33.749  28.864  1.00  0.00     0.010 A 
ATOM     36  C   UNL A   1      35.855  32.465  30.684  1.00  0.00     0.010 A 
ATOM     37  C   UNL A   1      36.972  32.832  29.916  1.00  0.00    -0.014 A 
BRANCH  37  38
ATOM     38  C   UNL A   1      38.286  32.224  30.237  1.00  0.00     0.031 A 
ATOM     39  C   UNL A   1      39.314  33.030  30.979  1.00  0.00     0.074 A 
ATOM     40  C   UNL A   1      38.596  31.002  29.765  1.00  0.00     0.049 A 
ATOM     41  N   UNL A   1      40.570  32.756  31.218  1.00  0.00    -0.248 NA
ATOM     42  C   UNL A   1      38.876  34.340  31.486  1.00  0.00     0.031 C 
ATOM     43  C   UNL A   1      37.698  30.141  28.994  1.00  0.00     0.029 A 
ATOM     44  N   UNL A   1      39.765  30.287  29.838  1.00  0.00    -0.354 N 
ATOM     45  C   UNL A   1      41.078  33.867  31.875  1.00  0.00     0.074 A 
ATOM     46  C   UNL A   1      40.010  34.840  31.950  1.00  0.00     0.031 C 
ATOM     47  C   UNL A   1      38.351  29.015  28.663  1.00  0.00     0.029 A 
ATOM     48  C   UNL A   1      39.722  29.095  29.158  1.00  0.00     0.049 A 
ATOM     49  H   UNL A   1      40.558  30.599  30.331  1.00  0.00     0.167 HD
ATOM     50  C   UNL A   1      42.320  34.054  32.384  1.00  0.00     0.037 A 
ATOM     51  C   UNL A   1      40.687  28.182  28.933  1.00  0.00     0.037 A 
ATOM     52  C   UNL A   1      43.368  33.071  32.322  1.00  0.00     0.049 A 
ATOM     53  C   UNL A   1      42.059  28.405  29.502  1.00  0.00     0.074 A 
ATOM     54  C   UNL A   1      44.637  33.129  32.872  1.00  0.00     0.029 A 
ATOM     55  N   UNL A   1      43.272  31.855  31.661  1.00  0.00    -0.354 N 
ATOM     56  N   UNL A   1      42.511  29.429  30.186  1.00  0.00    -0.248 NA
ATOM     57  C   UNL A   1      43.056  27.350  29.274  1.00  0.00     0.031 C 
ATOM     58  C   UNL A   1      45.329  31.974  32.494  1.00  0.00     0.029 A 
ATOM     59  C   UNL A   1      44.471  31.168  31.762  1.00  0.00     0.049 A 
ATOM     60  H   UNL A   1      42.471  31.529  31.190  1.00  0.00     0.167 HD
ATOM     61  C   UNL A   1      43.832  29.130  30.496  1.00  0.00     0.074 A 
ATOM     62  C   UNL A   1      44.109  27.828  29.925  1.00  0.00     0.031 C 
ATOM     63  C   UNL A   1      44.729  29.866  31.196  1.00  0.00     0.037 A 
BRANCH  50  64
ATOM     64  C   UNL A   1      42.605  35.378  33.031  1.00  0.00     0.057 A 
ATOM     65  C   UNL A   1      42.147  35.694  34.319  1.00  0.00     0.134 A 
ATOM     66  C   UNL A   1      43.345  36.357  32.357  1.00  0.00     0.134 A 
ATOM     67  F   UNL A   1      41.423  34.807  35.019  1.00  0.00    -0.206 F 
ATOM     68  C   UNL A   1      42.373  36.947  34.890  1.00  0.00     0.040 A 
ATOM     69  C   UNL A   1      43.608  37.602  32.930  1.00  0.00     0.040 A 
ATOM     70  F   UNL A   1      43.824  36.121  31.125  1.00  0.00    -0.206 F 
ATOM     71  C   UNL A   1      43.109  37.905  34.195  1.00  0.00     0.006 A 
ENDBRANCH  50  64
BRANCH  51  72
ATOM     72  C   UNL A   1      40.371  26.971  28.135  1.00  0.00     0.057 A 
ATOM     73  C   UNL A   1      39.566  25.952  28.653  1.00  0.00     0.134 A 
ATOM     74  C   UNL A   1      40.830  26.826  26.819  1.00  0.00     0.134 A 
ATOM     75  F   UNL A   1      39.108  26.028  29.911  1.00  0.00    -0.206 F 
ATOM     76  C   UNL A   1      39.232  24.828  27.896  1.00  0.00     0.040 A 
ATOM     77  C   UNL A   1      40.485  25.718  26.043  1.00  0.00     0.040 A 
ATOM     78  F   UNL A   1      41.597  27.773  26.261  1.00  0.00    -0.206 F 
ATOM     79  C   UNL A   1      39.685  24.713  26.582  1.00  0.00     0.006 A 
ENDBRANCH  51  72
BRANCH  63  80
ATOM     80  C   UNL A   1      46.089  29.274  31.427  1.00  0.00     0.057 A 
ATOM     81  C   UNL A   1      47.125  29.409  30.496  1.00  0.00     0.134 A 
ATOM     82  C   UNL A   1      46.386  28.641  32.641  1.00  0.00     0.134 A 
ATOM     83  F   UNL A   1      46.903  29.994  29.310  1.00  0.00    -0.206 F 
ATOM     84  C   UNL A   1      48.410  28.929  30.763  1.00  0.00     0.040 A 
ATOM     85  C   UNL A   1      47.671  28.181  32.930  1.00  0.00     0.040 A 
ATOM     86  F   UNL A   1      45.439  28.488  33.579  1.00  0.00    -0.206 F 
ATOM     87  C   UNL A   1      48.688  28.324  31.987  1.00  0.00     0.006 A 
ENDBRANCH  63  80
ENDBRANCH  37  38
ENDBRANCH  29  32
ENDBRANCH  27  28
ENDBRANCH  26  27
ENDBRANCH  25  26
ENDBRANCH  24  25
ENDBRANCH   1  24
TORSDOF 17
ENDMDL
MODEL 2
REMARK VINA RESULT:      -9.0      4.318      7.064
REMARK SMILES C[C@@H](C(=O)NCCCCCCNC(=O)c1ccc(-c2c3nc(c(-c4c(F)cccc4F)c4ccc([nH]4)c(-c4c(F)cccc4F)c4nc(c(-c5c(F)cccc5F)c5ccc2[nH]5)C=C4)C=C3)cc1)c1ccc(C[C@@H]2CCC[C@@H]2O)cc1Br
REMARK SMILES IDX 7 1 6 2 5 3 3 4 4 5 2 7 1 8 69 9 70 10 81 11 71 12 80 13
REMARK SMILES IDX 82 14 72 15 73 16 74 17 75 18 78 19 76 20 77 21 79 22 8 24
REMARK SMILES IDX 9 25 10 26 11 27 12 28 13 29 14 31 15 32 16 33 68 34 17 35
REMARK SMILES IDX 67 36 18 37 19 38 20 39 61 40 21 41 66 42 60 43 62 44 22 45
REMARK SMILES IDX 65 46 59 47 58 48 23 50 49 51 32 52 48 53 33 54 36 55 47 56
REMARK SMILES IDX 63 57 34 58 35 59 46 61 64 62 37 63 24 64 25 65 30 66 26 67
REMARK SMILES IDX 27 68 29 69 31 70 28 71 50 72 51 73 56 74 52 75 53 76 55 77
REMARK SMILES IDX 57 78 54 79 38 80 39 81 44 82 40 83 41 84 43 85 45 86 42 87
REMARK H PARENT 5 6 79 23 12 30 62 49 36 60
REMARK Flexibility Score: inf
ROOT
ATOM      1  C   UNL A   1      33.890  31.417  27.623  1.00  0.00     0.021 C 
ENDROOT
BRANCH   1   2
ATOM      2  C   UNL A   1      34.304  29.948  27.476  1.00  0.00     0.116 C 
BRANCH   2   3
ATOM      3  N   UNL A   1      33.225  29.093  27.928  1.00  0.00    -0.356 N 
ATOM      4  C   UNL A   1      32.216  28.526  27.203  1.00  0.00     0.227 C 
ATOM      5  O   UNL A   1      31.220  28.148  27.821  1.00  0.00    -0.274 OA
ATOM      6  H   UNL A   1      33.218  28.893  28.892  1.00  0.00     0.163 HD
BRANCH   4   7
ATOM      7  C   UNL A   1      32.376  28.362  25.679  1.00  0.00     0.106 C 
ATOM      8  C   UNL A   1      31.093  28.873  25.000  1.00  0.00     0.023 C 
BRANCH   7   9
ATOM      9  C   UNL A   1      32.744  26.920  25.301  1.00  0.00    -0.022 A 
ATOM     10  C   UNL A   1      32.377  25.850  26.135  1.00  0.00     0.006 A 
ATOM     11  C   UNL A   1      33.480  26.599  24.143  1.00  0.00     0.022 A 
ATOM     12  C   UNL A   1      32.812  24.549  25.893  1.00  0.00     0.004 A 
ATOM     13  C   UNL A   1      33.965  25.297  23.934  1.00  0.00     0.019 A 
ATOM     14  Br  UNL A   1      33.857  27.871  22.776  1.00  0.00    -0.051 Br
ATOM     15  C   UNL A   1      33.687  24.273  24.846  1.00  0.00    -0.047 A 
BRANCH  15  16
ATOM     16  C   UNL A   1      34.315  22.908  24.717  1.00  0.00     0.041 C 
BRANCH  16  17
ATOM     17  C   UNL A   1      35.350  22.481  25.790  1.00  0.00     0.022 C 
ATOM     18  C   UNL A   1      36.544  23.425  25.996  1.00  0.00     0.007 C 
ATOM     19  C   UNL A   1      36.042  21.128  25.595  1.00  0.00     0.117 C 
ATOM     20  C   UNL A   1      37.727  22.820  25.230  1.00  0.00     0.003 C 
ATOM     21  C   UNL A   1      37.286  21.433  24.771  1.00  0.00     0.032 C 
BRANCH  19  22
ATOM     22  O   UNL A   1      35.210  20.144  25.017  1.00  0.00    -0.393 OA
ATOM     23  H   UNL A   1      35.352  20.125  24.058  1.00  0.00     0.210 HD
ENDBRANCH  19  22
ENDBRANCH  16  17
ENDBRANCH  15  16
ENDBRANCH   7   9
ENDBRANCH   4   7
ENDBRANCH   2   3
ENDBRANCH   1   2
BRANCH   1  24
ATOM     24  C   UNL A   1      34.425  32.079  28.900  1.00  0.00     0.002 C 
BRANCH  24  25
ATOM     25  C   UNL A   1      34.593  33.598  28.809  1.00  0.00     0.002 C 
BRANCH  25  26
ATOM     26  C   UNL A   1      33.302  34.393  29.014  1.00  0.00     0.021 C 
BRANCH  26  27
ATOM     27  C   UNL A   1      33.527  35.842  29.427  1.00  0.00     0.116 C 
BRANCH  27  28
ATOM     28  N   UNL A   1      32.604  36.257  30.473  1.00  0.00    -0.352 N 
ATOM     29  C   UNL A   1      32.575  35.874  31.791  1.00  0.00     0.251 C 
ATOM     30  H   UNL A   1      31.908  36.898  30.199  1.00  0.00     0.163 HD
ATOM     31  O   UNL A   1      31.615  36.147  32.505  1.00  0.00    -0.269 OA
BRANCH  29  32
ATOM     32  C   UNL A   1      33.713  35.112  32.337  1.00  0.00     0.039 A 
ATOM     33  C   UNL A   1      33.493  33.841  32.873  1.00  0.00     0.014 A 
ATOM     34  C   UNL A   1      35.003  35.647  32.280  1.00  0.00     0.014 A 
ATOM     35  C   UNL A   1      34.580  33.076  33.296  1.00  0.00     0.010 A 
ATOM     36  C   UNL A   1      36.088  34.856  32.631  1.00  0.00     0.010 A 
ATOM     37  C   UNL A   1      35.888  33.565  33.145  1.00  0.00    -0.014 A 
BRANCH  37  38
ATOM     38  C   UNL A   1      37.075  32.759  33.525  1.00  0.00     0.031 A 
ATOM     39  C   UNL A   1      37.806  33.074  34.799  1.00  0.00     0.074 A 
ATOM     40  C   UNL A   1      37.558  31.831  32.679  1.00  0.00     0.049 A 
ATOM     41  N   UNL A   1      38.947  32.609  35.236  1.00  0.00    -0.248 NA
ATOM     42  C   UNL A   1      37.187  34.077  35.678  1.00  0.00     0.031 C 
ATOM     43  C   UNL A   1      36.961  31.468  31.392  1.00  0.00     0.029 A 
ATOM     44  N   UNL A   1      38.682  31.048  32.759  1.00  0.00    -0.354 N 
ATOM     45  C   UNL A   1      39.196  33.283  36.424  1.00  0.00     0.074 A 
ATOM     46  C   UNL A   1      38.115  34.226  36.611  1.00  0.00     0.031 C 
ATOM     47  C   UNL A   1      37.726  30.535  30.804  1.00  0.00     0.029 A 
ATOM     48  C   UNL A   1      38.888  30.269  31.647  1.00  0.00     0.049 A 
ATOM     49  H   UNL A   1      39.283  31.046  33.539  1.00  0.00     0.167 HD
ATOM     50  C   UNL A   1      40.225  33.119  37.289  1.00  0.00     0.037 A 
ATOM     51  C   UNL A   1      39.912  29.453  31.330  1.00  0.00     0.037 A 
ATOM     52  C   UNL A   1      41.285  32.164  37.105  1.00  0.00     0.049 A 
ATOM     53  C   UNL A   1      41.048  29.285  32.299  1.00  0.00     0.074 A 
ATOM     54  C   UNL A   1      42.333  31.864  37.957  1.00  0.00     0.029 A 
ATOM     55  N   UNL A   1      41.435  31.359  35.984  1.00  0.00    -0.354 N 
ATOM     56  N   UNL A   1      41.238  29.874  33.455  1.00  0.00    -0.248 NA
ATOM     57  C   UNL A   1      42.109  28.340  31.926  1.00  0.00     0.031 C 
ATOM     58  C   UNL A   1      43.151  30.921  37.326  1.00  0.00     0.029 A 
ATOM     59  C   UNL A   1      42.578  30.587  36.109  1.00  0.00     0.049 A 
ATOM     60  H   UNL A   1      40.822  31.340  35.215  1.00  0.00     0.167 HD
ATOM     61  C   UNL A   1      42.421  29.350  33.962  1.00  0.00     0.074 A 
ATOM     62  C   UNL A   1      42.905  28.396  32.986  1.00  0.00     0.031 C 
ATOM     63  C   UNL A   1      43.043  29.632  35.132  1.00  0.00     0.037 A 
BRANCH  50  64
ATOM     64  C   UNL A   1      40.255  34.009  38.498  1.00  0.00     0.057 A 
ATOM     65  C   UNL A   1      40.941  35.233  38.507  1.00  0.00     0.134 A 
ATOM     66  C   UNL A   1      39.593  33.637  39.675  1.00  0.00     0.134 A 
ATOM     67  F   UNL A   1      41.606  35.648  37.418  1.00  0.00    -0.206 F 
ATOM     68  C   UNL A   1      41.006  36.027  39.652  1.00  0.00     0.040 A 
ATOM     69  C   UNL A   1      39.622  34.439  40.817  1.00  0.00     0.040 A 
ATOM     70  F   UNL A   1      38.909  32.484  39.735  1.00  0.00    -0.206 F 
ATOM     71  C   UNL A   1      40.341  35.631  40.812  1.00  0.00     0.006 A 
ENDBRANCH  50  64
BRANCH  51  72
ATOM     72  C   UNL A   1      39.893  28.732  30.033  1.00  0.00     0.057 A 
ATOM     73  C   UNL A   1      39.223  27.512  29.892  1.00  0.00     0.134 A 
ATOM     74  C   UNL A   1      40.505  29.268  28.892  1.00  0.00     0.134 A 
ATOM     75  F   UNL A   1      38.630  26.943  30.951  1.00  0.00    -0.206 F 
ATOM     76  C   UNL A   1      39.167  26.846  28.666  1.00  0.00     0.040 A 
ATOM     77  C   UNL A   1      40.438  28.624  27.655  1.00  0.00     0.040 A 
ATOM     78  F   UNL A   1      41.153  30.440  28.959  1.00  0.00    -0.206 F 
ATOM     79  C   UNL A   1      39.769  27.407  27.540  1.00  0.00     0.006 A 
ENDBRANCH  51  72
BRANCH  63  80
ATOM     80  C   UNL A   1      44.299  28.875  35.455  1.00  0.00     0.057 A 
ATOM     81  C   UNL A   1      45.566  29.354  35.105  1.00  0.00     0.134 A 
ATOM     82  C   UNL A   1      44.237  27.695  36.208  1.00  0.00     0.134 A 
ATOM     83  F   UNL A   1      45.693  30.472  34.374  1.00  0.00    -0.206 F 
ATOM     84  C   UNL A   1      46.729  28.684  35.489  1.00  0.00     0.040 A 
ATOM     85  C   UNL A   1      45.393  27.030  36.620  1.00  0.00     0.040 A 
ATOM     86  F   UNL A   1      43.054  27.187  36.583  1.00  0.00    -0.206 F 
ATOM     87  C   UNL A   1      46.644  27.525  36.258  1.00  0.00     0.006 A 
ENDBRANCH  63  80
ENDBRANCH  37  38
ENDBRANCH  29  32
ENDBRANCH  27  28
ENDBRANCH  26  27
ENDBRANCH  25  26
ENDBRANCH  24  25
ENDBRANCH   1  24
TORSDOF 17
ENDMDL
MODEL 3
REMARK VINA RESULT:      -9.0      4.869      9.592
REMARK SMILES C[C@@H](C(=O)NCCCCCCNC(=O)c1ccc(-c2c3nc(c(-c4c(F)cccc4F)c4ccc([nH]4)c(-c4c(F)cccc4F)c4nc(c(-c5c(F)cccc5F)c5ccc2[nH]5)C=C4)C=C3)cc1)c1ccc(C[C@@H]2CCC[C@@H]2O)cc1Br
REMARK SMILES IDX 7 1 6 2 5 3 3 4 4 5 2 7 1 8 69 9 70 10 81 11 71 12 80 13
REMARK SMILES IDX 82 14 72 15 73 16 74 17 75 18 78 19 76 20 77 21 79 22 8 24
REMARK SMILES IDX 9 25 10 26 11 27 12 28 13 29 14 31 15 32 16 33 68 34 17 35
REMARK SMILES IDX 67 36 18 37 19 38 20 39 61 40 21 41 66 42 60 43 62 44 22 45
REMARK SMILES IDX 65 46 59 47 58 48 23 50 49 51 32 52 48 53 33 54 36 55 47 56
REMARK SMILES IDX 63 57 34 58 35 59 46 61 64 62 37 63 24 64 25 65 30 66 26 67
REMARK SMILES IDX 27 68 29 69 31 70 28 71 50 72 51 73 56 74 52 75 53 76 55 77
REMARK SMILES IDX 57 78 54 79 38 80 39 81 44 82 40 83 41 84 43 85 45 86 42 87
REMARK H PARENT 5 6 79 23 12 30 62 49 36 60
REMARK Flexibility Score: inf
ROOT
ATOM      1  C   UNL A   1      31.005  29.236  23.273  1.00  0.00     0.021 C 
ENDROOT
BRANCH   1   2
ATOM      2  C   UNL A   1      30.475  27.804  23.141  1.00  0.00     0.116 C 
BRANCH   2   3
ATOM      3  N   UNL A   1      31.510  26.953  22.589  1.00  0.00    -0.356 N 
ATOM      4  C   UNL A   1      32.754  26.683  23.084  1.00  0.00     0.227 C 
ATOM      5  O   UNL A   1      33.590  26.239  22.295  1.00  0.00    -0.274 OA
ATOM      6  H   UNL A   1      31.285  26.507  21.741  1.00  0.00     0.163 HD
BRANCH   4   7
ATOM      7  C   UNL A   1      33.043  26.913  24.580  1.00  0.00     0.106 C 
ATOM      8  C   UNL A   1      34.209  27.910  24.699  1.00  0.00     0.023 C 
BRANCH   7   9
ATOM      9  C   UNL A   1      33.283  25.589  25.320  1.00  0.00    -0.022 A 
ATOM     10  C   UNL A   1      34.582  25.066  25.439  1.00  0.00     0.006 A 
ATOM     11  C   UNL A   1      32.238  24.826  25.878  1.00  0.00     0.022 A 
ATOM     12  C   UNL A   1      34.818  23.805  25.981  1.00  0.00     0.004 A 
ATOM     13  C   UNL A   1      32.472  23.531  26.370  1.00  0.00     0.019 A 
ATOM     14  Br  UNL A   1      30.454  25.478  26.030  1.00  0.00    -0.051 Br
ATOM     15  C   UNL A   1      33.761  22.985  26.365  1.00  0.00    -0.047 A 
BRANCH  15  16
ATOM     16  C   UNL A   1      34.011  21.549  26.755  1.00  0.00     0.041 C 
BRANCH  16  17
ATOM     17  C   UNL A   1      34.252  20.522  25.619  1.00  0.00     0.022 C 
ATOM     18  C   UNL A   1      34.175  21.063  24.184  1.00  0.00     0.007 C 
ATOM     19  C   UNL A   1      33.311  19.314  25.557  1.00  0.00     0.117 C 
ATOM     20  C   UNL A   1      32.789  20.693  23.643  1.00  0.00     0.003 C 
ATOM     21  C   UNL A   1      32.155  19.759  24.669  1.00  0.00     0.032 C 
BRANCH  19  22
ATOM     22  O   UNL A   1      32.901  18.849  26.825  1.00  0.00    -0.393 OA
ATOM     23  H   UNL A   1      32.398  19.545  27.277  1.00  0.00     0.210 HD
ENDBRANCH  19  22
ENDBRANCH  16  17
ENDBRANCH  15  16
ENDBRANCH   7   9
ENDBRANCH   4   7
ENDBRANCH   2   3
ENDBRANCH   1   2
BRANCH   1  24
ATOM     24  C   UNL A   1      30.664  29.893  24.617  1.00  0.00     0.002 C 
BRANCH  24  25
ATOM     25  C   UNL A   1      31.879  30.297  25.457  1.00  0.00     0.002 C 
BRANCH  25  26
ATOM     26  C   UNL A   1      31.565  31.257  26.606  1.00  0.00     0.021 C 
BRANCH  26  27
ATOM     27  C   UNL A   1      32.787  31.980  27.158  1.00  0.00     0.116 C 
BRANCH  27  28
ATOM     28  N   UNL A   1      32.527  33.396  27.376  1.00  0.00    -0.352 N 
ATOM     29  C   UNL A   1      33.085  34.237  28.305  1.00  0.00     0.251 C 
ATOM     30  H   UNL A   1      31.860  33.804  26.775  1.00  0.00     0.163 HD
ATOM     31  O   UNL A   1      32.618  35.353  28.506  1.00  0.00    -0.269 OA
BRANCH  29  32
ATOM     32  C   UNL A   1      34.253  33.771  29.076  1.00  0.00     0.039 A 
ATOM     33  C   UNL A   1      34.066  32.865  30.122  1.00  0.00     0.014 A 
ATOM     34  C   UNL A   1      35.535  34.209  28.734  1.00  0.00     0.014 A 
ATOM     35  C   UNL A   1      35.177  32.344  30.787  1.00  0.00     0.010 A 
ATOM     36  C   UNL A   1      36.641  33.633  29.345  1.00  0.00     0.010 A 
ATOM     37  C   UNL A   1      36.473  32.698  30.379  1.00  0.00    -0.014 A 
BRANCH  37  38
ATOM     38  C   UNL A   1      37.681  32.121  31.018  1.00  0.00     0.031 A 
ATOM     39  C   UNL A   1      38.441  31.031  30.317  1.00  0.00     0.074 A 
ATOM     40  C   UNL A   1      38.025  32.490  32.266  1.00  0.00     0.049 A 
ATOM     41  N   UNL A   1      39.417  30.283  30.761  1.00  0.00    -0.248 NA
ATOM     42  C   UNL A   1      38.017  30.717  28.944  1.00  0.00     0.031 C 
ATOM     43  C   UNL A   1      37.338  33.506  33.066  1.00  0.00     0.029 A 
ATOM     44  N   UNL A   1      39.018  32.030  33.092  1.00  0.00    -0.354 N 
ATOM     45  C   UNL A   1      39.702  29.392  29.735  1.00  0.00     0.074 A 
ATOM     46  C   UNL A   1      38.762  29.658  28.668  1.00  0.00     0.031 C 
ATOM     47  C   UNL A   1      37.930  33.588  34.268  1.00  0.00     0.029 A 
ATOM     48  C   UNL A   1      39.005  32.603  34.339  1.00  0.00     0.049 A 
ATOM     49  H   UNL A   1      39.678  31.352  32.816  1.00  0.00     0.167 HD
ATOM     50  C   UNL A   1      40.672  28.447  29.681  1.00  0.00     0.037 A 
ATOM     51  C   UNL A   1      39.756  32.345  35.428  1.00  0.00     0.037 A 
ATOM     52  C   UNL A   1      41.615  28.204  30.740  1.00  0.00     0.049 A 
ATOM     53  C   UNL A   1      40.824  31.291  35.353  1.00  0.00     0.074 A 
ATOM     54  C   UNL A   1      42.683  27.324  30.757  1.00  0.00     0.029 A 
ATOM     55  N   UNL A   1      41.597  28.838  31.974  1.00  0.00    -0.354 N 
ATOM     56  N   UNL A   1      41.135  30.503  34.352  1.00  0.00    -0.248 NA
ATOM     57  C   UNL A   1      41.650  31.091  36.552  1.00  0.00     0.031 C 
ATOM     58  C   UNL A   1      43.275  27.382  32.023  1.00  0.00     0.029 A 
ATOM     59  C   UNL A   1      42.615  28.344  32.773  1.00  0.00     0.049 A 
ATOM     60  H   UNL A   1      40.955  29.534  32.243  1.00  0.00     0.167 HD
ATOM     61  C   UNL A   1      42.208  29.736  34.788  1.00  0.00     0.074 A 
ATOM     62  C   UNL A   1      42.495  30.154  36.145  1.00  0.00     0.031 C 
ATOM     63  C   UNL A   1      42.896  28.778  34.120  1.00  0.00     0.037 A 
BRANCH  50  64
ATOM     64  C   UNL A   1      40.738  27.600  28.443  1.00  0.00     0.057 A 
ATOM     65  C   UNL A   1      41.538  27.947  27.344  1.00  0.00     0.134 A 
ATOM     66  C   UNL A   1      39.988  26.422  28.344  1.00  0.00     0.134 A 
ATOM     67  F   UNL A   1      42.275  29.068  27.367  1.00  0.00    -0.206 F 
ATOM     68  C   UNL A   1      41.552  27.181  26.178  1.00  0.00     0.040 A 
ATOM     69  C   UNL A   1      40.019  25.629  27.196  1.00  0.00     0.040 A 
ATOM     70  F   UNL A   1      39.208  26.024  29.360  1.00  0.00    -0.206 F 
ATOM     71  C   UNL A   1      40.792  26.015  26.104  1.00  0.00     0.006 A 
ENDBRANCH  50  64
BRANCH  51  72
ATOM     72  C   UNL A   1      39.515  33.111  36.676  1.00  0.00     0.057 A 
ATOM     73  C   UNL A   1      40.183  34.314  36.927  1.00  0.00     0.134 A 
ATOM     74  C   UNL A   1      38.579  32.682  37.626  1.00  0.00     0.134 A 
ATOM     75  F   UNL A   1      41.101  34.769  36.061  1.00  0.00    -0.206 F 
ATOM     76  C   UNL A   1      39.935  35.061  38.079  1.00  0.00     0.040 A 
ATOM     77  C   UNL A   1      38.305  33.431  38.772  1.00  0.00     0.040 A 
ATOM     78  F   UNL A   1      37.898  31.543  37.438  1.00  0.00    -0.206 F 
ATOM     79  C   UNL A   1      38.986  34.624  39.003  1.00  0.00     0.006 A 
ENDBRANCH  51  72
BRANCH  63  80
ATOM     80  C   UNL A   1      44.057  28.134  34.821  1.00  0.00     0.057 A 
ATOM     81  C   UNL A   1      43.935  26.910  35.487  1.00  0.00     0.134 A 
ATOM     82  C   UNL A   1      45.333  28.708  34.746  1.00  0.00     0.134 A 
ATOM     83  F   UNL A   1      42.740  26.314  35.605  1.00  0.00    -0.206 F 
ATOM     84  C   UNL A   1      45.043  26.280  36.060  1.00  0.00     0.040 A 
ATOM     85  C   UNL A   1      46.451  28.077  35.290  1.00  0.00     0.040 A 
ATOM     86  F   UNL A   1      45.518  29.877  34.114  1.00  0.00    -0.206 F 
ATOM     87  C   UNL A   1      46.307  26.858  35.951  1.00  0.00     0.006 A 
ENDBRANCH  63  80
ENDBRANCH  37  38
ENDBRANCH  29  32
ENDBRANCH  27  28
ENDBRANCH  26  27
ENDBRANCH  25  26
ENDBRANCH  24  25
ENDBRANCH   1  24
TORSDOF 17
ENDMDL
