MODEL 1
REMARK VINA RESULT:     -11.7      0.000      0.000
REMARK SMILES Cc1nc2scc(C)n2c1CNc1ccc(C(=O)NCCCCCCNC(=O)c2ccc(-c3c4nc(c(-c5c(F)cccc5F)c5ccc([nH]5)c(-c5c(F)cccc5F)c5nc(c(-c6c(F)cccc6F)c6ccc3[nH]6)C=C5)C=C4)cc2)cc1
REMARK SMILES IDX 22 1 21 2 20 3 19 4 17 5 18 6 16 8 13 9 14 10 84 11 15 12
REMARK SMILES IDX 83 13 12 14 11 16 10 17 1 18 2 19 3 20 4 21 9 22 5 23 7 24
REMARK SMILES IDX 6 25 8 26 23 27 24 28 25 29 26 30 27 31 28 33 29 34 30 35
REMARK SMILES IDX 82 36 31 37 81 38 32 39 33 40 34 41 75 42 35 43 80 44 74 45
REMARK SMILES IDX 76 46 36 47 79 48 73 49 72 50 37 52 63 53 46 54 62 55 47 56
REMARK SMILES IDX 50 57 61 58 77 59 48 60 49 61 60 63 78 64 51 65 38 66 39 67
REMARK SMILES IDX 44 68 40 69 41 70 43 71 45 72 42 73 64 74 65 75 70 76 66 77
REMARK SMILES IDX 67 78 69 79 71 80 68 81 52 82 53 83 58 84 54 85 55 86 57 87
REMARK SMILES IDX 59 88 56 89
REMARK H PARENT 19 7 12 15 26 32 76 51 50 62
REMARK Flexibility Score: inf
ROOT
ATOM      1  C   UNL A   1      41.176  20.532  27.501  1.00  0.00     0.002 C 
ENDROOT
BRANCH   1   2
ATOM      2  C   UNL A   1      40.701  20.979  26.111  1.00  0.00     0.021 C 
BRANCH   2   3
ATOM      3  C   UNL A   1      39.185  21.170  26.025  1.00  0.00     0.116 C 
BRANCH   3   4
ATOM      4  N   UNL A   1      38.835  22.521  26.415  1.00  0.00    -0.352 N 
ATOM      5  C   UNL A   1      37.804  23.357  26.075  1.00  0.00     0.251 C 
ATOM      6  O   UNL A   1      37.816  24.489  26.562  1.00  0.00    -0.269 OA
ATOM      7  H   UNL A   1      39.466  22.919  27.057  1.00  0.00     0.163 HD
BRANCH   5   8
ATOM      8  C   UNL A   1      36.644  22.940  25.239  1.00  0.00     0.039 A 
ATOM      9  C   UNL A   1      34.397  22.582  23.560  1.00  0.00     0.034 A 
ATOM     10  C   UNL A   1      35.597  23.074  23.046  1.00  0.00     0.026 A 
ATOM     11  C   UNL A   1      34.381  22.147  24.886  1.00  0.00     0.026 A 
ATOM     12  C   UNL A   1      36.698  23.282  23.881  1.00  0.00     0.016 A 
ATOM     13  C   UNL A   1      35.511  22.274  25.703  1.00  0.00     0.016 A 
BRANCH   9  14
ATOM     14  N   UNL A   1      33.244  22.681  22.799  1.00  0.00    -0.379 N 
ATOM     15  H   UNL A   1      33.122  22.105  22.010  1.00  0.00     0.160 HD
BRANCH  14  16
ATOM     16  C   UNL A   1      32.216  23.639  23.171  1.00  0.00     0.169 C 
BRANCH  16  17
ATOM     17  C   UNL A   1      32.653  25.051  23.029  1.00  0.00     0.066 A 
ATOM     18  C   UNL A   1      32.637  25.472  20.456  1.00  0.00     0.069 C 
ATOM     19  C   UNL A   1      32.852  25.821  21.881  1.00  0.00     0.062 A 
ATOM     20  N   UNL A   1      33.307  27.086  22.190  1.00  0.00    -0.224 NA
ATOM     21  C   UNL A   1      33.359  27.078  23.491  1.00  0.00     0.194 A 
ATOM     22  N   UNL A   1      32.939  25.912  24.072  1.00  0.00    -0.290 N 
ATOM     23  S   UNL A   1      33.801  28.275  24.664  1.00  0.00    -0.105 S 
ATOM     24  C   UNL A   1      32.920  25.948  25.464  1.00  0.00     0.032 A 
ATOM     25  C   UNL A   1      33.350  27.139  25.929  1.00  0.00     0.090 A 
ATOM     26  C   UNL A   1      32.443  24.859  26.355  1.00  0.00     0.066 C 
ENDBRANCH  16  17
ENDBRANCH  14  16
ENDBRANCH   9  14
ENDBRANCH   5   8
ENDBRANCH   3   4
ENDBRANCH   2   3
ENDBRANCH   1   2
BRANCH   1  27
ATOM     27  C   UNL A   1      42.172  19.359  27.514  1.00  0.00     0.002 C 
BRANCH  27  28
ATOM     28  C   UNL A   1      42.633  18.844  26.141  1.00  0.00     0.021 C 
BRANCH  28  29
ATOM     29  C   UNL A   1      44.116  18.515  26.087  1.00  0.00     0.116 C 
BRANCH  29  30
ATOM     30  N   UNL A   1      44.661  18.648  24.734  1.00  0.00    -0.352 N 
ATOM     31  C   UNL A   1      44.716  19.766  23.922  1.00  0.00     0.251 C 
ATOM     32  H   UNL A   1      45.041  17.825  24.348  1.00  0.00     0.163 HD
ATOM     33  O   UNL A   1      44.857  19.665  22.716  1.00  0.00    -0.269 OA
BRANCH  31  34
ATOM     34  C   UNL A   1      44.615  21.093  24.552  1.00  0.00     0.039 A 
ATOM     35  C   UNL A   1      43.605  21.998  24.214  1.00  0.00     0.014 A 
ATOM     36  C   UNL A   1      45.560  21.411  25.520  1.00  0.00     0.014 A 
ATOM     37  C   UNL A   1      43.526  23.200  24.911  1.00  0.00     0.010 A 
ATOM     38  C   UNL A   1      45.349  22.477  26.345  1.00  0.00     0.010 A 
ATOM     39  C   UNL A   1      44.403  23.423  25.984  1.00  0.00    -0.014 A 
BRANCH  39  40
ATOM     40  C   UNL A   1      44.316  24.618  26.810  1.00  0.00     0.031 A 
ATOM     41  C   UNL A   1      45.430  25.577  26.603  1.00  0.00     0.074 A 
ATOM     42  C   UNL A   1      43.195  24.932  27.497  1.00  0.00     0.049 A 
ATOM     43  N   UNL A   1      46.381  25.877  27.422  1.00  0.00    -0.248 NA
ATOM     44  C   UNL A   1      45.603  26.150  25.256  1.00  0.00     0.031 C 
ATOM     45  C   UNL A   1      41.893  24.244  27.481  1.00  0.00     0.029 A 
ATOM     46  N   UNL A   1      42.941  26.014  28.279  1.00  0.00    -0.354 N 
ATOM     47  C   UNL A   1      47.137  26.855  26.781  1.00  0.00     0.074 A 
ATOM     48  C   UNL A   1      46.752  26.814  25.398  1.00  0.00     0.031 C 
ATOM     49  C   UNL A   1      40.945  25.047  28.009  1.00  0.00     0.029 A 
ATOM     50  C   UNL A   1      41.596  26.212  28.573  1.00  0.00     0.049 A 
ATOM     51  H   UNL A   1      43.652  26.609  28.612  1.00  0.00     0.167 HD
ATOM     52  C   UNL A   1      47.801  27.804  27.501  1.00  0.00     0.037 A 
ATOM     53  C   UNL A   1      41.058  27.278  29.212  1.00  0.00     0.037 A 
ATOM     54  C   UNL A   1      47.887  27.415  28.888  1.00  0.00     0.049 A 
ATOM     55  C   UNL A   1      42.164  27.959  29.928  1.00  0.00     0.074 A 
ATOM     56  C   UNL A   1      48.457  26.370  29.585  1.00  0.00     0.029 A 
ATOM     57  N   UNL A   1      46.975  27.989  29.739  1.00  0.00    -0.354 N 
ATOM     58  N   UNL A   1      42.823  27.432  30.923  1.00  0.00    -0.248 NA
ATOM     59  C   UNL A   1      42.840  29.047  29.241  1.00  0.00     0.031 C 
ATOM     60  C   UNL A   1      47.546  26.094  30.648  1.00  0.00     0.029 A 
ATOM     61  C   UNL A   1      46.507  27.027  30.591  1.00  0.00     0.049 A 
ATOM     62  H   UNL A   1      46.702  28.935  29.736  1.00  0.00     0.167 HD
ATOM     63  C   UNL A   1      44.140  27.814  30.718  1.00  0.00     0.074 A 
ATOM     64  C   UNL A   1      44.071  28.890  29.733  1.00  0.00     0.031 C 
ATOM     65  C   UNL A   1      45.171  27.027  31.146  1.00  0.00     0.037 A 
BRANCH  52  66
ATOM     66  C   UNL A   1      47.970  29.250  27.078  1.00  0.00     0.057 A 
ATOM     67  C   UNL A   1      49.247  29.836  27.188  1.00  0.00     0.134 A 
ATOM     68  C   UNL A   1      46.918  30.166  26.878  1.00  0.00     0.134 A 
ATOM     69  F   UNL A   1      50.341  29.079  27.374  1.00  0.00    -0.206 F 
ATOM     70  C   UNL A   1      49.443  31.223  27.207  1.00  0.00     0.040 A 
ATOM     71  C   UNL A   1      47.110  31.551  26.845  1.00  0.00     0.040 A 
ATOM     72  F   UNL A   1      45.636  29.795  26.799  1.00  0.00    -0.206 F 
ATOM     73  C   UNL A   1      48.369  32.086  27.050  1.00  0.00     0.006 A 
ENDBRANCH  52  66
BRANCH  53  74
ATOM     74  C   UNL A   1      39.751  27.927  28.966  1.00  0.00     0.057 A 
ATOM     75  C   UNL A   1      38.778  28.014  29.971  1.00  0.00     0.134 A 
ATOM     76  C   UNL A   1      39.535  28.725  27.827  1.00  0.00     0.134 A 
ATOM     77  F   UNL A   1      38.922  27.326  31.114  1.00  0.00    -0.206 F 
ATOM     78  C   UNL A   1      37.664  28.858  29.860  1.00  0.00     0.040 A 
ATOM     79  C   UNL A   1      38.426  29.568  27.702  1.00  0.00     0.040 A 
ATOM     80  F   UNL A   1      40.442  28.778  26.840  1.00  0.00    -0.206 F 
ATOM     81  C   UNL A   1      37.491  29.647  28.727  1.00  0.00     0.006 A 
ENDBRANCH  53  74
BRANCH  65  82
ATOM     82  C   UNL A   1      44.860  25.921  32.119  1.00  0.00     0.057 A 
ATOM     83  C   UNL A   1      44.555  24.601  31.755  1.00  0.00     0.134 A 
ATOM     84  C   UNL A   1      45.054  26.172  33.482  1.00  0.00     0.134 A 
ATOM     85  F   UNL A   1      44.433  24.245  30.471  1.00  0.00    -0.206 F 
ATOM     86  C   UNL A   1      44.428  23.585  32.709  1.00  0.00     0.040 A 
ATOM     87  C   UNL A   1      44.963  25.162  34.441  1.00  0.00     0.040 A 
ATOM     88  F   UNL A   1      45.396  27.402  33.899  1.00  0.00    -0.206 F 
ATOM     89  C   UNL A   1      44.643  23.863  34.056  1.00  0.00     0.006 A 
ENDBRANCH  65  82
ENDBRANCH  39  40
ENDBRANCH  31  34
ENDBRANCH  29  30
ENDBRANCH  28  29
ENDBRANCH  27  28
ENDBRANCH   1  27
TORSDOF 16
ENDMDL
MODEL 2
REMARK VINA RESULT:     -11.1      4.431      9.844
REMARK SMILES Cc1nc2scc(C)n2c1CNc1ccc(C(=O)NCCCCCCNC(=O)c2ccc(-c3c4nc(c(-c5c(F)cccc5F)c5ccc([nH]5)c(-c5c(F)cccc5F)c5nc(c(-c6c(F)cccc6F)c6ccc3[nH]6)C=C5)C=C4)cc2)cc1
REMARK SMILES IDX 22 1 21 2 20 3 19 4 17 5 18 6 16 8 13 9 14 10 84 11 15 12
REMARK SMILES IDX 83 13 12 14 11 16 10 17 1 18 2 19 3 20 4 21 9 22 5 23 7 24
REMARK SMILES IDX 6 25 8 26 23 27 24 28 25 29 26 30 27 31 28 33 29 34 30 35
REMARK SMILES IDX 82 36 31 37 81 38 32 39 33 40 34 41 75 42 35 43 80 44 74 45
REMARK SMILES IDX 76 46 36 47 79 48 73 49 72 50 37 52 63 53 46 54 62 55 47 56
REMARK SMILES IDX 50 57 61 58 77 59 48 60 49 61 60 63 78 64 51 65 38 66 39 67
REMARK SMILES IDX 44 68 40 69 41 70 43 71 45 72 42 73 64 74 65 75 70 76 66 77
REMARK SMILES IDX 67 78 69 79 71 80 68 81 52 82 53 83 58 84 54 85 55 86 57 87
REMARK SMILES IDX 59 88 56 89
REMARK H PARENT 19 7 12 15 26 32 76 51 50 62
REMARK Flexibility Score: inf
ROOT
ATOM      1  C   UNL A   1      34.295  32.099  27.996  1.00  0.00     0.002 C 
ENDROOT
BRANCH   1   2
ATOM      2  C   UNL A   1      34.948  30.761  27.621  1.00  0.00     0.021 C 
BRANCH   2   3
ATOM      3  C   UNL A   1      33.935  29.686  27.224  1.00  0.00     0.116 C 
BRANCH   3   4
ATOM      4  N   UNL A   1      33.563  29.849  25.832  1.00  0.00    -0.352 N 
ATOM      5  C   UNL A   1      33.423  28.970  24.790  1.00  0.00     0.251 C 
ATOM      6  O   UNL A   1      33.127  29.443  23.692  1.00  0.00    -0.269 OA
ATOM      7  H   UNL A   1      33.370  30.781  25.585  1.00  0.00     0.163 HD
BRANCH   5   8
ATOM      8  C   UNL A   1      33.516  27.490  24.940  1.00  0.00     0.039 A 
ATOM      9  C   UNL A   1      33.369  24.666  24.916  1.00  0.00     0.034 A 
ATOM     10  C   UNL A   1      33.779  25.367  23.781  1.00  0.00     0.026 A 
ATOM     11  C   UNL A   1      33.168  25.387  26.094  1.00  0.00     0.026 A 
ATOM     12  C   UNL A   1      33.821  26.763  23.782  1.00  0.00     0.016 A 
ATOM     13  C   UNL A   1      33.294  26.782  26.120  1.00  0.00     0.016 A 
BRANCH   9  14
ATOM     14  N   UNL A   1      33.035  23.328  24.801  1.00  0.00    -0.379 N 
ATOM     15  H   UNL A   1      32.568  23.002  23.997  1.00  0.00     0.160 HD
BRANCH  14  16
ATOM     16  C   UNL A   1      33.377  22.406  25.871  1.00  0.00     0.169 C 
BRANCH  16  17
ATOM     17  C   UNL A   1      34.268  21.302  25.430  1.00  0.00     0.066 A 
ATOM     18  C   UNL A   1      32.631  19.400  24.722  1.00  0.00     0.069 C 
ATOM     19  C   UNL A   1      33.955  20.023  24.964  1.00  0.00     0.062 A 
ATOM     20  N   UNL A   1      35.090  19.287  24.699  1.00  0.00    -0.224 NA
ATOM     21  C   UNL A   1      36.057  20.111  24.980  1.00  0.00     0.194 A 
ATOM     22  N   UNL A   1      35.648  21.355  25.380  1.00  0.00    -0.290 N 
ATOM     23  S   UNL A   1      37.784  19.981  24.898  1.00  0.00    -0.105 S 
ATOM     24  C   UNL A   1      36.692  22.253  25.595  1.00  0.00     0.032 A 
ATOM     25  C   UNL A   1      37.890  21.671  25.379  1.00  0.00     0.090 A 
ATOM     26  C   UNL A   1      36.545  23.684  25.961  1.00  0.00     0.066 C 
ENDBRANCH  16  17
ENDBRANCH  14  16
ENDBRANCH   9  14
ENDBRANCH   5   8
ENDBRANCH   3   4
ENDBRANCH   2   3
ENDBRANCH   1   2
BRANCH   1  27
ATOM     27  C   UNL A   1      35.239  33.314  28.018  1.00  0.00     0.002 C 
BRANCH  27  28
ATOM     28  C   UNL A   1      34.654  34.618  28.585  1.00  0.00     0.021 C 
BRANCH  28  29
ATOM     29  C   UNL A   1      33.327  34.424  29.299  1.00  0.00     0.116 C 
BRANCH  29  30
ATOM     30  N   UNL A   1      33.260  35.178  30.553  1.00  0.00    -0.352 N 
ATOM     31  C   UNL A   1      33.840  34.891  31.775  1.00  0.00     0.251 C 
ATOM     32  H   UNL A   1      32.727  36.005  30.522  1.00  0.00     0.163 HD
ATOM     33  O   UNL A   1      33.421  35.388  32.806  1.00  0.00    -0.269 OA
BRANCH  31  34
ATOM     34  C   UNL A   1      34.993  33.975  31.805  1.00  0.00     0.039 A 
ATOM     35  C   UNL A   1      34.839  32.589  31.740  1.00  0.00     0.014 A 
ATOM     36  C   UNL A   1      36.257  34.548  31.882  1.00  0.00     0.014 A 
ATOM     37  C   UNL A   1      35.981  31.792  31.690  1.00  0.00     0.010 A 
ATOM     38  C   UNL A   1      37.360  33.791  31.610  1.00  0.00     0.010 A 
ATOM     39  C   UNL A   1      37.238  32.410  31.617  1.00  0.00    -0.014 A 
BRANCH  39  40
ATOM     40  C   UNL A   1      38.464  31.639  31.473  1.00  0.00     0.031 A 
ATOM     41  C   UNL A   1      39.131  31.322  32.761  1.00  0.00     0.074 A 
ATOM     42  C   UNL A   1      38.808  31.054  30.304  1.00  0.00     0.049 A 
ATOM     43  N   UNL A   1      40.250  31.783  33.210  1.00  0.00    -0.248 NA
ATOM     44  C   UNL A   1      38.382  30.521  33.745  1.00  0.00     0.031 C 
ATOM     45  C   UNL A   1      38.033  30.991  29.055  1.00  0.00     0.029 A 
ATOM     46  N   UNL A   1      39.889  30.283  30.015  1.00  0.00    -0.354 N 
ATOM     47  C   UNL A   1      40.460  31.145  34.429  1.00  0.00     0.074 A 
ATOM     48  C   UNL A   1      39.197  30.569  34.801  1.00  0.00     0.031 C 
ATOM     49  C   UNL A   1      38.544  30.038  28.246  1.00  0.00     0.029 A 
ATOM     50  C   UNL A   1      39.784  29.566  28.828  1.00  0.00     0.049 A 
ATOM     51  H   UNL A   1      40.682  30.238  30.596  1.00  0.00     0.167 HD
ATOM     52  C   UNL A   1      41.723  30.904  34.880  1.00  0.00     0.037 A 
ATOM     53  C   UNL A   1      40.650  28.627  28.374  1.00  0.00     0.037 A 
ATOM     54  C   UNL A   1      42.681  31.690  34.140  1.00  0.00     0.049 A 
ATOM     55  C   UNL A   1      41.923  28.817  29.110  1.00  0.00     0.074 A 
ATOM     56  C   UNL A   1      42.916  33.037  33.953  1.00  0.00     0.029 A 
ATOM     57  N   UNL A   1      43.353  31.042  33.133  1.00  0.00    -0.354 N 
ATOM     58  N   UNL A   1      42.682  29.872  28.994  1.00  0.00    -0.248 NA
ATOM     59  C   UNL A   1      42.123  28.036  30.319  1.00  0.00     0.031 C 
ATOM     60  C   UNL A   1      43.342  33.153  32.596  1.00  0.00     0.029 A 
ATOM     61  C   UNL A   1      43.415  31.870  32.047  1.00  0.00     0.049 A 
ATOM     62  H   UNL A   1      43.727  30.133  33.184  1.00  0.00     0.167 HD
ATOM     63  C   UNL A   1      43.134  30.127  30.280  1.00  0.00     0.074 A 
ATOM     64  C   UNL A   1      42.844  28.907  31.029  1.00  0.00     0.031 C 
ATOM     65  C   UNL A   1      43.429  31.400  30.678  1.00  0.00     0.037 A 
BRANCH  52  66
ATOM     66  C   UNL A   1      42.148  29.666  35.647  1.00  0.00     0.057 A 
ATOM     67  C   UNL A   1      43.080  29.813  36.694  1.00  0.00     0.134 A 
ATOM     68  C   UNL A   1      41.945  28.339  35.221  1.00  0.00     0.134 A 
ATOM     69  F   UNL A   1      43.364  31.023  37.201  1.00  0.00    -0.206 F 
ATOM     70  C   UNL A   1      43.826  28.739  37.197  1.00  0.00     0.040 A 
ATOM     71  C   UNL A   1      42.649  27.253  35.752  1.00  0.00     0.040 A 
ATOM     72  F   UNL A   1      41.135  28.015  34.208  1.00  0.00    -0.206 F 
ATOM     73  C   UNL A   1      43.622  27.455  36.716  1.00  0.00     0.006 A 
ENDBRANCH  52  66
BRANCH  53  74
ATOM     74  C   UNL A   1      40.344  27.391  27.619  1.00  0.00     0.057 A 
ATOM     75  C   UNL A   1      40.963  27.112  26.394  1.00  0.00     0.134 A 
ATOM     76  C   UNL A   1      39.650  26.323  28.218  1.00  0.00     0.134 A 
ATOM     77  F   UNL A   1      41.687  28.054  25.770  1.00  0.00    -0.206 F 
ATOM     78  C   UNL A   1      40.912  25.841  25.804  1.00  0.00     0.040 A 
ATOM     79  C   UNL A   1      39.589  25.051  27.639  1.00  0.00     0.040 A 
ATOM     80  F   UNL A   1      39.088  26.458  29.428  1.00  0.00    -0.206 F 
ATOM     81  C   UNL A   1      40.232  24.802  26.434  1.00  0.00     0.006 A 
ENDBRANCH  53  74
BRANCH  65  82
ATOM     82  C   UNL A   1      43.570  32.458  29.617  1.00  0.00     0.057 A 
ATOM     83  C   UNL A   1      42.585  33.406  29.301  1.00  0.00     0.134 A 
ATOM     84  C   UNL A   1      44.824  32.626  29.020  1.00  0.00     0.134 A 
ATOM     85  F   UNL A   1      41.380  33.378  29.883  1.00  0.00    -0.206 F 
ATOM     86  C   UNL A   1      42.835  34.459  28.414  1.00  0.00     0.040 A 
ATOM     87  C   UNL A   1      45.097  33.691  28.160  1.00  0.00     0.040 A 
ATOM     88  F   UNL A   1      45.829  31.786  29.314  1.00  0.00    -0.206 F 
ATOM     89  C   UNL A   1      44.099  34.610  27.849  1.00  0.00     0.006 A 
ENDBRANCH  65  82
ENDBRANCH  39  40
ENDBRANCH  31  34
ENDBRANCH  29  30
ENDBRANCH  28  29
ENDBRANCH  27  28
ENDBRANCH   1  27
TORSDOF 16
ENDMDL
MODEL 3
REMARK VINA RESULT:     -11.1      3.407      8.585
REMARK SMILES Cc1nc2scc(C)n2c1CNc1ccc(C(=O)NCCCCCCNC(=O)c2ccc(-c3c4nc(c(-c5c(F)cccc5F)c5ccc([nH]5)c(-c5c(F)cccc5F)c5nc(c(-c6c(F)cccc6F)c6ccc3[nH]6)C=C5)C=C4)cc2)cc1
REMARK SMILES IDX 22 1 21 2 20 3 19 4 17 5 18 6 16 8 13 9 14 10 84 11 15 12
REMARK SMILES IDX 83 13 12 14 11 16 10 17 1 18 2 19 3 20 4 21 9 22 5 23 7 24
REMARK SMILES IDX 6 25 8 26 23 27 24 28 25 29 26 30 27 31 28 33 29 34 30 35
REMARK SMILES IDX 82 36 31 37 81 38 32 39 33 40 34 41 75 42 35 43 80 44 74 45
REMARK SMILES IDX 76 46 36 47 79 48 73 49 72 50 37 52 63 53 46 54 62 55 47 56
REMARK SMILES IDX 50 57 61 58 77 59 48 60 49 61 60 63 78 64 51 65 38 66 39 67
REMARK SMILES IDX 44 68 40 69 41 70 43 71 45 72 42 73 64 74 65 75 70 76 66 77
REMARK SMILES IDX 67 78 69 79 71 80 68 81 52 82 53 83 58 84 54 85 55 86 57 87
REMARK SMILES IDX 59 88 56 89
REMARK H PARENT 19 7 12 15 26 32 76 51 50 62
REMARK Flexibility Score: inf
ROOT
ATOM      1  C   UNL A   1      31.776  29.708  26.356  1.00  0.00     0.002 C 
ENDROOT
BRANCH   1   2
ATOM      2  C   UNL A   1      32.482  28.666  25.476  1.00  0.00     0.021 C 
BRANCH   2   3
ATOM      3  C   UNL A   1      32.831  29.192  24.082  1.00  0.00     0.116 C 
BRANCH   3   4
ATOM      4  N   UNL A   1      31.624  29.328  23.290  1.00  0.00    -0.352 N 
ATOM      5  C   UNL A   1      30.854  28.432  22.595  1.00  0.00     0.251 C 
ATOM      6  O   UNL A   1      29.889  28.884  21.976  1.00  0.00    -0.269 OA
ATOM      7  H   UNL A   1      31.288  30.251  23.244  1.00  0.00     0.163 HD
BRANCH   5   8
ATOM      8  C   UNL A   1      31.066  26.958  22.630  1.00  0.00     0.039 A 
ATOM      9  C   UNL A   1      31.561  24.219  23.128  1.00  0.00     0.034 A 
ATOM     10  C   UNL A   1      30.497  24.873  23.749  1.00  0.00     0.026 A 
ATOM     11  C   UNL A   1      32.284  24.916  22.158  1.00  0.00     0.026 A 
ATOM     12  C   UNL A   1      30.270  26.234  23.528  1.00  0.00     0.016 A 
ATOM     13  C   UNL A   1      32.003  26.258  21.872  1.00  0.00     0.016 A 
BRANCH   9  14
ATOM     14  N   UNL A   1      31.955  22.976  23.593  1.00  0.00    -0.379 N 
ATOM     15  H   UNL A   1      31.925  22.193  22.998  1.00  0.00     0.160 HD
BRANCH  14  16
ATOM     16  C   UNL A   1      32.412  22.833  24.966  1.00  0.00     0.169 C 
BRANCH  16  17
ATOM     17  C   UNL A   1      33.870  23.069  25.124  1.00  0.00     0.066 A 
ATOM     18  C   UNL A   1      34.062  25.632  25.559  1.00  0.00     0.069 C 
ATOM     19  C   UNL A   1      34.571  24.255  25.354  1.00  0.00     0.062 A 
ATOM     20  N   UNL A   1      35.932  24.040  25.394  1.00  0.00    -0.224 NA
ATOM     21  C   UNL A   1      36.041  22.756  25.213  1.00  0.00     0.194 A 
ATOM     22  N   UNL A   1      34.849  22.094  25.090  1.00  0.00    -0.290 N 
ATOM     23  S   UNL A   1      37.400  21.681  25.152  1.00  0.00    -0.105 S 
ATOM     24  C   UNL A   1      34.978  20.711  24.983  1.00  0.00     0.032 A 
ATOM     25  C   UNL A   1      36.274  20.337  25.001  1.00  0.00     0.090 A 
ATOM     26  C   UNL A   1      33.859  19.737  24.911  1.00  0.00     0.066 C 
ENDBRANCH  16  17
ENDBRANCH  14  16
ENDBRANCH   9  14
ENDBRANCH   5   8
ENDBRANCH   3   4
ENDBRANCH   2   3
ENDBRANCH   1   2
BRANCH   1  27
ATOM     27  C   UNL A   1      32.677  30.822  26.916  1.00  0.00     0.002 C 
BRANCH  27  28
ATOM     28  C   UNL A   1      34.076  30.392  27.387  1.00  0.00     0.021 C 
BRANCH  28  29
ATOM     29  C   UNL A   1      35.018  31.560  27.627  1.00  0.00     0.116 C 
BRANCH  29  30
ATOM     30  N   UNL A   1      34.743  32.239  28.895  1.00  0.00    -0.352 N 
ATOM     31  C   UNL A   1      35.203  31.939  30.164  1.00  0.00     0.251 C 
ATOM     32  H   UNL A   1      34.145  33.020  28.835  1.00  0.00     0.163 HD
ATOM     33  O   UNL A   1      34.627  32.344  31.158  1.00  0.00    -0.269 OA
BRANCH  31  34
ATOM     34  C   UNL A   1      36.422  31.121  30.291  1.00  0.00     0.039 A 
ATOM     35  C   UNL A   1      36.370  29.732  30.427  1.00  0.00     0.014 A 
ATOM     36  C   UNL A   1      37.640  31.788  30.252  1.00  0.00     0.014 A 
ATOM     37  C   UNL A   1      37.567  29.021  30.459  1.00  0.00     0.010 A 
ATOM     38  C   UNL A   1      38.791  31.081  30.059  1.00  0.00     0.010 A 
ATOM     39  C   UNL A   1      38.774  29.710  30.264  1.00  0.00    -0.014 A 
BRANCH  39  40
ATOM     40  C   UNL A   1      40.051  29.016  30.197  1.00  0.00     0.031 A 
ATOM     41  C   UNL A   1      40.713  28.844  31.514  1.00  0.00     0.074 A 
ATOM     42  C   UNL A   1      40.456  28.369  29.082  1.00  0.00     0.049 A 
ATOM     43  N   UNL A   1      41.790  29.412  31.943  1.00  0.00    -0.248 NA
ATOM     44  C   UNL A   1      40.000  28.069  32.547  1.00  0.00     0.031 C 
ATOM     45  C   UNL A   1      39.711  28.159  27.829  1.00  0.00     0.029 A 
ATOM     46  N   UNL A   1      41.592  27.655  28.867  1.00  0.00    -0.354 N 
ATOM     47  C   UNL A   1      42.018  28.884  33.210  1.00  0.00     0.074 A 
ATOM     48  C   UNL A   1      40.790  28.252  33.607  1.00  0.00     0.031 C 
ATOM     49  C   UNL A   1      40.301  27.186  27.104  1.00  0.00     0.029 A 
ATOM     50  C   UNL A   1      41.558  26.845  27.737  1.00  0.00     0.049 A 
ATOM     51  H   UNL A   1      42.374  27.708  29.462  1.00  0.00     0.167 HD
ATOM     52  C   UNL A   1      43.286  28.764  33.696  1.00  0.00     0.037 A 
ATOM     53  C   UNL A   1      42.494  25.936  27.369  1.00  0.00     0.037 A 
ATOM     54  C   UNL A   1      44.203  29.557  32.912  1.00  0.00     0.049 A 
ATOM     55  C   UNL A   1      43.736  26.267  28.106  1.00  0.00     0.074 A 
ATOM     56  C   UNL A   1      44.350  30.898  32.625  1.00  0.00     0.029 A 
ATOM     57  N   UNL A   1      44.936  28.882  31.967  1.00  0.00    -0.354 N 
ATOM     58  N   UNL A   1      44.425  27.360  27.920  1.00  0.00    -0.248 NA
ATOM     59  C   UNL A   1      43.965  25.595  29.374  1.00  0.00     0.031 C 
ATOM     60  C   UNL A   1      44.793  30.940  31.270  1.00  0.00     0.029 A 
ATOM     61  C   UNL A   1      44.963  29.628  30.821  1.00  0.00     0.049 A 
ATOM     62  H   UNL A   1      45.369  28.007  32.093  1.00  0.00     0.167 HD
ATOM     63  C   UNL A   1      44.834  27.742  29.189  1.00  0.00     0.074 A 
ATOM     64  C   UNL A   1      44.612  26.565  30.025  1.00  0.00     0.031 C 
ATOM     65  C   UNL A   1      45.035  29.058  29.493  1.00  0.00     0.037 A 
BRANCH  52  66
ATOM     66  C   UNL A   1      43.778  27.620  34.561  1.00  0.00     0.057 A 
ATOM     67  C   UNL A   1      44.404  27.926  35.787  1.00  0.00     0.134 A 
ATOM     68  C   UNL A   1      43.954  26.292  34.126  1.00  0.00     0.134 A 
ATOM     69  F   UNL A   1      44.311  29.154  36.321  1.00  0.00    -0.206 F 
ATOM     70  C   UNL A   1      45.226  27.016  36.463  1.00  0.00     0.040 A 
ATOM     71  C   UNL A   1      44.733  25.360  34.821  1.00  0.00     0.040 A 
ATOM     72  F   UNL A   1      43.473  25.837  32.964  1.00  0.00    -0.206 F 
ATOM     73  C   UNL A   1      45.405  25.732  35.972  1.00  0.00     0.006 A 
ENDBRANCH  52  66
BRANCH  53  74
ATOM     74  C   UNL A   1      42.286  24.628  26.707  1.00  0.00     0.057 A 
ATOM     75  C   UNL A   1      43.002  24.271  25.557  1.00  0.00     0.134 A 
ATOM     76  C   UNL A   1      41.587  23.588  27.347  1.00  0.00     0.134 A 
ATOM     77  F   UNL A   1      43.737  25.184  24.904  1.00  0.00    -0.206 F 
ATOM     78  C   UNL A   1      43.038  22.953  25.080  1.00  0.00     0.040 A 
ATOM     79  C   UNL A   1      41.612  22.270  26.880  1.00  0.00     0.040 A 
ATOM     80  F   UNL A   1      40.934  23.803  28.499  1.00  0.00    -0.206 F 
ATOM     81  C   UNL A   1      42.349  21.945  25.749  1.00  0.00     0.006 A 
ENDBRANCH  53  74
BRANCH  65  82
ATOM     82  C   UNL A   1      45.125  30.040  28.356  1.00  0.00     0.057 A 
ATOM     83  C   UNL A   1      44.036  30.750  27.828  1.00  0.00     0.134 A 
ATOM     84  C   UNL A   1      46.398  30.407  27.904  1.00  0.00     0.134 A 
ATOM     85  F   UNL A   1      42.788  30.529  28.258  1.00  0.00    -0.206 F 
ATOM     86  C   UNL A   1      44.208  31.762  26.876  1.00  0.00     0.040 A 
ATOM     87  C   UNL A   1      46.586  31.436  26.981  1.00  0.00     0.040 A 
ATOM     88  F   UNL A   1      47.489  29.804  28.403  1.00  0.00    -0.206 F 
ATOM     89  C   UNL A   1      45.489  32.115  26.459  1.00  0.00     0.006 A 
ENDBRANCH  65  82
ENDBRANCH  39  40
ENDBRANCH  31  34
ENDBRANCH  29  30
ENDBRANCH  28  29
ENDBRANCH  27  28
ENDBRANCH   1  27
TORSDOF 16
ENDMDL
