MODEL 1
REMARK VINA RESULT:     -12.5      0.000      0.000
REMARK SMILES C[C@@H](C(=O)NCCCCCCNC(=O)c1ccc(-c2c3nc(c(-c4c(F)cccc4F)c4ccc([nH]4)c(-c4c(F)cccc4F)c4nc(c(-c5c(F)cccc5F)c5ccc2[nH]5)C=C4)C=C3)cc1)c1ccc(-c2ccn(C(F)F)c(=O)c2)cc1
REMARK SMILES IDX 8 1 7 2 6 3 5 4 3 5 4 6 2 8 1 9 69 10 70 11 84 12 71 13
REMARK SMILES IDX 83 14 72 15 73 16 74 17 82 18 75 19 80 20 76 21 81 22 77 23
REMARK SMILES IDX 78 24 79 25 9 26 10 27 11 28 12 29 13 30 14 32 15 33 16 34
REMARK SMILES IDX 68 35 17 36 67 37 18 38 19 39 20 40 61 41 21 42 66 43 60 44
REMARK SMILES IDX 62 45 22 46 65 47 59 48 58 49 23 51 49 52 32 53 48 54 33 55
REMARK SMILES IDX 36 56 47 57 63 58 34 59 35 60 46 62 64 63 37 64 24 65 25 66
REMARK SMILES IDX 30 67 26 68 27 69 29 70 31 71 28 72 50 73 51 74 56 75 52 76
REMARK SMILES IDX 53 77 55 78 57 79 54 80 38 81 39 82 44 83 40 84 41 85 43 86
REMARK SMILES IDX 45 87 42 88
REMARK H PARENT 5 7 12 31 62 50 36 61
REMARK Flexibility Score: inf
ROOT
ATOM      1  C   UNL A   1      32.338  29.594  27.274  1.00  0.00     0.002 C 
ENDROOT
BRANCH   1   2
ATOM      2  C   UNL A   1      31.819  28.149  27.232  1.00  0.00     0.021 C 
BRANCH   2   3
ATOM      3  C   UNL A   1      32.056  27.436  25.898  1.00  0.00     0.116 C 
BRANCH   3   4
ATOM      4  N   UNL A   1      30.804  27.237  25.202  1.00  0.00    -0.356 N 
ATOM      5  C   UNL A   1      30.546  26.755  23.954  1.00  0.00     0.227 C 
ATOM      6  O   UNL A   1      29.369  26.814  23.592  1.00  0.00    -0.274 OA
ATOM      7  H   UNL A   1      30.004  27.492  25.716  1.00  0.00     0.163 HD
BRANCH   5   8
ATOM      8  C   UNL A   1      31.678  26.134  23.113  1.00  0.00     0.105 C 
ATOM      9  C   UNL A   1      31.557  26.428  21.615  1.00  0.00     0.023 C 
BRANCH   8  10
ATOM     10  C   UNL A   1      31.815  24.622  23.281  1.00  0.00    -0.036 A 
ATOM     11  C   UNL A   1      32.713  23.877  22.501  1.00  0.00     0.005 A 
ATOM     12  C   UNL A   1      31.102  23.963  24.293  1.00  0.00     0.005 A 
ATOM     13  C   UNL A   1      32.878  22.508  22.705  1.00  0.00     0.009 A 
ATOM     14  C   UNL A   1      31.283  22.595  24.513  1.00  0.00     0.009 A 
ATOM     15  C   UNL A   1      32.175  21.858  23.725  1.00  0.00    -0.018 A 
BRANCH  15  16
ATOM     16  C   UNL A   1      32.396  20.426  23.995  1.00  0.00    -0.011 A 
ATOM     17  C   UNL A   1      32.665  19.905  25.321  1.00  0.00     0.027 A 
ATOM     18  C   UNL A   1      32.383  19.581  22.950  1.00  0.00     0.080 A 
ATOM     19  C   UNL A   1      32.928  18.605  25.497  1.00  0.00     0.095 A 
ATOM     20  C   UNL A   1      32.656  18.131  23.132  1.00  0.00     0.255 A 
ATOM     21  N   UNL A   1      32.936  17.729  24.427  1.00  0.00    -0.258 N 
ATOM     22  O   UNL A   1      32.631  17.402  22.145  1.00  0.00    -0.269 OA
BRANCH  21  23
ATOM     23  C   UNL A   1      33.263  16.340  24.618  1.00  0.00     0.451 C 
ATOM     24  F   UNL A   1      34.512  16.061  24.174  1.00  0.00    -0.185 F 
ATOM     25  F   UNL A   1      33.198  16.006  25.930  1.00  0.00    -0.185 F 
ENDBRANCH  21  23
ENDBRANCH  15  16
ENDBRANCH   8  10
ENDBRANCH   5   8
ENDBRANCH   3   4
ENDBRANCH   2   3
ENDBRANCH   1   2
BRANCH   1  26
ATOM     26  C   UNL A   1      31.790  30.513  26.179  1.00  0.00     0.002 C 
BRANCH  26  27
ATOM     27  C   UNL A   1      31.490  31.943  26.632  1.00  0.00     0.021 C 
BRANCH  27  28
ATOM     28  C   UNL A   1      32.640  32.631  27.359  1.00  0.00     0.116 C 
BRANCH  28  29
ATOM     29  N   UNL A   1      32.373  34.042  27.596  1.00  0.00    -0.352 N 
ATOM     30  C   UNL A   1      32.969  34.902  28.482  1.00  0.00     0.251 C 
ATOM     31  H   UNL A   1      31.663  34.434  27.039  1.00  0.00     0.163 HD
ATOM     32  O   UNL A   1      32.482  36.012  28.689  1.00  0.00    -0.269 OA
BRANCH  30  33
ATOM     33  C   UNL A   1      34.183  34.485  29.213  1.00  0.00     0.039 A 
ATOM     34  C   UNL A   1      34.057  34.037  30.530  1.00  0.00     0.014 A 
ATOM     35  C   UNL A   1      35.439  34.525  28.600  1.00  0.00     0.014 A 
ATOM     36  C   UNL A   1      35.180  33.553  31.205  1.00  0.00     0.010 A 
ATOM     37  C   UNL A   1      36.544  33.980  29.250  1.00  0.00     0.010 A 
ATOM     38  C   UNL A   1      36.423  33.476  30.554  1.00  0.00    -0.014 A 
BRANCH  38  39
ATOM     39  C   UNL A   1      37.587  32.824  31.206  1.00  0.00     0.031 A 
ATOM     40  C   UNL A   1      38.226  31.608  30.595  1.00  0.00     0.074 A 
ATOM     41  C   UNL A   1      38.023  33.292  32.393  1.00  0.00     0.049 A 
ATOM     42  N   UNL A   1      39.206  30.872  31.058  1.00  0.00    -0.248 NA
ATOM     43  C   UNL A   1      37.684  31.144  29.309  1.00  0.00     0.031 C 
ATOM     44  C   UNL A   1      37.453  34.433  33.114  1.00  0.00     0.029 A 
ATOM     45  N   UNL A   1      39.036  32.859  33.212  1.00  0.00    -0.354 N 
ATOM     46  C   UNL A   1      39.388  29.856  30.130  1.00  0.00     0.074 A 
ATOM     47  C   UNL A   1      38.393  30.044  29.096  1.00  0.00     0.031 C 
ATOM     48  C   UNL A   1      38.132  34.617  34.257  1.00  0.00     0.029 A 
ATOM     49  C   UNL A   1      39.157  33.585  34.373  1.00  0.00     0.049 A 
ATOM     50  H   UNL A   1      39.620  32.099  32.989  1.00  0.00     0.167 HD
ATOM     51  C   UNL A   1      40.313  28.867  30.132  1.00  0.00     0.037 A 
ATOM     52  C   UNL A   1      39.986  33.428  35.423  1.00  0.00     0.037 A 
ATOM     53  C   UNL A   1      41.319  28.699  31.148  1.00  0.00     0.049 A 
ATOM     54  C   UNL A   1      40.992  32.310  35.401  1.00  0.00     0.074 A 
ATOM     55  C   UNL A   1      42.351  27.777  31.191  1.00  0.00     0.029 A 
ATOM     56  N   UNL A   1      41.417  29.461  32.301  1.00  0.00    -0.354 N 
ATOM     57  N   UNL A   1      41.212  31.414  34.469  1.00  0.00    -0.248 NA
ATOM     58  C   UNL A   1      41.868  32.183  36.574  1.00  0.00     0.031 C 
ATOM     59  C   UNL A   1      43.038  27.943  32.397  1.00  0.00     0.029 A 
ATOM     60  C   UNL A   1      42.469  29.006  33.079  1.00  0.00     0.049 A 
ATOM     61  H   UNL A   1      40.827  30.216  32.532  1.00  0.00     0.167 HD
ATOM     62  C   UNL A   1      42.263  30.634  34.934  1.00  0.00     0.074 A 
ATOM     63  C   UNL A   1      42.654  31.178  36.217  1.00  0.00     0.031 C 
ATOM     64  C   UNL A   1      42.849  29.559  34.353  1.00  0.00     0.037 A 
BRANCH  51  65
ATOM     65  C   UNL A   1      40.295  27.880  29.002  1.00  0.00     0.057 A 
ATOM     66  C   UNL A   1      39.517  26.717  29.048  1.00  0.00     0.134 A 
ATOM     67  C   UNL A   1      40.994  28.145  27.816  1.00  0.00     0.134 A 
ATOM     68  F   UNL A   1      38.832  26.401  30.157  1.00  0.00    -0.206 F 
ATOM     69  C   UNL A   1      39.439  25.848  27.958  1.00  0.00     0.040 A 
ATOM     70  C   UNL A   1      40.903  27.296  26.711  1.00  0.00     0.040 A 
ATOM     71  F   UNL A   1      41.751  29.246  27.703  1.00  0.00    -0.206 F 
ATOM     72  C   UNL A   1      40.125  26.143  26.780  1.00  0.00     0.006 A 
ENDBRANCH  51  65
BRANCH  52  73
ATOM     73  C   UNL A   1      39.900  34.338  36.594  1.00  0.00     0.057 A 
ATOM     74  C   UNL A   1      39.100  34.024  37.700  1.00  0.00     0.134 A 
ATOM     75  C   UNL A   1      40.578  35.562  36.619  1.00  0.00     0.134 A 
ATOM     76  F   UNL A   1      38.409  32.875  37.728  1.00  0.00    -0.206 F 
ATOM     77  C   UNL A   1      38.948  34.909  38.768  1.00  0.00     0.040 A 
ATOM     78  C   UNL A   1      40.461  36.443  37.695  1.00  0.00     0.040 A 
ATOM     79  F   UNL A   1      41.369  35.921  35.596  1.00  0.00    -0.206 F 
ATOM     80  C   UNL A   1      39.633  36.122  38.769  1.00  0.00     0.006 A 
ENDBRANCH  52  73
BRANCH  64  81
ATOM     81  C   UNL A   1      43.989  28.917  35.089  1.00  0.00     0.057 A 
ATOM     82  C   UNL A   1      45.312  29.342  34.913  1.00  0.00     0.134 A 
ATOM     83  C   UNL A   1      43.757  27.886  36.008  1.00  0.00     0.134 A 
ATOM     84  F   UNL A   1      45.603  30.316  34.037  1.00  0.00    -0.206 F 
ATOM     85  C   UNL A   1      46.367  28.748  35.608  1.00  0.00     0.040 A 
ATOM     86  C   UNL A   1      44.799  27.305  36.731  1.00  0.00     0.040 A 
ATOM     87  F   UNL A   1      42.512  27.439  36.231  1.00  0.00    -0.206 F 
ATOM     88  C   UNL A   1      46.110  27.730  36.526  1.00  0.00     0.006 A 
ENDBRANCH  64  81
ENDBRANCH  38  39
ENDBRANCH  30  33
ENDBRANCH  28  29
ENDBRANCH  27  28
ENDBRANCH  26  27
ENDBRANCH   1  26
TORSDOF 16
ENDMDL
MODEL 2
REMARK VINA RESULT:     -12.3      2.366      2.941
REMARK SMILES C[C@@H](C(=O)NCCCCCCNC(=O)c1ccc(-c2c3nc(c(-c4c(F)cccc4F)c4ccc([nH]4)c(-c4c(F)cccc4F)c4nc(c(-c5c(F)cccc5F)c5ccc2[nH]5)C=C4)C=C3)cc1)c1ccc(-c2ccn(C(F)F)c(=O)c2)cc1
REMARK SMILES IDX 8 1 7 2 6 3 5 4 3 5 4 6 2 8 1 9 69 10 70 11 84 12 71 13
REMARK SMILES IDX 83 14 72 15 73 16 74 17 82 18 75 19 80 20 76 21 81 22 77 23
REMARK SMILES IDX 78 24 79 25 9 26 10 27 11 28 12 29 13 30 14 32 15 33 16 34
REMARK SMILES IDX 68 35 17 36 67 37 18 38 19 39 20 40 61 41 21 42 66 43 60 44
REMARK SMILES IDX 62 45 22 46 65 47 59 48 58 49 23 51 49 52 32 53 48 54 33 55
REMARK SMILES IDX 36 56 47 57 63 58 34 59 35 60 46 62 64 63 37 64 24 65 25 66
REMARK SMILES IDX 30 67 26 68 27 69 29 70 31 71 28 72 50 73 51 74 56 75 52 76
REMARK SMILES IDX 53 77 55 78 57 79 54 80 38 81 39 82 44 83 40 84 41 85 43 86
REMARK SMILES IDX 45 87 42 88
REMARK H PARENT 5 7 12 31 62 50 36 61
REMARK Flexibility Score: inf
ROOT
ATOM      1  C   UNL A   1      32.190  29.658  27.217  1.00  0.00     0.002 C 
ENDROOT
BRANCH   1   2
ATOM      2  C   UNL A   1      32.481  28.217  26.774  1.00  0.00     0.021 C 
BRANCH   2   3
ATOM      3  C   UNL A   1      32.110  27.920  25.318  1.00  0.00     0.116 C 
BRANCH   3   4
ATOM      4  N   UNL A   1      31.428  26.649  25.219  1.00  0.00    -0.356 N 
ATOM      5  C   UNL A   1      31.629  25.594  24.380  1.00  0.00     0.227 C 
ATOM      6  O   UNL A   1      30.802  24.683  24.460  1.00  0.00    -0.274 OA
ATOM      7  H   UNL A   1      30.697  26.524  25.865  1.00  0.00     0.163 HD
BRANCH   5   8
ATOM      8  C   UNL A   1      32.859  25.564  23.453  1.00  0.00     0.105 C 
ATOM      9  C   UNL A   1      32.536  25.114  22.025  1.00  0.00     0.023 C 
BRANCH   8  10
ATOM     10  C   UNL A   1      34.001  24.690  23.969  1.00  0.00    -0.036 A 
ATOM     11  C   UNL A   1      34.653  23.769  23.133  1.00  0.00     0.005 A 
ATOM     12  C   UNL A   1      34.479  24.862  25.276  1.00  0.00     0.005 A 
ATOM     13  C   UNL A   1      35.735  23.022  23.594  1.00  0.00     0.009 A 
ATOM     14  C   UNL A   1      35.578  24.129  25.732  1.00  0.00     0.009 A 
ATOM     15  C   UNL A   1      36.218  23.208  24.894  1.00  0.00    -0.018 A 
BRANCH  15  16
ATOM     16  C   UNL A   1      37.406  22.475  25.366  1.00  0.00    -0.011 A 
ATOM     17  C   UNL A   1      38.467  23.100  26.130  1.00  0.00     0.027 A 
ATOM     18  C   UNL A   1      37.515  21.177  25.034  1.00  0.00     0.080 A 
ATOM     19  C   UNL A   1      39.557  22.403  26.472  1.00  0.00     0.095 A 
ATOM     20  C   UNL A   1      38.711  20.384  25.422  1.00  0.00     0.255 A 
ATOM     21  N   UNL A   1      39.690  21.072  26.121  1.00  0.00    -0.258 N 
ATOM     22  O   UNL A   1      38.761  19.202  25.096  1.00  0.00    -0.269 OA
BRANCH  21  23
ATOM     23  C   UNL A   1      40.884  20.340  26.454  1.00  0.00     0.451 C 
ATOM     24  F   UNL A   1      41.993  21.097  26.276  1.00  0.00    -0.185 F 
ATOM     25  F   UNL A   1      40.854  19.934  27.746  1.00  0.00    -0.185 F 
ENDBRANCH  21  23
ENDBRANCH  15  16
ENDBRANCH   8  10
ENDBRANCH   5   8
ENDBRANCH   3   4
ENDBRANCH   2   3
ENDBRANCH   1   2
BRANCH   1  26
ATOM     26  C   UNL A   1      31.818  30.623  26.087  1.00  0.00     0.002 C 
BRANCH  26  27
ATOM     27  C   UNL A   1      31.496  32.048  26.540  1.00  0.00     0.021 C 
BRANCH  27  28
ATOM     28  C   UNL A   1      32.590  32.710  27.371  1.00  0.00     0.116 C 
BRANCH  28  29
ATOM     29  N   UNL A   1      32.323  34.121  27.604  1.00  0.00    -0.352 N 
ATOM     30  C   UNL A   1      32.908  34.980  28.499  1.00  0.00     0.251 C 
ATOM     31  H   UNL A   1      31.622  34.515  27.037  1.00  0.00     0.163 HD
ATOM     32  O   UNL A   1      32.420  36.091  28.699  1.00  0.00    -0.269 OA
BRANCH  30  33
ATOM     33  C   UNL A   1      34.110  34.560  29.247  1.00  0.00     0.039 A 
ATOM     34  C   UNL A   1      33.968  34.136  30.570  1.00  0.00     0.014 A 
ATOM     35  C   UNL A   1      35.372  34.574  28.644  1.00  0.00     0.014 A 
ATOM     36  C   UNL A   1      35.078  33.650  31.263  1.00  0.00     0.010 A 
ATOM     37  C   UNL A   1      36.464  34.027  29.313  1.00  0.00     0.010 A 
ATOM     38  C   UNL A   1      36.326  33.547  30.624  1.00  0.00    -0.014 A 
BRANCH  38  39
ATOM     39  C   UNL A   1      37.476  32.891  31.297  1.00  0.00     0.031 A 
ATOM     40  C   UNL A   1      38.137  31.687  30.686  1.00  0.00     0.074 A 
ATOM     41  C   UNL A   1      37.879  33.345  32.501  1.00  0.00     0.049 A 
ATOM     42  N   UNL A   1      39.108  30.949  31.164  1.00  0.00    -0.248 NA
ATOM     43  C   UNL A   1      37.630  31.238  29.380  1.00  0.00     0.031 C 
ATOM     44  C   UNL A   1      37.284  34.474  33.223  1.00  0.00     0.029 A 
ATOM     45  N   UNL A   1      38.873  32.906  33.340  1.00  0.00    -0.354 N 
ATOM     46  C   UNL A   1      39.319  29.946  30.227  1.00  0.00     0.074 A 
ATOM     47  C   UNL A   1      38.351  30.144  29.170  1.00  0.00     0.031 C 
ATOM     48  C   UNL A   1      37.933  34.645  34.385  1.00  0.00     0.029 A 
ATOM     49  C   UNL A   1      38.960  33.616  34.514  1.00  0.00     0.049 A 
ATOM     50  H   UNL A   1      39.467  32.151  33.122  1.00  0.00     0.167 HD
ATOM     51  C   UNL A   1      40.249  28.962  30.240  1.00  0.00     0.037 A 
ATOM     52  C   UNL A   1      39.763  33.449  35.582  1.00  0.00     0.037 A 
ATOM     53  C   UNL A   1      41.230  28.785  31.279  1.00  0.00     0.049 A 
ATOM     54  C   UNL A   1      40.774  32.336  35.570  1.00  0.00     0.074 A 
ATOM     55  C   UNL A   1      42.264  27.867  31.336  1.00  0.00     0.029 A 
ATOM     56  N   UNL A   1      41.294  29.532  32.444  1.00  0.00    -0.354 N 
ATOM     57  N   UNL A   1      41.023  31.453  34.633  1.00  0.00    -0.248 NA
ATOM     58  C   UNL A   1      41.621  32.196  36.764  1.00  0.00     0.031 C 
ATOM     59  C   UNL A   1      42.919  28.021  32.562  1.00  0.00     0.029 A 
ATOM     60  C   UNL A   1      42.327  29.071  33.243  1.00  0.00     0.049 A 
ATOM     61  H   UNL A   1      40.694  30.280  32.670  1.00  0.00     0.167 HD
ATOM     62  C   UNL A   1      42.066  30.672  35.114  1.00  0.00     0.074 A 
ATOM     63  C   UNL A   1      42.421  31.200  36.414  1.00  0.00     0.031 C 
ATOM     64  C   UNL A   1      42.672  29.608  34.533  1.00  0.00     0.037 A 
BRANCH  51  65
ATOM     65  C   UNL A   1      40.265  27.991  29.096  1.00  0.00     0.057 A 
ATOM     66  C   UNL A   1      39.504  26.816  29.113  1.00  0.00     0.134 A 
ATOM     67  C   UNL A   1      40.980  28.283  27.926  1.00  0.00     0.134 A 
ATOM     68  F   UNL A   1      38.805  26.475  30.205  1.00  0.00    -0.206 F 
ATOM     69  C   UNL A   1      39.458  25.961  28.010  1.00  0.00     0.040 A 
ATOM     70  C   UNL A   1      40.921  27.448  26.808  1.00  0.00     0.040 A 
ATOM     71  F   UNL A   1      41.723  29.396  27.841  1.00  0.00    -0.206 F 
ATOM     72  C   UNL A   1      40.159  26.283  26.849  1.00  0.00     0.006 A 
ENDBRANCH  51  65
BRANCH  52  73
ATOM     73  C   UNL A   1      39.642  34.342  36.763  1.00  0.00     0.057 A 
ATOM     74  C   UNL A   1      40.350  35.548  36.836  1.00  0.00     0.134 A 
ATOM     75  C   UNL A   1      38.855  33.991  37.866  1.00  0.00     0.134 A 
ATOM     76  F   UNL A   1      41.138  35.930  35.820  1.00  0.00    -0.206 F 
ATOM     77  C   UNL A   1      40.308  36.353  37.975  1.00  0.00     0.040 A 
ATOM     78  C   UNL A   1      38.779  34.802  39.000  1.00  0.00     0.040 A 
ATOM     79  F   UNL A   1      38.144  32.853  37.858  1.00  0.00    -0.206 F 
ATOM     80  C   UNL A   1      39.518  35.982  39.061  1.00  0.00     0.006 A 
ENDBRANCH  52  73
BRANCH  64  81
ATOM     81  C   UNL A   1      43.796  28.962  35.290  1.00  0.00     0.057 A 
ATOM     82  C   UNL A   1      45.111  29.436  35.204  1.00  0.00     0.134 A 
ATOM     83  C   UNL A   1      43.554  27.875  36.139  1.00  0.00     0.134 A 
ATOM     84  F   UNL A   1      45.412  30.465  34.397  1.00  0.00    -0.206 F 
ATOM     85  C   UNL A   1      46.150  28.836  35.917  1.00  0.00     0.040 A 
ATOM     86  C   UNL A   1      44.579  27.286  36.880  1.00  0.00     0.040 A 
ATOM     87  F   UNL A   1      42.316  27.377  36.275  1.00  0.00    -0.206 F 
ATOM     88  C   UNL A   1      45.884  27.762  36.765  1.00  0.00     0.006 A 
ENDBRANCH  64  81
ENDBRANCH  38  39
ENDBRANCH  30  33
ENDBRANCH  28  29
ENDBRANCH  27  28
ENDBRANCH  26  27
ENDBRANCH   1  26
TORSDOF 16
ENDMDL
MODEL 3
REMARK VINA RESULT:     -12.2      2.388      6.762
REMARK SMILES C[C@@H](C(=O)NCCCCCCNC(=O)c1ccc(-c2c3nc(c(-c4c(F)cccc4F)c4ccc([nH]4)c(-c4c(F)cccc4F)c4nc(c(-c5c(F)cccc5F)c5ccc2[nH]5)C=C4)C=C3)cc1)c1ccc(-c2ccn(C(F)F)c(=O)c2)cc1
REMARK SMILES IDX 8 1 7 2 6 3 5 4 3 5 4 6 2 8 1 9 69 10 70 11 84 12 71 13
REMARK SMILES IDX 83 14 72 15 73 16 74 17 82 18 75 19 80 20 76 21 81 22 77 23
REMARK SMILES IDX 78 24 79 25 9 26 10 27 11 28 12 29 13 30 14 32 15 33 16 34
REMARK SMILES IDX 68 35 17 36 67 37 18 38 19 39 20 40 61 41 21 42 66 43 60 44
REMARK SMILES IDX 62 45 22 46 65 47 59 48 58 49 23 51 49 52 32 53 48 54 33 55
REMARK SMILES IDX 36 56 47 57 63 58 34 59 35 60 46 62 64 63 37 64 24 65 25 66
REMARK SMILES IDX 30 67 26 68 27 69 29 70 31 71 28 72 50 73 51 74 56 75 52 76
REMARK SMILES IDX 53 77 55 78 57 79 54 80 38 81 39 82 44 83 40 84 41 85 43 86
REMARK SMILES IDX 45 87 42 88
REMARK H PARENT 5 7 12 31 62 50 36 61
REMARK Flexibility Score: inf
ROOT
ATOM      1  C   UNL A   1      32.147  29.564  27.224  1.00  0.00     0.002 C 
ENDROOT
BRANCH   1   2
ATOM      2  C   UNL A   1      32.672  28.218  26.704  1.00  0.00     0.021 C 
BRANCH   2   3
ATOM      3  C   UNL A   1      31.615  27.359  26.005  1.00  0.00     0.116 C 
BRANCH   3   4
ATOM      4  N   UNL A   1      31.358  26.155  26.764  1.00  0.00    -0.356 N 
ATOM      5  C   UNL A   1      31.448  24.842  26.408  1.00  0.00     0.227 C 
ATOM      6  O   UNL A   1      31.047  24.034  27.249  1.00  0.00    -0.274 OA
ATOM      7  H   UNL A   1      31.073  26.309  27.693  1.00  0.00     0.163 HD
BRANCH   5   8
ATOM      8  C   UNL A   1      32.070  24.446  25.056  1.00  0.00     0.105 C 
ATOM      9  C   UNL A   1      31.235  23.425  24.276  1.00  0.00     0.023 C 
BRANCH   8  10
ATOM     10  C   UNL A   1      33.491  23.897  25.166  1.00  0.00    -0.036 A 
ATOM     11  C   UNL A   1      34.589  24.746  25.378  1.00  0.00     0.005 A 
ATOM     12  C   UNL A   1      33.710  22.512  25.147  1.00  0.00     0.005 A 
ATOM     13  C   UNL A   1      35.874  24.231  25.542  1.00  0.00     0.009 A 
ATOM     14  C   UNL A   1      34.995  21.994  25.333  1.00  0.00     0.009 A 
ATOM     15  C   UNL A   1      36.085  22.848  25.537  1.00  0.00    -0.018 A 
BRANCH  15  16
ATOM     16  C   UNL A   1      37.428  22.293  25.780  1.00  0.00    -0.011 A 
ATOM     17  C   UNL A   1      38.527  23.082  26.301  1.00  0.00     0.027 A 
ATOM     18  C   UNL A   1      37.640  21.003  25.466  1.00  0.00     0.080 A 
ATOM     19  C   UNL A   1      39.744  22.543  26.436  1.00  0.00     0.095 A 
ATOM     20  C   UNL A   1      38.982  20.385  25.626  1.00  0.00     0.255 A 
ATOM     21  N   UNL A   1      39.979  21.222  26.098  1.00  0.00    -0.258 N 
ATOM     22  O   UNL A   1      39.122  19.203  25.326  1.00  0.00    -0.269 OA
BRANCH  21  23
ATOM     23  C   UNL A   1      41.301  20.662  26.204  1.00  0.00     0.451 C 
ATOM     24  F   UNL A   1      42.246  21.544  25.799  1.00  0.00    -0.185 F 
ATOM     25  F   UNL A   1      41.573  20.310  27.484  1.00  0.00    -0.185 F 
ENDBRANCH  21  23
ENDBRANCH  15  16
ENDBRANCH   8  10
ENDBRANCH   5   8
ENDBRANCH   3   4
ENDBRANCH   2   3
ENDBRANCH   1   2
BRANCH   1  26
ATOM     26  C   UNL A   1      31.751  30.570  26.139  1.00  0.00     0.002 C 
BRANCH  26  27
ATOM     27  C   UNL A   1      31.487  31.989  26.645  1.00  0.00     0.021 C 
BRANCH  27  28
ATOM     28  C   UNL A   1      32.691  32.664  27.293  1.00  0.00     0.116 C 
BRANCH  28  29
ATOM     29  N   UNL A   1      32.445  34.071  27.572  1.00  0.00    -0.352 N 
ATOM     30  C   UNL A   1      32.999  34.875  28.535  1.00  0.00     0.251 C 
ATOM     31  H   UNL A   1      31.787  34.507  26.985  1.00  0.00     0.163 HD
ATOM     32  O   UNL A   1      32.528  35.989  28.757  1.00  0.00    -0.269 OA
BRANCH  30  33
ATOM     33  C   UNL A   1      34.146  34.392  29.331  1.00  0.00     0.039 A 
ATOM     34  C   UNL A   1      33.906  33.805  30.575  1.00  0.00     0.014 A 
ATOM     35  C   UNL A   1      35.453  34.505  28.847  1.00  0.00     0.014 A 
ATOM     36  C   UNL A   1      34.968  33.261  31.299  1.00  0.00     0.010 A 
ATOM     37  C   UNL A   1      36.502  33.903  29.538  1.00  0.00     0.010 A 
ATOM     38  C   UNL A   1      36.268  33.263  30.765  1.00  0.00    -0.014 A 
BRANCH  38  39
ATOM     39  C   UNL A   1      37.377  32.554  31.452  1.00  0.00     0.031 A 
ATOM     40  C   UNL A   1      37.901  33.046  32.772  1.00  0.00     0.074 A 
ATOM     41  C   UNL A   1      37.962  31.502  30.843  1.00  0.00     0.049 A 
ATOM     42  N   UNL A   1      38.904  32.592  33.481  1.00  0.00    -0.248 NA
ATOM     43  C   UNL A   1      37.226  34.211  33.365  1.00  0.00     0.031 C 
ATOM     44  C   UNL A   1      37.580  30.961  29.536  1.00  0.00     0.029 A 
ATOM     45  N   UNL A   1      39.011  30.708  31.234  1.00  0.00    -0.354 N 
ATOM     46  C   UNL A   1      38.987  33.421  34.594  1.00  0.00     0.074 A 
ATOM     47  C   UNL A   1      37.960  34.429  34.448  1.00  0.00     0.031 C 
ATOM     48  C   UNL A   1      38.372  29.918  29.242  1.00  0.00     0.029 A 
ATOM     49  C   UNL A   1      39.345  29.741  30.316  1.00  0.00     0.049 A 
ATOM     50  H   UNL A   1      39.482  30.821  32.091  1.00  0.00     0.167 HD
ATOM     51  C   UNL A   1      39.833  33.335  35.648  1.00  0.00     0.037 A 
ATOM     52  C   UNL A   1      40.333  28.826  30.325  1.00  0.00     0.037 A 
ATOM     53  C   UNL A   1      40.836  32.313  35.803  1.00  0.00     0.049 A 
ATOM     54  C   UNL A   1      41.265  28.767  31.505  1.00  0.00     0.074 A 
ATOM     55  C   UNL A   1      41.682  32.097  36.877  1.00  0.00     0.029 A 
ATOM     56  N   UNL A   1      41.134  31.345  34.858  1.00  0.00    -0.354 N 
ATOM     57  N   UNL A   1      41.269  29.499  32.593  1.00  0.00    -0.248 NA
ATOM     58  C   UNL A   1      42.327  27.753  31.461  1.00  0.00     0.031 C 
ATOM     59  C   UNL A   1      42.532  31.033  36.558  1.00  0.00     0.029 A 
ATOM     60  C   UNL A   1      42.177  30.552  35.309  1.00  0.00     0.049 A 
ATOM     61  H   UNL A   1      40.672  31.236  33.995  1.00  0.00     0.167 HD
ATOM     62  C   UNL A   1      42.317  29.020  33.368  1.00  0.00     0.074 A 
ATOM     63  C   UNL A   1      42.908  27.918  32.640  1.00  0.00     0.031 C 
ATOM     64  C   UNL A   1      42.753  29.456  34.575  1.00  0.00     0.037 A 
BRANCH  51  65
ATOM     65  C   UNL A   1      39.719  34.367  36.731  1.00  0.00     0.057 A 
ATOM     66  C   UNL A   1      38.923  34.162  37.865  1.00  0.00     0.134 A 
ATOM     67  C   UNL A   1      40.486  35.538  36.681  1.00  0.00     0.134 A 
ATOM     68  F   UNL A   1      38.158  33.066  37.970  1.00  0.00    -0.206 F 
ATOM     69  C   UNL A   1      38.890  35.089  38.909  1.00  0.00     0.040 A 
ATOM     70  C   UNL A   1      40.479  36.460  37.729  1.00  0.00     0.040 A 
ATOM     71  F   UNL A   1      41.275  35.791  35.626  1.00  0.00    -0.206 F 
ATOM     72  C   UNL A   1      39.679  36.237  38.848  1.00  0.00     0.006 A 
ENDBRANCH  51  65
BRANCH  52  73
ATOM     73  C   UNL A   1      40.511  27.895  29.181  1.00  0.00     0.057 A 
ATOM     74  C   UNL A   1      41.399  28.189  28.139  1.00  0.00     0.134 A 
ATOM     75  C   UNL A   1      39.766  26.714  29.078  1.00  0.00     0.134 A 
ATOM     76  F   UNL A   1      42.126  29.315  28.168  1.00  0.00    -0.206 F 
ATOM     77  C   UNL A   1      41.512  27.362  27.020  1.00  0.00     0.040 A 
ATOM     78  C   UNL A   1      39.893  25.861  27.980  1.00  0.00     0.040 A 
ATOM     79  F   UNL A   1      38.904  26.369  30.047  1.00  0.00    -0.206 F 
ATOM     80  C   UNL A   1      40.759  26.192  26.940  1.00  0.00     0.006 A 
ENDBRANCH  52  73
BRANCH  64  81
ATOM     81  C   UNL A   1      43.911  28.725  35.191  1.00  0.00     0.057 A 
ATOM     82  C   UNL A   1      45.235  29.126  34.975  1.00  0.00     0.134 A 
ATOM     83  C   UNL A   1      43.695  27.629  36.037  1.00  0.00     0.134 A 
ATOM     84  F   UNL A   1      45.510  30.159  34.164  1.00  0.00    -0.206 F 
ATOM     85  C   UNL A   1      46.307  28.447  35.559  1.00  0.00     0.040 A 
ATOM     86  C   UNL A   1      44.756  26.962  36.650  1.00  0.00     0.040 A 
ATOM     87  F   UNL A   1      42.451  27.200  36.294  1.00  0.00    -0.206 F 
ATOM     88  C   UNL A   1      46.067  27.366  36.406  1.00  0.00     0.006 A 
ENDBRANCH  64  81
ENDBRANCH  38  39
ENDBRANCH  30  33
ENDBRANCH  28  29
ENDBRANCH  27  28
ENDBRANCH  26  27
ENDBRANCH   1  26
TORSDOF 16
ENDMDL
