MODEL 1
REMARK VINA RESULT:     -12.3      0.000      0.000
REMARK SMILES Cn1c(=O)c2c(nc(Nc3cccc(Cl)c3Cl)n2CC(=O)NCCCCCCNC(=O)c2ccc(-c3c4nc(c(-c5c(F)cccc5F)c5ccc([nH]5)c(-c5c(F)cccc5F)c5nc(c(-c6c(F)cccc6F)c6ccc3[nH]6)C=C5)C=C4)cc2)n(C)c1=O
REMARK SMILES IDX 25 1 24 2 23 3 22 4 20 5 21 6 19 8 18 9 1 10 2 11 3 12 88 13
REMARK SMILES IDX 4 14 5 15 86 16 89 17 6 18 87 19 7 20 8 21 9 22 10 24 11 25
REMARK SMILES IDX 16 26 12 27 14 28 17 29 13 30 15 31 26 32 27 33 28 34 29 35
REMARK SMILES IDX 30 36 31 38 32 39 33 40 85 41 34 42 84 43 35 44 36 45 37 46
REMARK SMILES IDX 78 47 38 48 83 49 77 50 79 51 39 52 82 53 76 54 75 55 40 57
REMARK SMILES IDX 66 58 49 59 65 60 50 61 53 62 64 63 80 64 51 65 52 66 63 68
REMARK SMILES IDX 81 69 54 70 41 71 42 72 47 73 43 74 44 75 46 76 48 77 45 78
REMARK SMILES IDX 67 79 68 80 73 81 69 82 70 83 72 84 74 85 71 86 55 87 56 88
REMARK SMILES IDX 61 89 57 90 58 91 60 92 62 93 59 94
REMARK H PARENT 22 7 9 23 29 37 79 56 53 67
REMARK Flexibility Score: inf
ROOT
ATOM      1  C   UNL A   1      41.016  19.760  26.192  1.00  0.00     0.002 C 
ENDROOT
BRANCH   1   2
ATOM      2  C   UNL A   1      40.608  21.199  26.517  1.00  0.00     0.021 C 
BRANCH   2   3
ATOM      3  C   UNL A   1      39.241  21.576  25.960  1.00  0.00     0.116 C 
BRANCH   3   4
ATOM      4  N   UNL A   1      38.742  22.789  26.560  1.00  0.00    -0.355 N 
ATOM      5  C   UNL A   1      37.776  23.641  26.115  1.00  0.00     0.240 C 
ATOM      6  O   UNL A   1      37.482  24.584  26.854  1.00  0.00    -0.273 OA
ATOM      7  H   UNL A   1      39.161  23.039  27.417  1.00  0.00     0.163 HD
BRANCH   5   8
ATOM      8  C   UNL A   1      36.985  23.339  24.857  1.00  0.00     0.226 C 
BRANCH   8   9
ATOM      9  N   UNL A   1      35.542  23.207  25.003  1.00  0.00    -0.295 N 
ATOM     10  C   UNL A   1      34.598  18.320  24.710  1.00  0.00     0.159 C 
ATOM     11  N   UNL A   1      34.267  19.721  24.879  1.00  0.00    -0.261 N 
ATOM     12  C   UNL A   1      35.298  20.658  24.782  1.00  0.00     0.282 A 
ATOM     13  C   UNL A   1      32.905  20.022  25.078  1.00  0.00     0.332 A 
ATOM     14  O   UNL A   1      36.468  20.365  24.530  1.00  0.00    -0.267 OA
ATOM     15  C   UNL A   1      34.868  22.001  24.975  1.00  0.00     0.154 A 
ATOM     16  N   UNL A   1      32.572  21.365  25.240  1.00  0.00    -0.279 N 
ATOM     17  O   UNL A   1      32.049  19.132  25.099  1.00  0.00    -0.247 OA
ATOM     18  C   UNL A   1      33.561  22.315  25.180  1.00  0.00     0.170 A 
ATOM     19  C   UNL A   1      31.192  21.762  25.450  1.00  0.00     0.157 C 
ATOM     20  N   UNL A   1      33.377  23.648  25.298  1.00  0.00    -0.194 NA
ATOM     21  C   UNL A   1      34.565  24.197  25.125  1.00  0.00     0.210 A 
BRANCH  21  22
ATOM     22  N   UNL A   1      34.702  25.541  25.201  1.00  0.00    -0.324 N 
ATOM     23  H   UNL A   1      35.632  25.820  25.359  1.00  0.00     0.170 HD
BRANCH  22  24
ATOM     24  C   UNL A   1      33.816  26.629  25.106  1.00  0.00     0.061 A 
ATOM     25  C   UNL A   1      33.495  27.277  26.318  1.00  0.00     0.028 A 
ATOM     26  C   UNL A   1      33.225  27.099  23.917  1.00  0.00     0.083 A 
ATOM     27  C   UNL A   1      32.692  28.415  26.344  1.00  0.00     0.004 A 
ATOM     28  C   UNL A   1      32.435  28.262  23.946  1.00  0.00     0.061 A 
ATOM     29  Cl  UNL A   1      33.445  26.222  22.434  1.00  0.00    -0.080 Cl
ATOM     30  C   UNL A   1      32.182  28.921  25.155  1.00  0.00     0.022 A 
ATOM     31  Cl  UNL A   1      31.757  28.959  22.515  1.00  0.00    -0.083 Cl
ENDBRANCH  22  24
ENDBRANCH  21  22
ENDBRANCH   8   9
ENDBRANCH   5   8
ENDBRANCH   3   4
ENDBRANCH   2   3
ENDBRANCH   1   2
BRANCH   1  32
ATOM     32  C   UNL A   1      42.233  19.226  26.964  1.00  0.00     0.002 C 
BRANCH  32  33
ATOM     33  C   UNL A   1      43.071  18.149  26.257  1.00  0.00     0.021 C 
BRANCH  33  34
ATOM     34  C   UNL A   1      44.542  18.507  26.130  1.00  0.00     0.116 C 
BRANCH  34  35
ATOM     35  N   UNL A   1      44.972  18.622  24.736  1.00  0.00    -0.352 N 
ATOM     36  C   UNL A   1      44.866  19.710  23.893  1.00  0.00     0.251 C 
ATOM     37  H   UNL A   1      45.391  17.819  24.350  1.00  0.00     0.163 HD
ATOM     38  O   UNL A   1      44.903  19.571  22.676  1.00  0.00    -0.269 OA
BRANCH  36  39
ATOM     39  C   UNL A   1      44.719  21.049  24.484  1.00  0.00     0.039 A 
ATOM     40  C   UNL A   1      43.643  21.882  24.170  1.00  0.00     0.014 A 
ATOM     41  C   UNL A   1      45.693  21.460  25.390  1.00  0.00     0.014 A 
ATOM     42  C   UNL A   1      43.534  23.104  24.828  1.00  0.00     0.010 A 
ATOM     43  C   UNL A   1      45.475  22.553  26.180  1.00  0.00     0.010 A 
ATOM     44  C   UNL A   1      44.452  23.423  25.844  1.00  0.00    -0.014 A 
BRANCH  44  45
ATOM     45  C   UNL A   1      44.305  24.626  26.650  1.00  0.00     0.031 A 
ATOM     46  C   UNL A   1      45.420  25.589  26.480  1.00  0.00     0.074 A 
ATOM     47  C   UNL A   1      43.171  24.934  27.319  1.00  0.00     0.049 A 
ATOM     48  N   UNL A   1      46.352  25.864  27.329  1.00  0.00    -0.248 NA
ATOM     49  C   UNL A   1      45.632  26.183  25.149  1.00  0.00     0.031 C 
ATOM     50  C   UNL A   1      41.878  24.236  27.311  1.00  0.00     0.029 A 
ATOM     51  N   UNL A   1      42.913  26.013  28.106  1.00  0.00    -0.354 N 
ATOM     52  C   UNL A   1      47.131  26.847  26.728  1.00  0.00     0.074 A 
ATOM     53  C   UNL A   1      46.777  26.842  25.334  1.00  0.00     0.031 C 
ATOM     54  C   UNL A   1      40.928  25.022  27.865  1.00  0.00     0.029 A 
ATOM     55  C   UNL A   1      41.569  26.193  28.430  1.00  0.00     0.049 A 
ATOM     56  H   UNL A   1      43.621  26.620  28.422  1.00  0.00     0.167 HD
ATOM     57  C   UNL A   1      47.791  27.763  27.487  1.00  0.00     0.037 A 
ATOM     58  C   UNL A   1      41.039  27.242  29.109  1.00  0.00     0.037 A 
ATOM     59  C   UNL A   1      47.879  27.324  28.860  1.00  0.00     0.049 A 
ATOM     60  C   UNL A   1      42.155  27.893  29.836  1.00  0.00     0.074 A 
ATOM     61  C   UNL A   1      48.420  26.223  29.497  1.00  0.00     0.029 A 
ATOM     62  N   UNL A   1      46.994  27.874  29.755  1.00  0.00    -0.354 N 
ATOM     63  N   UNL A   1      42.796  27.338  30.827  1.00  0.00    -0.248 NA
ATOM     64  C   UNL A   1      42.861  28.964  29.153  1.00  0.00     0.031 C 
ATOM     65  C   UNL A   1      47.486  25.897  30.525  1.00  0.00     0.029 A 
ATOM     66  C   UNL A   1      46.475  26.858  30.513  1.00  0.00     0.049 A 
ATOM     67  H   UNL A   1      46.772  28.830  29.837  1.00  0.00     0.167 HD
ATOM     68  C   UNL A   1      44.124  27.673  30.617  1.00  0.00     0.074 A 
ATOM     69  C   UNL A   1      44.093  28.741  29.616  1.00  0.00     0.031 C 
ATOM     70  C   UNL A   1      45.131  26.858  31.047  1.00  0.00     0.037 A 
BRANCH  57  71
ATOM     71  C   UNL A   1      47.980  29.210  27.096  1.00  0.00     0.057 A 
ATOM     72  C   UNL A   1      49.260  29.783  27.210  1.00  0.00     0.134 A 
ATOM     73  C   UNL A   1      46.932  30.134  26.900  1.00  0.00     0.134 A 
ATOM     74  F   UNL A   1      50.343  29.016  27.414  1.00  0.00    -0.206 F 
ATOM     75  C   UNL A   1      49.469  31.168  27.210  1.00  0.00     0.040 A 
ATOM     76  C   UNL A   1      47.136  31.515  26.846  1.00  0.00     0.040 A 
ATOM     77  F   UNL A   1      45.645  29.770  26.853  1.00  0.00    -0.206 F 
ATOM     78  C   UNL A   1      48.402  32.039  27.034  1.00  0.00     0.006 A 
ENDBRANCH  57  71
BRANCH  58  79
ATOM     79  C   UNL A   1      39.729  27.916  28.941  1.00  0.00     0.057 A 
ATOM     80  C   UNL A   1      38.821  27.996  30.011  1.00  0.00     0.134 A 
ATOM     81  C   UNL A   1      39.469  28.763  27.851  1.00  0.00     0.134 A 
ATOM     82  F   UNL A   1      39.001  27.251  31.112  1.00  0.00    -0.206 F 
ATOM     83  C   UNL A   1      37.749  28.898  30.017  1.00  0.00     0.040 A 
ATOM     84  C   UNL A   1      38.394  29.661  27.841  1.00  0.00     0.040 A 
ATOM     85  F   UNL A   1      40.306  28.820  26.804  1.00  0.00    -0.206 F 
ATOM     86  C   UNL A   1      37.543  29.746  28.936  1.00  0.00     0.006 A 
ENDBRANCH  58  79
BRANCH  70  87
ATOM     87  C   UNL A   1      44.779  25.727  31.978  1.00  0.00     0.057 A 
ATOM     88  C   UNL A   1      44.468  24.423  31.564  1.00  0.00     0.134 A 
ATOM     89  C   UNL A   1      44.929  25.931  33.355  1.00  0.00     0.134 A 
ATOM     90  F   UNL A   1      44.386  24.107  30.265  1.00  0.00    -0.206 F 
ATOM     91  C   UNL A   1      44.294  23.378  32.478  1.00  0.00     0.040 A 
ATOM     92  C   UNL A   1      44.789  24.890  34.275  1.00  0.00     0.040 A 
ATOM     93  F   UNL A   1      45.271  27.141  33.824  1.00  0.00    -0.206 F 
ATOM     94  C   UNL A   1      44.465  23.609  33.839  1.00  0.00     0.006 A 
ENDBRANCH  70  87
ENDBRANCH  44  45
ENDBRANCH  36  39
ENDBRANCH  34  35
ENDBRANCH  33  34
ENDBRANCH  32  33
ENDBRANCH   1  32
TORSDOF 16
ENDMDL
MODEL 2
REMARK VINA RESULT:     -12.1      2.035      3.859
REMARK SMILES Cn1c(=O)c2c(nc(Nc3cccc(Cl)c3Cl)n2CC(=O)NCCCCCCNC(=O)c2ccc(-c3c4nc(c(-c5c(F)cccc5F)c5ccc([nH]5)c(-c5c(F)cccc5F)c5nc(c(-c6c(F)cccc6F)c6ccc3[nH]6)C=C5)C=C4)cc2)n(C)c1=O
REMARK SMILES IDX 25 1 24 2 23 3 22 4 20 5 21 6 19 8 18 9 1 10 2 11 3 12 88 13
REMARK SMILES IDX 4 14 5 15 86 16 89 17 6 18 87 19 7 20 8 21 9 22 10 24 11 25
REMARK SMILES IDX 16 26 12 27 14 28 17 29 13 30 15 31 26 32 27 33 28 34 29 35
REMARK SMILES IDX 30 36 31 38 32 39 33 40 85 41 34 42 84 43 35 44 36 45 37 46
REMARK SMILES IDX 78 47 38 48 83 49 77 50 79 51 39 52 82 53 76 54 75 55 40 57
REMARK SMILES IDX 66 58 49 59 65 60 50 61 53 62 64 63 80 64 51 65 52 66 63 68
REMARK SMILES IDX 81 69 54 70 41 71 42 72 47 73 43 74 44 75 46 76 48 77 45 78
REMARK SMILES IDX 67 79 68 80 73 81 69 82 70 83 72 84 74 85 71 86 55 87 56 88
REMARK SMILES IDX 61 89 57 90 58 91 60 92 62 93 59 94
REMARK H PARENT 22 7 9 23 29 37 79 56 53 67
REMARK Flexibility Score: inf
ROOT
ATOM      1  C   UNL A   1      40.179  21.790  26.114  1.00  0.00     0.002 C 
ENDROOT
BRANCH   1   2
ATOM      2  C   UNL A   1      38.972  22.702  26.349  1.00  0.00     0.021 C 
BRANCH   2   3
ATOM      3  C   UNL A   1      37.740  22.282  25.558  1.00  0.00     0.116 C 
BRANCH   3   4
ATOM      4  N   UNL A   1      36.686  21.818  26.427  1.00  0.00    -0.355 N 
ATOM      5  C   UNL A   1      35.337  21.969  26.309  1.00  0.00     0.240 C 
ATOM      6  O   UNL A   1      34.638  21.414  27.160  1.00  0.00    -0.273 OA
ATOM      7  H   UNL A   1      36.985  21.318  27.222  1.00  0.00     0.163 HD
BRANCH   5   8
ATOM      8  C   UNL A   1      34.728  22.639  25.092  1.00  0.00     0.226 C 
BRANCH   8   9
ATOM      9  N   UNL A   1      33.371  23.149  25.232  1.00  0.00    -0.295 N 
ATOM     10  C   UNL A   1      33.762  28.111  24.936  1.00  0.00     0.159 C 
ATOM     11  N   UNL A   1      33.065  26.846  25.064  1.00  0.00    -0.261 N 
ATOM     12  C   UNL A   1      33.825  25.675  25.091  1.00  0.00     0.282 A 
ATOM     13  C   UNL A   1      31.664  26.916  25.204  1.00  0.00     0.332 A 
ATOM     14  O   UNL A   1      35.056  25.657  25.044  1.00  0.00    -0.267 OA
ATOM     15  C   UNL A   1      33.043  24.491  25.208  1.00  0.00     0.154 A 
ATOM     16  N   UNL A   1      30.982  25.708  25.331  1.00  0.00    -0.279 N 
ATOM     17  O   UNL A   1      31.075  28.002  25.222  1.00  0.00    -0.247 OA
ATOM     18  C   UNL A   1      31.690  24.532  25.333  1.00  0.00     0.170 A 
ATOM     19  C   UNL A   1      29.538  25.689  25.480  1.00  0.00     0.157 C 
ATOM     20  N   UNL A   1      31.160  23.297  25.469  1.00  0.00    -0.194 NA
ATOM     21  C   UNL A   1      32.181  22.461  25.475  1.00  0.00     0.210 A 
BRANCH  21  22
ATOM     22  N   UNL A   1      31.960  21.131  25.586  1.00  0.00    -0.324 N 
ATOM     23  H   UNL A   1      31.463  20.895  26.401  1.00  0.00     0.170 HD
BRANCH  22  24
ATOM     24  C   UNL A   1      32.282  20.009  24.801  1.00  0.00     0.061 A 
ATOM     25  C   UNL A   1      32.759  18.878  25.499  1.00  0.00     0.028 A 
ATOM     26  C   UNL A   1      32.180  19.938  23.398  1.00  0.00     0.083 A 
ATOM     27  C   UNL A   1      33.035  17.681  24.842  1.00  0.00     0.004 A 
ATOM     28  C   UNL A   1      32.437  18.720  22.743  1.00  0.00     0.061 A 
ATOM     29  Cl  UNL A   1      31.775  21.359  22.485  1.00  0.00    -0.080 Cl
ATOM     30  C   UNL A   1      32.850  17.596  23.467  1.00  0.00     0.022 A 
ATOM     31  Cl  UNL A   1      32.237  18.525  21.036  1.00  0.00    -0.083 Cl
ENDBRANCH  22  24
ENDBRANCH  21  22
ENDBRANCH   8   9
ENDBRANCH   5   8
ENDBRANCH   3   4
ENDBRANCH   2   3
ENDBRANCH   1   2
BRANCH   1  32
ATOM     32  C   UNL A   1      40.883  21.283  27.383  1.00  0.00     0.002 C 
BRANCH  32  33
ATOM     33  C   UNL A   1      42.053  20.309  27.172  1.00  0.00     0.021 C 
BRANCH  33  34
ATOM     34  C   UNL A   1      42.141  19.759  25.759  1.00  0.00     0.116 C 
BRANCH  34  35
ATOM     35  N   UNL A   1      43.523  19.558  25.321  1.00  0.00    -0.352 N 
ATOM     36  C   UNL A   1      44.449  20.510  24.944  1.00  0.00     0.251 C 
ATOM     37  H   UNL A   1      43.831  18.624  25.293  1.00  0.00     0.163 HD
ATOM     38  O   UNL A   1      45.414  20.210  24.250  1.00  0.00    -0.269 OA
BRANCH  36  39
ATOM     39  C   UNL A   1      44.264  21.895  25.402  1.00  0.00     0.039 A 
ATOM     40  C   UNL A   1      43.442  22.796  24.720  1.00  0.00     0.014 A 
ATOM     41  C   UNL A   1      44.933  22.282  26.560  1.00  0.00     0.014 A 
ATOM     42  C   UNL A   1      43.259  24.067  25.259  1.00  0.00     0.010 A 
ATOM     43  C   UNL A   1      44.591  23.444  27.192  1.00  0.00     0.010 A 
ATOM     44  C   UNL A   1      43.830  24.375  26.506  1.00  0.00    -0.014 A 
BRANCH  44  45
ATOM     45  C   UNL A   1      43.561  25.640  27.172  1.00  0.00     0.031 A 
ATOM     46  C   UNL A   1      44.535  26.705  26.829  1.00  0.00     0.074 A 
ATOM     47  C   UNL A   1      42.424  25.886  27.861  1.00  0.00     0.049 A 
ATOM     48  N   UNL A   1      45.456  27.196  27.588  1.00  0.00    -0.248 NA
ATOM     49  C   UNL A   1      44.616  27.152  25.429  1.00  0.00     0.031 C 
ATOM     50  C   UNL A   1      41.232  25.039  28.006  1.00  0.00     0.029 A 
ATOM     51  N   UNL A   1      42.060  27.014  28.529  1.00  0.00    -0.354 N 
ATOM     52  C   UNL A   1      46.078  28.186  26.834  1.00  0.00     0.074 A 
ATOM     53  C   UNL A   1      45.673  27.965  25.471  1.00  0.00     0.031 C 
ATOM     54  C   UNL A   1      40.211  25.765  28.516  1.00  0.00     0.029 A 
ATOM     55  C   UNL A   1      40.718  27.066  28.903  1.00  0.00     0.049 A 
ATOM     56  H   UNL A   1      42.696  27.738  28.733  1.00  0.00     0.167 HD
ATOM     57  C   UNL A   1      46.643  29.263  27.443  1.00  0.00     0.037 A 
ATOM     58  C   UNL A   1      40.084  28.117  29.482  1.00  0.00     0.037 A 
ATOM     59  C   UNL A   1      46.842  29.011  28.851  1.00  0.00     0.049 A 
ATOM     60  C   UNL A   1      41.135  28.986  30.066  1.00  0.00     0.074 A 
ATOM     61  C   UNL A   1      47.545  28.072  29.582  1.00  0.00     0.029 A 
ATOM     62  N   UNL A   1      45.929  29.554  29.722  1.00  0.00    -0.354 N 
ATOM     63  N   UNL A   1      41.881  28.641  31.078  1.00  0.00    -0.248 NA
ATOM     64  C   UNL A   1      41.669  30.043  29.224  1.00  0.00     0.031 C 
ATOM     65  C   UNL A   1      46.702  27.762  30.691  1.00  0.00     0.029 A 
ATOM     66  C   UNL A   1      45.576  28.582  30.622  1.00  0.00     0.049 A 
ATOM     67  H   UNL A   1      45.589  30.478  29.703  1.00  0.00     0.167 HD
ATOM     68  C   UNL A   1      43.146  29.108  30.757  1.00  0.00     0.074 A 
ATOM     69  C   UNL A   1      42.938  30.032  29.642  1.00  0.00     0.031 C 
ATOM     70  C   UNL A   1      44.266  28.483  31.225  1.00  0.00     0.037 A 
BRANCH  57  71
ATOM     71  C   UNL A   1      46.629  30.663  26.875  1.00  0.00     0.057 A 
ATOM     72  C   UNL A   1      47.819  31.414  26.889  1.00  0.00     0.134 A 
ATOM     73  C   UNL A   1      45.462  31.404  26.593  1.00  0.00     0.134 A 
ATOM     74  F   UNL A   1      48.998  30.832  27.159  1.00  0.00    -0.206 F 
ATOM     75  C   UNL A   1      47.834  32.804  26.716  1.00  0.00     0.040 A 
ATOM     76  C   UNL A   1      45.473  32.783  26.367  1.00  0.00     0.040 A 
ATOM     77  F   UNL A   1      44.238  30.865  26.620  1.00  0.00    -0.206 F 
ATOM     78  C   UNL A   1      46.657  33.493  26.461  1.00  0.00     0.006 A 
ENDBRANCH  57  71
BRANCH  58  79
ATOM     79  C   UNL A   1      38.693  28.599  29.308  1.00  0.00     0.057 A 
ATOM     80  C   UNL A   1      37.816  28.668  30.404  1.00  0.00     0.134 A 
ATOM     81  C   UNL A   1      38.291  29.293  28.155  1.00  0.00     0.134 A 
ATOM     82  F   UNL A   1      38.125  28.065  31.562  1.00  0.00    -0.206 F 
ATOM     83  C   UNL A   1      36.635  29.422  30.372  1.00  0.00     0.040 A 
ATOM     84  C   UNL A   1      37.108  30.042  28.108  1.00  0.00     0.040 A 
ATOM     85  F   UNL A   1      39.081  29.352  27.072  1.00  0.00    -0.206 F 
ATOM     86  C   UNL A   1      36.287  30.126  29.226  1.00  0.00     0.006 A 
ENDBRANCH  58  79
BRANCH  70  87
ATOM     87  C   UNL A   1      44.099  27.441  32.300  1.00  0.00     0.057 A 
ATOM     88  C   UNL A   1      44.064  26.057  32.068  1.00  0.00     0.134 A 
ATOM     89  C   UNL A   1      44.148  27.854  33.637  1.00  0.00     0.134 A 
ATOM     90  F   UNL A   1      44.101  25.559  30.826  1.00  0.00    -0.206 F 
ATOM     91  C   UNL A   1      44.057  25.131  33.118  1.00  0.00     0.040 A 
ATOM     92  C   UNL A   1      44.173  26.940  34.692  1.00  0.00     0.040 A 
ATOM     93  F   UNL A   1      44.229  29.160  33.936  1.00  0.00    -0.206 F 
ATOM     94  C   UNL A   1      44.122  25.573  34.435  1.00  0.00     0.006 A 
ENDBRANCH  70  87
ENDBRANCH  44  45
ENDBRANCH  36  39
ENDBRANCH  34  35
ENDBRANCH  33  34
ENDBRANCH  32  33
ENDBRANCH   1  32
TORSDOF 16
ENDMDL
MODEL 3
REMARK VINA RESULT:     -11.4      5.555     10.508
REMARK SMILES Cn1c(=O)c2c(nc(Nc3cccc(Cl)c3Cl)n2CC(=O)NCCCCCCNC(=O)c2ccc(-c3c4nc(c(-c5c(F)cccc5F)c5ccc([nH]5)c(-c5c(F)cccc5F)c5nc(c(-c6c(F)cccc6F)c6ccc3[nH]6)C=C5)C=C4)cc2)n(C)c1=O
REMARK SMILES IDX 25 1 24 2 23 3 22 4 20 5 21 6 19 8 18 9 1 10 2 11 3 12 88 13
REMARK SMILES IDX 4 14 5 15 86 16 89 17 6 18 87 19 7 20 8 21 9 22 10 24 11 25
REMARK SMILES IDX 16 26 12 27 14 28 17 29 13 30 15 31 26 32 27 33 28 34 29 35
REMARK SMILES IDX 30 36 31 38 32 39 33 40 85 41 34 42 84 43 35 44 36 45 37 46
REMARK SMILES IDX 78 47 38 48 83 49 77 50 79 51 39 52 82 53 76 54 75 55 40 57
REMARK SMILES IDX 66 58 49 59 65 60 50 61 53 62 64 63 80 64 51 65 52 66 63 68
REMARK SMILES IDX 81 69 54 70 41 71 42 72 47 73 43 74 44 75 46 76 48 77 45 78
REMARK SMILES IDX 67 79 68 80 73 81 69 82 70 83 72 84 74 85 71 86 55 87 56 88
REMARK SMILES IDX 61 89 57 90 58 91 60 92 62 93 59 94
REMARK H PARENT 22 7 9 23 29 37 79 56 53 67
REMARK Flexibility Score: inf
ROOT
ATOM      1  C   UNL A   1      40.503  30.508  35.176  1.00  0.00     0.002 C 
ENDROOT
BRANCH   1   2
ATOM      2  C   UNL A   1      39.283  31.144  35.846  1.00  0.00     0.021 C 
BRANCH   2   3
ATOM      3  C   UNL A   1      38.177  31.504  34.863  1.00  0.00     0.116 C 
BRANCH   3   4
ATOM      4  N   UNL A   1      38.288  32.873  34.420  1.00  0.00    -0.355 N 
ATOM      5  C   UNL A   1      37.334  33.693  33.896  1.00  0.00     0.240 C 
ATOM      6  O   UNL A   1      37.670  34.855  33.657  1.00  0.00    -0.273 OA
ATOM      7  H   UNL A   1      39.184  33.273  34.510  1.00  0.00     0.163 HD
BRANCH   5   8
ATOM      8  C   UNL A   1      35.891  33.241  33.782  1.00  0.00     0.226 C 
BRANCH   8   9
ATOM      9  N   UNL A   1      35.302  33.252  32.449  1.00  0.00    -0.295 N 
ATOM     10  C   UNL A   1      33.279  37.777  31.906  1.00  0.00     0.159 C 
ATOM     11  N   UNL A   1      33.650  36.438  31.493  1.00  0.00    -0.261 N 
ATOM     12  C   UNL A   1      34.306  35.621  32.417  1.00  0.00     0.282 A 
ATOM     13  C   UNL A   1      33.262  36.055  30.194  1.00  0.00     0.332 A 
ATOM     14  O   UNL A   1      34.561  35.964  33.572  1.00  0.00    -0.267 OA
ATOM     15  C   UNL A   1      34.634  34.333  31.907  1.00  0.00     0.154 A 
ATOM     16  N   UNL A   1      33.608  34.769  29.785  1.00  0.00    -0.279 N 
ATOM     17  O   UNL A   1      32.635  36.825  29.459  1.00  0.00    -0.247 OA
ATOM     18  C   UNL A   1      34.280  33.944  30.653  1.00  0.00     0.170 A 
ATOM     19  C   UNL A   1      33.247  34.293  28.462  1.00  0.00     0.157 C 
ATOM     20  N   UNL A   1      34.657  32.673  30.396  1.00  0.00    -0.194 NA
ATOM     21  C   UNL A   1      35.218  32.228  31.505  1.00  0.00     0.210 A 
BRANCH  21  22
ATOM     22  N   UNL A   1      35.713  30.970  31.549  1.00  0.00    -0.324 N 
ATOM     23  H   UNL A   1      35.503  30.508  32.392  1.00  0.00     0.170 HD
BRANCH  22  24
ATOM     24  C   UNL A   1      36.460  30.172  30.663  1.00  0.00     0.061 A 
ATOM     25  C   UNL A   1      36.299  30.450  29.289  1.00  0.00     0.028 A 
ATOM     26  C   UNL A   1      37.327  29.127  31.039  1.00  0.00     0.083 A 
ATOM     27  C   UNL A   1      37.044  29.783  28.319  1.00  0.00     0.004 A 
ATOM     28  C   UNL A   1      38.094  28.473  30.057  1.00  0.00     0.061 A 
ATOM     29  Cl  UNL A   1      37.416  28.629  32.701  1.00  0.00    -0.080 Cl
ATOM     30  C   UNL A   1      37.958  28.812  28.707  1.00  0.00     0.022 A 
ATOM     31  Cl  UNL A   1      39.253  27.250  30.449  1.00  0.00    -0.083 Cl
ENDBRANCH  22  24
ENDBRANCH  21  22
ENDBRANCH   8   9
ENDBRANCH   5   8
ENDBRANCH   3   4
ENDBRANCH   2   3
ENDBRANCH   1   2
BRANCH   1  32
ATOM     32  C   UNL A   1      41.671  31.465  34.883  1.00  0.00     0.002 C 
BRANCH  32  33
ATOM     33  C   UNL A   1      41.435  32.949  35.204  1.00  0.00     0.021 C 
BRANCH  33  34
ATOM     34  C   UNL A   1      41.948  33.894  34.131  1.00  0.00     0.116 C 
BRANCH  34  35
ATOM     35  N   UNL A   1      40.900  34.300  33.195  1.00  0.00    -0.352 N 
ATOM     36  C   UNL A   1      40.691  33.867  31.901  1.00  0.00     0.251 C 
ATOM     37  H   UNL A   1      40.260  34.969  33.532  1.00  0.00     0.163 HD
ATOM     38  O   UNL A   1      40.041  34.539  31.108  1.00  0.00    -0.269 OA
BRANCH  36  39
ATOM     39  C   UNL A   1      41.255  32.572  31.491  1.00  0.00     0.039 A 
ATOM     40  C   UNL A   1      42.586  32.439  31.088  1.00  0.00     0.014 A 
ATOM     41  C   UNL A   1      40.412  31.465  31.530  1.00  0.00     0.014 A 
ATOM     42  C   UNL A   1      43.066  31.167  30.787  1.00  0.00     0.010 A 
ATOM     43  C   UNL A   1      40.933  30.205  31.439  1.00  0.00     0.010 A 
ATOM     44  C   UNL A   1      42.230  30.053  30.980  1.00  0.00    -0.014 A 
BRANCH  44  45
ATOM     45  C   UNL A   1      42.723  28.695  30.806  1.00  0.00     0.031 A 
ATOM     46  C   UNL A   1      43.200  28.076  32.067  1.00  0.00     0.074 A 
ATOM     47  C   UNL A   1      42.566  27.991  29.662  1.00  0.00     0.049 A 
ATOM     48  N   UNL A   1      44.421  27.830  32.403  1.00  0.00    -0.248 NA
ATOM     49  C   UNL A   1      42.229  27.872  33.154  1.00  0.00     0.031 C 
ATOM     50  C   UNL A   1      41.825  28.360  28.448  1.00  0.00     0.029 A 
ATOM     51  N   UNL A   1      42.984  26.729  29.375  1.00  0.00    -0.354 N 
ATOM     52  C   UNL A   1      44.352  27.216  33.650  1.00  0.00     0.074 A 
ATOM     53  C   UNL A   1      43.024  27.465  34.146  1.00  0.00     0.031 C 
ATOM     54  C   UNL A   1      41.661  27.272  27.662  1.00  0.00     0.029 A 
ATOM     55  C   UNL A   1      42.432  26.179  28.219  1.00  0.00     0.049 A 
ATOM     56  H   UNL A   1      43.626  26.242  29.940  1.00  0.00     0.167 HD
ATOM     57  C   UNL A   1      45.304  26.323  34.033  1.00  0.00     0.037 A 
ATOM     58  C   UNL A   1      42.603  24.909  27.772  1.00  0.00     0.037 A 
ATOM     59  C   UNL A   1      46.479  26.439  33.202  1.00  0.00     0.049 A 
ATOM     60  C   UNL A   1      43.816  24.377  28.438  1.00  0.00     0.074 A 
ATOM     61  C   UNL A   1      47.371  27.455  32.915  1.00  0.00     0.029 A 
ATOM     62  N   UNL A   1      46.638  25.510  32.203  1.00  0.00    -0.354 N 
ATOM     63  N   UNL A   1      45.022  24.817  28.207  1.00  0.00    -0.248 NA
ATOM     64  C   UNL A   1      43.632  23.683  29.701  1.00  0.00     0.031 C 
ATOM     65  C   UNL A   1      47.655  27.313  31.523  1.00  0.00     0.029 A 
ATOM     66  C   UNL A   1      46.991  26.178  31.059  1.00  0.00     0.049 A 
ATOM     67  H   UNL A   1      46.520  24.537  32.292  1.00  0.00     0.167 HD
ATOM     68  C   UNL A   1      45.628  24.850  29.453  1.00  0.00     0.074 A 
ATOM     69  C   UNL A   1      44.750  24.066  30.323  1.00  0.00     0.031 C 
ATOM     70  C   UNL A   1      46.617  25.749  29.730  1.00  0.00     0.037 A 
BRANCH  57  71
ATOM     71  C   UNL A   1      45.025  25.088  34.857  1.00  0.00     0.057 A 
ATOM     72  C   UNL A   1      45.786  24.861  36.019  1.00  0.00     0.134 A 
ATOM     73  C   UNL A   1      44.269  23.982  34.418  1.00  0.00     0.134 A 
ATOM     74  F   UNL A   1      46.563  25.827  36.534  1.00  0.00    -0.206 F 
ATOM     75  C   UNL A   1      45.851  23.610  36.645  1.00  0.00     0.040 A 
ATOM     76  C   UNL A   1      44.285  22.744  35.066  1.00  0.00     0.040 A 
ATOM     77  F   UNL A   1      43.554  23.996  33.287  1.00  0.00    -0.206 F 
ATOM     78  C   UNL A   1      45.103  22.544  36.164  1.00  0.00     0.006 A 
ENDBRANCH  57  71
BRANCH  58  79
ATOM     79  C   UNL A   1      41.651  24.013  27.072  1.00  0.00     0.057 A 
ATOM     80  C   UNL A   1      42.115  23.016  26.198  1.00  0.00     0.134 A 
ATOM     81  C   UNL A   1      40.310  23.900  27.476  1.00  0.00     0.134 A 
ATOM     82  F   UNL A   1      43.390  23.017  25.780  1.00  0.00    -0.206 F 
ATOM     83  C   UNL A   1      41.311  21.943  25.791  1.00  0.00     0.040 A 
ATOM     84  C   UNL A   1      39.493  22.839  27.067  1.00  0.00     0.040 A 
ATOM     85  F   UNL A   1      39.780  24.758  28.361  1.00  0.00    -0.206 F 
ATOM     86  C   UNL A   1      39.999  21.844  26.239  1.00  0.00     0.006 A 
ENDBRANCH  58  79
BRANCH  70  87
ATOM     87  C   UNL A   1      47.213  26.522  28.583  1.00  0.00     0.057 A 
ATOM     88  C   UNL A   1      46.709  27.738  28.096  1.00  0.00     0.134 A 
ATOM     89  C   UNL A   1      48.444  26.100  28.068  1.00  0.00     0.134 A 
ATOM     90  F   UNL A   1      45.582  28.270  28.585  1.00  0.00    -0.206 F 
ATOM     91  C   UNL A   1      47.389  28.486  27.127  1.00  0.00     0.040 A 
ATOM     92  C   UNL A   1      49.148  26.852  27.124  1.00  0.00     0.040 A 
ATOM     93  F   UNL A   1      49.012  24.970  28.518  1.00  0.00    -0.206 F 
ATOM     94  C   UNL A   1      48.618  28.047  26.647  1.00  0.00     0.006 A 
ENDBRANCH  70  87
ENDBRANCH  44  45
ENDBRANCH  36  39
ENDBRANCH  34  35
ENDBRANCH  33  34
ENDBRANCH  32  33
ENDBRANCH   1  32
TORSDOF 16
ENDMDL
