MODEL 1
REMARK VINA RESULT:     -12.3      0.000      0.000
REMARK SMILES COC(=O)c1ccc(C)c2c1[C@H]1C=CC[C@H]1[C@@H](c1ccc(C(=O)NCCCCCCNC(=O)c3ccc(-c4c5nc(c(-c6c(F)cccc6F)c6ccc([nH]6)c(-c6c(F)cccc6F)c6nc(c(-c7c(F)cccc7F)c7ccc4[nH]7)C=C6)C=C5)cc3)cc1)N2
REMARK SMILES IDX 27 1 26 2 25 3 24 4 22 5 23 6 21 8 18 9 19 10 89 11 20 12
REMARK SMILES IDX 88 13 17 14 5 15 6 16 11 17 7 18 10 19 12 20 8 21 90 22
REMARK SMILES IDX 13 23 16 24 9 25 14 27 15 28 3 29 4 30 2 31 1 32 28 33 29 34
REMARK SMILES IDX 30 35 31 36 32 37 33 39 34 40 35 41 87 42 36 43 86 44 37 45
REMARK SMILES IDX 38 46 39 47 80 48 40 49 85 50 79 51 81 52 41 53 84 54 78 55
REMARK SMILES IDX 77 56 42 58 68 59 51 60 67 61 52 62 55 63 66 64 82 65 53 66
REMARK SMILES IDX 54 67 65 69 83 70 56 71 43 72 44 73 49 74 45 75 46 76 48 77
REMARK SMILES IDX 50 78 47 79 69 80 70 81 75 82 71 83 72 84 74 85 76 86 73 87
REMARK SMILES IDX 57 88 58 89 63 90 59 91 60 92 62 93 64 94 61 95
REMARK H PARENT 24 7 90 26 31 38 81 57 55 68
REMARK Flexibility Score: inf
ROOT
ATOM      1  C   UNL A   1      41.360  21.618  26.516  1.00  0.00     0.002 C 
ENDROOT
BRANCH   1   2
ATOM      2  C   UNL A   1      40.303  22.327  27.375  1.00  0.00     0.021 C 
BRANCH   2   3
ATOM      3  C   UNL A   1      39.250  23.038  26.526  1.00  0.00     0.116 C 
BRANCH   3   4
ATOM      4  N   UNL A   1      38.754  22.124  25.527  1.00  0.00    -0.352 N 
ATOM      5  C   UNL A   1      37.491  21.796  25.127  1.00  0.00     0.251 C 
ATOM      6  O   UNL A   1      37.394  20.891  24.295  1.00  0.00    -0.269 OA
ATOM      7  H   UNL A   1      39.463  21.647  25.039  1.00  0.00     0.163 HD
BRANCH   5   8
ATOM      8  C   UNL A   1      36.260  22.490  25.598  1.00  0.00     0.039 A 
ATOM      9  C   UNL A   1      33.945  24.011  26.266  1.00  0.00    -0.025 A 
ATOM     10  C   UNL A   1      34.953  24.526  25.439  1.00  0.00     0.006 A 
ATOM     11  C   UNL A   1      34.151  22.729  26.796  1.00  0.00     0.006 A 
ATOM     12  C   UNL A   1      36.086  23.786  25.112  1.00  0.00     0.014 A 
ATOM     13  C   UNL A   1      35.268  21.964  26.428  1.00  0.00     0.014 A 
BRANCH   9  14
ATOM     14  C   UNL A   1      32.604  24.714  26.503  1.00  0.00     0.114 C 
ATOM     15  C   UNL A   1      32.636  27.001  22.924  1.00  0.00     0.065 A 
ATOM     16  C   UNL A   1      33.374  28.190  22.910  1.00  0.00     0.016 A 
ATOM     17  C   UNL A   1      32.383  26.320  24.136  1.00  0.00    -0.003 A 
ATOM     18  C   UNL A   1      33.860  28.719  24.098  1.00  0.00     0.006 A 
ATOM     19  C   UNL A   1      32.869  26.878  25.350  1.00  0.00     0.042 A 
ATOM     20  C   UNL A   1      31.627  25.004  24.152  1.00  0.00     0.050 C 
ATOM     21  C   UNL A   1      33.626  28.075  25.322  1.00  0.00    -0.028 A 
ATOM     22  N   UNL A   1      32.752  26.159  26.534  1.00  0.00    -0.377 N 
ATOM     23  C   UNL A   1      32.254  23.850  23.404  1.00  0.00    -0.023 C 
ATOM     24  C   UNL A   1      31.436  24.372  25.548  1.00  0.00     0.031 C 
ATOM     25  C   UNL A   1      34.269  28.688  26.539  1.00  0.00     0.046 C 
ATOM     26  H   UNL A   1      32.769  26.632  27.398  1.00  0.00     0.161 HD
ATOM     27  C   UNL A   1      32.030  22.679  24.015  1.00  0.00    -0.030 C 
ATOM     28  C   UNL A   1      31.253  22.870  25.276  1.00  0.00     0.034 C 
BRANCH  15  29
ATOM     29  C   UNL A   1      32.137  26.485  21.624  1.00  0.00     0.338 C 
ATOM     30  O   UNL A   1      30.976  26.483  21.278  1.00  0.00    -0.246 OA
BRANCH  29  31
ATOM     31  O   UNL A   1      33.194  25.973  20.936  1.00  0.00    -0.465 OA
ATOM     32  C   UNL A   1      32.819  25.219  19.783  1.00  0.00     0.282 C 
ENDBRANCH  29  31
ENDBRANCH  15  29
ENDBRANCH   9  14
ENDBRANCH   5   8
ENDBRANCH   3   4
ENDBRANCH   2   3
ENDBRANCH   1   2
BRANCH   1  33
ATOM     33  C   UNL A   1      41.804  20.254  27.063  1.00  0.00     0.002 C 
BRANCH  33  34
ATOM     34  C   UNL A   1      42.218  19.256  25.981  1.00  0.00     0.021 C 
BRANCH  34  35
ATOM     35  C   UNL A   1      43.686  18.866  26.075  1.00  0.00     0.116 C 
BRANCH  35  36
ATOM     36  N   UNL A   1      44.259  18.691  24.748  1.00  0.00    -0.352 N 
ATOM     37  C   UNL A   1      44.664  19.668  23.877  1.00  0.00     0.251 C 
ATOM     38  H   UNL A   1      44.367  17.762  24.442  1.00  0.00     0.163 HD
ATOM     39  O   UNL A   1      44.867  19.431  22.693  1.00  0.00    -0.269 OA
BRANCH  37  40
ATOM     40  C   UNL A   1      44.846  21.026  24.413  1.00  0.00     0.039 A 
ATOM     41  C   UNL A   1      44.316  22.117  23.724  1.00  0.00     0.014 A 
ATOM     42  C   UNL A   1      45.490  21.188  25.645  1.00  0.00     0.014 A 
ATOM     43  C   UNL A   1      44.413  23.384  24.292  1.00  0.00     0.010 A 
ATOM     44  C   UNL A   1      45.514  22.439  26.243  1.00  0.00     0.010 A 
ATOM     45  C   UNL A   1      45.003  23.549  25.557  1.00  0.00    -0.014 A 
BRANCH  45  46
ATOM     46  C   UNL A   1      45.178  24.898  26.136  1.00  0.00     0.031 A 
ATOM     47  C   UNL A   1      46.539  25.530  26.117  1.00  0.00     0.074 A 
ATOM     48  C   UNL A   1      44.132  25.539  26.687  1.00  0.00     0.049 A 
ATOM     49  N   UNL A   1      46.906  26.720  26.514  1.00  0.00    -0.248 NA
ATOM     50  C   UNL A   1      47.641  24.700  25.601  1.00  0.00     0.031 C 
ATOM     51  C   UNL A   1      42.773  25.008  26.795  1.00  0.00     0.029 A 
ATOM     52  N   UNL A   1      44.053  26.785  27.250  1.00  0.00    -0.354 N 
ATOM     53  C   UNL A   1      48.274  26.784  26.284  1.00  0.00     0.074 A 
ATOM     54  C   UNL A   1      48.686  25.486  25.800  1.00  0.00     0.031 C 
ATOM     55  C   UNL A   1      41.983  25.944  27.349  1.00  0.00     0.029 A 
ATOM     56  C   UNL A   1      42.786  27.125  27.652  1.00  0.00     0.049 A 
ATOM     57  H   UNL A   1      44.831  27.380  27.356  1.00  0.00     0.167 HD
ATOM     58  C   UNL A   1      49.109  27.841  26.425  1.00  0.00     0.037 A 
ATOM     59  C   UNL A   1      42.329  28.274  28.183  1.00  0.00     0.037 A 
ATOM     60  C   UNL A   1      48.698  29.125  26.922  1.00  0.00     0.049 A 
ATOM     61  C   UNL A   1      43.287  29.416  28.389  1.00  0.00     0.074 A 
ATOM     62  C   UNL A   1      49.450  30.274  27.084  1.00  0.00     0.029 A 
ATOM     63  N   UNL A   1      47.413  29.422  27.356  1.00  0.00    -0.354 N 
ATOM     64  N   UNL A   1      44.562  29.497  28.093  1.00  0.00    -0.248 NA
ATOM     65  C   UNL A   1      42.731  30.633  28.994  1.00  0.00     0.031 C 
ATOM     66  C   UNL A   1      48.632  31.252  27.664  1.00  0.00     0.029 A 
ATOM     67  C   UNL A   1      47.356  30.729  27.811  1.00  0.00     0.049 A 
ATOM     68  H   UNL A   1      46.653  28.796  27.340  1.00  0.00     0.167 HD
ATOM     69  C   UNL A   1      44.952  30.786  28.434  1.00  0.00     0.074 A 
ATOM     70  C   UNL A   1      43.773  31.451  28.953  1.00  0.00     0.031 C 
ATOM     71  C   UNL A   1      46.171  31.372  28.324  1.00  0.00     0.037 A 
BRANCH  58  72
ATOM     72  C   UNL A   1      50.545  27.615  26.044  1.00  0.00     0.057 A 
ATOM     73  C   UNL A   1      51.496  27.264  27.009  1.00  0.00     0.134 A 
ATOM     74  C   UNL A   1      50.975  27.687  24.710  1.00  0.00     0.134 A 
ATOM     75  F   UNL A   1      51.155  27.180  28.304  1.00  0.00    -0.206 F 
ATOM     76  C   UNL A   1      52.815  26.972  26.659  1.00  0.00     0.040 A 
ATOM     77  C   UNL A   1      52.282  27.363  24.344  1.00  0.00     0.040 A 
ATOM     78  F   UNL A   1      50.110  27.998  23.732  1.00  0.00    -0.206 F 
ATOM     79  C   UNL A   1      53.208  27.004  25.321  1.00  0.00     0.006 A 
ENDBRANCH  58  72
BRANCH  59  80
ATOM     80  C   UNL A   1      40.887  28.435  28.492  1.00  0.00     0.057 A 
ATOM     81  C   UNL A   1      39.972  28.881  27.531  1.00  0.00     0.134 A 
ATOM     82  C   UNL A   1      40.389  28.121  29.762  1.00  0.00     0.134 A 
ATOM     83  F   UNL A   1      40.387  29.205  26.298  1.00  0.00    -0.206 F 
ATOM     84  C   UNL A   1      38.612  29.004  27.822  1.00  0.00     0.040 A 
ATOM     85  C   UNL A   1      39.028  28.218  30.060  1.00  0.00     0.040 A 
ATOM     86  F   UNL A   1      41.215  27.674  30.719  1.00  0.00    -0.206 F 
ATOM     87  C   UNL A   1      38.136  28.664  29.088  1.00  0.00     0.006 A 
ENDBRANCH  59  80
BRANCH  71  88
ATOM     88  C   UNL A   1      46.270  32.814  28.731  1.00  0.00     0.057 A 
ATOM     89  C   UNL A   1      46.600  33.156  30.049  1.00  0.00     0.134 A 
ATOM     90  C   UNL A   1      46.043  33.862  27.830  1.00  0.00     0.134 A 
ATOM     91  F   UNL A   1      46.821  32.203  30.967  1.00  0.00    -0.206 F 
ATOM     92  C   UNL A   1      46.707  34.488  30.453  1.00  0.00     0.040 A 
ATOM     93  C   UNL A   1      46.179  35.197  28.215  1.00  0.00     0.040 A 
ATOM     94  F   UNL A   1      45.737  33.603  26.550  1.00  0.00    -0.206 F 
ATOM     95  C   UNL A   1      46.509  35.512  29.531  1.00  0.00     0.006 A 
ENDBRANCH  71  88
ENDBRANCH  45  46
ENDBRANCH  37  40
ENDBRANCH  35  36
ENDBRANCH  34  35
ENDBRANCH  33  34
ENDBRANCH   1  33
TORSDOF 16
ENDMDL
MODEL 2
REMARK VINA RESULT:     -12.2      6.148     11.510
REMARK SMILES COC(=O)c1ccc(C)c2c1[C@H]1C=CC[C@H]1[C@@H](c1ccc(C(=O)NCCCCCCNC(=O)c3ccc(-c4c5nc(c(-c6c(F)cccc6F)c6ccc([nH]6)c(-c6c(F)cccc6F)c6nc(c(-c7c(F)cccc7F)c7ccc4[nH]7)C=C6)C=C5)cc3)cc1)N2
REMARK SMILES IDX 27 1 26 2 25 3 24 4 22 5 23 6 21 8 18 9 19 10 89 11 20 12
REMARK SMILES IDX 88 13 17 14 5 15 6 16 11 17 7 18 10 19 12 20 8 21 90 22
REMARK SMILES IDX 13 23 16 24 9 25 14 27 15 28 3 29 4 30 2 31 1 32 28 33 29 34
REMARK SMILES IDX 30 35 31 36 32 37 33 39 34 40 35 41 87 42 36 43 86 44 37 45
REMARK SMILES IDX 38 46 39 47 80 48 40 49 85 50 79 51 81 52 41 53 84 54 78 55
REMARK SMILES IDX 77 56 42 58 68 59 51 60 67 61 52 62 55 63 66 64 82 65 53 66
REMARK SMILES IDX 54 67 65 69 83 70 56 71 43 72 44 73 49 74 45 75 46 76 48 77
REMARK SMILES IDX 50 78 47 79 69 80 70 81 75 82 71 83 72 84 74 85 76 86 73 87
REMARK SMILES IDX 57 88 58 89 63 90 59 91 60 92 62 93 64 94 61 95
REMARK H PARENT 24 7 90 26 31 38 81 57 55 68
REMARK Flexibility Score: inf
ROOT
ATOM      1  C   UNL A   1      34.793  33.114  28.816  1.00  0.00     0.002 C 
ENDROOT
BRANCH   1   2
ATOM      2  C   UNL A   1      35.570  32.127  27.932  1.00  0.00     0.021 C 
BRANCH   2   3
ATOM      3  C   UNL A   1      34.972  30.721  27.974  1.00  0.00     0.116 C 
BRANCH   3   4
ATOM      4  N   UNL A   1      33.543  30.810  27.804  1.00  0.00    -0.352 N 
ATOM      5  C   UNL A   1      32.682  30.222  26.924  1.00  0.00     0.251 C 
ATOM      6  O   UNL A   1      31.504  30.583  26.979  1.00  0.00    -0.269 OA
ATOM      7  H   UNL A   1      33.104  31.410  28.449  1.00  0.00     0.163 HD
BRANCH   5   8
ATOM      8  C   UNL A   1      33.075  29.159  25.958  1.00  0.00     0.039 A 
ATOM      9  C   UNL A   1      33.760  26.924  24.328  1.00  0.00    -0.025 A 
ATOM     10  C   UNL A   1      33.678  26.821  25.724  1.00  0.00     0.006 A 
ATOM     11  C   UNL A   1      33.541  28.192  23.770  1.00  0.00     0.006 A 
ATOM     12  C   UNL A   1      33.346  27.913  26.523  1.00  0.00     0.014 A 
ATOM     13  C   UNL A   1      33.157  29.279  24.569  1.00  0.00     0.014 A 
BRANCH   9  14
ATOM     14  C   UNL A   1      33.941  25.717  23.401  1.00  0.00     0.114 C 
ATOM     15  C   UNL A   1      32.474  22.809  26.127  1.00  0.00     0.065 A 
ATOM     16  C   UNL A   1      33.350  22.321  27.103  1.00  0.00     0.016 A 
ATOM     17  C   UNL A   1      32.952  23.587  25.048  1.00  0.00    -0.003 A 
ATOM     18  C   UNL A   1      34.709  22.593  27.014  1.00  0.00     0.006 A 
ATOM     19  C   UNL A   1      34.347  23.845  24.955  1.00  0.00     0.042 A 
ATOM     20  C   UNL A   1      32.000  24.161  24.014  1.00  0.00     0.050 C 
ATOM     21  C   UNL A   1      35.222  23.357  25.956  1.00  0.00    -0.028 A 
ATOM     22  N   UNL A   1      34.823  24.718  23.984  1.00  0.00    -0.377 N 
ATOM     23  C   UNL A   1      30.959  25.136  24.515  1.00  0.00    -0.023 C 
ATOM     24  C   UNL A   1      32.667  24.998  22.901  1.00  0.00     0.031 C 
ATOM     25  C   UNL A   1      36.697  23.663  26.001  1.00  0.00     0.046 C 
ATOM     26  H   UNL A   1      35.760  24.660  23.689  1.00  0.00     0.161 HD
ATOM     27  C   UNL A   1      30.706  26.099  23.619  1.00  0.00    -0.030 C 
ATOM     28  C   UNL A   1      31.557  25.938  22.402  1.00  0.00     0.034 C 
BRANCH  15  29
ATOM     29  C   UNL A   1      31.032  22.483  26.270  1.00  0.00     0.338 C 
ATOM     30  O   UNL A   1      30.420  21.716  25.560  1.00  0.00    -0.246 OA
BRANCH  29  31
ATOM     31  O   UNL A   1      30.526  23.232  27.287  1.00  0.00    -0.465 OA
ATOM     32  C   UNL A   1      29.198  22.870  27.663  1.00  0.00     0.282 C 
ENDBRANCH  29  31
ENDBRANCH  15  29
ENDBRANCH   9  14
ENDBRANCH   5   8
ENDBRANCH   3   4
ENDBRANCH   2   3
ENDBRANCH   1   2
BRANCH   1  33
ATOM     33  C   UNL A   1      35.074  34.591  28.505  1.00  0.00     0.002 C 
BRANCH  33  34
ATOM     34  C   UNL A   1      33.929  35.532  28.879  1.00  0.00     0.021 C 
BRANCH  34  35
ATOM     35  C   UNL A   1      32.859  34.848  29.718  1.00  0.00     0.116 C 
BRANCH  35  36
ATOM     36  N   UNL A   1      32.415  35.718  30.797  1.00  0.00    -0.352 N 
ATOM     37  C   UNL A   1      32.827  35.703  32.105  1.00  0.00     0.251 C 
ATOM     38  H   UNL A   1      31.742  36.395  30.560  1.00  0.00     0.163 HD
ATOM     39  O   UNL A   1      32.198  36.280  32.984  1.00  0.00    -0.269 OA
BRANCH  37  40
ATOM     40  C   UNL A   1      34.058  34.964  32.424  1.00  0.00     0.039 A 
ATOM     41  C   UNL A   1      33.976  33.643  32.861  1.00  0.00     0.014 A 
ATOM     42  C   UNL A   1      35.295  35.584  32.214  1.00  0.00     0.014 A 
ATOM     43  C   UNL A   1      35.152  32.926  33.067  1.00  0.00     0.010 A 
ATOM     44  C   UNL A   1      36.460  34.843  32.343  1.00  0.00     0.010 A 
ATOM     45  C   UNL A   1      36.397  33.520  32.799  1.00  0.00    -0.014 A 
BRANCH  45  46
ATOM     46  C   UNL A   1      37.654  32.795  33.084  1.00  0.00     0.031 A 
ATOM     47  C   UNL A   1      38.397  33.091  34.353  1.00  0.00     0.074 A 
ATOM     48  C   UNL A   1      38.129  31.893  32.206  1.00  0.00     0.049 A 
ATOM     49  N   UNL A   1      39.480  32.536  34.829  1.00  0.00    -0.248 NA
ATOM     50  C   UNL A   1      37.859  34.178  35.190  1.00  0.00     0.031 C 
ATOM     51  C   UNL A   1      37.512  31.550  30.924  1.00  0.00     0.029 A 
ATOM     52  N   UNL A   1      39.240  31.095  32.269  1.00  0.00    -0.354 N 
ATOM     53  C   UNL A   1      39.744  33.195  36.022  1.00  0.00     0.074 A 
ATOM     54  C   UNL A   1      38.764  34.250  36.151  1.00  0.00     0.031 C 
ATOM     55  C   UNL A   1      38.231  30.576  30.342  1.00  0.00     0.029 A 
ATOM     56  C   UNL A   1      39.366  30.245  31.199  1.00  0.00     0.049 A 
ATOM     57  H   UNL A   1      39.886  31.128  33.012  1.00  0.00     0.167 HD
ATOM     58  C   UNL A   1      40.694  32.925  36.949  1.00  0.00     0.037 A 
ATOM     59  C   UNL A   1      40.285  29.293  30.958  1.00  0.00     0.037 A 
ATOM     60  C   UNL A   1      41.676  31.886  36.807  1.00  0.00     0.049 A 
ATOM     61  C   UNL A   1      41.369  29.050  31.972  1.00  0.00     0.074 A 
ATOM     62  C   UNL A   1      42.669  31.504  37.692  1.00  0.00     0.029 A 
ATOM     63  N   UNL A   1      41.797  31.068  35.691  1.00  0.00    -0.354 N 
ATOM     64  N   UNL A   1      41.564  29.621  33.136  1.00  0.00    -0.248 NA
ATOM     65  C   UNL A   1      42.355  28.014  31.638  1.00  0.00     0.031 C 
ATOM     66  C   UNL A   1      43.424  30.491  37.087  1.00  0.00     0.029 A 
ATOM     67  C   UNL A   1      42.866  30.201  35.852  1.00  0.00     0.049 A 
ATOM     68  H   UNL A   1      41.209  31.100  34.903  1.00  0.00     0.167 HD
ATOM     69  C   UNL A   1      42.667  28.987  33.694  1.00  0.00     0.074 A 
ATOM     70  C   UNL A   1      43.091  27.981  32.740  1.00  0.00     0.031 C 
ATOM     71  C   UNL A   1      43.271  29.208  34.889  1.00  0.00     0.037 A 
BRANCH  58  72
ATOM     72  C   UNL A   1      40.698  33.792  38.175  1.00  0.00     0.057 A 
ATOM     73  C   UNL A   1      41.468  34.959  38.226  1.00  0.00     0.134 A 
ATOM     74  C   UNL A   1      39.892  33.501  39.287  1.00  0.00     0.134 A 
ATOM     75  F   UNL A   1      42.265  35.296  37.200  1.00  0.00    -0.206 F 
ATOM     76  C   UNL A   1      41.421  35.817  39.326  1.00  0.00     0.040 A 
ATOM     77  C   UNL A   1      39.810  34.370  40.378  1.00  0.00     0.040 A 
ATOM     78  F   UNL A   1      39.113  32.409  39.297  1.00  0.00    -0.206 F 
ATOM     79  C   UNL A   1      40.577  35.532  40.399  1.00  0.00     0.006 A 
ENDBRANCH  58  72
BRANCH  59  80
ATOM     80  C   UNL A   1      40.187  28.447  29.743  1.00  0.00     0.057 A 
ATOM     81  C   UNL A   1      40.826  28.796  28.548  1.00  0.00     0.134 A 
ATOM     82  C   UNL A   1      39.462  27.250  29.763  1.00  0.00     0.134 A 
ATOM     83  F   UNL A   1      41.529  29.935  28.461  1.00  0.00    -0.206 F 
ATOM     84  C   UNL A   1      40.750  27.981  27.417  1.00  0.00     0.040 A 
ATOM     85  C   UNL A   1      39.397  26.414  28.646  1.00  0.00     0.040 A 
ATOM     86  F   UNL A   1      38.842  26.855  30.885  1.00  0.00    -0.206 F 
ATOM     87  C   UNL A   1      40.041  26.782  27.467  1.00  0.00     0.006 A 
ENDBRANCH  59  80
BRANCH  71  88
ATOM     88  C   UNL A   1      44.425  28.313  35.241  1.00  0.00     0.057 A 
ATOM     89  C   UNL A   1      45.733  28.675  34.895  1.00  0.00     0.134 A 
ATOM     90  C   UNL A   1      44.249  27.100  35.919  1.00  0.00     0.134 A 
ATOM     91  F   UNL A   1      45.974  29.818  34.235  1.00  0.00    -0.206 F 
ATOM     92  C   UNL A   1      46.825  27.866  35.217  1.00  0.00     0.040 A 
ATOM     93  C   UNL A   1      45.336  26.299  36.275  1.00  0.00     0.040 A 
ATOM     94  F   UNL A   1      43.024  26.701  36.292  1.00  0.00    -0.206 F 
ATOM     95  C   UNL A   1      46.628  26.681  35.920  1.00  0.00     0.006 A 
ENDBRANCH  71  88
ENDBRANCH  45  46
ENDBRANCH  37  40
ENDBRANCH  35  36
ENDBRANCH  34  35
ENDBRANCH  33  34
ENDBRANCH   1  33
TORSDOF 16
ENDMDL
MODEL 3
REMARK VINA RESULT:     -12.2      6.333     11.384
REMARK SMILES COC(=O)c1ccc(C)c2c1[C@H]1C=CC[C@H]1[C@@H](c1ccc(C(=O)NCCCCCCNC(=O)c3ccc(-c4c5nc(c(-c6c(F)cccc6F)c6ccc([nH]6)c(-c6c(F)cccc6F)c6nc(c(-c7c(F)cccc7F)c7ccc4[nH]7)C=C6)C=C5)cc3)cc1)N2
REMARK SMILES IDX 27 1 26 2 25 3 24 4 22 5 23 6 21 8 18 9 19 10 89 11 20 12
REMARK SMILES IDX 88 13 17 14 5 15 6 16 11 17 7 18 10 19 12 20 8 21 90 22
REMARK SMILES IDX 13 23 16 24 9 25 14 27 15 28 3 29 4 30 2 31 1 32 28 33 29 34
REMARK SMILES IDX 30 35 31 36 32 37 33 39 34 40 35 41 87 42 36 43 86 44 37 45
REMARK SMILES IDX 38 46 39 47 80 48 40 49 85 50 79 51 81 52 41 53 84 54 78 55
REMARK SMILES IDX 77 56 42 58 68 59 51 60 67 61 52 62 55 63 66 64 82 65 53 66
REMARK SMILES IDX 54 67 65 69 83 70 56 71 43 72 44 73 49 74 45 75 46 76 48 77
REMARK SMILES IDX 50 78 47 79 69 80 70 81 75 82 71 83 72 84 74 85 76 86 73 87
REMARK SMILES IDX 57 88 58 89 63 90 59 91 60 92 62 93 64 94 61 95
REMARK H PARENT 24 7 90 26 31 38 81 57 55 68
REMARK Flexibility Score: inf
ROOT
ATOM      1  C   UNL A   1      34.855  33.076  28.762  1.00  0.00     0.002 C 
ENDROOT
BRANCH   1   2
ATOM      2  C   UNL A   1      35.691  32.040  27.996  1.00  0.00     0.021 C 
BRANCH   2   3
ATOM      3  C   UNL A   1      35.040  30.657  28.000  1.00  0.00     0.116 C 
BRANCH   3   4
ATOM      4  N   UNL A   1      33.622  30.802  27.788  1.00  0.00    -0.352 N 
ATOM      5  C   UNL A   1      32.766  30.251  26.878  1.00  0.00     0.251 C 
ATOM      6  O   UNL A   1      31.602  30.656  26.900  1.00  0.00    -0.269 OA
ATOM      7  H   UNL A   1      33.187  31.415  28.422  1.00  0.00     0.163 HD
BRANCH   5   8
ATOM      8  C   UNL A   1      33.148  29.178  25.918  1.00  0.00     0.039 A 
ATOM      9  C   UNL A   1      33.800  26.926  24.298  1.00  0.00    -0.025 A 
ATOM     10  C   UNL A   1      33.687  26.824  25.692  1.00  0.00     0.006 A 
ATOM     11  C   UNL A   1      33.631  28.201  23.738  1.00  0.00     0.006 A 
ATOM     12  C   UNL A   1      33.370  27.924  26.486  1.00  0.00     0.014 A 
ATOM     13  C   UNL A   1      33.263  29.298  24.531  1.00  0.00     0.014 A 
BRANCH   9  14
ATOM     14  C   UNL A   1      33.966  25.715  23.373  1.00  0.00     0.114 C 
ATOM     15  C   UNL A   1      32.488  22.827  26.113  1.00  0.00     0.065 A 
ATOM     16  C   UNL A   1      33.365  22.333  27.085  1.00  0.00     0.016 A 
ATOM     17  C   UNL A   1      32.967  23.598  25.030  1.00  0.00    -0.003 A 
ATOM     18  C   UNL A   1      34.726  22.592  26.988  1.00  0.00     0.006 A 
ATOM     19  C   UNL A   1      34.363  23.844  24.928  1.00  0.00     0.042 A 
ATOM     20  C   UNL A   1      32.014  24.179  24.000  1.00  0.00     0.050 C 
ATOM     21  C   UNL A   1      35.240  23.350  25.925  1.00  0.00    -0.028 A 
ATOM     22  N   UNL A   1      34.841  24.711  23.952  1.00  0.00    -0.377 N 
ATOM     23  C   UNL A   1      30.985  25.164  24.505  1.00  0.00    -0.023 C 
ATOM     24  C   UNL A   1      32.682  25.008  22.881  1.00  0.00     0.031 C 
ATOM     25  C   UNL A   1      36.718  23.642  25.961  1.00  0.00     0.046 C 
ATOM     26  H   UNL A   1      35.777  24.643  23.652  1.00  0.00     0.161 HD
ATOM     27  C   UNL A   1      30.736  26.128  23.608  1.00  0.00    -0.030 C 
ATOM     28  C   UNL A   1      31.578  25.957  22.387  1.00  0.00     0.034 C 
BRANCH  15  29
ATOM     29  C   UNL A   1      31.044  22.514  26.266  1.00  0.00     0.338 C 
ATOM     30  O   UNL A   1      30.416  21.766  25.549  1.00  0.00    -0.246 OA
BRANCH  29  31
ATOM     31  O   UNL A   1      30.556  23.252  27.299  1.00  0.00    -0.465 OA
ATOM     32  C   UNL A   1      29.225  22.903  27.678  1.00  0.00     0.282 C 
ENDBRANCH  29  31
ENDBRANCH  15  29
ENDBRANCH   9  14
ENDBRANCH   5   8
ENDBRANCH   3   4
ENDBRANCH   2   3
ENDBRANCH   1   2
BRANCH   1  33
ATOM     33  C   UNL A   1      35.164  34.533  28.387  1.00  0.00     0.002 C 
BRANCH  33  34
ATOM     34  C   UNL A   1      34.040  35.513  28.729  1.00  0.00     0.021 C 
BRANCH  34  35
ATOM     35  C   UNL A   1      32.954  34.881  29.587  1.00  0.00     0.116 C 
BRANCH  35  36
ATOM     36  N   UNL A   1      32.448  35.834  30.563  1.00  0.00    -0.352 N 
ATOM     37  C   UNL A   1      32.738  35.893  31.902  1.00  0.00     0.251 C 
ATOM     38  H   UNL A   1      31.825  36.516  30.222  1.00  0.00     0.163 HD
ATOM     39  O   UNL A   1      32.055  36.546  32.680  1.00  0.00    -0.269 OA
BRANCH  37  40
ATOM     40  C   UNL A   1      33.906  35.136  32.380  1.00  0.00     0.039 A 
ATOM     41  C   UNL A   1      33.731  33.859  32.909  1.00  0.00     0.014 A 
ATOM     42  C   UNL A   1      35.182  35.691  32.227  1.00  0.00     0.014 A 
ATOM     43  C   UNL A   1      34.854  33.117  33.268  1.00  0.00     0.010 A 
ATOM     44  C   UNL A   1      36.299  34.921  32.511  1.00  0.00     0.010 A 
ATOM     45  C   UNL A   1      36.141  33.641  33.062  1.00  0.00    -0.014 A 
BRANCH  45  46
ATOM     46  C   UNL A   1      37.338  32.896  33.507  1.00  0.00     0.031 A 
ATOM     47  C   UNL A   1      37.911  31.834  32.614  1.00  0.00     0.074 A 
ATOM     48  C   UNL A   1      37.893  33.158  34.703  1.00  0.00     0.049 A 
ATOM     49  N   UNL A   1      38.982  31.103  32.777  1.00  0.00    -0.248 NA
ATOM     50  C   UNL A   1      37.162  31.540  31.380  1.00  0.00     0.031 C 
ATOM     51  C   UNL A   1      37.402  34.141  35.669  1.00  0.00     0.029 A 
ATOM     52  N   UNL A   1      39.002  32.622  35.302  1.00  0.00    -0.354 N 
ATOM     53  C   UNL A   1      39.041  30.275  31.664  1.00  0.00     0.074 A 
ATOM     54  C   UNL A   1      37.852  30.528  30.881  1.00  0.00     0.031 C 
ATOM     55  C   UNL A   1      38.234  34.169  36.724  1.00  0.00     0.029 A 
ATOM     56  C   UNL A   1      39.300  33.193  36.513  1.00  0.00     0.049 A 
ATOM     57  H   UNL A   1      39.533  31.896  34.902  1.00  0.00     0.167 HD
ATOM     58  C   UNL A   1      40.015  29.407  31.303  1.00  0.00     0.037 A 
ATOM     59  C   UNL A   1      40.334  32.964  37.343  1.00  0.00     0.037 A 
ATOM     60  C   UNL A   1      41.187  29.146  32.093  1.00  0.00     0.049 A 
ATOM     61  C   UNL A   1      41.375  31.950  36.952  1.00  0.00     0.074 A 
ATOM     62  C   UNL A   1      42.252  28.308  31.816  1.00  0.00     0.029 A 
ATOM     63  N   UNL A   1      41.438  29.716  33.334  1.00  0.00    -0.354 N 
ATOM     64  N   UNL A   1      41.467  31.231  35.860  1.00  0.00    -0.248 NA
ATOM     65  C   UNL A   1      42.464  31.730  37.912  1.00  0.00     0.031 C 
ATOM     66  C   UNL A   1      43.121  28.331  32.914  1.00  0.00     0.029 A 
ATOM     67  C   UNL A   1      42.627  29.227  33.849  1.00  0.00     0.049 A 
ATOM     68  H   UNL A   1      40.856  30.372  33.782  1.00  0.00     0.167 HD
ATOM     69  C   UNL A   1      42.646  30.504  35.979  1.00  0.00     0.074 A 
ATOM     70  C   UNL A   1      43.235  30.879  37.250  1.00  0.00     0.031 C 
ATOM     71  C   UNL A   1      43.196  29.613  35.117  1.00  0.00     0.037 A 
BRANCH  58  72
ATOM     72  C   UNL A   1      39.818  28.682  30.002  1.00  0.00     0.057 A 
ATOM     73  C   UNL A   1      40.373  29.173  28.816  1.00  0.00     0.134 A 
ATOM     74  C   UNL A   1      39.127  27.462  29.935  1.00  0.00     0.134 A 
ATOM     75  F   UNL A   1      41.044  30.335  28.806  1.00  0.00    -0.206 F 
ATOM     76  C   UNL A   1      40.268  28.470  27.615  1.00  0.00     0.040 A 
ATOM     77  C   UNL A   1      39.045  26.733  28.747  1.00  0.00     0.040 A 
ATOM     78  F   UNL A   1      38.588  26.923  31.038  1.00  0.00    -0.206 F 
ATOM     79  C   UNL A   1      39.617  27.237  27.581  1.00  0.00     0.006 A 
ENDBRANCH  58  72
BRANCH  59  80
ATOM     80  C   UNL A   1      40.483  33.754  38.591  1.00  0.00     0.057 A 
ATOM     81  C   UNL A   1      39.815  33.403  39.769  1.00  0.00     0.134 A 
ATOM     82  C   UNL A   1      41.323  34.873  38.632  1.00  0.00     0.134 A 
ATOM     83  F   UNL A   1      38.990  32.346  39.793  1.00  0.00    -0.206 F 
ATOM     84  C   UNL A   1      39.982  34.136  40.947  1.00  0.00     0.040 A 
ATOM     85  C   UNL A   1      41.516  35.601  39.808  1.00  0.00     0.040 A 
ATOM     86  F   UNL A   1      42.002  35.248  37.538  1.00  0.00    -0.206 F 
ATOM     87  C   UNL A   1      40.841  35.233  40.969  1.00  0.00     0.006 A 
ENDBRANCH  59  80
BRANCH  71  88
ATOM     88  C   UNL A   1      44.522  29.024  35.505  1.00  0.00     0.057 A 
ATOM     89  C   UNL A   1      45.714  29.655  35.130  1.00  0.00     0.134 A 
ATOM     90  C   UNL A   1      44.623  27.839  36.246  1.00  0.00     0.134 A 
ATOM     91  F   UNL A   1      45.691  30.787  34.411  1.00  0.00    -0.206 F 
ATOM     92  C   UNL A   1      46.960  29.134  35.484  1.00  0.00     0.040 A 
ATOM     93  C   UNL A   1      45.863  27.326  36.634  1.00  0.00     0.040 A 
ATOM     94  F   UNL A   1      43.520  27.192  36.649  1.00  0.00    -0.206 F 
ATOM     95  C   UNL A   1      47.036  27.973  36.249  1.00  0.00     0.006 A 
ENDBRANCH  71  88
ENDBRANCH  45  46
ENDBRANCH  37  40
ENDBRANCH  35  36
ENDBRANCH  34  35
ENDBRANCH  33  34
ENDBRANCH   1  33
TORSDOF 16
ENDMDL
