MODEL 1
REMARK VINA RESULT:      -9.8      0.000      0.000
REMARK SMILES COc1cc(OC)c(CCC(=O)NCCCCCCNC(=O)c2ccc(-c3c4nc(c(-c5c(F)cccc5F)c5ccc([nH]5)c(-c5c(F)cccc5F)c5nc(c(-c6c(F)cccc6F)c6ccc3[nH]6)C=C5)C=C4)cc2)c(OC)c1
REMARK SMILES IDX 16 1 15 2 14 3 13 4 11 5 12 6 10 8 9 9 8 10 3 11 4 12 80 13
REMARK SMILES IDX 5 14 77 15 2 16 1 17 6 18 7 19 78 20 79 21 17 22 18 23 19 24
REMARK SMILES IDX 20 25 21 26 22 28 23 29 24 30 76 31 25 32 75 33 26 34 27 35
REMARK SMILES IDX 28 36 69 37 29 38 74 39 68 40 70 41 30 42 73 43 67 44 66 45
REMARK SMILES IDX 31 47 57 48 40 49 56 50 41 51 44 52 55 53 71 54 42 55 43 56
REMARK SMILES IDX 54 58 72 59 45 60 32 61 33 62 38 63 34 64 35 65 37 66 39 67
REMARK SMILES IDX 36 68 58 69 59 70 64 71 60 72 61 73 63 74 65 75 62 76 46 77
REMARK SMILES IDX 47 78 52 79 48 80 49 81 51 82 53 83 50 84
REMARK H PARENT 13 7 20 27 70 46 44 57
REMARK Flexibility Score: inf
ROOT
ATOM      1  C   UNL A   1      35.249  20.166  24.738  1.00  0.00     0.002 C 
ENDROOT
BRANCH   1   2
ATOM      2  C   UNL A   1      33.858  19.741  25.213  1.00  0.00     0.021 C 
BRANCH   2   3
ATOM      3  C   UNL A   1      32.731  19.869  24.187  1.00  0.00     0.116 C 
BRANCH   3   4
ATOM      4  N   UNL A   1      31.915  21.043  24.449  1.00  0.00    -0.356 N 
ATOM      5  C   UNL A   1      31.932  22.279  23.871  1.00  0.00     0.220 C 
ATOM      6  O   UNL A   1      31.242  23.164  24.383  1.00  0.00    -0.275 OA
ATOM      7  H   UNL A   1      31.242  20.928  25.158  1.00  0.00     0.163 HD
BRANCH   5   8
ATOM      8  C   UNL A   1      32.757  22.565  22.631  1.00  0.00     0.105 C 
BRANCH   8   9
ATOM      9  C   UNL A   1      34.139  23.170  22.930  1.00  0.00     0.053 C 
BRANCH   9  10
ATOM     10  C   UNL A   1      34.076  24.536  23.580  1.00  0.00     0.037 A 
ATOM     11  C   UNL A   1      33.710  26.996  24.922  1.00  0.00     0.126 A 
ATOM     12  C   UNL A   1      33.502  26.905  23.545  1.00  0.00     0.093 A 
ATOM     13  C   UNL A   1      34.171  25.882  25.620  1.00  0.00     0.093 A 
ATOM     14  C   UNL A   1      33.688  25.687  22.876  1.00  0.00     0.129 A 
ATOM     15  C   UNL A   1      34.404  24.682  24.941  1.00  0.00     0.129 A 
BRANCH  11  16
ATOM     16  O   UNL A   1      33.327  28.163  25.522  1.00  0.00    -0.496 OA
ATOM     17  C   UNL A   1      33.237  28.140  26.943  1.00  0.00     0.278 C 
ENDBRANCH  11  16
BRANCH  14  18
ATOM     18  O   UNL A   1      33.629  25.705  21.508  1.00  0.00    -0.496 OA
ATOM     19  C   UNL A   1      32.311  25.848  20.987  1.00  0.00     0.278 C 
ENDBRANCH  14  18
BRANCH  15  20
ATOM     20  O   UNL A   1      34.908  23.588  25.603  1.00  0.00    -0.496 OA
ATOM     21  C   UNL A   1      34.109  23.201  26.723  1.00  0.00     0.278 C 
ENDBRANCH  15  20
ENDBRANCH   9  10
ENDBRANCH   8   9
ENDBRANCH   5   8
ENDBRANCH   3   4
ENDBRANCH   2   3
ENDBRANCH   1   2
BRANCH   1  22
ATOM     22  C   UNL A   1      36.371  19.157  25.003  1.00  0.00     0.002 C 
BRANCH  22  23
ATOM     23  C   UNL A   1      37.789  19.606  24.626  1.00  0.00     0.021 C 
BRANCH  23  24
ATOM     24  C   UNL A   1      38.701  19.975  25.797  1.00  0.00     0.116 C 
BRANCH  24  25
ATOM     25  N   UNL A   1      39.923  19.187  25.819  1.00  0.00    -0.352 N 
ATOM     26  C   UNL A   1      41.219  19.557  26.066  1.00  0.00     0.251 C 
ATOM     27  H   UNL A   1      39.798  18.230  25.624  1.00  0.00     0.163 HD
ATOM     28  O   UNL A   1      42.131  18.752  25.852  1.00  0.00    -0.269 OA
BRANCH  26  29
ATOM     29  C   UNL A   1      41.559  20.909  26.562  1.00  0.00     0.039 A 
ATOM     30  C   UNL A   1      41.388  21.185  27.923  1.00  0.00     0.014 A 
ATOM     31  C   UNL A   1      41.979  21.927  25.701  1.00  0.00     0.014 A 
ATOM     32  C   UNL A   1      41.696  22.452  28.428  1.00  0.00     0.010 A 
ATOM     33  C   UNL A   1      42.347  23.173  26.215  1.00  0.00     0.010 A 
ATOM     34  C   UNL A   1      42.210  23.449  27.584  1.00  0.00    -0.014 A 
BRANCH  34  35
ATOM     35  C   UNL A   1      42.610  24.776  28.125  1.00  0.00     0.031 A 
ATOM     36  C   UNL A   1      41.590  25.855  28.352  1.00  0.00     0.074 A 
ATOM     37  C   UNL A   1      43.910  25.025  28.380  1.00  0.00     0.049 A 
ATOM     38  N   UNL A   1      41.762  27.077  28.795  1.00  0.00    -0.248 NA
ATOM     39  C   UNL A   1      40.196  25.529  28.017  1.00  0.00     0.031 C 
ATOM     40  C   UNL A   1      45.008  24.080  28.179  1.00  0.00     0.029 A 
ATOM     41  N   UNL A   1      44.526  26.152  28.868  1.00  0.00    -0.354 N 
ATOM     42  C   UNL A   1      40.503  27.665  28.785  1.00  0.00     0.074 A 
ATOM     43  C   UNL A   1      39.587  26.683  28.243  1.00  0.00     0.031 C 
ATOM     44  C   UNL A   1      46.157  24.652  28.573  1.00  0.00     0.029 A 
ATOM     45  C   UNL A   1      45.882  26.013  29.023  1.00  0.00     0.049 A 
ATOM     46  H   UNL A   1      44.040  26.980  29.084  1.00  0.00     0.167 HD
ATOM     47  C   UNL A   1      40.137  28.900  29.207  1.00  0.00     0.037 A 
ATOM     48  C   UNL A   1      46.804  26.881  29.481  1.00  0.00     0.037 A 
ATOM     49  C   UNL A   1      41.041  29.873  29.766  1.00  0.00     0.049 A 
ATOM     50  C   UNL A   1      46.380  28.254  29.919  1.00  0.00     0.074 A 
ATOM     51  C   UNL A   1      40.752  31.129  30.272  1.00  0.00     0.029 A 
ATOM     52  N   UNL A   1      42.411  29.702  29.887  1.00  0.00    -0.354 N 
ATOM     53  N   UNL A   1      45.179  28.777  29.954  1.00  0.00    -0.248 NA
ATOM     54  C   UNL A   1      47.443  29.158  30.380  1.00  0.00     0.031 C 
ATOM     55  C   UNL A   1      41.953  31.732  30.664  1.00  0.00     0.029 A 
ATOM     56  C   UNL A   1      42.985  30.837  30.438  1.00  0.00     0.049 A 
ATOM     57  H   UNL A   1      42.904  28.892  29.621  1.00  0.00     0.167 HD
ATOM     58  C   UNL A   1      45.336  30.056  30.468  1.00  0.00     0.074 A 
ATOM     59  C   UNL A   1      46.749  30.231  30.736  1.00  0.00     0.031 C 
ATOM     60  C   UNL A   1      44.391  31.001  30.701  1.00  0.00     0.037 A 
BRANCH  47  61
ATOM     61  C   UNL A   1      38.687  29.265  29.078  1.00  0.00     0.057 A 
ATOM     62  C   UNL A   1      38.134  29.667  27.854  1.00  0.00     0.134 A 
ATOM     63  C   UNL A   1      37.832  29.208  30.185  1.00  0.00     0.134 A 
ATOM     64  F   UNL A   1      38.902  29.752  26.757  1.00  0.00    -0.206 F 
ATOM     65  C   UNL A   1      36.791  30.032  27.744  1.00  0.00     0.040 A 
ATOM     66  C   UNL A   1      36.481  29.547  30.082  1.00  0.00     0.040 A 
ATOM     67  F   UNL A   1      38.294  28.826  31.385  1.00  0.00    -0.206 F 
ATOM     68  C   UNL A   1      35.960  29.969  28.860  1.00  0.00     0.006 A 
ENDBRANCH  47  61
BRANCH  48  69
ATOM     69  C   UNL A   1      48.222  26.460  29.592  1.00  0.00     0.057 A 
ATOM     70  C   UNL A   1      48.694  25.844  30.757  1.00  0.00     0.134 A 
ATOM     71  C   UNL A   1      49.132  26.654  28.547  1.00  0.00     0.134 A 
ATOM     72  F   UNL A   1      47.872  25.650  31.798  1.00  0.00    -0.206 F 
ATOM     73  C   UNL A   1      50.024  25.442  30.883  1.00  0.00     0.040 A 
ATOM     74  C   UNL A   1      50.461  26.240  28.652  1.00  0.00     0.040 A 
ATOM     75  F   UNL A   1      48.737  27.237  27.405  1.00  0.00    -0.206 F 
ATOM     76  C   UNL A   1      50.910  25.635  29.825  1.00  0.00     0.006 A 
ENDBRANCH  48  69
BRANCH  60  77
ATOM     77  C   UNL A   1      44.853  32.297  31.301  1.00  0.00     0.057 A 
ATOM     78  C   UNL A   1      45.220  33.389  30.507  1.00  0.00     0.134 A 
ATOM     79  C   UNL A   1      44.908  32.459  32.691  1.00  0.00     0.134 A 
ATOM     80  F   UNL A   1      45.205  33.293  29.168  1.00  0.00    -0.206 F 
ATOM     81  C   UNL A   1      45.645  34.593  31.074  1.00  0.00     0.040 A 
ATOM     82  C   UNL A   1      45.309  33.664  33.270  1.00  0.00     0.040 A 
ATOM     83  F   UNL A   1      44.565  31.453  33.509  1.00  0.00    -0.206 F 
ATOM     84  C   UNL A   1      45.685  34.734  32.460  1.00  0.00     0.006 A 
ENDBRANCH  60  77
ENDBRANCH  34  35
ENDBRANCH  26  29
ENDBRANCH  24  25
ENDBRANCH  23  24
ENDBRANCH  22  23
ENDBRANCH   1  22
TORSDOF 18
ENDMDL
MODEL 2
REMARK VINA RESULT:      -9.4      1.447      6.687
REMARK SMILES COc1cc(OC)c(CCC(=O)NCCCCCCNC(=O)c2ccc(-c3c4nc(c(-c5c(F)cccc5F)c5ccc([nH]5)c(-c5c(F)cccc5F)c5nc(c(-c6c(F)cccc6F)c6ccc3[nH]6)C=C5)C=C4)cc2)c(OC)c1
REMARK SMILES IDX 16 1 15 2 14 3 13 4 11 5 12 6 10 8 9 9 8 10 3 11 4 12 80 13
REMARK SMILES IDX 5 14 77 15 2 16 1 17 6 18 7 19 78 20 79 21 17 22 18 23 19 24
REMARK SMILES IDX 20 25 21 26 22 28 23 29 24 30 76 31 25 32 75 33 26 34 27 35
REMARK SMILES IDX 28 36 69 37 29 38 74 39 68 40 70 41 30 42 73 43 67 44 66 45
REMARK SMILES IDX 31 47 57 48 40 49 56 50 41 51 44 52 55 53 71 54 42 55 43 56
REMARK SMILES IDX 54 58 72 59 45 60 32 61 33 62 38 63 34 64 35 65 37 66 39 67
REMARK SMILES IDX 36 68 58 69 59 70 64 71 60 72 61 73 63 74 65 75 62 76 46 77
REMARK SMILES IDX 47 78 52 79 48 80 49 81 51 82 53 83 50 84
REMARK H PARENT 13 7 20 27 70 46 44 57
REMARK Flexibility Score: inf
ROOT
ATOM      1  C   UNL A   1      36.615  21.898  24.871  1.00  0.00     0.002 C 
ENDROOT
BRANCH   1   2
ATOM      2  C   UNL A   1      35.589  22.751  24.124  1.00  0.00     0.021 C 
BRANCH   2   3
ATOM      3  C   UNL A   1      34.143  22.255  24.168  1.00  0.00     0.116 C 
BRANCH   3   4
ATOM      4  N   UNL A   1      33.600  22.344  25.514  1.00  0.00    -0.356 N 
ATOM      5  C   UNL A   1      33.337  23.435  26.291  1.00  0.00     0.220 C 
ATOM      6  O   UNL A   1      33.025  23.242  27.468  1.00  0.00    -0.275 OA
ATOM      7  H   UNL A   1      33.388  21.479  25.932  1.00  0.00     0.163 HD
BRANCH   5   8
ATOM      8  C   UNL A   1      33.408  24.843  25.733  1.00  0.00     0.105 C 
BRANCH   8   9
ATOM      9  C   UNL A   1      32.332  25.789  26.292  1.00  0.00     0.053 C 
BRANCH   9  10
ATOM     10  C   UNL A   1      31.508  26.473  25.222  1.00  0.00     0.037 A 
ATOM     11  C   UNL A   1      29.838  27.894  23.440  1.00  0.00     0.126 A 
ATOM     12  C   UNL A   1      29.625  26.535  23.676  1.00  0.00     0.093 A 
ATOM     13  C   UNL A   1      30.925  28.530  24.034  1.00  0.00     0.093 A 
ATOM     14  C   UNL A   1      30.456  25.826  24.554  1.00  0.00     0.129 A 
ATOM     15  C   UNL A   1      31.782  27.808  24.871  1.00  0.00     0.129 A 
BRANCH  11  16
ATOM     16  O   UNL A   1      28.875  28.547  22.722  1.00  0.00    -0.496 OA
ATOM     17  C   UNL A   1      28.539  29.858  23.167  1.00  0.00     0.278 C 
ENDBRANCH  11  16
BRANCH  14  18
ATOM     18  O   UNL A   1      30.298  24.467  24.612  1.00  0.00    -0.496 OA
ATOM     19  C   UNL A   1      30.702  23.786  23.427  1.00  0.00     0.278 C 
ENDBRANCH  14  18
BRANCH  15  20
ATOM     20  O   UNL A   1      32.890  28.406  25.424  1.00  0.00    -0.496 OA
ATOM     21  C   UNL A   1      33.970  28.538  24.497  1.00  0.00     0.278 C 
ENDBRANCH  15  20
ENDBRANCH   9  10
ENDBRANCH   8   9
ENDBRANCH   5   8
ENDBRANCH   3   4
ENDBRANCH   2   3
ENDBRANCH   1   2
BRANCH   1  22
ATOM     22  C   UNL A   1      36.421  20.382  24.753  1.00  0.00     0.002 C 
BRANCH  22  23
ATOM     23  C   UNL A   1      37.692  19.527  24.848  1.00  0.00     0.021 C 
BRANCH  23  24
ATOM     24  C   UNL A   1      38.773  20.049  25.794  1.00  0.00     0.116 C 
BRANCH  24  25
ATOM     25  N   UNL A   1      39.979  19.236  25.762  1.00  0.00    -0.352 N 
ATOM     26  C   UNL A   1      41.284  19.564  26.021  1.00  0.00     0.251 C 
ATOM     27  H   UNL A   1      39.833  18.295  25.513  1.00  0.00     0.163 HD
ATOM     28  O   UNL A   1      42.178  18.755  25.755  1.00  0.00    -0.269 OA
BRANCH  26  29
ATOM     29  C   UNL A   1      41.653  20.878  26.593  1.00  0.00     0.039 A 
ATOM     30  C   UNL A   1      42.048  21.900  25.722  1.00  0.00     0.014 A 
ATOM     31  C   UNL A   1      41.680  21.102  27.973  1.00  0.00     0.014 A 
ATOM     32  C   UNL A   1      42.406  23.154  26.225  1.00  0.00     0.010 A 
ATOM     33  C   UNL A   1      41.977  22.372  28.472  1.00  0.00     0.010 A 
ATOM     34  C   UNL A   1      42.343  23.413  27.604  1.00  0.00    -0.014 A 
BRANCH  34  35
ATOM     35  C   UNL A   1      42.650  24.765  28.142  1.00  0.00     0.031 A 
ATOM     36  C   UNL A   1      44.056  25.145  28.515  1.00  0.00     0.074 A 
ATOM     37  C   UNL A   1      41.650  25.648  28.333  1.00  0.00     0.049 A 
ATOM     38  N   UNL A   1      44.504  26.269  29.018  1.00  0.00    -0.248 NA
ATOM     39  C   UNL A   1      45.092  24.121  28.317  1.00  0.00     0.031 C 
ATOM     40  C   UNL A   1      40.238  25.403  28.043  1.00  0.00     0.029 A 
ATOM     41  N   UNL A   1      41.672  26.934  28.815  1.00  0.00    -0.354 N 
ATOM     42  C   UNL A   1      45.868  26.085  29.203  1.00  0.00     0.074 A 
ATOM     43  C   UNL A   1      46.165  24.725  28.807  1.00  0.00     0.031 C 
ATOM     44  C   UNL A   1      39.534  26.512  28.317  1.00  0.00     0.029 A 
ATOM     45  C   UNL A   1      40.438  27.535  28.833  1.00  0.00     0.049 A 
ATOM     46  H   UNL A   1      42.495  27.382  29.119  1.00  0.00     0.167 HD
ATOM     47  C   UNL A   1      46.795  26.972  29.643  1.00  0.00     0.037 A 
ATOM     48  C   UNL A   1      40.073  28.772  29.219  1.00  0.00     0.037 A 
ATOM     49  C   UNL A   1      46.509  28.333  30.019  1.00  0.00     0.049 A 
ATOM     50  C   UNL A   1      41.113  29.730  29.727  1.00  0.00     0.074 A 
ATOM     51  C   UNL A   1      47.391  29.321  30.423  1.00  0.00     0.029 A 
ATOM     52  N   UNL A   1      45.243  28.897  30.044  1.00  0.00    -0.354 N 
ATOM     53  N   UNL A   1      42.407  29.560  29.846  1.00  0.00    -0.248 NA
ATOM     54  C   UNL A   1      40.639  31.053  30.156  1.00  0.00     0.031 C 
ATOM     55  C   UNL A   1      46.654  30.471  30.729  1.00  0.00     0.029 A 
ATOM     56  C   UNL A   1      45.316  30.211  30.478  1.00  0.00     0.049 A 
ATOM     57  H   UNL A   1      44.413  28.432  29.790  1.00  0.00     0.167 HD
ATOM     58  C   UNL A   1      42.905  30.761  30.333  1.00  0.00     0.074 A 
ATOM     59  C   UNL A   1      41.775  31.654  30.483  1.00  0.00     0.031 C 
ATOM     60  C   UNL A   1      44.187  31.092  30.625  1.00  0.00     0.037 A 
BRANCH  47  61
ATOM     61  C   UNL A   1      48.212  26.489  29.739  1.00  0.00     0.057 A 
ATOM     62  C   UNL A   1      48.702  25.862  30.893  1.00  0.00     0.134 A 
ATOM     63  C   UNL A   1      49.096  26.644  28.664  1.00  0.00     0.134 A 
ATOM     64  F   UNL A   1      47.909  25.692  31.962  1.00  0.00    -0.206 F 
ATOM     65  C   UNL A   1      50.029  25.439  30.988  1.00  0.00     0.040 A 
ATOM     66  C   UNL A   1      50.419  26.201  28.737  1.00  0.00     0.040 A 
ATOM     67  F   UNL A   1      48.692  27.228  27.527  1.00  0.00    -0.206 F 
ATOM     68  C   UNL A   1      50.891  25.605  29.905  1.00  0.00     0.006 A 
ENDBRANCH  47  61
BRANCH  48  69
ATOM     69  C   UNL A   1      38.657  29.195  29.095  1.00  0.00     0.057 A 
ATOM     70  C   UNL A   1      38.144  29.619  27.863  1.00  0.00     0.134 A 
ATOM     71  C   UNL A   1      37.786  29.182  30.189  1.00  0.00     0.134 A 
ATOM     72  F   UNL A   1      38.938  29.671  26.784  1.00  0.00    -0.206 F 
ATOM     73  C   UNL A   1      36.816  30.023  27.725  1.00  0.00     0.040 A 
ATOM     74  C   UNL A   1      36.450  29.565  30.062  1.00  0.00     0.040 A 
ATOM     75  F   UNL A   1      38.220  28.783  31.395  1.00  0.00    -0.206 F 
ATOM     76  C   UNL A   1      35.963  29.990  28.827  1.00  0.00     0.006 A 
ENDBRANCH  48  69
BRANCH  60  77
ATOM     77  C   UNL A   1      44.438  32.491  31.110  1.00  0.00     0.057 A 
ATOM     78  C   UNL A   1      44.449  32.809  32.473  1.00  0.00     0.134 A 
ATOM     79  C   UNL A   1      44.694  33.525  30.200  1.00  0.00     0.134 A 
ATOM     80  F   UNL A   1      44.195  31.866  33.393  1.00  0.00    -0.206 F 
ATOM     81  C   UNL A   1      44.688  34.112  32.915  1.00  0.00     0.040 A 
ATOM     82  C   UNL A   1      44.956  34.827  30.631  1.00  0.00     0.040 A 
ATOM     83  F   UNL A   1      44.702  33.286  28.881  1.00  0.00    -0.206 F 
ATOM     84  C   UNL A   1      44.947  35.124  31.993  1.00  0.00     0.006 A 
ENDBRANCH  60  77
ENDBRANCH  34  35
ENDBRANCH  26  29
ENDBRANCH  24  25
ENDBRANCH  23  24
ENDBRANCH  22  23
ENDBRANCH   1  22
TORSDOF 18
ENDMDL
MODEL 3
REMARK VINA RESULT:      -9.4      3.984      8.795
REMARK SMILES COc1cc(OC)c(CCC(=O)NCCCCCCNC(=O)c2ccc(-c3c4nc(c(-c5c(F)cccc5F)c5ccc([nH]5)c(-c5c(F)cccc5F)c5nc(c(-c6c(F)cccc6F)c6ccc3[nH]6)C=C5)C=C4)cc2)c(OC)c1
REMARK SMILES IDX 16 1 15 2 14 3 13 4 11 5 12 6 10 8 9 9 8 10 3 11 4 12 80 13
REMARK SMILES IDX 5 14 77 15 2 16 1 17 6 18 7 19 78 20 79 21 17 22 18 23 19 24
REMARK SMILES IDX 20 25 21 26 22 28 23 29 24 30 76 31 25 32 75 33 26 34 27 35
REMARK SMILES IDX 28 36 69 37 29 38 74 39 68 40 70 41 30 42 73 43 67 44 66 45
REMARK SMILES IDX 31 47 57 48 40 49 56 50 41 51 44 52 55 53 71 54 42 55 43 56
REMARK SMILES IDX 54 58 72 59 45 60 32 61 33 62 38 63 34 64 35 65 37 66 39 67
REMARK SMILES IDX 36 68 58 69 59 70 64 71 60 72 61 73 63 74 65 75 62 76 46 77
REMARK SMILES IDX 47 78 52 79 48 80 49 81 51 82 53 83 50 84
REMARK H PARENT 13 7 20 27 70 46 44 57
REMARK Flexibility Score: inf
ROOT
ATOM      1  C   UNL A   1      31.911  29.753  25.461  1.00  0.00     0.002 C 
ENDROOT
BRANCH   1   2
ATOM      2  C   UNL A   1      32.264  28.264  25.484  1.00  0.00     0.021 C 
BRANCH   2   3
ATOM      3  C   UNL A   1      33.546  27.867  24.752  1.00  0.00     0.116 C 
BRANCH   3   4
ATOM      4  N   UNL A   1      33.253  27.027  23.602  1.00  0.00    -0.356 N 
ATOM      5  C   UNL A   1      33.781  25.826  23.225  1.00  0.00     0.220 C 
ATOM      6  O   UNL A   1      33.479  25.387  22.113  1.00  0.00    -0.275 OA
ATOM      7  H   UNL A   1      32.562  27.381  22.997  1.00  0.00     0.163 HD
BRANCH   5   8
ATOM      8  C   UNL A   1      34.700  25.041  24.141  1.00  0.00     0.105 C 
BRANCH   8   9
ATOM      9  C   UNL A   1      33.976  24.359  25.314  1.00  0.00     0.053 C 
BRANCH   9  10
ATOM     10  C   UNL A   1      33.619  22.912  25.049  1.00  0.00     0.037 A 
ATOM     11  C   UNL A   1      33.108  20.235  24.306  1.00  0.00     0.126 A 
ATOM     12  C   UNL A   1      32.094  21.192  24.240  1.00  0.00     0.093 A 
ATOM     13  C   UNL A   1      34.355  20.592  24.810  1.00  0.00     0.093 A 
ATOM     14  C   UNL A   1      32.343  22.519  24.614  1.00  0.00     0.129 A 
ATOM     15  C   UNL A   1      34.587  21.906  25.229  1.00  0.00     0.129 A 
BRANCH  11  16
ATOM     16  O   UNL A   1      32.834  19.016  23.749  1.00  0.00    -0.496 OA
ATOM     17  C   UNL A   1      32.427  17.991  24.650  1.00  0.00     0.278 C 
ENDBRANCH  11  16
BRANCH  14  18
ATOM     18  O   UNL A   1      31.269  23.366  24.685  1.00  0.00    -0.496 OA
ATOM     19  C   UNL A   1      30.694  23.678  23.419  1.00  0.00     0.278 C 
ENDBRANCH  14  18
BRANCH  15  20
ATOM     20  O   UNL A   1      35.795  22.265  25.778  1.00  0.00    -0.496 OA
ATOM     21  C   UNL A   1      36.813  21.284  25.569  1.00  0.00     0.278 C 
ENDBRANCH  15  20
ENDBRANCH   9  10
ENDBRANCH   8   9
ENDBRANCH   5   8
ENDBRANCH   3   4
ENDBRANCH   2   3
ENDBRANCH   1   2
BRANCH   1  22
ATOM     22  C   UNL A   1      31.719  30.405  26.834  1.00  0.00     0.002 C 
BRANCH  22  23
ATOM     23  C   UNL A   1      31.476  31.920  26.836  1.00  0.00     0.021 C 
BRANCH  23  24
ATOM     24  C   UNL A   1      32.732  32.792  26.866  1.00  0.00     0.116 C 
BRANCH  24  25
ATOM     25  N   UNL A   1      32.525  34.039  27.585  1.00  0.00    -0.352 N 
ATOM     26  C   UNL A   1      33.156  34.548  28.690  1.00  0.00     0.251 C 
ATOM     27  H   UNL A   1      31.814  34.612  27.217  1.00  0.00     0.163 HD
ATOM     28  O   UNL A   1      32.694  35.550  29.246  1.00  0.00    -0.269 OA
BRANCH  26  29
ATOM     29  C   UNL A   1      34.368  33.913  29.252  1.00  0.00     0.039 A 
ATOM     30  C   UNL A   1      34.214  32.923  30.228  1.00  0.00     0.014 A 
ATOM     31  C   UNL A   1      35.654  34.319  28.881  1.00  0.00     0.014 A 
ATOM     32  C   UNL A   1      35.337  32.301  30.783  1.00  0.00     0.010 A 
ATOM     33  C   UNL A   1      36.773  33.655  29.388  1.00  0.00     0.010 A 
ATOM     34  C   UNL A   1      36.627  32.638  30.344  1.00  0.00    -0.014 A 
BRANCH  34  35
ATOM     35  C   UNL A   1      37.823  31.930  30.875  1.00  0.00     0.031 A 
ATOM     36  C   UNL A   1      38.399  32.288  32.216  1.00  0.00     0.074 A 
ATOM     37  C   UNL A   1      38.421  30.982  30.127  1.00  0.00     0.049 A 
ATOM     38  N   UNL A   1      39.449  31.793  32.825  1.00  0.00    -0.248 NA
ATOM     39  C   UNL A   1      37.721  33.358  32.962  1.00  0.00     0.031 C 
ATOM     40  C   UNL A   1      37.987  30.555  28.797  1.00  0.00     0.029 A 
ATOM     41  N   UNL A   1      39.522  30.202  30.383  1.00  0.00    -0.354 N 
ATOM     42  C   UNL A   1      39.560  32.494  34.019  1.00  0.00     0.074 A 
ATOM     43  C   UNL A   1      38.503  33.483  34.024  1.00  0.00     0.031 C 
ATOM     44  C   UNL A   1      38.789  29.568  28.369  1.00  0.00     0.029 A 
ATOM     45  C   UNL A   1      39.812  29.314  29.377  1.00  0.00     0.049 A 
ATOM     46  H   UNL A   1      40.053  30.275  31.209  1.00  0.00     0.167 HD
ATOM     47  C   UNL A   1      40.446  32.318  35.030  1.00  0.00     0.037 A 
ATOM     48  C   UNL A   1      40.790  28.394  29.278  1.00  0.00     0.037 A 
ATOM     49  C   UNL A   1      41.487  31.322  35.040  1.00  0.00     0.049 A 
ATOM     50  C   UNL A   1      41.778  28.234  30.399  1.00  0.00     0.074 A 
ATOM     51  C   UNL A   1      42.397  31.033  36.043  1.00  0.00     0.029 A 
ATOM     52  N   UNL A   1      41.762  30.455  33.993  1.00  0.00    -0.354 N 
ATOM     53  N   UNL A   1      41.838  28.867  31.545  1.00  0.00    -0.248 NA
ATOM     54  C   UNL A   1      42.835  27.231  30.210  1.00  0.00     0.031 C 
ATOM     55  C   UNL A   1      43.246  30.017  35.588  1.00  0.00     0.029 A 
ATOM     56  C   UNL A   1      42.841  29.647  34.316  1.00  0.00     0.049 A 
ATOM     57  H   UNL A   1      41.263  30.419  33.144  1.00  0.00     0.167 HD
ATOM     58  C   UNL A   1      42.917  28.320  32.226  1.00  0.00     0.074 A 
ATOM     59  C   UNL A   1      43.481  27.299  31.367  1.00  0.00     0.031 C 
ATOM     60  C   UNL A   1      43.394  28.634  33.455  1.00  0.00     0.037 A 
BRANCH  47  61
ATOM     61  C   UNL A   1      40.323  33.232  36.214  1.00  0.00     0.057 A 
ATOM     62  C   UNL A   1      41.107  34.387  36.341  1.00  0.00     0.134 A 
ATOM     63  C   UNL A   1      39.406  32.959  37.237  1.00  0.00     0.134 A 
ATOM     64  F   UNL A   1      42.012  34.699  35.400  1.00  0.00    -0.206 F 
ATOM     65  C   UNL A   1      41.009  35.219  37.457  1.00  0.00     0.040 A 
ATOM     66  C   UNL A   1      39.280  33.798  38.346  1.00  0.00     0.040 A 
ATOM     67  F   UNL A   1      38.619  31.875  37.177  1.00  0.00    -0.206 F 
ATOM     68  C   UNL A   1      40.090  34.927  38.463  1.00  0.00     0.006 A 
ENDBRANCH  47  61
BRANCH  48  69
ATOM     69  C   UNL A   1      40.857  27.515  28.085  1.00  0.00     0.057 A 
ATOM     70  C   UNL A   1      41.589  27.900  26.956  1.00  0.00     0.134 A 
ATOM     71  C   UNL A   1      40.204  26.279  28.044  1.00  0.00     0.134 A 
ATOM     72  F   UNL A   1      42.220  29.083  26.932  1.00  0.00    -0.206 F 
ATOM     73  C   UNL A   1      41.664  27.090  25.822  1.00  0.00     0.040 A 
ATOM     74  C   UNL A   1      40.285  25.450  26.924  1.00  0.00     0.040 A 
ATOM     75  F   UNL A   1      39.489  25.855  29.097  1.00  0.00    -0.206 F 
ATOM     76  C   UNL A   1      41.015  25.856  25.808  1.00  0.00     0.006 A 
ENDBRANCH  48  69
BRANCH  60  77
ATOM     77  C   UNL A   1      44.568  27.844  33.956  1.00  0.00     0.057 A 
ATOM     78  C   UNL A   1      44.407  26.628  34.628  1.00  0.00     0.134 A 
ATOM     79  C   UNL A   1      45.876  28.297  33.739  1.00  0.00     0.134 A 
ATOM     80  F   UNL A   1      43.180  26.147  34.881  1.00  0.00    -0.206 F 
ATOM     81  C   UNL A   1      45.506  25.897  35.086  1.00  0.00     0.040 A 
ATOM     82  C   UNL A   1      46.983  27.565  34.172  1.00  0.00     0.040 A 
ATOM     83  F   UNL A   1      46.100  29.452  33.096  1.00  0.00    -0.206 F 
ATOM     84  C   UNL A   1      46.799  26.363  34.854  1.00  0.00     0.006 A 
ENDBRANCH  60  77
ENDBRANCH  34  35
ENDBRANCH  26  29
ENDBRANCH  24  25
ENDBRANCH  23  24
ENDBRANCH  22  23
ENDBRANCH   1  22
TORSDOF 18
ENDMDL
