MODEL 1
REMARK VINA RESULT:     -12.7      0.000      0.000
REMARK SMILES Cc1cccc(CC(=O)N2CCC3(CCC(=O)N([C@H](C)C(=O)NCCCCCCNC(=O)c4ccc(-c5c6nc(c(-c7c(F)cccc7F)c7ccc([nH]7)c(-c7c(F)cccc7F)c7nc(c(-c8c(F)cccc8F)c8ccc5[nH]8)C=C7)C=C6)cc4)C3)CC2)c1
REMARK SMILES IDX 26 1 25 2 24 3 23 4 21 5 22 6 19 8 20 9 18 10 8 11 9 12
REMARK SMILES IDX 10 13 11 14 89 15 12 16 88 17 13 18 14 19 87 20 15 21 16 22
REMARK SMILES IDX 17 23 7 24 6 25 1 26 2 27 3 28 90 29 4 30 5 31 27 32 28 33
REMARK SMILES IDX 29 34 30 35 31 36 32 38 33 39 34 40 86 41 35 42 85 43 36 44
REMARK SMILES IDX 37 45 38 46 79 47 39 48 84 49 78 50 80 51 40 52 83 53 77 54
REMARK SMILES IDX 76 55 41 57 67 58 50 59 66 60 51 61 54 62 65 63 81 64 52 65
REMARK SMILES IDX 53 66 64 68 82 69 55 70 42 71 43 72 48 73 44 74 45 75 47 76
REMARK SMILES IDX 49 77 46 78 68 79 69 80 74 81 70 82 71 83 73 84 75 85 72 86
REMARK SMILES IDX 56 87 57 88 62 89 58 90 59 91 61 92 63 93 60 94
REMARK H PARENT 23 7 30 37 80 56 54 67
REMARK Flexibility Score: inf
ROOT
ATOM      1  C   UNL A   1      33.750  31.312  28.033  1.00  0.00     0.002 C 
ENDROOT
BRANCH   1   2
ATOM      2  C   UNL A   1      34.830  30.363  27.498  1.00  0.00     0.021 C 
BRANCH   2   3
ATOM      3  C   UNL A   1      34.349  28.996  27.026  1.00  0.00     0.116 C 
BRANCH   3   4
ATOM      4  N   UNL A   1      33.106  28.545  27.613  1.00  0.00    -0.354 N 
ATOM      5  C   UNL A   1      31.960  28.145  26.977  1.00  0.00     0.242 C 
ATOM      6  O   UNL A   1      31.156  27.467  27.629  1.00  0.00    -0.273 OA
ATOM      7  H   UNL A   1      33.080  28.522  28.597  1.00  0.00     0.163 HD
BRANCH   5   8
ATOM      8  C   UNL A   1      31.642  28.532  25.505  1.00  0.00     0.171 C 
ATOM      9  C   UNL A   1      32.476  29.706  24.985  1.00  0.00     0.042 C 
BRANCH   8  10
ATOM     10  N   UNL A   1      31.506  27.470  24.490  1.00  0.00    -0.330 N 
ATOM     11  C   UNL A   1      34.725  21.813  25.286  1.00  0.00     0.226 C 
ATOM     12  O   UNL A   1      34.590  21.233  26.371  1.00  0.00    -0.275 OA
ATOM     13  N   UNL A   1      33.708  22.614  24.786  1.00  0.00    -0.342 N 
ATOM     14  C   UNL A   1      32.672  23.108  25.690  1.00  0.00     0.120 C 
ATOM     15  C   UNL A   1      33.494  22.981  23.395  1.00  0.00     0.120 C 
ATOM     16  C   UNL A   1      32.565  24.638  25.582  1.00  0.00     0.030 C 
ATOM     17  C   UNL A   1      33.536  24.492  23.254  1.00  0.00     0.030 C 
ATOM     18  C   UNL A   1      32.438  25.161  24.120  1.00  0.00    -0.008 C 
ATOM     19  C   UNL A   1      31.055  24.829  23.502  1.00  0.00     0.019 C 
ATOM     20  C   UNL A   1      32.667  26.693  24.087  1.00  0.00     0.127 C 
ATOM     21  C   UNL A   1      29.939  25.702  24.034  1.00  0.00     0.101 C 
ATOM     22  C   UNL A   1      30.299  27.157  23.904  1.00  0.00     0.223 C 
ATOM     23  O   UNL A   1      29.543  27.970  23.391  1.00  0.00    -0.275 OA
BRANCH  11  24
ATOM     24  C   UNL A   1      36.111  21.822  24.639  1.00  0.00     0.135 C 
BRANCH  24  25
ATOM     25  C   UNL A   1      37.248  22.498  25.356  1.00  0.00    -0.038 A 
ATOM     26  C   UNL A   1      40.558  21.484  26.966  1.00  0.00     0.044 C 
ATOM     27  C   UNL A   1      39.396  22.312  26.503  1.00  0.00    -0.051 A 
ATOM     28  C   UNL A   1      39.284  23.651  26.896  1.00  0.00     0.003 A 
ATOM     29  C   UNL A   1      38.388  21.751  25.713  1.00  0.00     0.007 A 
ATOM     30  C   UNL A   1      38.183  24.415  26.502  1.00  0.00     0.001 A 
ATOM     31  C   UNL A   1      37.168  23.844  25.734  1.00  0.00     0.004 A 
ENDBRANCH  24  25
ENDBRANCH  11  24
ENDBRANCH   8  10
ENDBRANCH   5   8
ENDBRANCH   3   4
ENDBRANCH   2   3
ENDBRANCH   1   2
BRANCH   1  32
ATOM     32  C   UNL A   1      33.552  32.662  27.321  1.00  0.00     0.002 C 
BRANCH  32  33
ATOM     33  C   UNL A   1      33.082  33.848  28.168  1.00  0.00     0.021 C 
BRANCH  33  34
ATOM     34  C   UNL A   1      34.146  34.888  28.483  1.00  0.00     0.116 C 
BRANCH  34  35
ATOM     35  N   UNL A   1      34.436  35.042  29.903  1.00  0.00    -0.352 N 
ATOM     36  C   UNL A   1      35.160  34.209  30.743  1.00  0.00     0.251 C 
ATOM     37  H   UNL A   1      34.066  35.851  30.326  1.00  0.00     0.163 HD
ATOM     38  O   UNL A   1      35.302  34.487  31.924  1.00  0.00    -0.269 OA
BRANCH  36  39
ATOM     39  C   UNL A   1      35.892  33.058  30.158  1.00  0.00     0.039 A 
ATOM     40  C   UNL A   1      35.816  31.839  30.841  1.00  0.00     0.014 A 
ATOM     41  C   UNL A   1      36.833  33.241  29.150  1.00  0.00     0.014 A 
ATOM     42  C   UNL A   1      36.865  30.933  30.727  1.00  0.00     0.010 A 
ATOM     43  C   UNL A   1      37.925  32.399  29.114  1.00  0.00     0.010 A 
ATOM     44  C   UNL A   1      37.979  31.295  29.973  1.00  0.00    -0.014 A 
BRANCH  44  45
ATOM     45  C   UNL A   1      39.295  30.701  30.180  1.00  0.00     0.031 A 
ATOM     46  C   UNL A   1      39.659  29.419  29.547  1.00  0.00     0.074 A 
ATOM     47  C   UNL A   1      40.221  31.406  30.868  1.00  0.00     0.049 A 
ATOM     48  N   UNL A   1      40.657  28.685  29.906  1.00  0.00    -0.248 NA
ATOM     49  C   UNL A   1      38.873  28.830  28.473  1.00  0.00     0.031 C 
ATOM     50  C   UNL A   1      41.662  31.179  30.914  1.00  0.00     0.029 A 
ATOM     51  N   UNL A   1      39.988  32.367  31.864  1.00  0.00    -0.354 N 
ATOM     52  C   UNL A   1      40.821  27.700  28.958  1.00  0.00     0.074 A 
ATOM     53  C   UNL A   1      39.637  27.788  28.135  1.00  0.00     0.031 C 
ATOM     54  C   UNL A   1      42.152  31.733  32.035  1.00  0.00     0.029 A 
ATOM     55  C   UNL A   1      41.015  32.190  32.815  1.00  0.00     0.049 A 
ATOM     56  H   UNL A   1      39.259  33.027  31.893  1.00  0.00     0.167 HD
ATOM     57  C   UNL A   1      42.009  27.025  28.906  1.00  0.00     0.037 A 
ATOM     58  C   UNL A   1      40.745  31.797  34.093  1.00  0.00     0.037 A 
ATOM     59  C   UNL A   1      42.855  27.365  30.053  1.00  0.00     0.049 A 
ATOM     60  C   UNL A   1      41.430  30.515  34.504  1.00  0.00     0.074 A 
ATOM     61  C   UNL A   1      43.929  28.225  30.215  1.00  0.00     0.029 A 
ATOM     62  N   UNL A   1      42.444  27.009  31.334  1.00  0.00    -0.354 N 
ATOM     63  N   UNL A   1      41.904  29.639  33.662  1.00  0.00    -0.248 NA
ATOM     64  C   UNL A   1      41.613  30.106  35.893  1.00  0.00     0.031 C 
ATOM     65  C   UNL A   1      44.130  28.428  31.603  1.00  0.00     0.029 A 
ATOM     66  C   UNL A   1      43.189  27.677  32.287  1.00  0.00     0.049 A 
ATOM     67  H   UNL A   1      41.722  26.370  31.534  1.00  0.00     0.167 HD
ATOM     68  C   UNL A   1      42.416  28.569  34.351  1.00  0.00     0.074 A 
ATOM     69  C   UNL A   1      42.233  28.922  35.746  1.00  0.00     0.031 C 
ATOM     70  C   UNL A   1      42.933  27.481  33.706  1.00  0.00     0.037 A 
BRANCH  57  71
ATOM     71  C   UNL A   1      42.524  26.309  27.670  1.00  0.00     0.057 A 
ATOM     72  C   UNL A   1      42.933  27.037  26.531  1.00  0.00     0.134 A 
ATOM     73  C   UNL A   1      42.568  24.915  27.493  1.00  0.00     0.134 A 
ATOM     74  F   UNL A   1      43.073  28.368  26.556  1.00  0.00    -0.206 F 
ATOM     75  C   UNL A   1      43.220  26.437  25.296  1.00  0.00     0.040 A 
ATOM     76  C   UNL A   1      42.805  24.302  26.253  1.00  0.00     0.040 A 
ATOM     77  F   UNL A   1      42.452  24.070  28.522  1.00  0.00    -0.206 F 
ATOM     78  C   UNL A   1      43.115  25.065  25.141  1.00  0.00     0.006 A 
ENDBRANCH  57  71
BRANCH  58  79
ATOM     79  C   UNL A   1      39.418  32.247  34.588  1.00  0.00     0.057 A 
ATOM     80  C   UNL A   1      39.299  33.543  35.121  1.00  0.00     0.134 A 
ATOM     81  C   UNL A   1      38.235  31.595  34.230  1.00  0.00     0.134 A 
ATOM     82  F   UNL A   1      40.398  34.225  35.483  1.00  0.00    -0.206 F 
ATOM     83  C   UNL A   1      38.070  34.203  35.192  1.00  0.00     0.040 A 
ATOM     84  C   UNL A   1      36.995  32.243  34.308  1.00  0.00     0.040 A 
ATOM     85  F   UNL A   1      38.268  30.368  33.690  1.00  0.00    -0.206 F 
ATOM     86  C   UNL A   1      36.915  33.562  34.756  1.00  0.00     0.006 A 
ENDBRANCH  58  79
BRANCH  70  87
ATOM     87  C   UNL A   1      43.321  26.164  34.338  1.00  0.00     0.057 A 
ATOM     88  C   UNL A   1      42.429  25.306  34.999  1.00  0.00     0.134 A 
ATOM     89  C   UNL A   1      44.624  25.642  34.159  1.00  0.00     0.134 A 
ATOM     90  F   UNL A   1      41.135  25.613  35.143  1.00  0.00    -0.206 F 
ATOM     91  C   UNL A   1      42.817  24.051  35.494  1.00  0.00     0.040 A 
ATOM     92  C   UNL A   1      45.005  24.370  34.598  1.00  0.00     0.040 A 
ATOM     93  F   UNL A   1      45.581  26.335  33.524  1.00  0.00    -0.206 F 
ATOM     94  C   UNL A   1      44.104  23.574  35.284  1.00  0.00     0.006 A 
ENDBRANCH  70  87
ENDBRANCH  44  45
ENDBRANCH  36  39
ENDBRANCH  34  35
ENDBRANCH  33  34
ENDBRANCH  32  33
ENDBRANCH   1  32
TORSDOF 16
ENDMDL
MODEL 2
REMARK VINA RESULT:     -12.3      1.779      2.835
REMARK SMILES Cc1cccc(CC(=O)N2CCC3(CCC(=O)N([C@H](C)C(=O)NCCCCCCNC(=O)c4ccc(-c5c6nc(c(-c7c(F)cccc7F)c7ccc([nH]7)c(-c7c(F)cccc7F)c7nc(c(-c8c(F)cccc8F)c8ccc5[nH]8)C=C7)C=C6)cc4)C3)CC2)c1
REMARK SMILES IDX 26 1 25 2 24 3 23 4 21 5 22 6 19 8 20 9 18 10 8 11 9 12
REMARK SMILES IDX 10 13 11 14 89 15 12 16 88 17 13 18 14 19 87 20 15 21 16 22
REMARK SMILES IDX 17 23 7 24 6 25 1 26 2 27 3 28 90 29 4 30 5 31 27 32 28 33
REMARK SMILES IDX 29 34 30 35 31 36 32 38 33 39 34 40 86 41 35 42 85 43 36 44
REMARK SMILES IDX 37 45 38 46 79 47 39 48 84 49 78 50 80 51 40 52 83 53 77 54
REMARK SMILES IDX 76 55 41 57 67 58 50 59 66 60 51 61 54 62 65 63 81 64 52 65
REMARK SMILES IDX 53 66 64 68 82 69 55 70 42 71 43 72 48 73 44 74 45 75 47 76
REMARK SMILES IDX 49 77 46 78 68 79 69 80 74 81 70 82 71 83 73 84 75 85 72 86
REMARK SMILES IDX 56 87 57 88 62 89 58 90 59 91 61 92 63 93 60 94
REMARK H PARENT 23 7 30 37 80 56 54 67
REMARK Flexibility Score: inf
ROOT
ATOM      1  C   UNL A   1      35.104  31.051  27.971  1.00  0.00     0.002 C 
ENDROOT
BRANCH   1   2
ATOM      2  C   UNL A   1      35.717  29.712  27.539  1.00  0.00     0.021 C 
BRANCH   2   3
ATOM      3  C   UNL A   1      34.763  28.712  26.900  1.00  0.00     0.116 C 
BRANCH   3   4
ATOM      4  N   UNL A   1      34.359  29.024  25.547  1.00  0.00    -0.354 N 
ATOM      5  C   UNL A   1      33.267  28.565  24.856  1.00  0.00     0.242 C 
ATOM      6  O   UNL A   1      32.907  29.215  23.867  1.00  0.00    -0.273 OA
ATOM      7  H   UNL A   1      34.943  29.648  25.058  1.00  0.00     0.163 HD
BRANCH   5   8
ATOM      8  C   UNL A   1      32.507  27.269  25.260  1.00  0.00     0.171 C 
ATOM      9  C   UNL A   1      31.391  27.505  26.280  1.00  0.00     0.042 C 
BRANCH   8  10
ATOM     10  N   UNL A   1      32.096  26.316  24.212  1.00  0.00    -0.330 N 
ATOM     11  C   UNL A   1      33.028  19.893  25.150  1.00  0.00     0.226 C 
ATOM     12  O   UNL A   1      32.600  19.407  26.204  1.00  0.00    -0.275 OA
ATOM     13  N   UNL A   1      32.408  20.997  24.582  1.00  0.00    -0.342 N 
ATOM     14  C   UNL A   1      31.536  21.833  25.405  1.00  0.00     0.120 C 
ATOM     15  C   UNL A   1      32.463  21.404  23.187  1.00  0.00     0.120 C 
ATOM     16  C   UNL A   1      31.986  23.301  25.324  1.00  0.00     0.030 C 
ATOM     17  C   UNL A   1      33.047  22.802  23.086  1.00  0.00     0.030 C 
ATOM     18  C   UNL A   1      32.183  23.823  23.870  1.00  0.00    -0.008 C 
ATOM     19  C   UNL A   1      30.833  23.996  23.126  1.00  0.00     0.019 C 
ATOM     20  C   UNL A   1      32.940  25.175  23.893  1.00  0.00     0.127 C 
ATOM     21  C   UNL A   1      30.055  25.212  23.580  1.00  0.00     0.101 C 
ATOM     22  C   UNL A   1      30.915  26.444  23.517  1.00  0.00     0.223 C 
ATOM     23  O   UNL A   1      30.543  27.468  22.959  1.00  0.00    -0.275 OA
BRANCH  11  24
ATOM     24  C   UNL A   1      34.380  19.406  24.626  1.00  0.00     0.135 C 
BRANCH  24  25
ATOM     25  C   UNL A   1      35.622  20.178  24.981  1.00  0.00    -0.038 A 
ATOM     26  C   UNL A   1      36.511  23.721  26.090  1.00  0.00     0.044 C 
ATOM     27  C   UNL A   1      36.642  22.287  25.669  1.00  0.00    -0.051 A 
ATOM     28  C   UNL A   1      37.905  21.736  25.431  1.00  0.00     0.003 A 
ATOM     29  C   UNL A   1      35.507  21.494  25.467  1.00  0.00     0.007 A 
ATOM     30  C   UNL A   1      38.031  20.413  24.999  1.00  0.00     0.001 A 
ATOM     31  C   UNL A   1      36.896  19.634  24.776  1.00  0.00     0.004 A 
ENDBRANCH  24  25
ENDBRANCH  11  24
ENDBRANCH   8  10
ENDBRANCH   5   8
ENDBRANCH   3   4
ENDBRANCH   2   3
ENDBRANCH   1   2
BRANCH   1  32
ATOM     32  C   UNL A   1      36.055  32.227  28.258  1.00  0.00     0.002 C 
BRANCH  32  33
ATOM     33  C   UNL A   1      35.623  33.246  29.315  1.00  0.00     0.021 C 
BRANCH  33  34
ATOM     34  C   UNL A   1      34.749  32.699  30.433  1.00  0.00     0.116 C 
BRANCH  34  35
ATOM     35  N   UNL A   1      34.023  33.715  31.184  1.00  0.00    -0.352 N 
ATOM     36  C   UNL A   1      34.382  34.352  32.363  1.00  0.00     0.251 C 
ATOM     37  H   UNL A   1      33.158  33.988  30.801  1.00  0.00     0.163 HD
ATOM     38  O   UNL A   1      33.644  35.185  32.869  1.00  0.00    -0.269 OA
BRANCH  36  39
ATOM     39  C   UNL A   1      35.739  34.127  32.919  1.00  0.00     0.039 A 
ATOM     40  C   UNL A   1      36.795  34.833  32.333  1.00  0.00     0.014 A 
ATOM     41  C   UNL A   1      35.995  33.065  33.781  1.00  0.00     0.014 A 
ATOM     42  C   UNL A   1      38.074  34.287  32.367  1.00  0.00     0.010 A 
ATOM     43  C   UNL A   1      37.237  32.465  33.728  1.00  0.00     0.010 A 
ATOM     44  C   UNL A   1      38.247  33.031  32.942  1.00  0.00    -0.014 A 
BRANCH  44  45
ATOM     45  C   UNL A   1      39.367  32.158  32.603  1.00  0.00     0.031 A 
ATOM     46  C   UNL A   1      39.169  30.953  31.777  1.00  0.00     0.074 A 
ATOM     47  C   UNL A   1      40.614  32.540  32.961  1.00  0.00     0.049 A 
ATOM     48  N   UNL A   1      40.017  29.984  31.684  1.00  0.00    -0.248 NA
ATOM     49  C   UNL A   1      37.948  30.719  31.020  1.00  0.00     0.031 C 
ATOM     50  C   UNL A   1      41.883  32.025  32.457  1.00  0.00     0.029 A 
ATOM     51  N   UNL A   1      40.974  33.350  34.049  1.00  0.00    -0.354 N 
ATOM     52  C   UNL A   1      39.604  29.158  30.663  1.00  0.00     0.074 A 
ATOM     53  C   UNL A   1      38.273  29.616  30.341  1.00  0.00     0.031 C 
ATOM     54  C   UNL A   1      42.842  32.276  33.364  1.00  0.00     0.029 A 
ATOM     55  C   UNL A   1      42.184  32.816  34.541  1.00  0.00     0.049 A 
ATOM     56  H   UNL A   1      40.483  34.128  34.397  1.00  0.00     0.167 HD
ATOM     57  C   UNL A   1      40.501  28.277  30.125  1.00  0.00     0.037 A 
ATOM     58  C   UNL A   1      42.271  32.280  35.791  1.00  0.00     0.037 A 
ATOM     59  C   UNL A   1      41.739  28.245  30.907  1.00  0.00     0.049 A 
ATOM     60  C   UNL A   1      42.716  30.836  35.816  1.00  0.00     0.074 A 
ATOM     61  C   UNL A   1      42.982  28.834  30.736  1.00  0.00     0.029 A 
ATOM     62  N   UNL A   1      41.709  27.773  32.215  1.00  0.00    -0.354 N 
ATOM     63  N   UNL A   1      42.648  30.034  34.789  1.00  0.00    -0.248 NA
ATOM     64  C   UNL A   1      43.250  30.175  37.003  1.00  0.00     0.031 C 
ATOM     65  C   UNL A   1      43.681  28.760  31.966  1.00  0.00     0.029 A 
ATOM     66  C   UNL A   1      42.871  28.110  32.881  1.00  0.00     0.049 A 
ATOM     67  H   UNL A   1      40.963  27.266  32.612  1.00  0.00     0.167 HD
ATOM     68  C   UNL A   1      43.083  28.785  35.152  1.00  0.00     0.074 A 
ATOM     69  C   UNL A   1      43.472  28.932  36.541  1.00  0.00     0.031 C 
ATOM     70  C   UNL A   1      43.067  27.737  34.275  1.00  0.00     0.037 A 
BRANCH  57  71
ATOM     71  C   UNL A   1      40.376  27.686  28.731  1.00  0.00     0.057 A 
ATOM     72  C   UNL A   1      39.659  26.489  28.515  1.00  0.00     0.134 A 
ATOM     73  C   UNL A   1      40.998  28.187  27.574  1.00  0.00     0.134 A 
ATOM     74  F   UNL A   1      38.903  25.935  29.471  1.00  0.00    -0.206 F 
ATOM     75  C   UNL A   1      39.679  25.788  27.300  1.00  0.00     0.040 A 
ATOM     76  C   UNL A   1      41.069  27.474  26.366  1.00  0.00     0.040 A 
ATOM     77  F   UNL A   1      41.511  29.420  27.527  1.00  0.00    -0.206 F 
ATOM     78  C   UNL A   1      40.422  26.258  26.230  1.00  0.00     0.006 A 
ENDBRANCH  57  71
BRANCH  58  79
ATOM     79  C   UNL A   1      41.342  32.898  36.773  1.00  0.00     0.057 A 
ATOM     80  C   UNL A   1      41.719  34.102  37.394  1.00  0.00     0.134 A 
ATOM     81  C   UNL A   1      39.993  32.542  36.840  1.00  0.00     0.134 A 
ATOM     82  F   UNL A   1      43.000  34.503  37.365  1.00  0.00    -0.206 F 
ATOM     83  C   UNL A   1      40.779  34.967  37.960  1.00  0.00     0.040 A 
ATOM     84  C   UNL A   1      39.043  33.396  37.416  1.00  0.00     0.040 A 
ATOM     85  F   UNL A   1      39.551  31.423  36.248  1.00  0.00    -0.206 F 
ATOM     86  C   UNL A   1      39.430  34.627  37.945  1.00  0.00     0.006 A 
ENDBRANCH  58  79
BRANCH  70  87
ATOM     87  C   UNL A   1      43.309  26.283  34.609  1.00  0.00     0.057 A 
ATOM     88  C   UNL A   1      44.564  25.658  34.582  1.00  0.00     0.134 A 
ATOM     89  C   UNL A   1      42.261  25.486  35.129  1.00  0.00     0.134 A 
ATOM     90  F   UNL A   1      45.671  26.320  34.223  1.00  0.00    -0.206 F 
ATOM     91  C   UNL A   1      44.754  24.328  34.986  1.00  0.00     0.040 A 
ATOM     92  C   UNL A   1      42.449  24.178  35.586  1.00  0.00     0.040 A 
ATOM     93  F   UNL A   1      41.008  25.953  35.241  1.00  0.00    -0.206 F 
ATOM     94  C   UNL A   1      43.698  23.587  35.501  1.00  0.00     0.006 A 
ENDBRANCH  70  87
ENDBRANCH  44  45
ENDBRANCH  36  39
ENDBRANCH  34  35
ENDBRANCH  33  34
ENDBRANCH  32  33
ENDBRANCH   1  32
TORSDOF 16
ENDMDL
MODEL 3
REMARK VINA RESULT:     -11.9      3.956      9.947
REMARK SMILES Cc1cccc(CC(=O)N2CCC3(CCC(=O)N([C@H](C)C(=O)NCCCCCCNC(=O)c4ccc(-c5c6nc(c(-c7c(F)cccc7F)c7ccc([nH]7)c(-c7c(F)cccc7F)c7nc(c(-c8c(F)cccc8F)c8ccc5[nH]8)C=C7)C=C6)cc4)C3)CC2)c1
REMARK SMILES IDX 26 1 25 2 24 3 23 4 21 5 22 6 19 8 20 9 18 10 8 11 9 12
REMARK SMILES IDX 10 13 11 14 89 15 12 16 88 17 13 18 14 19 87 20 15 21 16 22
REMARK SMILES IDX 17 23 7 24 6 25 1 26 2 27 3 28 90 29 4 30 5 31 27 32 28 33
REMARK SMILES IDX 29 34 30 35 31 36 32 38 33 39 34 40 86 41 35 42 85 43 36 44
REMARK SMILES IDX 37 45 38 46 79 47 39 48 84 49 78 50 80 51 40 52 83 53 77 54
REMARK SMILES IDX 76 55 41 57 67 58 50 59 66 60 51 61 54 62 65 63 81 64 52 65
REMARK SMILES IDX 53 66 64 68 82 69 55 70 42 71 43 72 48 73 44 74 45 75 47 76
REMARK SMILES IDX 49 77 46 78 68 79 69 80 74 81 70 82 71 83 73 84 75 85 72 86
REMARK SMILES IDX 56 87 57 88 62 89 58 90 59 91 61 92 63 93 60 94
REMARK H PARENT 23 7 30 37 80 56 54 67
REMARK Flexibility Score: inf
ROOT
ATOM      1  C   UNL A   1      40.363  19.965  26.119  1.00  0.00     0.002 C 
ENDROOT
BRANCH   1   2
ATOM      2  C   UNL A   1      39.232  20.943  25.777  1.00  0.00     0.021 C 
BRANCH   2   3
ATOM      3  C   UNL A   1      37.926  20.319  25.300  1.00  0.00     0.116 C 
BRANCH   3   4
ATOM      4  N   UNL A   1      37.275  21.013  24.210  1.00  0.00    -0.354 N 
ATOM      5  C   UNL A   1      36.554  22.178  24.252  1.00  0.00     0.242 C 
ATOM      6  O   UNL A   1      36.391  22.784  23.186  1.00  0.00    -0.273 OA
ATOM      7  H   UNL A   1      37.360  20.594  23.323  1.00  0.00     0.163 HD
BRANCH   5   8
ATOM      8  C   UNL A   1      35.930  22.728  25.567  1.00  0.00     0.171 C 
ATOM      9  C   UNL A   1      36.655  23.956  26.123  1.00  0.00     0.042 C 
BRANCH   8  10
ATOM     10  N   UNL A   1      34.465  22.866  25.671  1.00  0.00    -0.330 N 
ATOM     11  C   UNL A   1      31.635  28.554  24.051  1.00  0.00     0.226 C 
ATOM     12  O   UNL A   1      31.919  29.033  22.945  1.00  0.00    -0.275 OA
ATOM     13  N   UNL A   1      31.659  27.181  24.248  1.00  0.00    -0.342 N 
ATOM     14  C   UNL A   1      32.401  26.333  23.317  1.00  0.00     0.120 C 
ATOM     15  C   UNL A   1      30.945  26.437  25.275  1.00  0.00     0.120 C 
ATOM     16  C   UNL A   1      33.397  25.452  24.088  1.00  0.00     0.030 C 
ATOM     17  C   UNL A   1      31.937  25.677  26.138  1.00  0.00     0.030 C 
ATOM     18  C   UNL A   1      32.765  24.682  25.286  1.00  0.00    -0.008 C 
ATOM     19  C   UNL A   1      31.826  23.541  24.813  1.00  0.00     0.019 C 
ATOM     20  C   UNL A   1      33.883  24.095  26.184  1.00  0.00     0.127 C 
ATOM     21  C   UNL A   1      32.573  22.336  24.283  1.00  0.00     0.101 C 
ATOM     22  C   UNL A   1      33.599  21.869  25.280  1.00  0.00     0.223 C 
ATOM     23  O   UNL A   1      33.677  20.700  25.631  1.00  0.00    -0.275 OA
BRANCH  11  24
ATOM     24  C   UNL A   1      31.496  29.509  25.238  1.00  0.00     0.135 C 
BRANCH  24  25
ATOM     25  C   UNL A   1      32.680  29.727  26.141  1.00  0.00    -0.038 A 
ATOM     26  C   UNL A   1      34.029  32.504  28.387  1.00  0.00     0.044 C 
ATOM     27  C   UNL A   1      33.908  31.203  27.650  1.00  0.00    -0.051 A 
ATOM     28  C   UNL A   1      34.968  30.289  27.656  1.00  0.00     0.003 A 
ATOM     29  C   UNL A   1      32.759  30.903  26.912  1.00  0.00     0.007 A 
ATOM     30  C   UNL A   1      34.877  29.095  26.937  1.00  0.00     0.001 A 
ATOM     31  C   UNL A   1      33.738  28.811  26.183  1.00  0.00     0.004 A 
ENDBRANCH  24  25
ENDBRANCH  11  24
ENDBRANCH   8  10
ENDBRANCH   5   8
ENDBRANCH   3   4
ENDBRANCH   2   3
ENDBRANCH   1   2
BRANCH   1  32
ATOM     32  C   UNL A   1      41.642  20.530  26.763  1.00  0.00     0.002 C 
BRANCH  32  33
ATOM     33  C   UNL A   1      41.828  22.050  26.755  1.00  0.00     0.021 C 
BRANCH  33  34
ATOM     34  C   UNL A   1      42.494  22.620  25.513  1.00  0.00     0.116 C 
BRANCH  34  35
ATOM     35  N   UNL A   1      43.419  21.708  24.852  1.00  0.00    -0.352 N 
ATOM     36  C   UNL A   1      44.798  21.799  24.728  1.00  0.00     0.251 C 
ATOM     37  H   UNL A   1      43.007  20.917  24.434  1.00  0.00     0.163 HD
ATOM     38  O   UNL A   1      45.426  20.940  24.127  1.00  0.00    -0.269 OA
BRANCH  36  39
ATOM     39  C   UNL A   1      45.518  22.865  25.467  1.00  0.00     0.039 A 
ATOM     40  C   UNL A   1      45.642  22.711  26.852  1.00  0.00     0.014 A 
ATOM     41  C   UNL A   1      45.804  24.087  24.867  1.00  0.00     0.014 A 
ATOM     42  C   UNL A   1      45.751  23.844  27.651  1.00  0.00     0.010 A 
ATOM     43  C   UNL A   1      45.804  25.219  25.656  1.00  0.00     0.010 A 
ATOM     44  C   UNL A   1      45.683  25.096  27.045  1.00  0.00    -0.014 A 
BRANCH  44  45
ATOM     45  C   UNL A   1      45.281  26.299  27.768  1.00  0.00     0.031 A 
ATOM     46  C   UNL A   1      43.872  26.733  27.799  1.00  0.00     0.074 A 
ATOM     47  C   UNL A   1      46.209  26.944  28.511  1.00  0.00     0.049 A 
ATOM     48  N   UNL A   1      43.480  27.913  28.143  1.00  0.00    -0.248 NA
ATOM     49  C   UNL A   1      42.781  25.867  27.381  1.00  0.00     0.031 C 
ATOM     50  C   UNL A   1      45.980  27.938  29.555  1.00  0.00     0.029 A 
ATOM     51  N   UNL A   1      47.595  26.977  28.297  1.00  0.00    -0.354 N 
ATOM     52  C   UNL A   1      42.109  27.882  28.271  1.00  0.00     0.074 A 
ATOM     53  C   UNL A   1      41.721  26.611  27.708  1.00  0.00     0.031 C 
ATOM     54  C   UNL A   1      47.092  28.677  29.700  1.00  0.00     0.029 A 
ATOM     55  C   UNL A   1      48.007  28.281  28.642  1.00  0.00     0.049 A 
ATOM     56  H   UNL A   1      48.163  26.241  27.972  1.00  0.00     0.167 HD
ATOM     57  C   UNL A   1      41.489  28.882  28.968  1.00  0.00     0.037 A 
ATOM     58  C   UNL A   1      48.535  29.132  27.717  1.00  0.00     0.037 A 
ATOM     59  C   UNL A   1      42.433  29.953  29.298  1.00  0.00     0.049 A 
ATOM     60  C   UNL A   1      47.772  30.427  27.560  1.00  0.00     0.074 A 
ATOM     61  C   UNL A   1      43.134  30.274  30.449  1.00  0.00     0.029 A 
ATOM     62  N   UNL A   1      43.000  30.704  28.274  1.00  0.00    -0.354 N 
ATOM     63  N   UNL A   1      46.535  30.595  27.937  1.00  0.00    -0.248 NA
ATOM     64  C   UNL A   1      48.334  31.625  26.944  1.00  0.00     0.031 C 
ATOM     65  C   UNL A   1      44.164  31.184  30.102  1.00  0.00     0.029 A 
ATOM     66  C   UNL A   1      44.077  31.431  28.743  1.00  0.00     0.049 A 
ATOM     67  H   UNL A   1      42.678  30.717  27.343  1.00  0.00     0.167 HD
ATOM     68  C   UNL A   1      46.124  31.862  27.611  1.00  0.00     0.074 A 
ATOM     69  C   UNL A   1      47.295  32.475  27.014  1.00  0.00     0.031 C 
ATOM     70  C   UNL A   1      44.847  32.285  27.850  1.00  0.00     0.037 A 
BRANCH  57  71
ATOM     71  C   UNL A   1      40.121  28.744  29.612  1.00  0.00     0.057 A 
ATOM     72  C   UNL A   1      38.944  28.960  28.862  1.00  0.00     0.134 A 
ATOM     73  C   UNL A   1      39.882  28.484  30.973  1.00  0.00     0.134 A 
ATOM     74  F   UNL A   1      38.970  29.098  27.530  1.00  0.00    -0.206 F 
ATOM     75  C   UNL A   1      37.669  29.050  29.439  1.00  0.00     0.040 A 
ATOM     76  C   UNL A   1      38.620  28.619  31.574  1.00  0.00     0.040 A 
ATOM     77  F   UNL A   1      40.840  28.022  31.781  1.00  0.00    -0.206 F 
ATOM     78  C   UNL A   1      37.507  28.922  30.808  1.00  0.00     0.006 A 
ENDBRANCH  57  71
BRANCH  58  79
ATOM     79  C   UNL A   1      49.273  28.444  26.626  1.00  0.00     0.057 A 
ATOM     80  C   UNL A   1      50.602  28.047  26.855  1.00  0.00     0.134 A 
ATOM     81  C   UNL A   1      48.614  27.865  25.538  1.00  0.00     0.134 A 
ATOM     82  F   UNL A   1      51.292  28.564  27.885  1.00  0.00    -0.206 F 
ATOM     83  C   UNL A   1      51.213  27.040  26.104  1.00  0.00     0.040 A 
ATOM     84  C   UNL A   1      49.221  26.862  24.770  1.00  0.00     0.040 A 
ATOM     85  F   UNL A   1      47.337  28.172  25.271  1.00  0.00    -0.206 F 
ATOM     86  C   UNL A   1      50.509  26.423  25.075  1.00  0.00     0.006 A 
ENDBRANCH  58  79
BRANCH  70  87
ATOM     87  C   UNL A   1      44.215  33.563  27.345  1.00  0.00     0.057 A 
ATOM     88  C   UNL A   1      43.805  33.778  26.021  1.00  0.00     0.134 A 
ATOM     89  C   UNL A   1      43.858  34.589  28.251  1.00  0.00     0.134 A 
ATOM     90  F   UNL A   1      43.971  32.847  25.074  1.00  0.00    -0.206 F 
ATOM     91  C   UNL A   1      43.143  34.947  25.618  1.00  0.00     0.040 A 
ATOM     92  C   UNL A   1      43.149  35.733  27.871  1.00  0.00     0.040 A 
ATOM     93  F   UNL A   1      44.160  34.515  29.556  1.00  0.00    -0.206 F 
ATOM     94  C   UNL A   1      42.802  35.924  26.544  1.00  0.00     0.006 A 
ENDBRANCH  70  87
ENDBRANCH  44  45
ENDBRANCH  36  39
ENDBRANCH  34  35
ENDBRANCH  33  34
ENDBRANCH  32  33
ENDBRANCH   1  32
TORSDOF 16
ENDMDL
