MODEL 1
REMARK VINA RESULT:     -10.2      0.000      0.000
REMARK SMILES O=C(CN(CC(F)(F)F)C(=O)[C@H]1C[C@H]2CC[C@@H]1[NH2+]2)NCCCCCCNC(=O)c1ccc(-c2c3nc(c(-c4c(F)cccc4F)c4ccc([nH]4)c(-c4c(F)cccc4F)c4nc(c(-c5c(F)cccc5F)c5ccc2[nH]5)C=C4)C=C3)cc1
REMARK SMILES IDX 22 1 21 2 20 3 19 4 1 5 2 6 3 8 4 9 5 10 6 11 7 12 8 13 9 14
REMARK SMILES IDX 10 15 11 16 12 17 13 18 17 19 14 20 16 21 18 22 15 23 23 26
REMARK SMILES IDX 24 27 25 28 26 29 27 30 28 32 29 33 30 34 82 35 31 36 81 37
REMARK SMILES IDX 32 38 33 39 34 40 75 41 35 42 80 43 74 44 76 45 36 46 79 47
REMARK SMILES IDX 73 48 72 49 37 51 63 52 46 53 62 54 47 55 50 56 61 57 77 58
REMARK SMILES IDX 48 59 49 60 60 62 78 63 51 64 38 65 39 66 44 67 40 68 41 69
REMARK SMILES IDX 43 70 45 71 42 72 64 73 65 74 70 75 66 76 67 77 69 78 71 79
REMARK SMILES IDX 68 80 52 81 53 82 58 83 54 84 55 85 57 86 59 87 56 88
REMARK H PARENT 19 7 18 24 18 25 26 31 76 50 50 61
REMARK Flexibility Score: inf
ROOT
ATOM      1  C   UNL A   1      31.657  29.582  25.598  1.00  0.00     0.002 C 
ENDROOT
BRANCH   1   2
ATOM      2  C   UNL A   1      31.157  29.093  24.233  1.00  0.00     0.021 C 
BRANCH   2   3
ATOM      3  C   UNL A   1      32.248  28.546  23.313  1.00  0.00     0.116 C 
BRANCH   3   4
ATOM      4  N   UNL A   1      32.127  27.120  23.091  1.00  0.00    -0.355 N 
ATOM      5  O   UNL A   1      33.858  26.970  21.597  1.00  0.00    -0.273 OA
ATOM      6  C   UNL A   1      33.022  26.417  22.311  1.00  0.00     0.239 C 
ATOM      7  H   UNL A   1      31.382  26.636  23.512  1.00  0.00     0.163 HD
BRANCH   6   8
ATOM      8  C   UNL A   1      32.798  24.890  22.255  1.00  0.00     0.219 C 
BRANCH   8   9
ATOM      9  N   UNL A   1      32.991  24.154  23.525  1.00  0.00    -0.324 N 
BRANCH   9  10
ATOM     10  C   UNL A   1      31.801  24.024  24.391  1.00  0.00     0.235 C 
BRANCH  10  11
ATOM     11  C   UNL A   1      31.840  24.760  25.737  1.00  0.00     0.406 C 
ATOM     12  F   UNL A   1      30.726  25.488  25.952  1.00  0.00    -0.169 F 
ATOM     13  F   UNL A   1      31.938  23.865  26.747  1.00  0.00    -0.169 F 
ATOM     14  F   UNL A   1      32.903  25.585  25.813  1.00  0.00    -0.169 F 
ENDBRANCH  10  11
ENDBRANCH   9  10
BRANCH   9  15
ATOM     15  C   UNL A   1      34.165  23.411  23.612  1.00  0.00     0.232 C 
ATOM     16  O   UNL A   1      34.933  23.403  22.643  1.00  0.00    -0.274 OA
BRANCH  15  17
ATOM     17  C   UNL A   1      34.525  22.551  24.830  1.00  0.00     0.142 C 
ATOM     18  C   UNL A   1      35.548  21.445  24.447  1.00  0.00     0.084 C 
ATOM     19  C   UNL A   1      35.206  23.162  26.058  1.00  0.00     0.195 C 
ATOM     20  C   UNL A   1      36.629  21.575  25.522  1.00  0.00     0.183 C 
ATOM     21  C   UNL A   1      36.466  23.951  25.696  1.00  0.00     0.072 C 
ATOM     22  N   UNL A   1      35.797  21.955  26.673  1.00  0.00    -0.341 N 
ATOM     23  C   UNL A   1      37.451  22.849  25.305  1.00  0.00     0.071 C 
ATOM     24  H   UNL A   1      36.349  22.168  27.503  1.00  0.00     0.346 HD
ATOM     25  H   UNL A   1      35.147  21.251  27.025  1.00  0.00     0.346 HD
ENDBRANCH  15  17
ENDBRANCH   9  15
ENDBRANCH   8   9
ENDBRANCH   6   8
ENDBRANCH   3   4
ENDBRANCH   2   3
ENDBRANCH   1   2
BRANCH   1  26
ATOM     26  C   UNL A   1      31.542  28.576  26.748  1.00  0.00     0.002 C 
BRANCH  26  27
ATOM     27  C   UNL A   1      32.847  28.257  27.481  1.00  0.00     0.021 C 
BRANCH  27  28
ATOM     28  C   UNL A   1      34.014  29.192  27.167  1.00  0.00     0.116 C 
BRANCH  28  29
ATOM     29  N   UNL A   1      34.007  30.393  27.990  1.00  0.00    -0.352 N 
ATOM     30  C   UNL A   1      34.965  30.879  28.844  1.00  0.00     0.251 C 
ATOM     31  H   UNL A   1      33.191  30.940  27.922  1.00  0.00     0.163 HD
ATOM     32  O   UNL A   1      34.706  31.828  29.582  1.00  0.00    -0.269 OA
BRANCH  30  33
ATOM     33  C   UNL A   1      36.301  30.247  28.906  1.00  0.00     0.039 A 
ATOM     34  C   UNL A   1      37.119  30.286  27.773  1.00  0.00     0.014 A 
ATOM     35  C   UNL A   1      36.750  29.624  30.072  1.00  0.00     0.014 A 
ATOM     36  C   UNL A   1      38.417  29.774  27.838  1.00  0.00     0.010 A 
ATOM     37  C   UNL A   1      38.067  29.179  30.158  1.00  0.00     0.010 A 
ATOM     38  C   UNL A   1      38.918  29.260  29.045  1.00  0.00    -0.014 A 
BRANCH  38  39
ATOM     39  C   UNL A   1      40.339  28.842  29.174  1.00  0.00     0.031 A 
ATOM     40  C   UNL A   1      41.383  29.813  29.644  1.00  0.00     0.074 A 
ATOM     41  C   UNL A   1      40.702  27.603  28.785  1.00  0.00     0.049 A 
ATOM     42  N   UNL A   1      42.679  29.653  29.740  1.00  0.00    -0.248 NA
ATOM     43  C   UNL A   1      40.912  31.150  30.036  1.00  0.00     0.031 C 
ATOM     44  C   UNL A   1      39.794  26.584  28.259  1.00  0.00     0.029 A 
ATOM     45  N   UNL A   1      41.934  26.999  28.751  1.00  0.00    -0.354 N 
ATOM     46  C   UNL A   1      43.178  30.867  30.194  1.00  0.00     0.074 A 
ATOM     47  C   UNL A   1      42.051  31.771  30.298  1.00  0.00     0.031 C 
ATOM     48  C   UNL A   1      40.496  25.478  27.964  1.00  0.00     0.029 A 
ATOM     49  C   UNL A   1      41.908  25.725  28.240  1.00  0.00     0.049 A 
ATOM     50  H   UNL A   1      42.758  27.438  29.065  1.00  0.00     0.167 HD
ATOM     51  C   UNL A   1      44.453  31.194  30.513  1.00  0.00     0.037 A 
ATOM     52  C   UNL A   1      42.909  24.856  27.997  1.00  0.00     0.037 A 
ATOM     53  C   UNL A   1      45.571  30.291  30.409  1.00  0.00     0.049 A 
ATOM     54  C   UNL A   1      44.320  25.247  28.334  1.00  0.00     0.074 A 
ATOM     55  C   UNL A   1      46.892  30.509  30.762  1.00  0.00     0.029 A 
ATOM     56  N   UNL A   1      45.502  29.003  29.899  1.00  0.00    -0.354 N 
ATOM     57  N   UNL A   1      44.767  26.373  28.838  1.00  0.00    -0.248 NA
ATOM     58  C   UNL A   1      45.366  24.247  28.076  1.00  0.00     0.031 C 
ATOM     59  C   UNL A   1      47.631  29.374  30.413  1.00  0.00     0.029 A 
ATOM     60  C   UNL A   1      46.763  28.425  29.898  1.00  0.00     0.049 A 
ATOM     61  H   UNL A   1      44.679  28.563  29.586  1.00  0.00     0.167 HD
ATOM     62  C   UNL A   1      46.140  26.210  28.973  1.00  0.00     0.074 A 
ATOM     63  C   UNL A   1      46.449  24.871  28.518  1.00  0.00     0.031 C 
ATOM     64  C   UNL A   1      47.061  27.093  29.434  1.00  0.00     0.037 A 
BRANCH  51  65
ATOM     65  C   UNL A   1      44.705  32.593  31.001  1.00  0.00     0.057 A 
ATOM     66  C   UNL A   1      44.554  32.947  32.349  1.00  0.00     0.134 A 
ATOM     67  C   UNL A   1      45.120  33.597  30.116  1.00  0.00     0.134 A 
ATOM     68  F   UNL A   1      44.151  32.037  33.250  1.00  0.00    -0.206 F 
ATOM     69  C   UNL A   1      44.766  34.253  32.792  1.00  0.00     0.040 A 
ATOM     70  C   UNL A   1      45.365  34.900  30.552  1.00  0.00     0.040 A 
ATOM     71  F   UNL A   1      45.294  33.329  28.813  1.00  0.00    -0.206 F 
ATOM     72  C   UNL A   1      45.179  35.234  31.892  1.00  0.00     0.006 A 
ENDBRANCH  51  65
BRANCH  52  73
ATOM     73  C   UNL A   1      42.604  23.530  27.402  1.00  0.00     0.057 A 
ATOM     74  C   UNL A   1      42.140  22.471  28.189  1.00  0.00     0.134 A 
ATOM     75  C   UNL A   1      42.754  23.296  26.029  1.00  0.00     0.134 A 
ATOM     76  F   UNL A   1      41.993  22.627  29.513  1.00  0.00    -0.206 F 
ATOM     77  C   UNL A   1      41.850  21.222  27.636  1.00  0.00     0.040 A 
ATOM     78  C   UNL A   1      42.442  22.062  25.459  1.00  0.00     0.040 A 
ATOM     79  F   UNL A   1      43.185  24.274  25.219  1.00  0.00    -0.206 F 
ATOM     80  C   UNL A   1      41.994  21.018  26.265  1.00  0.00     0.006 A 
ENDBRANCH  52  73
BRANCH  64  81
ATOM     81  C   UNL A   1      48.490  26.632  29.488  1.00  0.00     0.057 A 
ATOM     82  C   UNL A   1      49.378  26.850  28.427  1.00  0.00     0.134 A 
ATOM     83  C   UNL A   1      48.993  26.003  30.634  1.00  0.00     0.134 A 
ATOM     84  F   UNL A   1      48.955  27.436  27.296  1.00  0.00    -0.206 F 
ATOM     85  C   UNL A   1      50.710  26.441  28.495  1.00  0.00     0.040 A 
ATOM     86  C   UNL A   1      50.332  25.614  30.725  1.00  0.00     0.040 A 
ATOM     87  F   UNL A   1      48.200  25.770  31.689  1.00  0.00    -0.206 F 
ATOM     88  C   UNL A   1      51.192  25.829  29.650  1.00  0.00     0.006 A 
ENDBRANCH  64  81
ENDBRANCH  38  39
ENDBRANCH  30  33
ENDBRANCH  28  29
ENDBRANCH  27  28
ENDBRANCH  26  27
ENDBRANCH   1  26
TORSDOF 18
ENDMDL
MODEL 2
REMARK VINA RESULT:     -10.2      4.847      7.305
REMARK SMILES O=C(CN(CC(F)(F)F)C(=O)[C@H]1C[C@H]2CC[C@@H]1[NH2+]2)NCCCCCCNC(=O)c1ccc(-c2c3nc(c(-c4c(F)cccc4F)c4ccc([nH]4)c(-c4c(F)cccc4F)c4nc(c(-c5c(F)cccc5F)c5ccc2[nH]5)C=C4)C=C3)cc1
REMARK SMILES IDX 22 1 21 2 20 3 19 4 1 5 2 6 3 8 4 9 5 10 6 11 7 12 8 13 9 14
REMARK SMILES IDX 10 15 11 16 12 17 13 18 17 19 14 20 16 21 18 22 15 23 23 26
REMARK SMILES IDX 24 27 25 28 26 29 27 30 28 32 29 33 30 34 82 35 31 36 81 37
REMARK SMILES IDX 32 38 33 39 34 40 75 41 35 42 80 43 74 44 76 45 36 46 79 47
REMARK SMILES IDX 73 48 72 49 37 51 63 52 46 53 62 54 47 55 50 56 61 57 77 58
REMARK SMILES IDX 48 59 49 60 60 62 78 63 51 64 38 65 39 66 44 67 40 68 41 69
REMARK SMILES IDX 43 70 45 71 42 72 64 73 65 74 70 75 66 76 67 77 69 78 71 79
REMARK SMILES IDX 68 80 52 81 53 82 58 83 54 84 55 85 57 86 59 87 56 88
REMARK H PARENT 19 7 18 24 18 25 26 31 76 50 50 61
REMARK Flexibility Score: inf
ROOT
ATOM      1  C   UNL A   1      34.466  32.323  29.539  1.00  0.00     0.002 C 
ENDROOT
BRANCH   1   2
ATOM      2  C   UNL A   1      34.939  31.247  28.553  1.00  0.00     0.021 C 
BRANCH   2   3
ATOM      3  C   UNL A   1      34.062  31.090  27.312  1.00  0.00     0.116 C 
BRANCH   3   4
ATOM      4  N   UNL A   1      33.175  29.947  27.397  1.00  0.00    -0.355 N 
ATOM      5  O   UNL A   1      34.239  28.706  25.792  1.00  0.00    -0.273 OA
ATOM      6  C   UNL A   1      33.398  28.786  26.686  1.00  0.00     0.239 C 
ATOM      7  H   UNL A   1      32.386  30.001  27.982  1.00  0.00     0.163 HD
BRANCH   6   8
ATOM      8  C   UNL A   1      32.406  27.636  26.964  1.00  0.00     0.219 C 
BRANCH   8   9
ATOM      9  N   UNL A   1      32.255  26.628  25.889  1.00  0.00    -0.324 N 
BRANCH   9  10
ATOM     10  C   UNL A   1      32.991  25.360  26.076  1.00  0.00     0.235 C 
BRANCH  10  11
ATOM     11  C   UNL A   1      34.118  25.061  25.078  1.00  0.00     0.406 C 
ATOM     12  F   UNL A   1      34.332  26.085  24.229  1.00  0.00    -0.169 F 
ATOM     13  F   UNL A   1      35.275  24.841  25.744  1.00  0.00    -0.169 F 
ATOM     14  F   UNL A   1      33.847  23.959  24.349  1.00  0.00    -0.169 F 
ENDBRANCH  10  11
ENDBRANCH   9  10
BRANCH   9  15
ATOM     15  C   UNL A   1      31.211  26.857  24.998  1.00  0.00     0.232 C 
ATOM     16  O   UNL A   1      30.082  26.449  25.294  1.00  0.00    -0.274 OA
BRANCH  15  17
ATOM     17  C   UNL A   1      31.403  27.538  23.637  1.00  0.00     0.142 C 
ATOM     18  C   UNL A   1      30.110  27.439  22.779  1.00  0.00     0.084 C 
ATOM     19  C   UNL A   1      31.704  29.036  23.536  1.00  0.00     0.195 C 
ATOM     20  C   UNL A   1      29.893  28.876  22.301  1.00  0.00     0.183 C 
ATOM     21  C   UNL A   1      30.695  29.888  24.309  1.00  0.00     0.072 C 
ATOM     22  N   UNL A   1      31.290  29.305  22.143  1.00  0.00    -0.341 N 
ATOM     23  C   UNL A   1      29.430  29.763  23.461  1.00  0.00     0.071 C 
ATOM     24  H   UNL A   1      31.372  30.290  21.893  1.00  0.00     0.346 HD
ATOM     25  H   UNL A   1      31.830  28.853  21.405  1.00  0.00     0.346 HD
ENDBRANCH  15  17
ENDBRANCH   9  15
ENDBRANCH   8   9
ENDBRANCH   6   8
ENDBRANCH   3   4
ENDBRANCH   2   3
ENDBRANCH   1   2
BRANCH   1  26
ATOM     26  C   UNL A   1      34.737  33.772  29.122  1.00  0.00     0.002 C 
BRANCH  26  27
ATOM     27  C   UNL A   1      33.496  34.639  28.899  1.00  0.00     0.021 C 
BRANCH  27  28
ATOM     28  C   UNL A   1      33.556  36.033  29.519  1.00  0.00     0.116 C 
BRANCH  28  29
ATOM     29  N   UNL A   1      32.560  36.226  30.564  1.00  0.00    -0.352 N 
ATOM     30  C   UNL A   1      32.539  35.761  31.855  1.00  0.00     0.251 C 
ATOM     31  H   UNL A   1      31.784  36.773  30.304  1.00  0.00     0.163 HD
ATOM     32  O   UNL A   1      31.526  35.891  32.539  1.00  0.00    -0.269 OA
BRANCH  30  33
ATOM     33  C   UNL A   1      33.721  35.075  32.421  1.00  0.00     0.039 A 
ATOM     34  C   UNL A   1      33.576  33.774  32.912  1.00  0.00     0.014 A 
ATOM     35  C   UNL A   1      34.967  35.704  32.466  1.00  0.00     0.014 A 
ATOM     36  C   UNL A   1      34.697  33.076  33.369  1.00  0.00     0.010 A 
ATOM     37  C   UNL A   1      36.094  34.984  32.853  1.00  0.00     0.010 A 
ATOM     38  C   UNL A   1      35.973  33.659  33.298  1.00  0.00    -0.014 A 
BRANCH  38  39
ATOM     39  C   UNL A   1      37.193  32.885  33.645  1.00  0.00     0.031 A 
ATOM     40  C   UNL A   1      37.954  33.179  34.907  1.00  0.00     0.074 A 
ATOM     41  C   UNL A   1      37.665  31.968  32.776  1.00  0.00     0.049 A 
ATOM     42  N   UNL A   1      39.080  32.665  35.333  1.00  0.00    -0.248 NA
ATOM     43  C   UNL A   1      37.385  34.203  35.796  1.00  0.00     0.031 C 
ATOM     44  C   UNL A   1      37.051  31.629  31.492  1.00  0.00     0.029 A 
ATOM     45  N   UNL A   1      38.781  31.171  32.831  1.00  0.00    -0.354 N 
ATOM     46  C   UNL A   1      39.359  33.307  36.532  1.00  0.00     0.074 A 
ATOM     47  C   UNL A   1      38.314  34.288  36.736  1.00  0.00     0.031 C 
ATOM     48  C   UNL A   1      37.791  30.687  30.886  1.00  0.00     0.029 A 
ATOM     49  C   UNL A   1      38.953  30.388  31.716  1.00  0.00     0.049 A 
ATOM     50  H   UNL A   1      39.400  31.162  33.598  1.00  0.00     0.167 HD
ATOM     51  C   UNL A   1      40.381  33.087  37.394  1.00  0.00     0.037 A 
ATOM     52  C   UNL A   1      39.945  29.538  31.386  1.00  0.00     0.037 A 
ATOM     53  C   UNL A   1      41.419  32.109  37.187  1.00  0.00     0.049 A 
ATOM     54  C   UNL A   1      41.083  29.327  32.344  1.00  0.00     0.074 A 
ATOM     55  C   UNL A   1      42.465  31.771  38.029  1.00  0.00     0.029 A 
ATOM     56  N   UNL A   1      41.550  31.324  36.052  1.00  0.00    -0.354 N 
ATOM     57  N   UNL A   1      41.292  29.884  33.513  1.00  0.00    -0.248 NA
ATOM     58  C   UNL A   1      42.120  28.365  31.942  1.00  0.00     0.031 C 
ATOM     59  C   UNL A   1      43.261  30.823  37.378  1.00  0.00     0.029 A 
ATOM     60  C   UNL A   1      42.679  30.525  36.156  1.00  0.00     0.049 A 
ATOM     61  H   UNL A   1      40.933  31.332  35.285  1.00  0.00     0.167 HD
ATOM     62  C   UNL A   1      42.471  29.329  33.994  1.00  0.00     0.074 A 
ATOM     63  C   UNL A   1      42.920  28.377  32.999  1.00  0.00     0.031 C 
ATOM     64  C   UNL A   1      43.122  29.586  35.155  1.00  0.00     0.037 A 
BRANCH  51  65
ATOM     65  C   UNL A   1      40.426  33.928  38.639  1.00  0.00     0.057 A 
ATOM     66  C   UNL A   1      41.177  35.109  38.709  1.00  0.00     0.134 A 
ATOM     67  C   UNL A   1      39.695  33.563  39.778  1.00  0.00     0.134 A 
ATOM     68  F   UNL A   1      41.907  35.514  37.657  1.00  0.00    -0.206 F 
ATOM     69  C   UNL A   1      41.233  35.874  39.875  1.00  0.00     0.040 A 
ATOM     70  C   UNL A   1      39.719  34.336  40.940  1.00  0.00     0.040 A 
ATOM     71  F   UNL A   1      38.946  32.450  39.780  1.00  0.00    -0.206 F 
ATOM     72  C   UNL A   1      40.497  35.490  40.995  1.00  0.00     0.006 A 
ENDBRANCH  51  65
BRANCH  52  73
ATOM     73  C   UNL A   1      39.899  28.826  30.083  1.00  0.00     0.057 A 
ATOM     74  C   UNL A   1      40.575  29.320  28.963  1.00  0.00     0.134 A 
ATOM     75  C   UNL A   1      39.191  27.627  29.933  1.00  0.00     0.134 A 
ATOM     76  F   UNL A   1      41.255  30.474  29.038  1.00  0.00    -0.206 F 
ATOM     77  C   UNL A   1      40.539  28.656  27.735  1.00  0.00     0.040 A 
ATOM     78  C   UNL A   1      39.169  26.938  28.720  1.00  0.00     0.040 A 
ATOM     79  F   UNL A   1      38.530  27.097  30.972  1.00  0.00    -0.206 F 
ATOM     80  C   UNL A   1      39.840  27.456  27.614  1.00  0.00     0.006 A 
ENDBRANCH  52  73
BRANCH  64  81
ATOM     81  C   UNL A   1      44.381  28.812  35.425  1.00  0.00     0.057 A 
ATOM     82  C   UNL A   1      44.360  27.563  36.059  1.00  0.00     0.134 A 
ATOM     83  C   UNL A   1      45.624  29.304  35.007  1.00  0.00     0.134 A 
ATOM     84  F   UNL A   1      43.204  27.042  36.496  1.00  0.00    -0.206 F 
ATOM     85  C   UNL A   1      45.532  26.840  36.284  1.00  0.00     0.040 A 
ATOM     86  C   UNL A   1      46.800  28.577  35.202  1.00  0.00     0.040 A 
ATOM     87  F   UNL A   1      45.715  30.490  34.388  1.00  0.00    -0.206 F 
ATOM     88  C   UNL A   1      46.756  27.343  35.847  1.00  0.00     0.006 A 
ENDBRANCH  64  81
ENDBRANCH  38  39
ENDBRANCH  30  33
ENDBRANCH  28  29
ENDBRANCH  27  28
ENDBRANCH  26  27
ENDBRANCH   1  26
TORSDOF 18
ENDMDL
MODEL 3
REMARK VINA RESULT:     -10.1      3.895      7.513
REMARK SMILES O=C(CN(CC(F)(F)F)C(=O)[C@H]1C[C@H]2CC[C@@H]1[NH2+]2)NCCCCCCNC(=O)c1ccc(-c2c3nc(c(-c4c(F)cccc4F)c4ccc([nH]4)c(-c4c(F)cccc4F)c4nc(c(-c5c(F)cccc5F)c5ccc2[nH]5)C=C4)C=C3)cc1
REMARK SMILES IDX 22 1 21 2 20 3 19 4 1 5 2 6 3 8 4 9 5 10 6 11 7 12 8 13 9 14
REMARK SMILES IDX 10 15 11 16 12 17 13 18 17 19 14 20 16 21 18 22 15 23 23 26
REMARK SMILES IDX 24 27 25 28 26 29 27 30 28 32 29 33 30 34 82 35 31 36 81 37
REMARK SMILES IDX 32 38 33 39 34 40 75 41 35 42 80 43 74 44 76 45 36 46 79 47
REMARK SMILES IDX 73 48 72 49 37 51 63 52 46 53 62 54 47 55 50 56 61 57 77 58
REMARK SMILES IDX 48 59 49 60 60 62 78 63 51 64 38 65 39 66 44 67 40 68 41 69
REMARK SMILES IDX 43 70 45 71 42 72 64 73 65 74 70 75 66 76 67 77 69 78 71 79
REMARK SMILES IDX 68 80 52 81 53 82 58 83 54 84 55 85 57 86 59 87 56 88
REMARK H PARENT 19 7 18 24 18 25 26 31 76 50 50 61
REMARK Flexibility Score: inf
ROOT
ATOM      1  C   UNL A   1      33.338  30.042  27.284  1.00  0.00     0.002 C 
ENDROOT
BRANCH   1   2
ATOM      2  C   UNL A   1      34.064  28.994  26.431  1.00  0.00     0.021 C 
BRANCH   2   3
ATOM      3  C   UNL A   1      33.346  28.615  25.137  1.00  0.00     0.116 C 
BRANCH   3   4
ATOM      4  N   UNL A   1      33.926  27.453  24.497  1.00  0.00    -0.355 N 
ATOM      5  O   UNL A   1      32.244  26.007  25.068  1.00  0.00    -0.273 OA
ATOM      6  C   UNL A   1      33.268  26.242  24.430  1.00  0.00     0.239 C 
ATOM      7  H   UNL A   1      34.821  27.529  24.096  1.00  0.00     0.163 HD
BRANCH   6   8
ATOM      8  C   UNL A   1      33.992  25.135  23.632  1.00  0.00     0.219 C 
BRANCH   8   9
ATOM      9  N   UNL A   1      34.398  23.936  24.400  1.00  0.00    -0.324 N 
BRANCH   9  10
ATOM     10  C   UNL A   1      35.267  24.173  25.571  1.00  0.00     0.235 C 
BRANCH  10  11
ATOM     11  C   UNL A   1      36.716  23.680  25.469  1.00  0.00     0.406 C 
ATOM     12  F   UNL A   1      37.145  23.620  24.193  1.00  0.00    -0.169 F 
ATOM     13  F   UNL A   1      37.538  24.528  26.131  1.00  0.00    -0.169 F 
ATOM     14  F   UNL A   1      36.858  22.457  26.019  1.00  0.00    -0.169 F 
ENDBRANCH  10  11
ENDBRANCH   9  10
BRANCH   9  15
ATOM     15  C   UNL A   1      33.674  22.779  24.125  1.00  0.00     0.232 C 
ATOM     16  O   UNL A   1      33.387  22.526  22.949  1.00  0.00    -0.274 OA
BRANCH  15  17
ATOM     17  C   UNL A   1      33.161  21.832  25.217  1.00  0.00     0.142 C 
ATOM     18  C   UNL A   1      32.110  20.839  24.644  1.00  0.00     0.084 C 
ATOM     19  C   UNL A   1      34.107  20.866  25.938  1.00  0.00     0.195 C 
ATOM     20  C   UNL A   1      32.598  19.479  25.146  1.00  0.00     0.183 C 
ATOM     21  C   UNL A   1      34.919  20.009  24.965  1.00  0.00     0.072 C 
ATOM     22  N   UNL A   1      33.144  19.871  26.453  1.00  0.00    -0.341 N 
ATOM     23  C   UNL A   1      33.867  19.055  24.400  1.00  0.00     0.071 C 
ATOM     24  H   UNL A   1      33.599  19.098  26.936  1.00  0.00     0.346 HD
ATOM     25  H   UNL A   1      32.476  20.195  27.153  1.00  0.00     0.346 HD
ENDBRANCH  15  17
ENDBRANCH   9  15
ENDBRANCH   8   9
ENDBRANCH   6   8
ENDBRANCH   3   4
ENDBRANCH   2   3
ENDBRANCH   1   2
BRANCH   1  26
ATOM     26  C   UNL A   1      31.871  30.291  26.923  1.00  0.00     0.002 C 
BRANCH  26  27
ATOM     27  C   UNL A   1      31.448  31.761  26.849  1.00  0.00     0.021 C 
BRANCH  27  28
ATOM     28  C   UNL A   1      32.589  32.756  26.653  1.00  0.00     0.116 C 
BRANCH  28  29
ATOM     29  N   UNL A   1      32.430  33.959  27.459  1.00  0.00    -0.352 N 
ATOM     30  C   UNL A   1      33.129  34.375  28.564  1.00  0.00     0.251 C 
ATOM     31  H   UNL A   1      31.711  34.564  27.165  1.00  0.00     0.163 HD
ATOM     32  O   UNL A   1      32.737  35.344  29.210  1.00  0.00    -0.269 OA
BRANCH  30  33
ATOM     33  C   UNL A   1      34.339  33.645  29.001  1.00  0.00     0.039 A 
ATOM     34  C   UNL A   1      35.596  34.157  28.665  1.00  0.00     0.014 A 
ATOM     35  C   UNL A   1      34.241  32.465  29.741  1.00  0.00     0.014 A 
ATOM     36  C   UNL A   1      36.750  33.532  29.143  1.00  0.00     0.010 A 
ATOM     37  C   UNL A   1      35.387  31.884  30.277  1.00  0.00     0.010 A 
ATOM     38  C   UNL A   1      36.654  32.418  29.993  1.00  0.00    -0.014 A 
BRANCH  38  39
ATOM     39  C   UNL A   1      37.861  31.826  30.626  1.00  0.00     0.031 A 
ATOM     40  C   UNL A   1      38.636  30.742  29.932  1.00  0.00     0.074 A 
ATOM     41  C   UNL A   1      38.211  32.210  31.870  1.00  0.00     0.049 A 
ATOM     42  N   UNL A   1      39.662  30.053  30.363  1.00  0.00    -0.248 NA
ATOM     43  C   UNL A   1      38.183  30.367  28.584  1.00  0.00     0.031 C 
ATOM     44  C   UNL A   1      37.510  33.212  32.673  1.00  0.00     0.029 A 
ATOM     45  N   UNL A   1      39.232  31.786  32.685  1.00  0.00    -0.354 N 
ATOM     46  C   UNL A   1      39.971  29.159  29.347  1.00  0.00     0.074 A 
ATOM     47  C   UNL A   1      38.988  29.355  28.302  1.00  0.00     0.031 C 
ATOM     48  C   UNL A   1      38.126  33.334  33.859  1.00  0.00     0.029 A 
ATOM     49  C   UNL A   1      39.237  32.390  33.918  1.00  0.00     0.049 A 
ATOM     50  H   UNL A   1      39.898  31.114  32.410  1.00  0.00     0.167 HD
ATOM     51  C   UNL A   1      40.992  28.270  29.280  1.00  0.00     0.037 A 
ATOM     52  C   UNL A   1      40.031  32.192  34.988  1.00  0.00     0.037 A 
ATOM     53  C   UNL A   1      41.968  28.079  30.323  1.00  0.00     0.049 A 
ATOM     54  C   UNL A   1      41.142  31.183  34.904  1.00  0.00     0.074 A 
ATOM     55  C   UNL A   1      43.073  27.245  30.326  1.00  0.00     0.029 A 
ATOM     56  N   UNL A   1      41.948  28.720  31.552  1.00  0.00    -0.354 N 
ATOM     57  N   UNL A   1      41.472  30.400  33.904  1.00  0.00    -0.248 NA
ATOM     58  C   UNL A   1      41.995  31.034  36.092  1.00  0.00     0.031 C 
ATOM     59  C   UNL A   1      43.688  27.339  31.579  1.00  0.00     0.029 A 
ATOM     60  C   UNL A   1      43.003  28.275  32.336  1.00  0.00     0.049 A 
ATOM     61  H   UNL A   1      41.284  29.392  31.828  1.00  0.00     0.167 HD
ATOM     62  C   UNL A   1      42.579  29.680  34.335  1.00  0.00     0.074 A 
ATOM     63  C   UNL A   1      42.876  30.133  35.678  1.00  0.00     0.031 C 
ATOM     64  C   UNL A   1      43.284  28.728  33.675  1.00  0.00     0.037 A 
BRANCH  51  65
ATOM     65  C   UNL A   1      41.096  27.432  28.037  1.00  0.00     0.057 A 
ATOM     66  C   UNL A   1      41.830  27.853  26.919  1.00  0.00     0.134 A 
ATOM     67  C   UNL A   1      40.471  26.181  27.961  1.00  0.00     0.134 A 
ATOM     68  F   UNL A   1      42.447  29.045  26.920  1.00  0.00    -0.206 F 
ATOM     69  C   UNL A   1      41.903  27.082  25.758  1.00  0.00     0.040 A 
ATOM     70  C   UNL A   1      40.563  25.386  26.817  1.00  0.00     0.040 A 
ATOM     71  F   UNL A   1      39.760  25.709  28.996  1.00  0.00    -0.206 F 
ATOM     72  C   UNL A   1      41.273  25.840  25.708  1.00  0.00     0.006 A 
ENDBRANCH  51  65
BRANCH  52  73
ATOM     73  C   UNL A   1      39.799  32.971  36.231  1.00  0.00     0.057 A 
ATOM     74  C   UNL A   1      40.450  34.188  36.456  1.00  0.00     0.134 A 
ATOM     75  C   UNL A   1      38.908  32.524  37.215  1.00  0.00     0.134 A 
ATOM     76  F   UNL A   1      41.330  34.661  35.560  1.00  0.00    -0.206 F 
ATOM     77  C   UNL A   1      40.235  34.928  37.622  1.00  0.00     0.040 A 
ATOM     78  C   UNL A   1      38.663  33.265  38.371  1.00  0.00     0.040 A 
ATOM     79  F   UNL A   1      38.245  31.370  37.053  1.00  0.00    -0.206 F 
ATOM     80  C   UNL A   1      39.333  34.469  38.579  1.00  0.00     0.006 A 
ENDBRANCH  52  73
BRANCH  64  81
ATOM     81  C   UNL A   1      44.461  28.125  34.388  1.00  0.00     0.057 A 
ATOM     82  C   UNL A   1      45.736  28.704  34.332  1.00  0.00     0.134 A 
ATOM     83  C   UNL A   1      44.307  26.977  35.175  1.00  0.00     0.134 A 
ATOM     84  F   UNL A   1      45.954  29.797  33.585  1.00  0.00    -0.206 F 
ATOM     85  C   UNL A   1      46.819  28.151  35.017  1.00  0.00     0.040 A 
ATOM     86  C   UNL A   1      45.377  26.431  35.888  1.00  0.00     0.040 A 
ATOM     87  F   UNL A   1      43.113  26.377  35.279  1.00  0.00    -0.206 F 
ATOM     88  C   UNL A   1      46.638  27.016  35.805  1.00  0.00     0.006 A 
ENDBRANCH  64  81
ENDBRANCH  38  39
ENDBRANCH  30  33
ENDBRANCH  28  29
ENDBRANCH  27  28
ENDBRANCH  26  27
ENDBRANCH   1  26
TORSDOF 18
ENDMDL
