MODEL 1
REMARK VINA RESULT:     -11.5      0.000      0.000
REMARK SMILES O=C(NCCCCCCNC(=O)[C@H]1CSCN1C(=O)c1occc1-c1ccccc1)c1ccc(-c2c3nc(c(-c4c(F)cccc4F)c4ccc([nH]4)c(-c4c(F)cccc4F)c4nc(c(-c5c(F)cccc5F)c5ccc2[nH]5)C=C4)C=C3)cc1
REMARK SMILES IDX 7 1 6 2 5 3 4 4 3 5 1 6 2 7 31 9 32 10 84 11 33 12 83 13
REMARK SMILES IDX 34 14 35 15 36 16 77 17 37 18 82 19 76 20 78 21 38 22 81 23
REMARK SMILES IDX 75 24 74 25 39 27 65 28 48 29 64 30 49 31 52 32 63 33 79 34
REMARK SMILES IDX 50 35 51 36 62 38 80 39 53 40 40 41 41 42 46 43 42 44 43 45
REMARK SMILES IDX 45 46 47 47 44 48 66 49 67 50 72 51 68 52 69 53 71 54 73 55
REMARK SMILES IDX 70 56 54 57 55 58 60 59 56 60 57 61 59 62 61 63 58 64 8 65
REMARK SMILES IDX 9 66 10 67 11 68 12 70 13 71 14 72 17 73 15 74 16 75 18 76
REMARK SMILES IDX 19 77 20 78 21 79 24 80 22 81 23 82 25 83 26 84 30 85 27 86
REMARK SMILES IDX 29 87 28 88
REMARK H PARENT 3 8 78 26 52 37 10 69
REMARK Flexibility Score: inf
ROOT
ATOM      1  C   UNL A   1      37.017  21.909  24.437  1.00  0.00     0.002 C 
ENDROOT
BRANCH   1   2
ATOM      2  C   UNL A   1      36.736  20.438  24.763  1.00  0.00     0.002 C 
BRANCH   2   3
ATOM      3  C   UNL A   1      37.921  19.494  24.961  1.00  0.00     0.021 C 
BRANCH   3   4
ATOM      4  C   UNL A   1      39.078  20.005  25.808  1.00  0.00     0.116 C 
BRANCH   4   5
ATOM      5  N   UNL A   1      40.255  19.159  25.747  1.00  0.00    -0.352 N 
ATOM      6  O   UNL A   1      42.442  18.619  25.766  1.00  0.00    -0.269 OA
ATOM      7  C   UNL A   1      41.572  19.459  25.995  1.00  0.00     0.251 C 
ATOM      8  H   UNL A   1      40.083  18.225  25.487  1.00  0.00     0.163 HD
BRANCH   7   9
ATOM      9  C   UNL A   1      41.966  20.788  26.517  1.00  0.00     0.039 A 
ATOM     10  C   UNL A   1      42.305  21.834  25.657  1.00  0.00     0.014 A 
ATOM     11  C   UNL A   1      41.952  21.007  27.900  1.00  0.00     0.014 A 
ATOM     12  C   UNL A   1      42.761  23.041  26.177  1.00  0.00     0.010 A 
ATOM     13  C   UNL A   1      42.318  22.256  28.419  1.00  0.00     0.010 A 
ATOM     14  C   UNL A   1      42.747  23.279  27.562  1.00  0.00    -0.014 A 
BRANCH  14  15
ATOM     15  C   UNL A   1      43.090  24.637  28.062  1.00  0.00     0.031 A 
ATOM     16  C   UNL A   1      44.516  25.073  28.260  1.00  0.00     0.074 A 
ATOM     17  C   UNL A   1      42.083  25.504  28.297  1.00  0.00     0.049 A 
ATOM     18  N   UNL A   1      44.973  26.247  28.624  1.00  0.00    -0.248 NA
ATOM     19  C   UNL A   1      45.565  24.070  28.027  1.00  0.00     0.031 C 
ATOM     20  C   UNL A   1      40.657  25.187  28.175  1.00  0.00     0.029 A 
ATOM     21  N   UNL A   1      42.097  26.825  28.662  1.00  0.00    -0.354 N 
ATOM     22  C   UNL A   1      46.356  26.125  28.664  1.00  0.00     0.074 A 
ATOM     23  C   UNL A   1      46.664  24.752  28.324  1.00  0.00     0.031 C 
ATOM     24  C   UNL A   1      39.938  26.293  28.405  1.00  0.00     0.029 A 
ATOM     25  C   UNL A   1      40.844  27.380  28.756  1.00  0.00     0.049 A 
ATOM     26  H   UNL A   1      42.925  27.328  28.841  1.00  0.00     0.167 HD
ATOM     27  C   UNL A   1      47.282  27.075  28.944  1.00  0.00     0.037 A 
ATOM     28  C   UNL A   1      40.458  28.622  29.101  1.00  0.00     0.037 A 
ATOM     29  C   UNL A   1      46.970  28.441  29.289  1.00  0.00     0.049 A 
ATOM     30  C   UNL A   1      41.508  29.644  29.431  1.00  0.00     0.074 A 
ATOM     31  C   UNL A   1      47.841  29.479  29.574  1.00  0.00     0.029 A 
ATOM     32  N   UNL A   1      45.688  28.958  29.401  1.00  0.00    -0.354 N 
ATOM     33  N   UNL A   1      42.813  29.522  29.417  1.00  0.00    -0.248 NA
ATOM     34  C   UNL A   1      41.030  30.977  29.821  1.00  0.00     0.031 C 
ATOM     35  C   UNL A   1      47.087  30.610  29.902  1.00  0.00     0.029 A 
ATOM     36  C   UNL A   1      45.745  30.294  29.768  1.00  0.00     0.049 A 
ATOM     37  H   UNL A   1      44.858  28.452  29.243  1.00  0.00     0.167 HD
ATOM     38  C   UNL A   1      43.312  30.763  29.786  1.00  0.00     0.074 A 
ATOM     39  C   UNL A   1      42.170  31.633  29.977  1.00  0.00     0.031 C 
ATOM     40  C   UNL A   1      44.601  31.147  29.960  1.00  0.00     0.037 A 
BRANCH  27  41
ATOM     41  C   UNL A   1      48.731  26.680  28.892  1.00  0.00     0.057 A 
ATOM     42  C   UNL A   1      49.507  26.877  27.742  1.00  0.00     0.134 A 
ATOM     43  C   UNL A   1      49.377  26.169  30.026  1.00  0.00     0.134 A 
ATOM     44  F   UNL A   1      48.949  27.355  26.620  1.00  0.00    -0.206 F 
ATOM     45  C   UNL A   1      50.869  26.571  27.717  1.00  0.00     0.040 A 
ATOM     46  C   UNL A   1      50.744  25.882  30.021  1.00  0.00     0.040 A 
ATOM     47  F   UNL A   1      48.698  25.963  31.164  1.00  0.00    -0.206 F 
ATOM     48  C   UNL A   1      51.494  26.081  28.863  1.00  0.00     0.006 A 
ENDBRANCH  27  41
BRANCH  28  49
ATOM     49  C   UNL A   1      39.014  28.963  29.173  1.00  0.00     0.057 A 
ATOM     50  C   UNL A   1      38.329  29.478  28.068  1.00  0.00     0.134 A 
ATOM     51  C   UNL A   1      38.291  28.800  30.362  1.00  0.00     0.134 A 
ATOM     52  F   UNL A   1      38.969  29.673  26.905  1.00  0.00    -0.206 F 
ATOM     53  C   UNL A   1      36.984  29.847  28.149  1.00  0.00     0.040 A 
ATOM     54  C   UNL A   1      36.939  29.131  30.447  1.00  0.00     0.040 A 
ATOM     55  F   UNL A   1      38.887  28.300  31.455  1.00  0.00    -0.206 F 
ATOM     56  C   UNL A   1      36.285  29.668  29.341  1.00  0.00     0.006 A 
ENDBRANCH  28  49
BRANCH  40  57
ATOM     57  C   UNL A   1      44.831  32.577  30.357  1.00  0.00     0.057 A 
ATOM     58  C   UNL A   1      44.982  33.594  29.405  1.00  0.00     0.134 A 
ATOM     59  C   UNL A   1      44.909  32.940  31.708  1.00  0.00     0.134 A 
ATOM     60  F   UNL A   1      44.934  33.311  28.094  1.00  0.00    -0.206 F 
ATOM     61  C   UNL A   1      45.242  34.913  29.782  1.00  0.00     0.040 A 
ATOM     62  C   UNL A   1      45.137  34.260  32.097  1.00  0.00     0.040 A 
ATOM     63  F   UNL A   1      44.765  32.018  32.672  1.00  0.00    -0.206 F 
ATOM     64  C   UNL A   1      45.316  35.250  31.131  1.00  0.00     0.006 A 
ENDBRANCH  40  57
ENDBRANCH  14  15
ENDBRANCH   7   9
ENDBRANCH   4   5
ENDBRANCH   3   4
ENDBRANCH   2   3
ENDBRANCH   1   2
BRANCH   1  65
ATOM     65  C   UNL A   1      37.233  22.891  25.590  1.00  0.00     0.021 C 
BRANCH  65  66
ATOM     66  C   UNL A   1      36.243  24.038  25.742  1.00  0.00     0.116 C 
BRANCH  66  67
ATOM     67  N   UNL A   1      35.405  24.240  24.590  1.00  0.00    -0.354 N 
ATOM     68  C   UNL A   1      34.046  24.303  24.527  1.00  0.00     0.243 C 
ATOM     69  H   UNL A   1      35.877  24.346  23.733  1.00  0.00     0.163 HD
ATOM     70  O   UNL A   1      33.559  24.522  23.409  1.00  0.00    -0.273 OA
BRANCH  68  71
ATOM     71  C   UNL A   1      33.101  23.904  25.696  1.00  0.00     0.185 C 
ATOM     72  C   UNL A   1      32.255  25.156  26.004  1.00  0.00     0.106 C 
ATOM     73  N   UNL A   1      32.215  22.720  25.651  1.00  0.00    -0.314 N 
ATOM     74  S   UNL A   1      30.546  24.612  26.241  1.00  0.00    -0.138 SA
ATOM     75  C   UNL A   1      31.016  22.895  26.430  1.00  0.00     0.191 C 
BRANCH  73  76
ATOM     76  C   UNL A   1      32.788  21.468  25.428  1.00  0.00     0.291 C 
ATOM     77  O   UNL A   1      33.472  20.975  26.329  1.00  0.00    -0.265 OA
BRANCH  76  78
ATOM     78  C   UNL A   1      32.618  20.760  24.157  1.00  0.00     0.199 A 
ATOM     79  O   UNL A   1      32.047  21.531  23.163  1.00  0.00    -0.459 OA
ATOM     80  C   UNL A   1      32.783  19.468  23.650  1.00  0.00     0.033 A 
ATOM     81  C   UNL A   1      31.843  20.759  22.076  1.00  0.00     0.196 A 
ATOM     82  C   UNL A   1      32.283  19.486  22.312  1.00  0.00     0.051 A 
BRANCH  80  83
ATOM     83  C   UNL A   1      33.223  18.268  24.339  1.00  0.00    -0.014 A 
ATOM     84  C   UNL A   1      34.503  17.748  24.108  1.00  0.00     0.009 A 
ATOM     85  C   UNL A   1      32.338  17.547  25.137  1.00  0.00     0.009 A 
ATOM     86  C   UNL A   1      34.905  16.558  24.721  1.00  0.00     0.001 A 
ATOM     87  C   UNL A   1      32.737  16.355  25.749  1.00  0.00     0.001 A 
ATOM     88  C   UNL A   1      34.024  15.866  25.549  1.00  0.00     0.000 A 
ENDBRANCH  80  83
ENDBRANCH  76  78
ENDBRANCH  73  76
ENDBRANCH  68  71
ENDBRANCH  66  67
ENDBRANCH  65  66
ENDBRANCH   1  65
TORSDOF 16
ENDMDL
MODEL 2
REMARK VINA RESULT:     -11.4      4.068      8.933
REMARK SMILES O=C(NCCCCCCNC(=O)[C@H]1CSCN1C(=O)c1occc1-c1ccccc1)c1ccc(-c2c3nc(c(-c4c(F)cccc4F)c4ccc([nH]4)c(-c4c(F)cccc4F)c4nc(c(-c5c(F)cccc5F)c5ccc2[nH]5)C=C4)C=C3)cc1
REMARK SMILES IDX 7 1 6 2 5 3 4 4 3 5 1 6 2 7 31 9 32 10 84 11 33 12 83 13
REMARK SMILES IDX 34 14 35 15 36 16 77 17 37 18 82 19 76 20 78 21 38 22 81 23
REMARK SMILES IDX 75 24 74 25 39 27 65 28 48 29 64 30 49 31 52 32 63 33 79 34
REMARK SMILES IDX 50 35 51 36 62 38 80 39 53 40 40 41 41 42 46 43 42 44 43 45
REMARK SMILES IDX 45 46 47 47 44 48 66 49 67 50 72 51 68 52 69 53 71 54 73 55
REMARK SMILES IDX 70 56 54 57 55 58 60 59 56 60 57 61 59 62 61 63 58 64 8 65
REMARK SMILES IDX 9 66 10 67 11 68 12 70 13 71 14 72 17 73 15 74 16 75 18 76
REMARK SMILES IDX 19 77 20 78 21 79 24 80 22 81 23 82 25 83 26 84 30 85 27 86
REMARK SMILES IDX 29 87 28 88
REMARK H PARENT 3 8 78 26 52 37 10 69
REMARK Flexibility Score: inf
ROOT
ATOM      1  C   UNL A   1      31.862  28.760  26.126  1.00  0.00     0.002 C 
ENDROOT
BRANCH   1   2
ATOM      2  C   UNL A   1      31.386  29.969  25.313  1.00  0.00     0.002 C 
BRANCH   2   3
ATOM      3  C   UNL A   1      31.157  31.293  26.039  1.00  0.00     0.021 C 
BRANCH   3   4
ATOM      4  C   UNL A   1      32.308  31.830  26.878  1.00  0.00     0.116 C 
BRANCH   4   5
ATOM      5  N   UNL A   1      32.144  33.219  27.261  1.00  0.00    -0.352 N 
ATOM      6  O   UNL A   1      32.531  35.138  28.377  1.00  0.00    -0.269 OA
ATOM      7  C   UNL A   1      32.915  34.007  28.082  1.00  0.00     0.251 C 
ATOM      8  H   UNL A   1      31.359  33.668  26.873  1.00  0.00     0.163 HD
BRANCH   7   9
ATOM      9  C   UNL A   1      34.195  33.507  28.635  1.00  0.00     0.039 A 
ATOM     10  C   UNL A   1      34.224  32.661  29.745  1.00  0.00     0.014 A 
ATOM     11  C   UNL A   1      35.393  33.857  28.001  1.00  0.00     0.014 A 
ATOM     12  C   UNL A   1      35.443  32.283  30.299  1.00  0.00     0.010 A 
ATOM     13  C   UNL A   1      36.617  33.395  28.502  1.00  0.00     0.010 A 
ATOM     14  C   UNL A   1      36.655  32.621  29.670  1.00  0.00    -0.014 A 
BRANCH  14  15
ATOM     15  C   UNL A   1      37.924  32.062  30.208  1.00  0.00     0.031 A 
ATOM     16  C   UNL A   1      38.627  32.679  31.385  1.00  0.00     0.074 A 
ATOM     17  C   UNL A   1      38.419  30.943  29.638  1.00  0.00     0.049 A 
ATOM     18  N   UNL A   1      39.704  32.265  32.008  1.00  0.00    -0.248 NA
ATOM     19  C   UNL A   1      38.059  33.919  31.934  1.00  0.00     0.031 C 
ATOM     20  C   UNL A   1      37.846  30.272  28.468  1.00  0.00     0.029 A 
ATOM     21  N   UNL A   1      39.495  30.163  29.973  1.00  0.00    -0.354 N 
ATOM     22  C   UNL A   1      39.943  33.188  33.018  1.00  0.00     0.074 A 
ATOM     23  C   UNL A   1      38.921  34.207  32.902  1.00  0.00     0.031 C 
ATOM     24  C   UNL A   1      38.540  29.154  28.217  1.00  0.00     0.029 A 
ATOM     25  C   UNL A   1      39.646  29.062  29.163  1.00  0.00     0.049 A 
ATOM     26  H   UNL A   1      40.102  30.370  30.719  1.00  0.00     0.167 HD
ATOM     27  C   UNL A   1      40.915  33.178  33.962  1.00  0.00     0.037 A 
ATOM     28  C   UNL A   1      40.577  28.092  29.166  1.00  0.00     0.037 A 
ATOM     29  C   UNL A   1      41.936  32.163  34.070  1.00  0.00     0.049 A 
ATOM     30  C   UNL A   1      41.656  28.124  30.209  1.00  0.00     0.074 A 
ATOM     31  C   UNL A   1      42.955  32.061  35.002  1.00  0.00     0.029 A 
ATOM     32  N   UNL A   1      42.072  31.080  33.214  1.00  0.00    -0.354 N 
ATOM     33  N   UNL A   1      41.838  28.980  31.185  1.00  0.00    -0.248 NA
ATOM     34  C   UNL A   1      42.659  27.052  30.153  1.00  0.00     0.031 C 
ATOM     35  C   UNL A   1      43.732  30.942  34.685  1.00  0.00     0.029 A 
ATOM     36  C   UNL A   1      43.167  30.315  33.587  1.00  0.00     0.049 A 
ATOM     37  H   UNL A   1      41.478  30.883  32.453  1.00  0.00     0.167 HD
ATOM     38  C   UNL A   1      42.967  28.545  31.864  1.00  0.00     0.074 A 
ATOM     39  C   UNL A   1      43.404  27.328  31.213  1.00  0.00     0.031 C 
ATOM     40  C   UNL A   1      43.594  29.108  32.926  1.00  0.00     0.037 A 
BRANCH  27  41
ATOM     41  C   UNL A   1      40.933  34.298  34.964  1.00  0.00     0.057 A 
ATOM     42  C   UNL A   1      41.599  35.504  34.709  1.00  0.00     0.134 A 
ATOM     43  C   UNL A   1      40.213  34.200  36.163  1.00  0.00     0.134 A 
ATOM     44  F   UNL A   1      42.314  35.661  33.584  1.00  0.00    -0.206 F 
ATOM     45  C   UNL A   1      41.558  36.568  35.612  1.00  0.00     0.040 A 
ATOM     46  C   UNL A   1      40.144  35.266  37.063  1.00  0.00     0.040 A 
ATOM     47  F   UNL A   1      39.544  33.079  36.467  1.00  0.00    -0.206 F 
ATOM     48  C   UNL A   1      40.821  36.453  36.790  1.00  0.00     0.006 A 
ENDBRANCH  27  41
BRANCH  28  49
ATOM     49  C   UNL A   1      40.544  27.022  28.137  1.00  0.00     0.057 A 
ATOM     50  C   UNL A   1      41.292  27.118  26.959  1.00  0.00     0.134 A 
ATOM     51  C   UNL A   1      39.743  25.884  28.300  1.00  0.00     0.134 A 
ATOM     52  F   UNL A   1      42.066  28.190  26.735  1.00  0.00    -0.206 F 
ATOM     53  C   UNL A   1      41.223  26.138  25.966  1.00  0.00     0.040 A 
ATOM     54  C   UNL A   1      39.691  24.880  27.334  1.00  0.00     0.040 A 
ATOM     55  F   UNL A   1      39.010  25.726  29.413  1.00  0.00    -0.206 F 
ATOM     56  C   UNL A   1      40.423  25.012  26.156  1.00  0.00     0.006 A 
ENDBRANCH  28  49
BRANCH  40  57
ATOM     57  C   UNL A   1      44.803  28.392  33.455  1.00  0.00     0.057 A 
ATOM     58  C   UNL A   1      44.702  27.388  34.427  1.00  0.00     0.134 A 
ATOM     59  C   UNL A   1      46.084  28.713  32.989  1.00  0.00     0.134 A 
ATOM     60  F   UNL A   1      43.505  27.043  34.927  1.00  0.00    -0.206 F 
ATOM     61  C   UNL A   1      45.835  26.759  34.946  1.00  0.00     0.040 A 
ATOM     62  C   UNL A   1      47.222  28.070  33.478  1.00  0.00     0.040 A 
ATOM     63  F   UNL A   1      46.253  29.659  32.052  1.00  0.00    -0.206 F 
ATOM     64  C   UNL A   1      47.099  27.097  34.469  1.00  0.00     0.006 A 
ENDBRANCH  40  57
ENDBRANCH  14  15
ENDBRANCH   7   9
ENDBRANCH   4   5
ENDBRANCH   3   4
ENDBRANCH   2   3
ENDBRANCH   1   2
BRANCH   1  65
ATOM     65  C   UNL A   1      31.280  27.382  25.805  1.00  0.00     0.021 C 
BRANCH  65  66
ATOM     66  C   UNL A   1      32.019  26.159  26.331  1.00  0.00     0.116 C 
BRANCH  66  67
ATOM     67  N   UNL A   1      31.155  25.146  26.876  1.00  0.00    -0.354 N 
ATOM     68  C   UNL A   1      31.284  23.792  26.811  1.00  0.00     0.243 C 
ATOM     69  H   UNL A   1      30.363  25.477  27.359  1.00  0.00     0.163 HD
ATOM     70  O   UNL A   1      30.415  23.131  27.397  1.00  0.00    -0.273 OA
BRANCH  68  71
ATOM     71  C   UNL A   1      32.296  23.057  25.888  1.00  0.00     0.185 C 
ATOM     72  C   UNL A   1      32.855  21.884  26.719  1.00  0.00     0.106 C 
ATOM     73  N   UNL A   1      31.950  22.570  24.535  1.00  0.00    -0.314 N 
ATOM     74  S   UNL A   1      32.902  20.430  25.644  1.00  0.00    -0.138 SA
ATOM     75  C   UNL A   1      32.707  21.404  24.155  1.00  0.00     0.191 C 
BRANCH  73  76
ATOM     76  C   UNL A   1      31.464  23.485  23.601  1.00  0.00     0.291 C 
ATOM     77  O   UNL A   1      30.342  23.288  23.127  1.00  0.00    -0.265 OA
BRANCH  76  78
ATOM     78  C   UNL A   1      32.261  24.632  23.163  1.00  0.00     0.199 A 
ATOM     79  O   UNL A   1      31.544  25.559  22.431  1.00  0.00    -0.459 OA
ATOM     80  C   UNL A   1      33.595  25.049  23.186  1.00  0.00     0.033 A 
ATOM     81  C   UNL A   1      32.390  26.516  21.993  1.00  0.00     0.196 A 
ATOM     82  C   UNL A   1      33.659  26.260  22.432  1.00  0.00     0.051 A 
BRANCH  80  83
ATOM     83  C   UNL A   1      34.756  24.357  23.716  1.00  0.00    -0.014 A 
ATOM     84  C   UNL A   1      35.385  23.354  22.967  1.00  0.00     0.009 A 
ATOM     85  C   UNL A   1      35.182  24.588  25.022  1.00  0.00     0.009 A 
ATOM     86  C   UNL A   1      36.463  22.642  23.501  1.00  0.00     0.001 A 
ATOM     87  C   UNL A   1      36.258  23.875  25.559  1.00  0.00     0.001 A 
ATOM     88  C   UNL A   1      36.905  22.910  24.795  1.00  0.00     0.000 A 
ENDBRANCH  80  83
ENDBRANCH  76  78
ENDBRANCH  73  76
ENDBRANCH  68  71
ENDBRANCH  66  67
ENDBRANCH  65  66
ENDBRANCH   1  65
TORSDOF 16
ENDMDL
MODEL 3
REMARK VINA RESULT:     -11.4      1.038      2.359
REMARK SMILES O=C(NCCCCCCNC(=O)[C@H]1CSCN1C(=O)c1occc1-c1ccccc1)c1ccc(-c2c3nc(c(-c4c(F)cccc4F)c4ccc([nH]4)c(-c4c(F)cccc4F)c4nc(c(-c5c(F)cccc5F)c5ccc2[nH]5)C=C4)C=C3)cc1
REMARK SMILES IDX 7 1 6 2 5 3 4 4 3 5 1 6 2 7 31 9 32 10 84 11 33 12 83 13
REMARK SMILES IDX 34 14 35 15 36 16 77 17 37 18 82 19 76 20 78 21 38 22 81 23
REMARK SMILES IDX 75 24 74 25 39 27 65 28 48 29 64 30 49 31 52 32 63 33 79 34
REMARK SMILES IDX 50 35 51 36 62 38 80 39 53 40 40 41 41 42 46 43 42 44 43 45
REMARK SMILES IDX 45 46 47 47 44 48 66 49 67 50 72 51 68 52 69 53 71 54 73 55
REMARK SMILES IDX 70 56 54 57 55 58 60 59 56 60 57 61 59 62 61 63 58 64 8 65
REMARK SMILES IDX 9 66 10 67 11 68 12 70 13 71 14 72 17 73 15 74 16 75 18 76
REMARK SMILES IDX 19 77 20 78 21 79 24 80 22 81 23 82 25 83 26 84 30 85 27 86
REMARK SMILES IDX 29 87 28 88
REMARK H PARENT 3 8 78 26 52 37 10 69
REMARK Flexibility Score: inf
ROOT
ATOM      1  C   UNL A   1      36.385  21.637  24.226  1.00  0.00     0.002 C 
ENDROOT
BRANCH   1   2
ATOM      2  C   UNL A   1      36.533  20.304  24.967  1.00  0.00     0.002 C 
BRANCH   2   3
ATOM      3  C   UNL A   1      37.860  19.553  24.862  1.00  0.00     0.021 C 
BRANCH   3   4
ATOM      4  C   UNL A   1      39.004  20.044  25.738  1.00  0.00     0.116 C 
BRANCH   4   5
ATOM      5  N   UNL A   1      40.129  19.130  25.783  1.00  0.00    -0.352 N 
ATOM      6  O   UNL A   1      42.278  18.468  25.932  1.00  0.00    -0.269 OA
ATOM      7  C   UNL A   1      41.451  19.370  26.069  1.00  0.00     0.251 C 
ATOM      8  H   UNL A   1      39.913  18.192  25.577  1.00  0.00     0.163 HD
BRANCH   7   9
ATOM      9  C   UNL A   1      41.903  20.706  26.521  1.00  0.00     0.039 A 
ATOM     10  C   UNL A   1      42.176  21.727  25.608  1.00  0.00     0.014 A 
ATOM     11  C   UNL A   1      42.014  20.958  27.894  1.00  0.00     0.014 A 
ATOM     12  C   UNL A   1      42.688  22.940  26.055  1.00  0.00     0.010 A 
ATOM     13  C   UNL A   1      42.436  22.215  28.347  1.00  0.00     0.010 A 
ATOM     14  C   UNL A   1      42.799  23.212  27.431  1.00  0.00    -0.014 A 
BRANCH  14  15
ATOM     15  C   UNL A   1      43.198  24.577  27.864  1.00  0.00     0.031 A 
ATOM     16  C   UNL A   1      44.638  25.013  27.888  1.00  0.00     0.074 A 
ATOM     17  C   UNL A   1      42.226  25.450  28.199  1.00  0.00     0.049 A 
ATOM     18  N   UNL A   1      45.135  26.191  28.176  1.00  0.00    -0.248 NA
ATOM     19  C   UNL A   1      45.652  24.003  27.551  1.00  0.00     0.031 C 
ATOM     20  C   UNL A   1      40.795  25.135  28.249  1.00  0.00     0.029 A 
ATOM     21  N   UNL A   1      42.283  26.777  28.538  1.00  0.00    -0.354 N 
ATOM     22  C   UNL A   1      46.513  26.066  28.058  1.00  0.00     0.074 A 
ATOM     23  C   UNL A   1      46.779  24.687  27.708  1.00  0.00     0.031 C 
ATOM     24  C   UNL A   1      40.108  26.247  28.542  1.00  0.00     0.029 A 
ATOM     25  C   UNL A   1      41.049  27.337  28.767  1.00  0.00     0.049 A 
ATOM     26  H   UNL A   1      43.126  27.281  28.611  1.00  0.00     0.167 HD
ATOM     27  C   UNL A   1      47.465  27.018  28.212  1.00  0.00     0.037 A 
ATOM     28  C   UNL A   1      40.707  28.586  29.133  1.00  0.00     0.037 A 
ATOM     29  C   UNL A   1      47.197  28.391  28.568  1.00  0.00     0.049 A 
ATOM     30  C   UNL A   1      41.788  29.610  29.322  1.00  0.00     0.074 A 
ATOM     31  C   UNL A   1      48.096  29.431  28.733  1.00  0.00     0.029 A 
ATOM     32  N   UNL A   1      45.936  28.913  28.819  1.00  0.00    -0.354 N 
ATOM     33  N   UNL A   1      43.083  29.485  29.159  1.00  0.00    -0.248 NA
ATOM     34  C   UNL A   1      41.360  30.950  29.742  1.00  0.00     0.031 C 
ATOM     35  C   UNL A   1      47.385  30.570  29.126  1.00  0.00     0.029 A 
ATOM     36  C   UNL A   1      46.037  30.255  29.154  1.00  0.00     0.049 A 
ATOM     37  H   UNL A   1      45.094  28.406  28.767  1.00  0.00     0.167 HD
ATOM     38  C   UNL A   1      43.623  30.731  29.446  1.00  0.00     0.074 A 
ATOM     39  C   UNL A   1      42.511  31.606  29.754  1.00  0.00     0.031 C 
ATOM     40  C   UNL A   1      44.923  31.114  29.464  1.00  0.00     0.037 A 
BRANCH  27  41
ATOM     41  C   UNL A   1      48.899  26.619  27.999  1.00  0.00     0.057 A 
ATOM     42  C   UNL A   1      49.685  26.114  29.044  1.00  0.00     0.134 A 
ATOM     43  C   UNL A   1      49.475  26.664  26.723  1.00  0.00     0.134 A 
ATOM     44  F   UNL A   1      49.198  26.051  30.292  1.00  0.00    -0.206 F 
ATOM     45  C   UNL A   1      50.995  25.681  28.830  1.00  0.00     0.040 A 
ATOM     46  C   UNL A   1      50.776  26.211  26.491  1.00  0.00     0.040 A 
ATOM     47  F   UNL A   1      48.777  27.126  25.676  1.00  0.00    -0.206 F 
ATOM     48  C   UNL A   1      51.541  25.720  27.548  1.00  0.00     0.006 A 
ENDBRANCH  27  41
BRANCH  28  49
ATOM     49  C   UNL A   1      39.282  28.931  29.367  1.00  0.00     0.057 A 
ATOM     50  C   UNL A   1      38.684  28.759  30.620  1.00  0.00     0.134 A 
ATOM     51  C   UNL A   1      38.476  29.423  28.332  1.00  0.00     0.134 A 
ATOM     52  F   UNL A   1      39.398  28.277  31.649  1.00  0.00    -0.206 F 
ATOM     53  C   UNL A   1      37.331  29.035  30.829  1.00  0.00     0.040 A 
ATOM     54  C   UNL A   1      37.133  29.736  28.534  1.00  0.00     0.040 A 
ATOM     55  F   UNL A   1      38.991  29.621  27.109  1.00  0.00    -0.206 F 
ATOM     56  C   UNL A   1      36.553  29.529  29.785  1.00  0.00     0.006 A 
ENDBRANCH  28  49
BRANCH  40  57
ATOM     57  C   UNL A   1      45.199  32.550  29.807  1.00  0.00     0.057 A 
ATOM     58  C   UNL A   1      45.440  32.963  31.124  1.00  0.00     0.134 A 
ATOM     59  C   UNL A   1      45.217  33.532  28.809  1.00  0.00     0.134 A 
ATOM     60  F   UNL A   1      45.421  32.074  32.130  1.00  0.00    -0.206 F 
ATOM     61  C   UNL A   1      45.650  34.306  31.441  1.00  0.00     0.040 A 
ATOM     62  C   UNL A   1      45.456  34.874  29.109  1.00  0.00     0.040 A 
ATOM     63  F   UNL A   1      45.002  33.205  27.526  1.00  0.00    -0.206 F 
ATOM     64  C   UNL A   1      45.663  35.265  30.431  1.00  0.00     0.006 A 
ENDBRANCH  40  57
ENDBRANCH  14  15
ENDBRANCH   7   9
ENDBRANCH   4   5
ENDBRANCH   3   4
ENDBRANCH   2   3
ENDBRANCH   1   2
BRANCH   1  65
ATOM     65  C   UNL A   1      36.748  22.930  24.958  1.00  0.00     0.021 C 
BRANCH  65  66
ATOM     66  C   UNL A   1      35.746  24.076  24.915  1.00  0.00     0.116 C 
BRANCH  66  67
ATOM     67  N   UNL A   1      34.786  23.971  23.849  1.00  0.00    -0.354 N 
ATOM     68  C   UNL A   1      33.551  24.538  23.756  1.00  0.00     0.243 C 
ATOM     69  H   UNL A   1      35.058  23.414  23.084  1.00  0.00     0.163 HD
ATOM     70  O   UNL A   1      32.926  24.320  22.709  1.00  0.00    -0.273 OA
BRANCH  68  71
ATOM     71  C   UNL A   1      32.820  25.229  24.941  1.00  0.00     0.185 C 
ATOM     72  C   UNL A   1      32.812  26.737  24.614  1.00  0.00     0.106 C 
ATOM     73  N   UNL A   1      31.474  24.828  25.406  1.00  0.00    -0.314 N 
ATOM     74  S   UNL A   1      31.163  27.369  25.007  1.00  0.00    -0.138 SA
ATOM     75  C   UNL A   1      30.733  25.925  25.974  1.00  0.00     0.191 C 
BRANCH  73  76
ATOM     76  C   UNL A   1      31.273  23.504  25.798  1.00  0.00     0.291 C 
ATOM     77  O   UNL A   1      30.142  23.027  25.667  1.00  0.00    -0.265 OA
BRANCH  76  78
ATOM     78  C   UNL A   1      32.350  22.702  26.379  1.00  0.00     0.199 A 
ATOM     79  O   UNL A   1      33.028  23.338  27.402  1.00  0.00    -0.459 OA
ATOM     80  C   UNL A   1      32.983  21.477  26.149  1.00  0.00     0.033 A 
ATOM     81  C   UNL A   1      34.057  22.558  27.793  1.00  0.00     0.196 A 
ATOM     82  C   UNL A   1      34.075  21.400  27.066  1.00  0.00     0.051 A 
BRANCH  80  83
ATOM     83  C   UNL A   1      32.730  20.504  25.101  1.00  0.00    -0.014 A 
ATOM     84  C   UNL A   1      32.865  19.134  25.360  1.00  0.00     0.009 A 
ATOM     85  C   UNL A   1      32.476  20.920  23.796  1.00  0.00     0.009 A 
ATOM     86  C   UNL A   1      32.684  18.199  24.337  1.00  0.00     0.001 A 
ATOM     87  C   UNL A   1      32.297  19.986  22.771  1.00  0.00     0.001 A 
ATOM     88  C   UNL A   1      32.392  18.625  23.044  1.00  0.00     0.000 A 
ENDBRANCH  80  83
ENDBRANCH  76  78
ENDBRANCH  73  76
ENDBRANCH  68  71
ENDBRANCH  66  67
ENDBRANCH  65  66
ENDBRANCH   1  65
TORSDOF 16
ENDMDL
