MODEL 1
REMARK VINA RESULT:     -12.2      0.000      0.000
REMARK SMILES CCn1cc(C(=O)NCCCCCCNC(=O)c2ccc(-c3c4nc(c(-c5c(F)cccc5F)c5ccc([nH]5)c(-c5c(F)cccc5F)c5nc(c(-c6c(F)cccc6F)c6ccc3[nH]6)C=C5)C=C4)cc2)c(=O)c2cc(F)c(NC3CCCCC3)cc21
REMARK SMILES IDX 11 1 10 2 9 3 8 4 6 5 7 6 5 8 3 9 4 10 87 11 74 12 86 13
REMARK SMILES IDX 72 14 75 15 78 16 73 17 76 18 77 19 2 20 1 21 79 22 80 24
REMARK SMILES IDX 81 25 85 26 82 27 84 28 83 29 12 30 13 31 14 32 15 33 16 34
REMARK SMILES IDX 17 36 18 37 19 38 71 39 20 40 70 41 21 42 22 43 23 44 64 45
REMARK SMILES IDX 24 46 69 47 63 48 65 49 25 50 68 51 62 52 61 53 26 55 52 56
REMARK SMILES IDX 35 57 51 58 36 59 39 60 50 61 66 62 37 63 38 64 49 66 67 67
REMARK SMILES IDX 40 68 27 69 28 70 33 71 29 72 30 73 32 74 34 75 31 76 53 77
REMARK SMILES IDX 54 78 59 79 55 80 56 81 58 82 60 83 57 84 41 85 42 86 47 87
REMARK SMILES IDX 43 88 44 89 46 90 48 91 45 92
REMARK H PARENT 8 7 79 23 15 35 65 54 39 65
REMARK Flexibility Score: inf
ROOT
ATOM      1  C   UNL A   1      35.838  21.900  24.412  1.00  0.00     0.002 C 
ENDROOT
BRANCH   1   2
ATOM      2  C   UNL A   1      35.124  20.856  25.283  1.00  0.00     0.021 C 
BRANCH   2   3
ATOM      3  C   UNL A   1      33.598  20.982  25.221  1.00  0.00     0.116 C 
BRANCH   3   4
ATOM      4  N   UNL A   1      33.164  20.945  23.836  1.00  0.00    -0.352 N 
ATOM      5  C   UNL A   1      32.431  21.786  23.049  1.00  0.00     0.256 C 
ATOM      6  O   UNL A   1      32.095  21.342  21.951  1.00  0.00    -0.269 OA
ATOM      7  H   UNL A   1      33.462  20.136  23.361  1.00  0.00     0.163 HD
BRANCH   5   8
ATOM      8  C   UNL A   1      32.087  23.179  23.455  1.00  0.00     0.104 A 
ATOM      9  N   UNL A   1      30.754  24.726  24.795  1.00  0.00    -0.347 N 
ATOM     10  C   UNL A   1      31.065  23.486  24.264  1.00  0.00     0.104 A 
ATOM     11  C   UNL A   1      31.339  25.862  24.209  1.00  0.00     0.054 A 
ATOM     12  C   UNL A   1      32.330  25.713  23.228  1.00  0.00     0.050 A 
ATOM     13  C   UNL A   1      30.926  27.165  24.513  1.00  0.00     0.055 A 
ATOM     14  C   UNL A   1      32.857  24.353  22.934  1.00  0.00     0.202 A 
ATOM     15  C   UNL A   1      32.832  26.822  22.536  1.00  0.00     0.055 A 
ATOM     16  C   UNL A   1      31.354  28.295  23.808  1.00  0.00     0.073 A 
ATOM     17  O   UNL A   1      33.893  24.245  22.289  1.00  0.00    -0.288 OA
ATOM     18  C   UNL A   1      32.323  28.087  22.817  1.00  0.00     0.147 A 
ATOM     19  F   UNL A   1      32.770  29.133  22.103  1.00  0.00    -0.205 F 
BRANCH   9  20
ATOM     20  C   UNL A   1      29.852  24.849  25.954  1.00  0.00     0.119 C 
ATOM     21  C   UNL A   1      29.961  23.655  26.889  1.00  0.00     0.027 C 
ENDBRANCH   9  20
BRANCH  16  22
ATOM     22  N   UNL A   1      30.826  29.560  24.029  1.00  0.00    -0.380 N 
ATOM     23  H   UNL A   1      31.374  30.174  24.569  1.00  0.00     0.160 HD
BRANCH  22  24
ATOM     24  C   UNL A   1      29.542  30.089  23.550  1.00  0.00     0.079 C 
ATOM     25  C   UNL A   1      29.354  31.567  23.955  1.00  0.00     0.025 C 
ATOM     26  C   UNL A   1      29.339  29.737  22.065  1.00  0.00     0.025 C 
ATOM     27  C   UNL A   1      28.356  32.354  23.110  1.00  0.00     0.002 C 
ATOM     28  C   UNL A   1      28.254  30.557  21.382  1.00  0.00     0.002 C 
ATOM     29  C   UNL A   1      28.458  32.044  21.623  1.00  0.00     0.000 C 
ENDBRANCH  22  24
ENDBRANCH  16  22
ENDBRANCH   5   8
ENDBRANCH   3   4
ENDBRANCH   2   3
ENDBRANCH   1   2
BRANCH   1  30
ATOM     30  C   UNL A   1      37.343  21.660  24.239  1.00  0.00     0.002 C 
BRANCH  30  31
ATOM     31  C   UNL A   1      37.858  20.362  24.861  1.00  0.00     0.021 C 
BRANCH  31  32
ATOM     32  C   UNL A   1      38.907  20.572  25.946  1.00  0.00     0.116 C 
BRANCH  32  33
ATOM     33  N   UNL A   1      39.950  19.558  25.894  1.00  0.00    -0.352 N 
ATOM     34  C   UNL A   1      41.311  19.699  26.040  1.00  0.00     0.251 C 
ATOM     35  H   UNL A   1      39.637  18.640  25.730  1.00  0.00     0.163 HD
ATOM     36  O   UNL A   1      42.066  18.786  25.748  1.00  0.00    -0.269 OA
BRANCH  34  37
ATOM     37  C   UNL A   1      41.850  20.984  26.535  1.00  0.00     0.039 A 
ATOM     38  C   UNL A   1      41.866  21.260  27.903  1.00  0.00     0.014 A 
ATOM     39  C   UNL A   1      42.325  21.926  25.619  1.00  0.00     0.014 A 
ATOM     40  C   UNL A   1      42.192  22.536  28.342  1.00  0.00     0.010 A 
ATOM     41  C   UNL A   1      42.747  23.178  26.075  1.00  0.00     0.010 A 
ATOM     42  C   UNL A   1      42.638  23.510  27.433  1.00  0.00    -0.014 A 
BRANCH  42  43
ATOM     43  C   UNL A   1      42.980  24.866  27.939  1.00  0.00     0.031 A 
ATOM     44  C   UNL A   1      41.906  25.887  28.198  1.00  0.00     0.074 A 
ATOM     45  C   UNL A   1      44.266  25.150  28.222  1.00  0.00     0.049 A 
ATOM     46  N   UNL A   1      42.020  27.103  28.670  1.00  0.00    -0.248 NA
ATOM     47  C   UNL A   1      40.522  25.495  27.886  1.00  0.00     0.031 C 
ATOM     48  C   UNL A   1      45.397  24.241  28.022  1.00  0.00     0.029 A 
ATOM     49  N   UNL A   1      44.836  26.274  28.764  1.00  0.00    -0.354 N 
ATOM     50  C   UNL A   1      40.733  27.626  28.695  1.00  0.00     0.074 A 
ATOM     51  C   UNL A   1      39.856  26.608  28.156  1.00  0.00     0.031 C 
ATOM     52  C   UNL A   1      46.514  24.820  28.485  1.00  0.00     0.029 A 
ATOM     53  C   UNL A   1      46.192  26.163  28.950  1.00  0.00     0.049 A 
ATOM     54  H   UNL A   1      44.323  27.080  28.998  1.00  0.00     0.167 HD
ATOM     55  C   UNL A   1      40.317  28.838  29.138  1.00  0.00     0.037 A 
ATOM     56  C   UNL A   1      47.083  27.053  29.425  1.00  0.00     0.037 A 
ATOM     57  C   UNL A   1      41.192  29.848  29.677  1.00  0.00     0.049 A 
ATOM     58  C   UNL A   1      46.601  28.411  29.848  1.00  0.00     0.074 A 
ATOM     59  C   UNL A   1      40.866  31.101  30.167  1.00  0.00     0.029 A 
ATOM     60  N   UNL A   1      42.569  29.723  29.790  1.00  0.00    -0.354 N 
ATOM     61  N   UNL A   1      45.378  28.881  29.888  1.00  0.00    -0.248 NA
ATOM     62  C   UNL A   1      47.628  29.363  30.288  1.00  0.00     0.031 C 
ATOM     63  C   UNL A   1      42.051  31.751  30.531  1.00  0.00     0.029 A 
ATOM     64  C   UNL A   1      43.109  30.883  30.319  1.00  0.00     0.049 A 
ATOM     65  H   UNL A   1      43.086  28.925  29.532  1.00  0.00     0.167 HD
ATOM     66  C   UNL A   1      45.486  30.177  30.373  1.00  0.00     0.074 A 
ATOM     67  C   UNL A   1      46.891  30.406  30.640  1.00  0.00     0.031 C 
ATOM     68  C   UNL A   1      44.512  31.098  30.575  1.00  0.00     0.037 A 
BRANCH  55  69
ATOM     69  C   UNL A   1      38.849  29.144  29.035  1.00  0.00     0.057 A 
ATOM     70  C   UNL A   1      38.011  29.007  30.149  1.00  0.00     0.134 A 
ATOM     71  C   UNL A   1      38.259  29.558  27.833  1.00  0.00     0.134 A 
ATOM     72  F   UNL A   1      38.507  28.609  31.330  1.00  0.00    -0.206 F 
ATOM     73  C   UNL A   1      36.642  29.271  30.071  1.00  0.00     0.040 A 
ATOM     74  C   UNL A   1      36.896  29.852  27.749  1.00  0.00     0.040 A 
ATOM     75  F   UNL A   1      39.006  29.722  26.729  1.00  0.00    -0.206 F 
ATOM     76  C   UNL A   1      36.083  29.703  28.870  1.00  0.00     0.006 A 
ENDBRANCH  55  69
BRANCH  56  77
ATOM     77  C   UNL A   1      48.522  26.698  29.507  1.00  0.00     0.057 A 
ATOM     78  C   UNL A   1      49.069  26.138  30.668  1.00  0.00     0.134 A 
ATOM     79  C   UNL A   1      49.377  26.885  28.416  1.00  0.00     0.134 A 
ATOM     80  F   UNL A   1      48.303  25.939  31.751  1.00  0.00    -0.206 F 
ATOM     81  C   UNL A   1      50.416  25.783  30.743  1.00  0.00     0.040 A 
ATOM     82  C   UNL A   1      50.719  26.506  28.467  1.00  0.00     0.040 A 
ATOM     83  F   UNL A   1      48.907  27.400  27.270  1.00  0.00    -0.206 F 
ATOM     84  C   UNL A   1      51.243  25.956  29.636  1.00  0.00     0.006 A 
ENDBRANCH  56  77
BRANCH  68  85
ATOM     85  C   UNL A   1      44.939  32.420  31.140  1.00  0.00     0.057 A 
ATOM     86  C   UNL A   1      45.221  33.501  30.295  1.00  0.00     0.134 A 
ATOM     87  C   UNL A   1      45.068  32.629  32.520  1.00  0.00     0.134 A 
ATOM     88  F   UNL A   1      45.125  33.367  28.964  1.00  0.00    -0.206 F 
ATOM     89  C   UNL A   1      45.609  34.742  30.802  1.00  0.00     0.040 A 
ATOM     90  C   UNL A   1      45.425  33.874  33.040  1.00  0.00     0.040 A 
ATOM     91  F   UNL A   1      44.795  31.641  33.385  1.00  0.00    -0.206 F 
ATOM     92  C   UNL A   1      45.701  34.934  32.178  1.00  0.00     0.006 A 
ENDBRANCH  68  85
ENDBRANCH  42  43
ENDBRANCH  34  37
ENDBRANCH  32  33
ENDBRANCH  31  32
ENDBRANCH  30  31
ENDBRANCH   1  30
TORSDOF 16
ENDMDL
MODEL 2
REMARK VINA RESULT:     -12.2      1.226      6.178
REMARK SMILES CCn1cc(C(=O)NCCCCCCNC(=O)c2ccc(-c3c4nc(c(-c5c(F)cccc5F)c5ccc([nH]5)c(-c5c(F)cccc5F)c5nc(c(-c6c(F)cccc6F)c6ccc3[nH]6)C=C5)C=C4)cc2)c(=O)c2cc(F)c(NC3CCCCC3)cc21
REMARK SMILES IDX 11 1 10 2 9 3 8 4 6 5 7 6 5 8 3 9 4 10 87 11 74 12 86 13
REMARK SMILES IDX 72 14 75 15 78 16 73 17 76 18 77 19 2 20 1 21 79 22 80 24
REMARK SMILES IDX 81 25 85 26 82 27 84 28 83 29 12 30 13 31 14 32 15 33 16 34
REMARK SMILES IDX 17 36 18 37 19 38 71 39 20 40 70 41 21 42 22 43 23 44 64 45
REMARK SMILES IDX 24 46 69 47 63 48 65 49 25 50 68 51 62 52 61 53 26 55 52 56
REMARK SMILES IDX 35 57 51 58 36 59 39 60 50 61 66 62 37 63 38 64 49 66 67 67
REMARK SMILES IDX 40 68 27 69 28 70 33 71 29 72 30 73 32 74 34 75 31 76 53 77
REMARK SMILES IDX 54 78 59 79 55 80 56 81 58 82 60 83 57 84 41 85 42 86 47 87
REMARK SMILES IDX 43 88 44 89 46 90 48 91 45 92
REMARK H PARENT 8 7 79 23 15 35 65 54 39 65
REMARK Flexibility Score: inf
ROOT
ATOM      1  C   UNL A   1      35.690  21.063  25.367  1.00  0.00     0.002 C 
ENDROOT
BRANCH   1   2
ATOM      2  C   UNL A   1      34.713  19.941  24.989  1.00  0.00     0.021 C 
BRANCH   2   3
ATOM      3  C   UNL A   1      33.257  20.420  24.936  1.00  0.00     0.116 C 
BRANCH   3   4
ATOM      4  N   UNL A   1      32.818  20.484  23.554  1.00  0.00    -0.352 N 
ATOM      5  C   UNL A   1      32.157  21.421  22.812  1.00  0.00     0.256 C 
ATOM      6  O   UNL A   1      31.782  21.059  21.697  1.00  0.00    -0.269 OA
ATOM      7  H   UNL A   1      33.045  19.677  23.040  1.00  0.00     0.163 HD
BRANCH   5   8
ATOM      8  C   UNL A   1      31.934  22.817  23.285  1.00  0.00     0.104 A 
ATOM      9  N   UNL A   1      30.838  24.391  24.797  1.00  0.00    -0.347 N 
ATOM     10  C   UNL A   1      31.023  23.153  24.207  1.00  0.00     0.104 A 
ATOM     11  C   UNL A   1      31.416  25.512  24.177  1.00  0.00     0.054 A 
ATOM     12  C   UNL A   1      32.287  25.341  23.090  1.00  0.00     0.050 A 
ATOM     13  C   UNL A   1      31.109  26.826  24.554  1.00  0.00     0.055 A 
ATOM     14  C   UNL A   1      32.705  23.966  22.710  1.00  0.00     0.202 A 
ATOM     15  C   UNL A   1      32.769  26.442  22.373  1.00  0.00     0.055 A 
ATOM     16  C   UNL A   1      31.519  27.952  23.832  1.00  0.00     0.073 A 
ATOM     17  O   UNL A   1      33.658  23.823  21.953  1.00  0.00    -0.288 OA
ATOM     18  C   UNL A   1      32.362  27.723  22.736  1.00  0.00     0.147 A 
ATOM     19  F   UNL A   1      32.785  28.765  22.002  1.00  0.00    -0.205 F 
BRANCH   9  20
ATOM     20  C   UNL A   1      30.074  24.527  26.051  1.00  0.00     0.119 C 
ATOM     21  C   UNL A   1      30.135  23.263  26.893  1.00  0.00     0.027 C 
ENDBRANCH   9  20
BRANCH  16  22
ATOM     22  N   UNL A   1      31.086  29.236  24.138  1.00  0.00    -0.380 N 
ATOM     23  H   UNL A   1      31.465  29.642  24.950  1.00  0.00     0.160 HD
BRANCH  22  24
ATOM     24  C   UNL A   1      30.126  30.057  23.389  1.00  0.00     0.079 C 
ATOM     25  C   UNL A   1      29.002  29.194  22.777  1.00  0.00     0.025 C 
ATOM     26  C   UNL A   1      29.698  31.277  24.226  1.00  0.00     0.025 C 
ATOM     27  C   UNL A   1      27.714  29.942  22.439  1.00  0.00     0.002 C 
ATOM     28  C   UNL A   1      28.438  31.960  23.715  1.00  0.00     0.002 C 
ATOM     29  C   UNL A   1      27.316  30.955  23.503  1.00  0.00     0.000 C 
ENDBRANCH  22  24
ENDBRANCH  16  22
ENDBRANCH   5   8
ENDBRANCH   3   4
ENDBRANCH   2   3
ENDBRANCH   1   2
BRANCH   1  30
ATOM     30  C   UNL A   1      37.033  21.011  24.628  1.00  0.00     0.002 C 
BRANCH  30  31
ATOM     31  C   UNL A   1      37.921  19.824  25.001  1.00  0.00     0.021 C 
BRANCH  31  32
ATOM     32  C   UNL A   1      39.119  20.198  25.864  1.00  0.00     0.116 C 
BRANCH  32  33
ATOM     33  N   UNL A   1      40.123  19.144  25.883  1.00  0.00    -0.352 N 
ATOM     34  C   UNL A   1      41.491  19.245  25.988  1.00  0.00     0.251 C 
ATOM     35  H   UNL A   1      39.773  18.227  25.809  1.00  0.00     0.163 HD
ATOM     36  O   UNL A   1      42.205  18.281  25.765  1.00  0.00    -0.269 OA
BRANCH  34  37
ATOM     37  C   UNL A   1      42.089  20.547  26.354  1.00  0.00     0.039 A 
ATOM     38  C   UNL A   1      42.276  20.884  27.695  1.00  0.00     0.014 A 
ATOM     39  C   UNL A   1      42.446  21.446  25.345  1.00  0.00     0.014 A 
ATOM     40  C   UNL A   1      42.655  22.176  28.033  1.00  0.00     0.010 A 
ATOM     41  C   UNL A   1      42.921  22.714  25.688  1.00  0.00     0.010 A 
ATOM     42  C   UNL A   1      42.983  23.107  27.033  1.00  0.00    -0.014 A 
BRANCH  42  43
ATOM     43  C   UNL A   1      43.387  24.481  27.431  1.00  0.00     0.031 A 
ATOM     44  C   UNL A   1      44.822  24.921  27.336  1.00  0.00     0.074 A 
ATOM     45  C   UNL A   1      42.437  25.352  27.821  1.00  0.00     0.049 A 
ATOM     46  N   UNL A   1      45.346  26.090  27.607  1.00  0.00    -0.248 NA
ATOM     47  C   UNL A   1      45.799  23.920  26.879  1.00  0.00     0.031 C 
ATOM     48  C   UNL A   1      41.009  25.046  27.946  1.00  0.00     0.029 A 
ATOM     49  N   UNL A   1      42.523  26.679  28.159  1.00  0.00    -0.354 N 
ATOM     50  C   UNL A   1      46.710  25.962  27.372  1.00  0.00     0.074 A 
ATOM     51  C   UNL A   1      46.940  24.590  26.971  1.00  0.00     0.031 C 
ATOM     52  C   UNL A   1      40.348  26.164  28.278  1.00  0.00     0.029 A 
ATOM     53  C   UNL A   1      41.308  27.246  28.457  1.00  0.00     0.049 A 
ATOM     54  H   UNL A   1      43.371  27.175  28.185  1.00  0.00     0.167 HD
ATOM     55  C   UNL A   1      47.680  26.903  27.469  1.00  0.00     0.037 A 
ATOM     56  C   UNL A   1      41.002  28.496  28.851  1.00  0.00     0.037 A 
ATOM     57  C   UNL A   1      47.448  28.269  27.866  1.00  0.00     0.049 A 
ATOM     58  C   UNL A   1      42.108  29.500  29.010  1.00  0.00     0.074 A 
ATOM     59  C   UNL A   1      48.363  29.303  27.979  1.00  0.00     0.029 A 
ATOM     60  N   UNL A   1      46.213  28.790  28.221  1.00  0.00    -0.354 N 
ATOM     61  N   UNL A   1      43.388  29.369  28.762  1.00  0.00    -0.248 NA
ATOM     62  C   UNL A   1      41.722  30.825  29.512  1.00  0.00     0.031 C 
ATOM     63  C   UNL A   1      47.687  30.436  28.449  1.00  0.00     0.029 A 
ATOM     64  C   UNL A   1      46.344  30.123  28.577  1.00  0.00     0.049 A 
ATOM     65  H   UNL A   1      45.367  28.287  28.220  1.00  0.00     0.167 HD
ATOM     66  C   UNL A   1      43.959  30.599  29.059  1.00  0.00     0.074 A 
ATOM     67  C   UNL A   1      42.879  31.469  29.479  1.00  0.00     0.031 C 
ATOM     68  C   UNL A   1      45.259  30.975  28.997  1.00  0.00     0.037 A 
BRANCH  55  69
ATOM     69  C   UNL A   1      49.089  26.478  27.162  1.00  0.00     0.057 A 
ATOM     70  C   UNL A   1      49.595  26.571  25.859  1.00  0.00     0.134 A 
ATOM     71  C   UNL A   1      49.940  25.959  28.147  1.00  0.00     0.134 A 
ATOM     72  F   UNL A   1      48.834  27.052  24.865  1.00  0.00    -0.206 F 
ATOM     73  C   UNL A   1      50.895  26.166  25.548  1.00  0.00     0.040 A 
ATOM     74  C   UNL A   1      51.251  25.576  27.854  1.00  0.00     0.040 A 
ATOM     75  F   UNL A   1      49.523  25.853  29.419  1.00  0.00    -0.206 F 
ATOM     76  C   UNL A   1      51.729  25.675  26.550  1.00  0.00     0.006 A 
ENDBRANCH  55  69
BRANCH  56  77
ATOM     77  C   UNL A   1      39.594  28.865  29.139  1.00  0.00     0.057 A 
ATOM     78  C   UNL A   1      38.745  29.348  28.135  1.00  0.00     0.134 A 
ATOM     79  C   UNL A   1      39.055  28.717  30.422  1.00  0.00     0.134 A 
ATOM     80  F   UNL A   1      39.203  29.518  26.885  1.00  0.00    -0.206 F 
ATOM     81  C   UNL A   1      37.415  29.675  28.397  1.00  0.00     0.040 A 
ATOM     82  C   UNL A   1      37.718  29.011  30.691  1.00  0.00     0.040 A 
ATOM     83  F   UNL A   1      39.813  28.242  31.422  1.00  0.00    -0.206 F 
ATOM     84  C   UNL A   1      36.895  29.496  29.677  1.00  0.00     0.006 A 
ENDBRANCH  56  77
BRANCH  68  85
ATOM     85  C   UNL A   1      45.570  32.397  29.362  1.00  0.00     0.057 A 
ATOM     86  C   UNL A   1      45.916  32.737  30.676  1.00  0.00     0.134 A 
ATOM     87  C   UNL A   1      45.534  33.429  28.415  1.00  0.00     0.134 A 
ATOM     88  F   UNL A   1      45.963  31.799  31.633  1.00  0.00    -0.206 F 
ATOM     89  C   UNL A   1      46.220  34.051  31.033  1.00  0.00     0.040 A 
ATOM     90  C   UNL A   1      45.865  34.742  28.754  1.00  0.00     0.040 A 
ATOM     91  F   UNL A   1      45.228  33.168  27.136  1.00  0.00    -0.206 F 
ATOM     92  C   UNL A   1      46.205  35.056  30.069  1.00  0.00     0.006 A 
ENDBRANCH  68  85
ENDBRANCH  42  43
ENDBRANCH  34  37
ENDBRANCH  32  33
ENDBRANCH  31  32
ENDBRANCH  30  31
ENDBRANCH   1  30
TORSDOF 16
ENDMDL
MODEL 3
REMARK VINA RESULT:     -12.1      3.531      8.352
REMARK SMILES CCn1cc(C(=O)NCCCCCCNC(=O)c2ccc(-c3c4nc(c(-c5c(F)cccc5F)c5ccc([nH]5)c(-c5c(F)cccc5F)c5nc(c(-c6c(F)cccc6F)c6ccc3[nH]6)C=C5)C=C4)cc2)c(=O)c2cc(F)c(NC3CCCCC3)cc21
REMARK SMILES IDX 11 1 10 2 9 3 8 4 6 5 7 6 5 8 3 9 4 10 87 11 74 12 86 13
REMARK SMILES IDX 72 14 75 15 78 16 73 17 76 18 77 19 2 20 1 21 79 22 80 24
REMARK SMILES IDX 81 25 85 26 82 27 84 28 83 29 12 30 13 31 14 32 15 33 16 34
REMARK SMILES IDX 17 36 18 37 19 38 71 39 20 40 70 41 21 42 22 43 23 44 64 45
REMARK SMILES IDX 24 46 69 47 63 48 65 49 25 50 68 51 62 52 61 53 26 55 52 56
REMARK SMILES IDX 35 57 51 58 36 59 39 60 50 61 66 62 37 63 38 64 49 66 67 67
REMARK SMILES IDX 40 68 27 69 28 70 33 71 29 72 30 73 32 74 34 75 31 76 53 77
REMARK SMILES IDX 54 78 59 79 55 80 56 81 58 82 60 83 57 84 41 85 42 86 47 87
REMARK SMILES IDX 43 88 44 89 46 90 48 91 45 92
REMARK H PARENT 8 7 79 23 15 35 65 54 39 65
REMARK Flexibility Score: inf
ROOT
ATOM      1  C   UNL A   1      30.661  27.189  24.939  1.00  0.00     0.002 C 
ENDROOT
BRANCH   1   2
ATOM      2  C   UNL A   1      30.046  26.272  23.872  1.00  0.00     0.021 C 
BRANCH   2   3
ATOM      3  C   UNL A   1      30.489  24.812  24.025  1.00  0.00     0.116 C 
BRANCH   3   4
ATOM      4  N   UNL A   1      30.321  24.397  25.406  1.00  0.00    -0.352 N 
ATOM      5  C   UNL A   1      31.031  23.587  26.245  1.00  0.00     0.256 C 
ATOM      6  O   UNL A   1      30.487  23.309  27.314  1.00  0.00    -0.269 OA
ATOM      7  H   UNL A   1      29.520  24.782  25.829  1.00  0.00     0.163 HD
BRANCH   5   8
ATOM      8  C   UNL A   1      32.403  23.096  25.927  1.00  0.00     0.104 A 
ATOM      9  N   UNL A   1      33.915  21.270  25.342  1.00  0.00    -0.347 N 
ATOM     10  C   UNL A   1      32.710  21.802  25.764  1.00  0.00     0.104 A 
ATOM     11  C   UNL A   1      35.053  22.094  25.384  1.00  0.00     0.054 A 
ATOM     12  C   UNL A   1      34.922  23.457  25.689  1.00  0.00     0.050 A 
ATOM     13  C   UNL A   1      36.351  21.600  25.198  1.00  0.00     0.055 A 
ATOM     14  C   UNL A   1      33.559  24.040  25.811  1.00  0.00     0.202 A 
ATOM     15  C   UNL A   1      36.048  24.268  25.867  1.00  0.00     0.055 A 
ATOM     16  C   UNL A   1      37.506  22.356  25.425  1.00  0.00     0.073 A 
ATOM     17  O   UNL A   1      33.433  25.260  25.806  1.00  0.00    -0.288 OA
ATOM     18  C   UNL A   1      37.317  23.705  25.757  1.00  0.00     0.147 A 
ATOM     19  F   UNL A   1      38.388  24.481  25.991  1.00  0.00    -0.205 F 
BRANCH   9  20
ATOM     20  C   UNL A   1      33.999  19.885  24.843  1.00  0.00     0.119 C 
ATOM     21  C   UNL A   1      32.901  19.006  25.420  1.00  0.00     0.027 C 
ENDBRANCH   9  20
BRANCH  16  22
ATOM     22  N   UNL A   1      38.781  21.809  25.375  1.00  0.00    -0.380 N 
ATOM     23  H   UNL A   1      39.203  21.765  24.487  1.00  0.00     0.160 HD
BRANCH  22  24
ATOM     24  C   UNL A   1      39.573  21.287  26.496  1.00  0.00     0.079 C 
ATOM     25  C   UNL A   1      40.291  19.974  26.116  1.00  0.00     0.025 C 
ATOM     26  C   UNL A   1      40.436  22.406  27.109  1.00  0.00     0.025 C 
ATOM     27  C   UNL A   1      41.508  19.624  26.968  1.00  0.00     0.002 C 
ATOM     28  C   UNL A   1      41.562  21.897  27.996  1.00  0.00     0.002 C 
ATOM     29  C   UNL A   1      42.381  20.830  27.285  1.00  0.00     0.000 C 
ENDBRANCH  22  24
ENDBRANCH  16  22
ENDBRANCH   5   8
ENDBRANCH   3   4
ENDBRANCH   2   3
ENDBRANCH   1   2
BRANCH   1  30
ATOM     30  C   UNL A   1      31.122  28.554  24.413  1.00  0.00     0.002 C 
BRANCH  30  31
ATOM     31  C   UNL A   1      32.599  28.623  24.025  1.00  0.00     0.021 C 
BRANCH  31  32
ATOM     32  C   UNL A   1      33.488  29.246  25.094  1.00  0.00     0.116 C 
BRANCH  32  33
ATOM     33  N   UNL A   1      32.832  30.361  25.762  1.00  0.00    -0.352 N 
ATOM     34  C   UNL A   1      33.199  31.029  26.907  1.00  0.00     0.251 C 
ATOM     35  H   UNL A   1      32.007  30.682  25.333  1.00  0.00     0.163 HD
ATOM     36  O   UNL A   1      32.423  31.795  27.456  1.00  0.00    -0.269 OA
BRANCH  34  37
ATOM     37  C   UNL A   1      34.542  30.791  27.478  1.00  0.00     0.039 A 
ATOM     38  C   UNL A   1      34.917  29.508  27.881  1.00  0.00     0.014 A 
ATOM     39  C   UNL A   1      35.423  31.865  27.630  1.00  0.00     0.014 A 
ATOM     40  C   UNL A   1      36.097  29.329  28.590  1.00  0.00     0.010 A 
ATOM     41  C   UNL A   1      36.655  31.661  28.258  1.00  0.00     0.010 A 
ATOM     42  C   UNL A   1      36.981  30.403  28.786  1.00  0.00    -0.014 A 
BRANCH  42  43
ATOM     43  C   UNL A   1      38.237  30.175  29.548  1.00  0.00     0.031 A 
ATOM     44  C   UNL A   1      38.378  30.658  30.966  1.00  0.00     0.074 A 
ATOM     45  C   UNL A   1      39.231  29.471  28.972  1.00  0.00     0.049 A 
ATOM     46  N   UNL A   1      39.386  30.517  31.789  1.00  0.00    -0.248 NA
ATOM     47  C   UNL A   1      37.241  31.399  31.535  1.00  0.00     0.031 C 
ATOM     48  C   UNL A   1      39.210  28.942  27.606  1.00  0.00     0.029 A 
ATOM     49  N   UNL A   1      40.440  29.057  29.470  1.00  0.00    -0.354 N 
ATOM     50  C   UNL A   1      39.015  31.163  32.963  1.00  0.00     0.074 A 
ATOM     51  C   UNL A   1      37.702  31.729  32.733  1.00  0.00     0.031 C 
ATOM     52  C   UNL A   1      40.325  28.229  27.394  1.00  0.00     0.029 A 
ATOM     53  C   UNL A   1      41.169  28.306  28.580  1.00  0.00     0.049 A 
ATOM     54  H   UNL A   1      40.753  29.275  30.376  1.00  0.00     0.167 HD
ATOM     55  C   UNL A   1      39.698  31.264  34.129  1.00  0.00     0.037 A 
ATOM     56  C   UNL A   1      42.391  27.757  28.699  1.00  0.00     0.037 A 
ATOM     57  C   UNL A   1      41.003  30.696  34.356  1.00  0.00     0.049 A 
ATOM     58  C   UNL A   1      43.150  27.940  29.981  1.00  0.00     0.074 A 
ATOM     59  C   UNL A   1      41.772  30.730  35.507  1.00  0.00     0.029 A 
ATOM     60  N   UNL A   1      41.737  29.997  33.409  1.00  0.00    -0.354 N 
ATOM     61  N   UNL A   1      42.776  28.533  31.088  1.00  0.00    -0.248 NA
ATOM     62  C   UNL A   1      44.508  27.381  30.024  1.00  0.00     0.031 C 
ATOM     63  C   UNL A   1      42.989  30.093  35.240  1.00  0.00     0.029 A 
ATOM     64  C   UNL A   1      42.958  29.615  33.941  1.00  0.00     0.049 A 
ATOM     65  H   UNL A   1      41.433  29.800  32.493  1.00  0.00     0.167 HD
ATOM     66  C   UNL A   1      43.843  28.403  31.967  1.00  0.00     0.074 A 
ATOM     67  C   UNL A   1      44.866  27.651  31.270  1.00  0.00     0.031 C 
ATOM     68  C   UNL A   1      43.968  28.870  33.233  1.00  0.00     0.037 A 
BRANCH  55  69
ATOM     69  C   UNL A   1      39.052  32.039  35.243  1.00  0.00     0.057 A 
ATOM     70  C   UNL A   1      39.180  33.432  35.311  1.00  0.00     0.134 A 
ATOM     71  C   UNL A   1      38.320  31.409  36.258  1.00  0.00     0.134 A 
ATOM     72  F   UNL A   1      39.873  34.100  34.377  1.00  0.00    -0.206 F 
ATOM     73  C   UNL A   1      38.601  34.170  36.346  1.00  0.00     0.040 A 
ATOM     74  C   UNL A   1      37.713  32.139  37.284  1.00  0.00     0.040 A 
ATOM     75  F   UNL A   1      38.147  30.078  36.248  1.00  0.00    -0.206 F 
ATOM     76  C   UNL A   1      37.858  33.523  37.332  1.00  0.00     0.006 A 
ENDBRANCH  55  69
BRANCH  56  77
ATOM     77  C   UNL A   1      42.982  26.998  27.568  1.00  0.00     0.057 A 
ATOM     78  C   UNL A   1      42.853  25.607  27.476  1.00  0.00     0.134 A 
ATOM     79  C   UNL A   1      43.666  27.652  26.537  1.00  0.00     0.134 A 
ATOM     80  F   UNL A   1      42.214  24.921  28.435  1.00  0.00    -0.206 F 
ATOM     81  C   UNL A   1      43.388  24.893  26.404  1.00  0.00     0.040 A 
ATOM     82  C   UNL A   1      44.179  26.953  25.444  1.00  0.00     0.040 A 
ATOM     83  F   UNL A   1      43.806  28.986  26.559  1.00  0.00    -0.206 F 
ATOM     84  C   UNL A   1      44.045  25.568  25.377  1.00  0.00     0.006 A 
ENDBRANCH  56  77
BRANCH  68  85
ATOM     85  C   UNL A   1      45.247  28.545  33.949  1.00  0.00     0.057 A 
ATOM     86  C   UNL A   1      45.374  27.357  34.680  1.00  0.00     0.134 A 
ATOM     87  C   UNL A   1      46.354  29.403  33.913  1.00  0.00     0.134 A 
ATOM     88  F   UNL A   1      44.350  26.495  34.762  1.00  0.00    -0.206 F 
ATOM     89  C   UNL A   1      46.557  27.032  35.344  1.00  0.00     0.040 A 
ATOM     90  C   UNL A   1      47.553  29.074  34.547  1.00  0.00     0.040 A 
ATOM     91  F   UNL A   1      46.305  30.548  33.215  1.00  0.00    -0.206 F 
ATOM     92  C   UNL A   1      47.655  27.887  35.269  1.00  0.00     0.006 A 
ENDBRANCH  68  85
ENDBRANCH  42  43
ENDBRANCH  34  37
ENDBRANCH  32  33
ENDBRANCH  31  32
ENDBRANCH  30  31
ENDBRANCH   1  30
TORSDOF 16
ENDMDL
