MODEL 1
REMARK VINA RESULT:     -11.0      0.000      0.000
REMARK SMILES NS(=O)(=O)CCNC(=O)N1[C@@H]2CC[C@H]1C[C@H](CC(=O)NCCCCCCNC(=O)c1ccc(-c3c4nc(c(-c5c(F)cccc5F)c5ccc([nH]5)c(-c5c(F)cccc5F)c5nc(c(-c6c(F)cccc6F)c6ccc3[nH]6)C=C5)C=C4)cc1)C2
REMARK SMILES IDX 21 1 20 2 18 3 19 4 17 6 16 7 10 8 11 9 14 10 12 11 84 12
REMARK SMILES IDX 13 13 15 14 8 15 7 16 9 18 6 19 5 20 2 21 3 22 4 23 1 24
REMARK SMILES IDX 22 27 23 28 24 29 25 30 26 31 27 32 28 33 29 35 30 36 31 37
REMARK SMILES IDX 83 38 32 39 82 40 33 41 34 42 35 43 76 44 36 45 81 46 75 47
REMARK SMILES IDX 77 48 37 49 80 50 74 51 73 52 38 54 64 55 47 56 63 57 48 58
REMARK SMILES IDX 51 59 62 60 78 61 49 62 50 63 61 65 79 66 52 67 39 68 40 69
REMARK SMILES IDX 45 70 41 71 42 72 44 73 46 74 43 75 65 76 66 77 71 78 67 79
REMARK SMILES IDX 68 80 70 81 72 82 69 83 53 84 54 85 59 86 55 87 56 88 58 89
REMARK SMILES IDX 60 90 57 91
REMARK H PARENT 20 5 7 17 1 25 1 26 27 34 77 53 51 64
REMARK Flexibility Score: inf
ROOT
ATOM      1  C   UNL A   1      38.780  23.296  26.479  1.00  0.00     0.116 C 
ENDROOT
BRANCH   1   2
ATOM      2  N   UNL A   1      37.926  22.181  26.103  1.00  0.00    -0.356 N 
ATOM      3  C   UNL A   1      36.827  22.086  25.298  1.00  0.00     0.220 C 
ATOM      4  O   UNL A   1      36.271  20.987  25.225  1.00  0.00    -0.275 OA
ATOM      5  H   UNL A   1      38.192  21.324  26.508  1.00  0.00     0.163 HD
BRANCH   3   6
ATOM      6  C   UNL A   1      36.285  23.272  24.509  1.00  0.00     0.103 C 
BRANCH   6   7
ATOM      7  C   UNL A   1      34.752  23.457  24.615  1.00  0.00     0.002 C 
ATOM      8  N   UNL A   1      32.991  25.384  23.404  1.00  0.00    -0.319 N 
ATOM      9  C   UNL A   1      32.700  23.985  23.134  1.00  0.00     0.087 C 
ATOM     10  C   UNL A   1      33.120  25.484  24.840  1.00  0.00     0.087 C 
ATOM     11  C   UNL A   1      31.730  23.594  24.261  1.00  0.00     0.027 C 
ATOM     12  C   UNL A   1      34.053  23.245  23.242  1.00  0.00     0.029 C 
ATOM     13  C   UNL A   1      31.963  24.633  25.363  1.00  0.00     0.027 C 
ATOM     14  C   UNL A   1      34.447  24.838  25.217  1.00  0.00     0.029 C 
BRANCH   8  15
ATOM     15  C   UNL A   1      32.994  26.328  22.434  1.00  0.00     0.317 C 
ATOM     16  N   UNL A   1      31.990  27.224  22.312  1.00  0.00    -0.337 N 
ATOM     17  H   UNL A   1      31.804  27.494  21.383  1.00  0.00     0.165 HD
ATOM     18  O   UNL A   1      33.926  26.435  21.634  1.00  0.00    -0.249 OA
BRANCH  16  19
ATOM     19  C   UNL A   1      31.131  27.863  23.300  1.00  0.00     0.135 C 
BRANCH  19  20
ATOM     20  C   UNL A   1      29.702  28.040  22.807  1.00  0.00     0.175 C 
BRANCH  20  21
ATOM     21  S   UNL A   1      29.355  29.709  22.271  1.00  0.00     0.210 S 
ATOM     22  O   UNL A   1      29.455  30.597  23.401  1.00  0.00    -0.213 OA
ATOM     23  O   UNL A   1      28.189  29.698  21.414  1.00  0.00    -0.213 OA
BRANCH  21  24
ATOM     24  N   UNL A   1      30.654  30.078  21.286  1.00  0.00    -0.229 NA
ATOM     25  H   UNL A   1      30.323  30.578  20.461  1.00  0.00     0.137 HD
ATOM     26  H   UNL A   1      31.118  29.216  21.000  1.00  0.00     0.137 HD
ENDBRANCH  21  24
ENDBRANCH  20  21
ENDBRANCH  19  20
ENDBRANCH  16  19
ENDBRANCH   8  15
ENDBRANCH   6   7
ENDBRANCH   3   6
ENDBRANCH   1   2
BRANCH   1  27
ATOM     27  C   UNL A   1      40.095  22.800  27.105  1.00  0.00     0.021 C 
BRANCH  27  28
ATOM     28  C   UNL A   1      41.028  22.053  26.157  1.00  0.00     0.002 C 
BRANCH  28  29
ATOM     29  C   UNL A   1      41.820  20.918  26.804  1.00  0.00     0.002 C 
BRANCH  29  30
ATOM     30  C   UNL A   1      41.954  19.643  25.965  1.00  0.00     0.021 C 
BRANCH  30  31
ATOM     31  C   UNL A   1      43.237  18.847  26.190  1.00  0.00     0.116 C 
BRANCH  31  32
ATOM     32  N   UNL A   1      43.980  18.651  24.956  1.00  0.00    -0.352 N 
ATOM     33  C   UNL A   1      44.570  19.571  24.130  1.00  0.00     0.251 C 
ATOM     34  H   UNL A   1      44.074  17.713  24.671  1.00  0.00     0.163 HD
ATOM     35  O   UNL A   1      44.927  19.245  23.002  1.00  0.00    -0.269 OA
BRANCH  33  36
ATOM     36  C   UNL A   1      44.779  20.959  24.593  1.00  0.00     0.039 A 
ATOM     37  C   UNL A   1      44.270  22.012  23.829  1.00  0.00     0.014 A 
ATOM     38  C   UNL A   1      45.517  21.225  25.750  1.00  0.00     0.014 A 
ATOM     39  C   UNL A   1      44.463  23.329  24.251  1.00  0.00     0.010 A 
ATOM     40  C   UNL A   1      45.642  22.532  26.211  1.00  0.00     0.010 A 
ATOM     41  C   UNL A   1      45.129  23.599  25.459  1.00  0.00    -0.014 A 
BRANCH  41  42
ATOM     42  C   UNL A   1      45.310  24.993  25.935  1.00  0.00     0.031 A 
ATOM     43  C   UNL A   1      46.667  25.641  25.891  1.00  0.00     0.074 A 
ATOM     44  C   UNL A   1      44.259  25.662  26.448  1.00  0.00     0.049 A 
ATOM     45  N   UNL A   1      47.027  26.835  26.289  1.00  0.00    -0.248 NA
ATOM     46  C   UNL A   1      47.772  24.831  25.354  1.00  0.00     0.031 C 
ATOM     47  C   UNL A   1      42.903  25.126  26.589  1.00  0.00     0.029 A 
ATOM     48  N   UNL A   1      44.166  26.936  26.949  1.00  0.00    -0.354 N 
ATOM     49  C   UNL A   1      48.395  26.915  26.059  1.00  0.00     0.074 A 
ATOM     50  C   UNL A   1      48.812  25.628  25.546  1.00  0.00     0.031 C 
ATOM     51  C   UNL A   1      42.109  26.074  27.110  1.00  0.00     0.029 A 
ATOM     52  C   UNL A   1      42.903  27.269  27.376  1.00  0.00     0.049 A 
ATOM     53  H   UNL A   1      44.931  27.553  26.998  1.00  0.00     0.167 HD
ATOM     54  C   UNL A   1      49.225  27.972  26.235  1.00  0.00     0.037 A 
ATOM     55  C   UNL A   1      42.440  28.408  27.925  1.00  0.00     0.037 A 
ATOM     56  C   UNL A   1      48.801  29.255  26.731  1.00  0.00     0.049 A 
ATOM     57  C   UNL A   1      43.384  29.562  28.122  1.00  0.00     0.074 A 
ATOM     58  C   UNL A   1      49.552  30.406  26.897  1.00  0.00     0.029 A 
ATOM     59  N   UNL A   1      47.512  29.556  27.146  1.00  0.00    -0.354 N 
ATOM     60  N   UNL A   1      44.660  29.646  27.834  1.00  0.00    -0.248 NA
ATOM     61  C   UNL A   1      42.820  30.784  28.711  1.00  0.00     0.031 C 
ATOM     62  C   UNL A   1      48.731  31.386  27.462  1.00  0.00     0.029 A 
ATOM     63  C   UNL A   1      47.453  30.867  27.593  1.00  0.00     0.049 A 
ATOM     64  H   UNL A   1      46.753  28.930  27.128  1.00  0.00     0.167 HD
ATOM     65  C   UNL A   1      45.044  30.937  28.177  1.00  0.00     0.074 A 
ATOM     66  C   UNL A   1      43.860  31.604  28.679  1.00  0.00     0.031 C 
ATOM     67  C   UNL A   1      46.265  31.518  28.085  1.00  0.00     0.037 A 
BRANCH  54  68
ATOM     68  C   UNL A   1      50.674  27.781  25.886  1.00  0.00     0.057 A 
ATOM     69  C   UNL A   1      51.144  27.910  24.572  1.00  0.00     0.134 A 
ATOM     70  C   UNL A   1      51.618  27.498  26.882  1.00  0.00     0.134 A 
ATOM     71  F   UNL A   1      50.293  28.170  23.568  1.00  0.00    -0.206 F 
ATOM     72  C   UNL A   1      52.492  27.733  24.256  1.00  0.00     0.040 A 
ATOM     73  C   UNL A   1      52.974  27.349  26.583  1.00  0.00     0.040 A 
ATOM     74  F   UNL A   1      51.240  27.368  28.162  1.00  0.00    -0.206 F 
ATOM     75  C   UNL A   1      53.413  27.459  25.265  1.00  0.00     0.006 A 
ENDBRANCH  54  68
BRANCH  55  76
ATOM     76  C   UNL A   1      41.009  28.524  28.304  1.00  0.00     0.057 A 
ATOM     77  C   UNL A   1      40.049  28.954  27.381  1.00  0.00     0.134 A 
ATOM     78  C   UNL A   1      40.568  28.220  29.598  1.00  0.00     0.134 A 
ATOM     79  F   UNL A   1      40.412  29.276  26.130  1.00  0.00    -0.206 F 
ATOM     80  C   UNL A   1      38.707  29.102  27.735  1.00  0.00     0.040 A 
ATOM     81  C   UNL A   1      39.224  28.335  29.958  1.00  0.00     0.040 A 
ATOM     82  F   UNL A   1      41.435  27.795  30.528  1.00  0.00    -0.206 F 
ATOM     83  C   UNL A   1      38.291  28.787  29.028  1.00  0.00     0.006 A 
ENDBRANCH  55  76
BRANCH  67  84
ATOM     84  C   UNL A   1      46.372  32.959  28.496  1.00  0.00     0.057 A 
ATOM     85  C   UNL A   1      46.181  34.008  27.589  1.00  0.00     0.134 A 
ATOM     86  C   UNL A   1      46.644  33.298  29.829  1.00  0.00     0.134 A 
ATOM     87  F   UNL A   1      45.930  33.752  26.296  1.00  0.00    -0.206 F 
ATOM     88  C   UNL A   1      46.289  35.344  27.984  1.00  0.00     0.040 A 
ATOM     89  C   UNL A   1      46.722  34.629  30.242  1.00  0.00     0.040 A 
ATOM     90  F   UNL A   1      46.828  32.343  30.752  1.00  0.00    -0.206 F 
ATOM     91  C   UNL A   1      46.553  35.656  29.316  1.00  0.00     0.006 A 
ENDBRANCH  67  84
ENDBRANCH  41  42
ENDBRANCH  33  36
ENDBRANCH  31  32
ENDBRANCH  30  31
ENDBRANCH  29  30
ENDBRANCH  28  29
ENDBRANCH  27  28
ENDBRANCH   1  27
TORSDOF 19
ENDMDL
MODEL 2
REMARK VINA RESULT:     -11.0      6.789     11.971
REMARK SMILES NS(=O)(=O)CCNC(=O)N1[C@@H]2CC[C@H]1C[C@H](CC(=O)NCCCCCCNC(=O)c1ccc(-c3c4nc(c(-c5c(F)cccc5F)c5ccc([nH]5)c(-c5c(F)cccc5F)c5nc(c(-c6c(F)cccc6F)c6ccc3[nH]6)C=C5)C=C4)cc1)C2
REMARK SMILES IDX 21 1 20 2 18 3 19 4 17 6 16 7 10 8 11 9 14 10 12 11 84 12
REMARK SMILES IDX 13 13 15 14 8 15 7 16 9 18 6 19 5 20 2 21 3 22 4 23 1 24
REMARK SMILES IDX 22 27 23 28 24 29 25 30 26 31 27 32 28 33 29 35 30 36 31 37
REMARK SMILES IDX 83 38 32 39 82 40 33 41 34 42 35 43 76 44 36 45 81 46 75 47
REMARK SMILES IDX 77 48 37 49 80 50 74 51 73 52 38 54 64 55 47 56 63 57 48 58
REMARK SMILES IDX 51 59 62 60 78 61 49 62 50 63 61 65 79 66 52 67 39 68 40 69
REMARK SMILES IDX 45 70 41 71 42 72 44 73 46 74 43 75 65 76 66 77 71 78 67 79
REMARK SMILES IDX 68 80 70 81 72 82 69 83 53 84 54 85 59 86 55 87 56 88 58 89
REMARK SMILES IDX 60 90 57 91
REMARK H PARENT 20 5 7 17 1 25 1 26 27 34 77 53 51 64
REMARK Flexibility Score: inf
ROOT
ATOM      1  C   UNL A   1      34.458  30.658  27.948  1.00  0.00     0.116 C 
ENDROOT
BRANCH   1   2
ATOM      2  N   UNL A   1      33.261  31.055  27.222  1.00  0.00    -0.356 N 
ATOM      3  C   UNL A   1      32.181  30.357  26.767  1.00  0.00     0.220 C 
ATOM      4  O   UNL A   1      31.338  30.977  26.115  1.00  0.00    -0.275 OA
ATOM      5  H   UNL A   1      33.224  32.017  27.017  1.00  0.00     0.163 HD
BRANCH   3   6
ATOM      6  C   UNL A   1      31.994  28.868  27.039  1.00  0.00     0.103 C 
BRANCH   6   7
ATOM      7  C   UNL A   1      32.345  27.955  25.840  1.00  0.00     0.002 C 
ATOM      8  N   UNL A   1      32.311  25.091  25.568  1.00  0.00    -0.319 N 
ATOM      9  C   UNL A   1      31.492  25.838  24.627  1.00  0.00     0.087 C 
ATOM     10  C   UNL A   1      33.621  25.699  25.512  1.00  0.00     0.087 C 
ATOM     11  C   UNL A   1      32.437  26.082  23.440  1.00  0.00     0.027 C 
ATOM     12  C   UNL A   1      31.109  27.149  25.351  1.00  0.00     0.029 C 
ATOM     13  C   UNL A   1      33.848  25.920  24.016  1.00  0.00     0.027 C 
ATOM     14  C   UNL A   1      33.521  27.043  26.223  1.00  0.00     0.029 C 
BRANCH   8  15
ATOM     15  C   UNL A   1      31.858  23.992  26.216  1.00  0.00     0.317 C 
ATOM     16  N   UNL A   1      31.831  22.778  25.621  1.00  0.00    -0.337 N 
ATOM     17  H   UNL A   1      31.085  22.206  25.912  1.00  0.00     0.165 HD
ATOM     18  O   UNL A   1      31.477  24.038  27.386  1.00  0.00    -0.249 OA
BRANCH  16  19
ATOM     19  C   UNL A   1      32.703  22.161  24.631  1.00  0.00     0.135 C 
BRANCH  19  20
ATOM     20  C   UNL A   1      32.253  20.758  24.248  1.00  0.00     0.175 C 
BRANCH  20  21
ATOM     21  S   UNL A   1      33.060  19.485  25.209  1.00  0.00     0.210 S 
ATOM     22  O   UNL A   1      34.370  19.241  24.662  1.00  0.00    -0.213 OA
ATOM     23  O   UNL A   1      32.124  18.408  25.449  1.00  0.00    -0.213 OA
BRANCH  21  24
ATOM     24  N   UNL A   1      33.314  20.219  26.689  1.00  0.00    -0.229 NA
ATOM     25  H   UNL A   1      32.603  19.906  27.350  1.00  0.00     0.137 HD
ATOM     26  H   UNL A   1      33.255  21.232  26.580  1.00  0.00     0.137 HD
ENDBRANCH  21  24
ENDBRANCH  20  21
ENDBRANCH  19  20
ENDBRANCH  16  19
ENDBRANCH   8  15
ENDBRANCH   6   7
ENDBRANCH   3   6
ENDBRANCH   1   2
BRANCH   1  27
ATOM     27  C   UNL A   1      35.266  31.889  28.397  1.00  0.00     0.021 C 
BRANCH  27  28
ATOM     28  C   UNL A   1      34.520  32.865  29.301  1.00  0.00     0.002 C 
BRANCH  28  29
ATOM     29  C   UNL A   1      34.654  34.334  28.900  1.00  0.00     0.002 C 
BRANCH  29  30
ATOM     30  C   UNL A   1      33.354  35.147  28.927  1.00  0.00     0.021 C 
BRANCH  30  31
ATOM     31  C   UNL A   1      33.383  36.391  29.812  1.00  0.00     0.116 C 
BRANCH  31  32
ATOM     32  N   UNL A   1      32.429  36.303  30.905  1.00  0.00    -0.352 N 
ATOM     33  C   UNL A   1      32.467  35.544  32.046  1.00  0.00     0.251 C 
ATOM     34  H   UNL A   1      31.634  36.876  30.812  1.00  0.00     0.163 HD
ATOM     35  O   UNL A   1      31.454  35.405  32.725  1.00  0.00    -0.269 OA
BRANCH  33  36
ATOM     36  C   UNL A   1      33.726  34.892  32.463  1.00  0.00     0.039 A 
ATOM     37  C   UNL A   1      33.684  33.581  32.943  1.00  0.00     0.014 A 
ATOM     38  C   UNL A   1      34.939  35.588  32.427  1.00  0.00     0.014 A 
ATOM     39  C   UNL A   1      34.864  32.953  33.345  1.00  0.00     0.010 A 
ATOM     40  C   UNL A   1      36.124  34.935  32.754  1.00  0.00     0.010 A 
ATOM     41  C   UNL A   1      36.097  33.616  33.230  1.00  0.00    -0.014 A 
BRANCH  41  42
ATOM     42  C   UNL A   1      37.363  32.947  33.621  1.00  0.00     0.031 A 
ATOM     43  C   UNL A   1      37.995  31.927  32.713  1.00  0.00     0.074 A 
ATOM     44  C   UNL A   1      37.922  33.226  34.815  1.00  0.00     0.049 A 
ATOM     45  N   UNL A   1      39.080  31.217  32.895  1.00  0.00    -0.248 NA
ATOM     46  C   UNL A   1      37.303  31.648  31.445  1.00  0.00     0.031 C 
ATOM     47  C   UNL A   1      37.379  34.161  35.803  1.00  0.00     0.029 A 
ATOM     48  N   UNL A   1      39.068  32.750  35.401  1.00  0.00    -0.354 N 
ATOM     49  C   UNL A   1      39.195  30.405  31.773  1.00  0.00     0.074 A 
ATOM     50  C   UNL A   1      38.037  30.664  30.946  1.00  0.00     0.031 C 
ATOM     51  C   UNL A   1      38.208  34.213  36.858  1.00  0.00     0.029 A 
ATOM     52  C   UNL A   1      39.317  33.289  36.640  1.00  0.00     0.049 A 
ATOM     53  H   UNL A   1      39.656  32.086  34.974  1.00  0.00     0.167 HD
ATOM     54  C   UNL A   1      40.187  29.541  31.449  1.00  0.00     0.037 A 
ATOM     55  C   UNL A   1      40.323  33.060  37.505  1.00  0.00     0.037 A 
ATOM     56  C   UNL A   1      41.345  29.299  32.269  1.00  0.00     0.049 A 
ATOM     57  C   UNL A   1      41.405  32.087  37.127  1.00  0.00     0.074 A 
ATOM     58  C   UNL A   1      42.432  28.482  32.007  1.00  0.00     0.029 A 
ATOM     59  N   UNL A   1      41.565  29.869  33.514  1.00  0.00    -0.354 N 
ATOM     60  N   UNL A   1      41.536  31.378  36.031  1.00  0.00    -0.248 NA
ATOM     61  C   UNL A   1      42.485  31.888  38.103  1.00  0.00     0.031 C 
ATOM     62  C   UNL A   1      43.282  28.518  33.116  1.00  0.00     0.029 A 
ATOM     63  C   UNL A   1      42.757  29.402  34.044  1.00  0.00     0.049 A 
ATOM     64  H   UNL A   1      40.962  30.509  33.957  1.00  0.00     0.167 HD
ATOM     65  C   UNL A   1      42.726  30.676  36.172  1.00  0.00     0.074 A 
ATOM     66  C   UNL A   1      43.286  31.057  37.452  1.00  0.00     0.031 C 
ATOM     67  C   UNL A   1      43.304  29.795  35.319  1.00  0.00     0.037 A 
BRANCH  54  68
ATOM     68  C   UNL A   1      40.059  28.795  30.151  1.00  0.00     0.057 A 
ATOM     69  C   UNL A   1      39.315  27.612  30.045  1.00  0.00     0.134 A 
ATOM     70  C   UNL A   1      40.661  29.283  28.983  1.00  0.00     0.134 A 
ATOM     71  F   UNL A   1      38.722  27.083  31.126  1.00  0.00    -0.206 F 
ATOM     72  C   UNL A   1      39.201  26.925  28.836  1.00  0.00     0.040 A 
ATOM     73  C   UNL A   1      40.527  28.621  27.760  1.00  0.00     0.040 A 
ATOM     74  F   UNL A   1      41.382  30.413  29.009  1.00  0.00    -0.206 F 
ATOM     75  C   UNL A   1      39.802  27.434  27.687  1.00  0.00     0.006 A 
ENDBRANCH  54  68
BRANCH  55  76
ATOM     76  C   UNL A   1      40.370  33.783  38.801  1.00  0.00     0.057 A 
ATOM     77  C   UNL A   1      39.615  33.352  39.898  1.00  0.00     0.134 A 
ATOM     78  C   UNL A   1      41.158  34.928  38.973  1.00  0.00     0.134 A 
ATOM     79  F   UNL A   1      38.826  32.272  39.791  1.00  0.00    -0.206 F 
ATOM     80  C   UNL A   1      39.622  34.043  41.110  1.00  0.00     0.040 A 
ATOM     81  C   UNL A   1      41.198  35.613  40.188  1.00  0.00     0.040 A 
ATOM     82  F   UNL A   1      41.912  35.390  37.964  1.00  0.00    -0.206 F 
ATOM     83  C   UNL A   1      40.421  35.176  41.258  1.00  0.00     0.006 A 
ENDBRANCH  55  76
BRANCH  67  84
ATOM     84  C   UNL A   1      44.630  29.216  35.724  1.00  0.00     0.057 A 
ATOM     85  C   UNL A   1      45.843  29.830  35.390  1.00  0.00     0.134 A 
ATOM     86  C   UNL A   1      44.688  28.039  36.484  1.00  0.00     0.134 A 
ATOM     87  F   UNL A   1      45.858  30.951  34.654  1.00  0.00    -0.206 F 
ATOM     88  C   UNL A   1      47.069  29.277  35.769  1.00  0.00     0.040 A 
ATOM     89  C   UNL A   1      45.906  27.496  36.896  1.00  0.00     0.040 A 
ATOM     90  F   UNL A   1      43.563  27.406  36.847  1.00  0.00    -0.206 F 
ATOM     91  C   UNL A   1      47.101  28.110  36.531  1.00  0.00     0.006 A 
ENDBRANCH  67  84
ENDBRANCH  41  42
ENDBRANCH  33  36
ENDBRANCH  31  32
ENDBRANCH  30  31
ENDBRANCH  29  30
ENDBRANCH  28  29
ENDBRANCH  27  28
ENDBRANCH   1  27
TORSDOF 19
ENDMDL
MODEL 3
REMARK VINA RESULT:     -10.9      6.694     12.226
REMARK SMILES NS(=O)(=O)CCNC(=O)N1[C@@H]2CC[C@H]1C[C@H](CC(=O)NCCCCCCNC(=O)c1ccc(-c3c4nc(c(-c5c(F)cccc5F)c5ccc([nH]5)c(-c5c(F)cccc5F)c5nc(c(-c6c(F)cccc6F)c6ccc3[nH]6)C=C5)C=C4)cc1)C2
REMARK SMILES IDX 21 1 20 2 18 3 19 4 17 6 16 7 10 8 11 9 14 10 12 11 84 12
REMARK SMILES IDX 13 13 15 14 8 15 7 16 9 18 6 19 5 20 2 21 3 22 4 23 1 24
REMARK SMILES IDX 22 27 23 28 24 29 25 30 26 31 27 32 28 33 29 35 30 36 31 37
REMARK SMILES IDX 83 38 32 39 82 40 33 41 34 42 35 43 76 44 36 45 81 46 75 47
REMARK SMILES IDX 77 48 37 49 80 50 74 51 73 52 38 54 64 55 47 56 63 57 48 58
REMARK SMILES IDX 51 59 62 60 78 61 49 62 50 63 61 65 79 66 52 67 39 68 40 69
REMARK SMILES IDX 45 70 41 71 42 72 44 73 46 74 43 75 65 76 66 77 71 78 67 79
REMARK SMILES IDX 68 80 70 81 72 82 69 83 53 84 54 85 59 86 55 87 56 88 58 89
REMARK SMILES IDX 60 90 57 91
REMARK H PARENT 20 5 7 17 1 25 1 26 27 34 77 53 51 64
REMARK Flexibility Score: inf
ROOT
ATOM      1  C   UNL A   1      34.573  30.688  27.534  1.00  0.00     0.116 C 
ENDROOT
BRANCH   1   2
ATOM      2  N   UNL A   1      33.272  31.175  27.099  1.00  0.00    -0.356 N 
ATOM      3  C   UNL A   1      32.089  30.547  26.838  1.00  0.00     0.220 C 
ATOM      4  O   UNL A   1      31.160  31.241  26.415  1.00  0.00    -0.275 OA
ATOM      5  H   UNL A   1      33.239  32.150  26.967  1.00  0.00     0.163 HD
BRANCH   3   6
ATOM      6  C   UNL A   1      31.891  29.051  27.050  1.00  0.00     0.103 C 
BRANCH   6   7
ATOM      7  C   UNL A   1      32.226  28.185  25.812  1.00  0.00     0.002 C 
ATOM      8  N   UNL A   1      32.322  25.329  25.469  1.00  0.00    -0.319 N 
ATOM      9  C   UNL A   1      31.420  26.055  24.590  1.00  0.00     0.087 C 
ATOM     10  C   UNL A   1      33.595  26.005  25.363  1.00  0.00     0.087 C 
ATOM     11  C   UNL A   1      32.289  26.374  23.363  1.00  0.00     0.027 C 
ATOM     12  C   UNL A   1      31.009  27.328  25.364  1.00  0.00     0.029 C 
ATOM     13  C   UNL A   1      33.734  26.272  23.864  1.00  0.00     0.027 C 
ATOM     14  C   UNL A   1      33.465  27.325  26.112  1.00  0.00     0.029 C 
BRANCH   8  15
ATOM     15  C   UNL A   1      31.958  24.194  26.110  1.00  0.00     0.317 C 
ATOM     16  N   UNL A   1      32.070  22.981  25.524  1.00  0.00    -0.337 N 
ATOM     17  H   UNL A   1      31.374  22.339  25.795  1.00  0.00     0.165 HD
ATOM     18  O   UNL A   1      31.537  24.208  27.268  1.00  0.00    -0.249 OA
BRANCH  16  19
ATOM     19  C   UNL A   1      33.030  22.449  24.567  1.00  0.00     0.135 C 
BRANCH  19  20
ATOM     20  C   UNL A   1      32.695  21.029  24.130  1.00  0.00     0.175 C 
BRANCH  20  21
ATOM     21  S   UNL A   1      33.104  19.807  25.368  1.00  0.00     0.210 S 
ATOM     22  O   UNL A   1      32.116  18.759  25.339  1.00  0.00    -0.213 OA
ATOM     23  O   UNL A   1      33.462  20.481  26.598  1.00  0.00    -0.213 OA
BRANCH  21  24
ATOM     24  N   UNL A   1      34.513  19.122  24.786  1.00  0.00    -0.229 NA
ATOM     25  H   UNL A   1      35.162  19.860  24.513  1.00  0.00     0.137 HD
ATOM     26  H   UNL A   1      34.297  18.541  23.976  1.00  0.00     0.137 HD
ENDBRANCH  21  24
ENDBRANCH  20  21
ENDBRANCH  19  20
ENDBRANCH  16  19
ENDBRANCH   8  15
ENDBRANCH   6   7
ENDBRANCH   3   6
ENDBRANCH   1   2
BRANCH   1  27
ATOM     27  C   UNL A   1      35.390  31.811  28.197  1.00  0.00     0.021 C 
BRANCH  27  28
ATOM     28  C   UNL A   1      34.655  32.608  29.270  1.00  0.00     0.002 C 
BRANCH  28  29
ATOM     29  C   UNL A   1      34.650  34.120  29.050  1.00  0.00     0.002 C 
BRANCH  29  30
ATOM     30  C   UNL A   1      33.279  34.797  29.152  1.00  0.00     0.021 C 
BRANCH  30  31
ATOM     31  C   UNL A   1      33.295  36.221  29.704  1.00  0.00     0.116 C 
BRANCH  31  32
ATOM     32  N   UNL A   1      32.471  36.352  30.895  1.00  0.00    -0.352 N 
ATOM     33  C   UNL A   1      32.577  35.729  32.111  1.00  0.00     0.251 C 
ATOM     34  H   UNL A   1      31.722  36.986  30.815  1.00  0.00     0.163 HD
ATOM     35  O   UNL A   1      31.642  35.768  32.905  1.00  0.00    -0.269 OA
BRANCH  33  36
ATOM     36  C   UNL A   1      33.817  35.009  32.471  1.00  0.00     0.039 A 
ATOM     37  C   UNL A   1      33.730  33.683  32.899  1.00  0.00     0.014 A 
ATOM     38  C   UNL A   1      35.057  35.654  32.433  1.00  0.00     0.014 A 
ATOM     39  C   UNL A   1      34.891  32.990  33.247  1.00  0.00     0.010 A 
ATOM     40  C   UNL A   1      36.220  34.941  32.705  1.00  0.00     0.010 A 
ATOM     41  C   UNL A   1      36.149  33.605  33.128  1.00  0.00    -0.014 A 
BRANCH  41  42
ATOM     42  C   UNL A   1      37.393  32.869  33.462  1.00  0.00     0.031 A 
ATOM     43  C   UNL A   1      38.132  33.164  34.739  1.00  0.00     0.074 A 
ATOM     44  C   UNL A   1      37.882  31.962  32.593  1.00  0.00     0.049 A 
ATOM     45  N   UNL A   1      39.248  32.647  35.187  1.00  0.00    -0.248 NA
ATOM     46  C   UNL A   1      37.555  34.195  35.616  1.00  0.00     0.031 C 
ATOM     47  C   UNL A   1      37.283  31.622  31.301  1.00  0.00     0.029 A 
ATOM     48  N   UNL A   1      38.996  31.164  32.664  1.00  0.00    -0.354 N 
ATOM     49  C   UNL A   1      39.510  33.294  36.389  1.00  0.00     0.074 A 
ATOM     50  C   UNL A   1      38.471  34.285  36.569  1.00  0.00     0.031 C 
ATOM     51  C   UNL A   1      38.019  30.663  30.716  1.00  0.00     0.029 A 
ATOM     52  C   UNL A   1      39.159  30.349  31.570  1.00  0.00     0.049 A 
ATOM     53  H   UNL A   1      39.618  31.173  33.426  1.00  0.00     0.167 HD
ATOM     54  C   UNL A   1      40.510  33.067  37.275  1.00  0.00     0.037 A 
ATOM     55  C   UNL A   1      40.123  29.452  31.286  1.00  0.00     0.037 A 
ATOM     56  C   UNL A   1      41.532  32.069  37.097  1.00  0.00     0.049 A 
ATOM     57  C   UNL A   1      41.229  29.228  32.280  1.00  0.00     0.074 A 
ATOM     58  C   UNL A   1      42.559  31.725  37.960  1.00  0.00     0.029 A 
ATOM     59  N   UNL A   1      41.660  31.258  35.980  1.00  0.00    -0.354 N 
ATOM     60  N   UNL A   1      41.425  29.798  33.444  1.00  0.00    -0.248 NA
ATOM     61  C   UNL A   1      42.245  28.228  31.923  1.00  0.00     0.031 C 
ATOM     62  C   UNL A   1      43.339  30.743  37.340  1.00  0.00     0.029 A 
ATOM     63  C   UNL A   1      42.764  30.432  36.118  1.00  0.00     0.049 A 
ATOM     64  H   UNL A   1      41.057  31.269  35.202  1.00  0.00     0.167 HD
ATOM     65  C   UNL A   1      42.564  29.205  33.973  1.00  0.00     0.074 A 
ATOM     66  C   UNL A   1      43.006  28.219  33.008  1.00  0.00     0.031 C 
ATOM     67  C   UNL A   1      43.188  29.452  35.150  1.00  0.00     0.037 A 
BRANCH  54  68
ATOM     68  C   UNL A   1      40.543  33.915  38.515  1.00  0.00     0.057 A 
ATOM     69  C   UNL A   1      39.814  33.579  39.664  1.00  0.00     0.134 A 
ATOM     70  C   UNL A   1      41.341  35.065  38.574  1.00  0.00     0.134 A 
ATOM     71  F   UNL A   1      39.021  32.496  39.673  1.00  0.00    -0.206 F 
ATOM     72  C   UNL A   1      39.851  34.370  40.812  1.00  0.00     0.040 A 
ATOM     73  C   UNL A   1      41.411  35.848  39.728  1.00  0.00     0.040 A 
ATOM     74  F   UNL A   1      42.071  35.444  37.514  1.00  0.00    -0.206 F 
ATOM     75  C   UNL A   1      40.658  35.505  40.849  1.00  0.00     0.006 A 
ENDBRANCH  54  68
BRANCH  55  76
ATOM     76  C   UNL A   1      40.072  28.681  30.018  1.00  0.00     0.057 A 
ATOM     77  C   UNL A   1      40.742  29.127  28.873  1.00  0.00     0.134 A 
ATOM     78  C   UNL A   1      39.346  27.489  29.915  1.00  0.00     0.134 A 
ATOM     79  F   UNL A   1      41.441  30.273  28.903  1.00  0.00    -0.206 F 
ATOM     80  C   UNL A   1      40.673  28.431  27.666  1.00  0.00     0.040 A 
ATOM     81  C   UNL A   1      39.291  26.766  28.722  1.00  0.00     0.040 A 
ATOM     82  F   UNL A   1      38.688  27.001  30.977  1.00  0.00    -0.206 F 
ATOM     83  C   UNL A   1      39.948  27.243  27.590  1.00  0.00     0.006 A 
ENDBRANCH  55  76
BRANCH  67  84
ATOM     84  C   UNL A   1      44.392  28.614  35.478  1.00  0.00     0.057 A 
ATOM     85  C   UNL A   1      44.287  27.400  36.168  1.00  0.00     0.134 A 
ATOM     86  C   UNL A   1      45.671  29.020  35.073  1.00  0.00     0.134 A 
ATOM     87  F   UNL A   1      43.094  26.961  36.595  1.00  0.00    -0.206 F 
ATOM     88  C   UNL A   1      45.415  26.634  36.471  1.00  0.00     0.040 A 
ATOM     89  C   UNL A   1      46.801  28.246  35.342  1.00  0.00     0.040 A 
ATOM     90  F   UNL A   1      45.841  30.167  34.399  1.00  0.00    -0.206 F 
ATOM     91  C   UNL A   1      46.676  27.054  36.051  1.00  0.00     0.006 A 
ENDBRANCH  67  84
ENDBRANCH  41  42
ENDBRANCH  33  36
ENDBRANCH  31  32
ENDBRANCH  30  31
ENDBRANCH  29  30
ENDBRANCH  28  29
ENDBRANCH  27  28
ENDBRANCH   1  27
TORSDOF 19
ENDMDL
