MODEL 1
REMARK VINA RESULT:     -11.6      0.000      0.000
REMARK SMILES Cc1cc(Cl)c2c(c1)C=C(C(=O)NCCCCCCNC(=O)c1ccc(-c3c4nc(c(-c5c(F)cccc5F)c5ccc([nH]5)c(-c5c(F)cccc5F)c5nc(c(-c6c(F)cccc6F)c6ccc3[nH]6)C=C5)C=C4)cc1)[C@@H](C(F)(F)F)O2
REMARK SMILES IDX 17 1 16 2 15 3 14 4 13 5 11 6 12 7 10 9 1 10 2 11 3 12 8 13
REMARK SMILES IDX 4 14 7 15 5 16 6 17 9 18 82 19 77 20 78 21 79 22 80 23 81 24
REMARK SMILES IDX 18 25 19 26 20 27 21 28 22 30 23 31 24 32 76 33 25 34 75 35
REMARK SMILES IDX 26 36 27 37 28 38 69 39 29 40 74 41 68 42 70 43 30 44 73 45
REMARK SMILES IDX 67 46 66 47 31 49 57 50 40 51 56 52 41 53 44 54 55 55 71 56
REMARK SMILES IDX 42 57 43 58 54 60 72 61 45 62 32 63 33 64 38 65 34 66 35 67
REMARK SMILES IDX 37 68 39 69 36 70 58 71 59 72 64 73 60 74 61 75 63 76 65 77
REMARK SMILES IDX 62 78 46 79 47 80 52 81 48 82 49 83 51 84 53 85 50 86
REMARK H PARENT 13 8 20 29 70 48 44 59
REMARK Flexibility Score: inf
ROOT
ATOM      1  C   UNL A   1      31.685  30.271  26.109  1.00  0.00     0.002 C 
ENDROOT
BRANCH   1   2
ATOM      2  C   UNL A   1      32.941  29.574  26.650  1.00  0.00     0.002 C 
BRANCH   2   3
ATOM      3  C   UNL A   1      33.790  28.863  25.592  1.00  0.00     0.021 C 
BRANCH   3   4
ATOM      4  C   UNL A   1      33.833  27.349  25.767  1.00  0.00     0.116 C 
BRANCH   4   5
ATOM      5  N   UNL A   1      33.743  26.657  24.495  1.00  0.00    -0.352 N 
ATOM      6  C   UNL A   1      32.816  26.483  23.525  1.00  0.00     0.251 C 
ATOM      7  O   UNL A   1      33.185  25.814  22.555  1.00  0.00    -0.270 OA
ATOM      8  H   UNL A   1      34.582  26.189  24.279  1.00  0.00     0.163 HD
BRANCH   6   9
ATOM      9  C   UNL A   1      31.425  27.027  23.559  1.00  0.00     0.067 C 
ATOM     10  C   UNL A   1      28.311  32.248  22.391  1.00  0.00     0.044 C 
ATOM     11  C   UNL A   1      28.487  30.799  22.734  1.00  0.00    -0.049 A 
ATOM     12  C   UNL A   1      27.378  30.001  23.037  1.00  0.00     0.028 A 
ATOM     13  C   UNL A   1      29.771  30.235  22.778  1.00  0.00     0.015 A 
ATOM     14  C   UNL A   1      27.550  28.657  23.363  1.00  0.00     0.084 A 
ATOM     15  C   UNL A   1      29.947  28.886  23.107  1.00  0.00     0.019 A 
ATOM     16  Cl  UNL A   1      26.150  27.707  23.713  1.00  0.00    -0.080 Cl
ATOM     17  C   UNL A   1      28.832  28.100  23.406  1.00  0.00     0.146 A 
ATOM     18  C   UNL A   1      31.275  28.282  23.100  1.00  0.00     0.025 C 
ATOM     19  O   UNL A   1      28.939  26.773  23.699  1.00  0.00    -0.474 OA
ATOM     20  C   UNL A   1      30.241  26.275  24.094  1.00  0.00     0.314 C 
BRANCH  20  21
ATOM     21  C   UNL A   1      30.276  26.123  25.626  1.00  0.00     0.429 C 
ATOM     22  F   UNL A   1      29.066  25.721  26.091  1.00  0.00    -0.167 F 
ATOM     23  F   UNL A   1      31.167  25.192  26.041  1.00  0.00    -0.167 F 
ATOM     24  F   UNL A   1      30.592  27.278  26.254  1.00  0.00    -0.167 F 
ENDBRANCH  20  21
ENDBRANCH   6   9
ENDBRANCH   4   5
ENDBRANCH   3   4
ENDBRANCH   2   3
ENDBRANCH   1   2
BRANCH   1  25
ATOM     25  C   UNL A   1      31.494  31.718  26.572  1.00  0.00     0.021 C 
BRANCH  25  26
ATOM     26  C   UNL A   1      32.768  32.386  27.074  1.00  0.00     0.116 C 
BRANCH  26  27
ATOM     27  N   UNL A   1      32.523  33.754  27.502  1.00  0.00    -0.352 N 
ATOM     28  C   UNL A   1      33.132  34.469  28.499  1.00  0.00     0.251 C 
ATOM     29  H   UNL A   1      31.822  34.233  27.005  1.00  0.00     0.163 HD
ATOM     30  O   UNL A   1      32.651  35.532  28.885  1.00  0.00    -0.269 OA
BRANCH  28  31
ATOM     31  C   UNL A   1      34.366  33.947  29.117  1.00  0.00     0.039 A 
ATOM     32  C   UNL A   1      34.267  33.146  30.255  1.00  0.00     0.014 A 
ATOM     33  C   UNL A   1      35.616  34.255  28.570  1.00  0.00     0.014 A 
ATOM     34  C   UNL A   1      35.425  32.611  30.820  1.00  0.00     0.010 A 
ATOM     35  C   UNL A   1      36.760  33.660  29.088  1.00  0.00     0.010 A 
ATOM     36  C   UNL A   1      36.676  32.843  30.225  1.00  0.00    -0.014 A 
BRANCH  36  37
ATOM     37  C   UNL A   1      37.912  32.256  30.795  1.00  0.00     0.031 A 
ATOM     38  C   UNL A   1      38.496  31.008  30.195  1.00  0.00     0.074 A 
ATOM     39  C   UNL A   1      38.486  32.829  31.870  1.00  0.00     0.049 A 
ATOM     40  N   UNL A   1      39.549  30.328  30.569  1.00  0.00    -0.248 NA
ATOM     41  C   UNL A   1      37.796  30.438  29.032  1.00  0.00     0.031 C 
ATOM     42  C   UNL A   1      37.992  34.024  32.556  1.00  0.00     0.029 A 
ATOM     43  N   UNL A   1      39.612  32.484  32.573  1.00  0.00    -0.354 N 
ATOM     44  C   UNL A   1      39.636  29.256  29.691  1.00  0.00     0.074 A 
ATOM     45  C   UNL A   1      38.495  29.337  28.805  1.00  0.00     0.031 C 
ATOM     46  C   UNL A   1      38.830  34.333  33.558  1.00  0.00     0.029 A 
ATOM     47  C   UNL A   1      39.896  33.336  33.613  1.00  0.00     0.049 A 
ATOM     48  H   UNL A   1      40.165  31.699  32.355  1.00  0.00     0.167 HD
ATOM     49  C   UNL A   1      40.599  28.310  29.609  1.00  0.00     0.037 A 
ATOM     50  C   UNL A   1      40.901  33.316  34.508  1.00  0.00     0.037 A 
ATOM     51  C   UNL A   1      41.740  28.244  30.482  1.00  0.00     0.049 A 
ATOM     52  C   UNL A   1      41.936  32.227  34.422  1.00  0.00     0.074 A 
ATOM     53  C   UNL A   1      42.790  27.343  30.458  1.00  0.00     0.029 A 
ATOM     54  N   UNL A   1      41.982  29.115  31.534  1.00  0.00    -0.354 N 
ATOM     55  N   UNL A   1      42.035  31.250  33.553  1.00  0.00    -0.248 NA
ATOM     56  C   UNL A   1      42.997  32.237  35.437  1.00  0.00     0.031 C 
ATOM     57  C   UNL A   1      43.640  27.637  31.526  1.00  0.00     0.029 A 
ATOM     58  C   UNL A   1      43.151  28.757  32.182  1.00  0.00     0.049 A 
ATOM     59  H   UNL A   1      41.406  29.874  31.783  1.00  0.00     0.167 HD
ATOM     60  C   UNL A   1      43.181  30.546  33.899  1.00  0.00     0.074 A 
ATOM     61  C   UNL A   1      43.752  31.218  35.048  1.00  0.00     0.031 C 
ATOM     62  C   UNL A   1      43.711  29.442  33.320  1.00  0.00     0.037 A 
BRANCH  49  63
ATOM     63  C   UNL A   1      40.473  27.276  28.528  1.00  0.00     0.057 A 
ATOM     64  C   UNL A   1      39.646  26.155  28.677  1.00  0.00     0.134 A 
ATOM     65  C   UNL A   1      41.130  27.436  27.301  1.00  0.00     0.134 A 
ATOM     66  F   UNL A   1      39.000  25.936  29.832  1.00  0.00    -0.206 F 
ATOM     67  C   UNL A   1      39.488  25.223  27.650  1.00  0.00     0.040 A 
ATOM     68  C   UNL A   1      40.956  26.526  26.256  1.00  0.00     0.040 A 
ATOM     69  F   UNL A   1      41.934  28.489  27.089  1.00  0.00    -0.206 F 
ATOM     70  C   UNL A   1      40.135  25.414  26.431  1.00  0.00     0.006 A 
ENDBRANCH  49  63
BRANCH  50  71
ATOM     71  C   UNL A   1      40.997  34.380  35.540  1.00  0.00     0.057 A 
ATOM     72  C   UNL A   1      40.347  34.249  36.773  1.00  0.00     0.134 A 
ATOM     73  C   UNL A   1      41.747  35.544  35.329  1.00  0.00     0.134 A 
ATOM     74  F   UNL A   1      39.600  33.165  37.029  1.00  0.00    -0.206 F 
ATOM     75  C   UNL A   1      40.425  35.240  37.752  1.00  0.00     0.040 A 
ATOM     76  C   UNL A   1      41.857  36.531  36.309  1.00  0.00     0.040 A 
ATOM     77  F   UNL A   1      42.401  35.728  34.173  1.00  0.00    -0.206 F 
ATOM     78  C   UNL A   1      41.189  36.384  37.523  1.00  0.00     0.006 A 
ENDBRANCH  50  71
BRANCH  62  79
ATOM     79  C   UNL A   1      44.985  28.897  33.896  1.00  0.00     0.057 A 
ATOM     80  C   UNL A   1      44.981  27.891  34.870  1.00  0.00     0.134 A 
ATOM     81  C   UNL A   1      46.228  29.322  33.410  1.00  0.00     0.134 A 
ATOM     82  F   UNL A   1      43.824  27.446  35.383  1.00  0.00    -0.206 F 
ATOM     83  C   UNL A   1      46.169  27.337  35.350  1.00  0.00     0.040 A 
ATOM     84  C   UNL A   1      47.421  28.755  33.859  1.00  0.00     0.040 A 
ATOM     85  F   UNL A   1      46.302  30.273  32.466  1.00  0.00    -0.206 F 
ATOM     86  C   UNL A   1      47.393  27.760  34.835  1.00  0.00     0.006 A 
ENDBRANCH  62  79
ENDBRANCH  36  37
ENDBRANCH  28  31
ENDBRANCH  26  27
ENDBRANCH  25  26
ENDBRANCH   1  25
TORSDOF 14
ENDMDL
MODEL 2
REMARK VINA RESULT:     -11.6      0.852      6.137
REMARK SMILES Cc1cc(Cl)c2c(c1)C=C(C(=O)NCCCCCCNC(=O)c1ccc(-c3c4nc(c(-c5c(F)cccc5F)c5ccc([nH]5)c(-c5c(F)cccc5F)c5nc(c(-c6c(F)cccc6F)c6ccc3[nH]6)C=C5)C=C4)cc1)[C@@H](C(F)(F)F)O2
REMARK SMILES IDX 17 1 16 2 15 3 14 4 13 5 11 6 12 7 10 9 1 10 2 11 3 12 8 13
REMARK SMILES IDX 4 14 7 15 5 16 6 17 9 18 82 19 77 20 78 21 79 22 80 23 81 24
REMARK SMILES IDX 18 25 19 26 20 27 21 28 22 30 23 31 24 32 76 33 25 34 75 35
REMARK SMILES IDX 26 36 27 37 28 38 69 39 29 40 74 41 68 42 70 43 30 44 73 45
REMARK SMILES IDX 67 46 66 47 31 49 57 50 40 51 56 52 41 53 44 54 55 55 71 56
REMARK SMILES IDX 42 57 43 58 54 60 72 61 45 62 32 63 33 64 38 65 34 66 35 67
REMARK SMILES IDX 37 68 39 69 36 70 58 71 59 72 64 73 60 74 61 75 63 76 65 77
REMARK SMILES IDX 62 78 46 79 47 80 52 81 48 82 49 83 51 84 53 85 50 86
REMARK H PARENT 13 8 20 29 70 48 44 59
REMARK Flexibility Score: inf
ROOT
ATOM      1  C   UNL A   1      31.808  30.407  26.255  1.00  0.00     0.002 C 
ENDROOT
BRANCH   1   2
ATOM      2  C   UNL A   1      32.903  29.558  26.915  1.00  0.00     0.002 C 
BRANCH   2   3
ATOM      3  C   UNL A   1      33.864  28.872  25.940  1.00  0.00     0.021 C 
BRANCH   3   4
ATOM      4  C   UNL A   1      33.796  27.351  25.990  1.00  0.00     0.116 C 
BRANCH   4   5
ATOM      5  N   UNL A   1      33.781  26.767  24.661  1.00  0.00    -0.352 N 
ATOM      6  C   UNL A   1      32.900  26.651  23.641  1.00  0.00     0.251 C 
ATOM      7  O   UNL A   1      33.330  26.079  22.635  1.00  0.00    -0.270 OA
ATOM      8  H   UNL A   1      34.643  26.344  24.444  1.00  0.00     0.163 HD
BRANCH   6   9
ATOM      9  C   UNL A   1      31.492  27.150  23.660  1.00  0.00     0.067 C 
ATOM     10  C   UNL A   1      28.254  32.335  22.692  1.00  0.00     0.044 C 
ATOM     11  C   UNL A   1      28.464  30.875  22.957  1.00  0.00    -0.049 A 
ATOM     12  C   UNL A   1      27.372  30.027  23.175  1.00  0.00     0.028 A 
ATOM     13  C   UNL A   1      29.763  30.347  23.010  1.00  0.00     0.015 A 
ATOM     14  C   UNL A   1      27.576  28.673  23.429  1.00  0.00     0.084 A 
ATOM     15  C   UNL A   1      29.972  28.988  23.267  1.00  0.00     0.019 A 
ATOM     16  Cl  UNL A   1      26.197  27.662  23.676  1.00  0.00    -0.080 Cl
ATOM     17  C   UNL A   1      28.873  28.153  23.483  1.00  0.00     0.146 A 
ATOM     18  C   UNL A   1      31.317  28.425  23.269  1.00  0.00     0.025 C 
ATOM     19  O   UNL A   1      29.013  26.814  23.702  1.00  0.00    -0.474 OA
ATOM     20  C   UNL A   1      30.317  26.333  24.111  1.00  0.00     0.314 C 
BRANCH  20  21
ATOM     21  C   UNL A   1      30.308  26.092  25.632  1.00  0.00     0.429 C 
ATOM     22  F   UNL A   1      30.615  27.235  26.295  1.00  0.00    -0.167 F 
ATOM     23  F   UNL A   1      29.098  25.702  26.095  1.00  0.00    -0.167 F 
ATOM     24  F   UNL A   1      31.198  25.148  26.012  1.00  0.00    -0.167 F 
ENDBRANCH  20  21
ENDBRANCH   6   9
ENDBRANCH   4   5
ENDBRANCH   3   4
ENDBRANCH   2   3
ENDBRANCH   1   2
BRANCH   1  25
ATOM     25  C   UNL A   1      31.606  31.796  26.865  1.00  0.00     0.021 C 
BRANCH  25  26
ATOM     26  C   UNL A   1      32.859  32.662  26.875  1.00  0.00     0.116 C 
BRANCH  26  27
ATOM     27  N   UNL A   1      32.613  33.955  27.493  1.00  0.00    -0.352 N 
ATOM     28  C   UNL A   1      33.170  34.493  28.622  1.00  0.00     0.251 C 
ATOM     29  H   UNL A   1      31.954  34.524  27.034  1.00  0.00     0.163 HD
ATOM     30  O   UNL A   1      32.685  35.498  29.137  1.00  0.00    -0.269 OA
BRANCH  28  31
ATOM     31  C   UNL A   1      34.353  33.850  29.225  1.00  0.00     0.039 A 
ATOM     32  C   UNL A   1      34.166  32.837  30.168  1.00  0.00     0.014 A 
ATOM     33  C   UNL A   1      35.641  34.252  28.859  1.00  0.00     0.014 A 
ATOM     34  C   UNL A   1      35.277  32.191  30.710  1.00  0.00     0.010 A 
ATOM     35  C   UNL A   1      36.744  33.557  29.343  1.00  0.00     0.010 A 
ATOM     36  C   UNL A   1      36.572  32.529  30.282  1.00  0.00    -0.014 A 
BRANCH  36  37
ATOM     37  C   UNL A   1      37.761  31.830  30.826  1.00  0.00     0.031 A 
ATOM     38  C   UNL A   1      38.288  32.195  32.184  1.00  0.00     0.074 A 
ATOM     39  C   UNL A   1      38.380  30.894  30.082  1.00  0.00     0.049 A 
ATOM     40  N   UNL A   1      39.330  31.722  32.818  1.00  0.00    -0.248 NA
ATOM     41  C   UNL A   1      37.560  33.241  32.922  1.00  0.00     0.031 C 
ATOM     42  C   UNL A   1      37.977  30.478  28.738  1.00  0.00     0.029 A 
ATOM     43  N   UNL A   1      39.480  30.120  30.353  1.00  0.00    -0.354 N 
ATOM     44  C   UNL A   1      39.381  32.411  34.024  1.00  0.00     0.074 A 
ATOM     45  C   UNL A   1      38.306  33.378  34.008  1.00  0.00     0.031 C 
ATOM     46  C   UNL A   1      38.794  29.500  28.316  1.00  0.00     0.029 A 
ATOM     47  C   UNL A   1      39.804  29.249  29.341  1.00  0.00     0.049 A 
ATOM     48  H   UNL A   1      39.989  30.181  31.194  1.00  0.00     0.167 HD
ATOM     49  C   UNL A   1      40.227  32.228  35.063  1.00  0.00     0.037 A 
ATOM     50  C   UNL A   1      40.803  28.351  29.250  1.00  0.00     0.037 A 
ATOM     51  C   UNL A   1      41.284  31.252  35.080  1.00  0.00     0.049 A 
ATOM     52  C   UNL A   1      41.757  28.197  30.403  1.00  0.00     0.074 A 
ATOM     53  C   UNL A   1      42.174  30.967  36.100  1.00  0.00     0.029 A 
ATOM     54  N   UNL A   1      41.592  30.402  34.028  1.00  0.00    -0.354 N 
ATOM     55  N   UNL A   1      41.761  28.818  31.558  1.00  0.00    -0.248 NA
ATOM     56  C   UNL A   1      42.843  27.221  30.242  1.00  0.00     0.031 C 
ATOM     57  C   UNL A   1      43.052  29.980  35.647  1.00  0.00     0.029 A 
ATOM     58  C   UNL A   1      42.675  29.609  34.366  1.00  0.00     0.049 A 
ATOM     59  H   UNL A   1      41.113  30.369  33.168  1.00  0.00     0.167 HD
ATOM     60  C   UNL A   1      42.830  28.290  32.271  1.00  0.00     0.074 A 
ATOM     61  C   UNL A   1      43.441  27.286  31.424  1.00  0.00     0.031 C 
ATOM     62  C   UNL A   1      43.266  28.608  33.514  1.00  0.00     0.037 A 
BRANCH  49  63
ATOM     63  C   UNL A   1      40.037  33.087  36.279  1.00  0.00     0.057 A 
ATOM     64  C   UNL A   1      40.759  34.275  36.458  1.00  0.00     0.134 A 
ATOM     65  C   UNL A   1      39.076  32.763  37.244  1.00  0.00     0.134 A 
ATOM     66  F   UNL A   1      41.703  34.636  35.577  1.00  0.00    -0.206 F 
ATOM     67  C   UNL A   1      40.541  35.101  37.562  1.00  0.00     0.040 A 
ATOM     68  C   UNL A   1      38.829  33.596  38.338  1.00  0.00     0.040 A 
ATOM     69  F   UNL A   1      38.346  31.642  37.132  1.00  0.00    -0.206 F 
ATOM     70  C   UNL A   1      39.566  34.768  38.499  1.00  0.00     0.006 A 
ENDBRANCH  49  63
BRANCH  50  71
ATOM     71  C   UNL A   1      40.930  27.503  28.037  1.00  0.00     0.057 A 
ATOM     72  C   UNL A   1      40.277  26.268  27.949  1.00  0.00     0.134 A 
ATOM     73  C   UNL A   1      41.695  27.907  26.934  1.00  0.00     0.134 A 
ATOM     74  F   UNL A   1      39.543  25.819  28.977  1.00  0.00    -0.206 F 
ATOM     75  C   UNL A   1      40.388  25.459  26.816  1.00  0.00     0.040 A 
ATOM     76  C   UNL A   1      41.794  27.121  25.786  1.00  0.00     0.040 A 
ATOM     77  F   UNL A   1      42.340  29.082  26.952  1.00  0.00    -0.206 F 
ATOM     78  C   UNL A   1      41.143  25.890  25.727  1.00  0.00     0.006 A 
ENDBRANCH  50  71
BRANCH  62  79
ATOM     79  C   UNL A   1      44.447  27.854  34.052  1.00  0.00     0.057 A 
ATOM     80  C   UNL A   1      44.300  26.631  34.717  1.00  0.00     0.134 A 
ATOM     81  C   UNL A   1      45.751  28.316  33.827  1.00  0.00     0.134 A 
ATOM     82  F   UNL A   1      43.078  26.139  34.971  1.00  0.00    -0.206 F 
ATOM     83  C   UNL A   1      45.406  25.901  35.152  1.00  0.00     0.040 A 
ATOM     84  C   UNL A   1      46.865  27.580  34.230  1.00  0.00     0.040 A 
ATOM     85  F   UNL A   1      45.963  29.474  33.183  1.00  0.00    -0.206 F 
ATOM     86  C   UNL A   1      46.694  26.369  34.897  1.00  0.00     0.006 A 
ENDBRANCH  62  79
ENDBRANCH  36  37
ENDBRANCH  28  31
ENDBRANCH  26  27
ENDBRANCH  25  26
ENDBRANCH   1  25
TORSDOF 14
ENDMDL
MODEL 3
REMARK VINA RESULT:     -11.6      3.932      8.368
REMARK SMILES Cc1cc(Cl)c2c(c1)C=C(C(=O)NCCCCCCNC(=O)c1ccc(-c3c4nc(c(-c5c(F)cccc5F)c5ccc([nH]5)c(-c5c(F)cccc5F)c5nc(c(-c6c(F)cccc6F)c6ccc3[nH]6)C=C5)C=C4)cc1)[C@@H](C(F)(F)F)O2
REMARK SMILES IDX 17 1 16 2 15 3 14 4 13 5 11 6 12 7 10 9 1 10 2 11 3 12 8 13
REMARK SMILES IDX 4 14 7 15 5 16 6 17 9 18 82 19 77 20 78 21 79 22 80 23 81 24
REMARK SMILES IDX 18 25 19 26 20 27 21 28 22 30 23 31 24 32 76 33 25 34 75 35
REMARK SMILES IDX 26 36 27 37 28 38 69 39 29 40 74 41 68 42 70 43 30 44 73 45
REMARK SMILES IDX 67 46 66 47 31 49 57 50 40 51 56 52 41 53 44 54 55 55 71 56
REMARK SMILES IDX 42 57 43 58 54 60 72 61 45 62 32 63 33 64 38 65 34 66 35 67
REMARK SMILES IDX 37 68 39 69 36 70 58 71 59 72 64 73 60 74 61 75 63 76 65 77
REMARK SMILES IDX 62 78 46 79 47 80 52 81 48 82 49 83 51 84 53 85 50 86
REMARK H PARENT 13 8 20 29 70 48 44 59
REMARK Flexibility Score: inf
ROOT
ATOM      1  C   UNL A   1      31.613  27.412  26.904  1.00  0.00     0.002 C 
ENDROOT
BRANCH   1   2
ATOM      2  C   UNL A   1      30.683  26.701  25.910  1.00  0.00     0.002 C 
BRANCH   2   3
ATOM      3  C   UNL A   1      30.931  27.043  24.438  1.00  0.00     0.021 C 
BRANCH   3   4
ATOM      4  C   UNL A   1      30.697  25.868  23.496  1.00  0.00     0.116 C 
BRANCH   4   5
ATOM      5  N   UNL A   1      31.627  25.877  22.382  1.00  0.00    -0.352 N 
ATOM      6  C   UNL A   1      32.720  25.177  21.999  1.00  0.00     0.251 C 
ATOM      7  O   UNL A   1      33.209  25.512  20.916  1.00  0.00    -0.270 OA
ATOM      8  H   UNL A   1      31.402  26.579  21.729  1.00  0.00     0.163 HD
BRANCH   6   9
ATOM      9  C   UNL A   1      33.349  24.070  22.781  1.00  0.00     0.067 C 
ATOM     10  C   UNL A   1      32.286  18.205  24.450  1.00  0.00     0.044 C 
ATOM     11  C   UNL A   1      33.072  19.473  24.309  1.00  0.00    -0.049 A 
ATOM     12  C   UNL A   1      34.352  19.581  24.863  1.00  0.00     0.028 A 
ATOM     13  C   UNL A   1      32.521  20.575  23.636  1.00  0.00     0.015 A 
ATOM     14  C   UNL A   1      35.074  20.766  24.735  1.00  0.00     0.084 A 
ATOM     15  C   UNL A   1      33.242  21.767  23.508  1.00  0.00     0.019 A 
ATOM     16  Cl  UNL A   1      36.657  20.848  25.423  1.00  0.00    -0.080 Cl
ATOM     17  C   UNL A   1      34.519  21.861  24.066  1.00  0.00     0.146 A 
ATOM     18  C   UNL A   1      32.695  22.894  22.762  1.00  0.00     0.025 C 
ATOM     19  O   UNL A   1      35.282  22.985  23.941  1.00  0.00    -0.474 OA
ATOM     20  C   UNL A   1      34.610  24.216  23.580  1.00  0.00     0.314 C 
BRANCH  20  21
ATOM     21  C   UNL A   1      34.416  25.071  24.847  1.00  0.00     0.429 C 
ATOM     22  F   UNL A   1      34.385  26.389  24.530  1.00  0.00    -0.167 F 
ATOM     23  F   UNL A   1      33.250  24.809  25.482  1.00  0.00    -0.167 F 
ATOM     24  F   UNL A   1      35.405  24.890  25.750  1.00  0.00    -0.167 F 
ENDBRANCH  20  21
ENDBRANCH   6   9
ENDBRANCH   4   5
ENDBRANCH   3   4
ENDBRANCH   2   3
ENDBRANCH   1   2
BRANCH   1  25
ATOM     25  C   UNL A   1      32.749  28.218  26.268  1.00  0.00     0.021 C 
BRANCH  25  26
ATOM     26  C   UNL A   1      33.879  28.567  27.228  1.00  0.00     0.116 C 
BRANCH  26  27
ATOM     27  N   UNL A   1      33.788  29.944  27.686  1.00  0.00    -0.352 N 
ATOM     28  C   UNL A   1      34.701  30.681  28.392  1.00  0.00     0.251 C 
ATOM     29  H   UNL A   1      32.953  30.411  27.457  1.00  0.00     0.163 HD
ATOM     30  O   UNL A   1      34.376  31.752  28.901  1.00  0.00    -0.269 OA
BRANCH  28  31
ATOM     31  C   UNL A   1      36.077  30.175  28.550  1.00  0.00     0.039 A 
ATOM     32  C   UNL A   1      36.959  30.264  27.471  1.00  0.00     0.014 A 
ATOM     33  C   UNL A   1      36.490  29.611  29.761  1.00  0.00     0.014 A 
ATOM     34  C   UNL A   1      38.276  29.829  27.624  1.00  0.00     0.010 A 
ATOM     35  C   UNL A   1      37.821  29.250  29.935  1.00  0.00     0.010 A 
ATOM     36  C   UNL A   1      38.722  29.345  28.864  1.00  0.00    -0.014 A 
BRANCH  36  37
ATOM     37  C   UNL A   1      40.127  28.908  29.051  1.00  0.00     0.031 A 
ATOM     38  C   UNL A   1      41.122  29.837  29.686  1.00  0.00     0.074 A 
ATOM     39  C   UNL A   1      40.508  27.691  28.620  1.00  0.00     0.049 A 
ATOM     40  N   UNL A   1      42.398  29.651  29.907  1.00  0.00    -0.248 NA
ATOM     41  C   UNL A   1      40.625  31.155  30.113  1.00  0.00     0.031 C 
ATOM     42  C   UNL A   1      39.637  26.716  27.962  1.00  0.00     0.029 A 
ATOM     43  N   UNL A   1      41.727  27.064  28.672  1.00  0.00    -0.354 N 
ATOM     44  C   UNL A   1      42.852  30.824  30.497  1.00  0.00     0.074 A 
ATOM     45  C   UNL A   1      41.734  31.739  30.542  1.00  0.00     0.031 C 
ATOM     46  C   UNL A   1      40.340  25.601  27.705  1.00  0.00     0.029 A 
ATOM     47  C   UNL A   1      41.720  25.797  28.140  1.00  0.00     0.049 A 
ATOM     48  H   UNL A   1      42.533  27.482  29.055  1.00  0.00     0.167 HD
ATOM     49  C   UNL A   1      44.082  31.099  30.988  1.00  0.00     0.037 A 
ATOM     50  C   UNL A   1      42.714  24.897  28.018  1.00  0.00     0.037 A 
ATOM     51  C   UNL A   1      45.187  30.178  30.957  1.00  0.00     0.049 A 
ATOM     52  C   UNL A   1      44.083  25.244  28.533  1.00  0.00     0.074 A 
ATOM     53  C   UNL A   1      46.464  30.350  31.459  1.00  0.00     0.029 A 
ATOM     54  N   UNL A   1      45.144  28.911  30.392  1.00  0.00    -0.354 N 
ATOM     55  N   UNL A   1      44.485  26.337  29.137  1.00  0.00    -0.248 NA
ATOM     56  C   UNL A   1      45.137  24.236  28.353  1.00  0.00     0.031 C 
ATOM     57  C   UNL A   1      47.209  29.209  31.154  1.00  0.00     0.029 A 
ATOM     58  C   UNL A   1      46.381  28.301  30.512  1.00  0.00     0.049 A 
ATOM     59  H   UNL A   1      44.352  28.507  29.968  1.00  0.00     0.167 HD
ATOM     60  C   UNL A   1      45.828  26.138  29.432  1.00  0.00     0.074 A 
ATOM     61  C   UNL A   1      46.168  24.814  28.955  1.00  0.00     0.031 C 
ATOM     62  C   UNL A   1      46.701  26.977  30.040  1.00  0.00     0.037 A 
BRANCH  49  63
ATOM     63  C   UNL A   1      44.298  32.443  31.620  1.00  0.00     0.057 A 
ATOM     64  C   UNL A   1      44.704  33.552  30.865  1.00  0.00     0.134 A 
ATOM     65  C   UNL A   1      44.033  32.649  32.979  1.00  0.00     0.134 A 
ATOM     66  F   UNL A   1      44.987  33.419  29.561  1.00  0.00    -0.206 F 
ATOM     67  C   UNL A   1      44.852  34.813  31.443  1.00  0.00     0.040 A 
ATOM     68  C   UNL A   1      44.150  33.913  33.562  1.00  0.00     0.040 A 
ATOM     69  F   UNL A   1      43.637  31.632  33.759  1.00  0.00    -0.206 F 
ATOM     70  C   UNL A   1      44.562  34.999  32.793  1.00  0.00     0.006 A 
ENDBRANCH  49  63
BRANCH  50  71
ATOM     71  C   UNL A   1      42.440  23.569  27.412  1.00  0.00     0.057 A 
ATOM     72  C   UNL A   1      42.541  23.372  26.030  1.00  0.00     0.134 A 
ATOM     73  C   UNL A   1      42.085  22.463  28.195  1.00  0.00     0.134 A 
ATOM     74  F   UNL A   1      42.862  24.396  25.226  1.00  0.00    -0.206 F 
ATOM     75  C   UNL A   1      42.285  22.131  25.446  1.00  0.00     0.040 A 
ATOM     76  C   UNL A   1      41.852  21.209  27.628  1.00  0.00     0.040 A 
ATOM     77  F   UNL A   1      41.978  22.582  29.527  1.00  0.00    -0.206 F 
ATOM     78  C   UNL A   1      41.947  21.042  26.247  1.00  0.00     0.006 A 
ENDBRANCH  50  71
BRANCH  62  79
ATOM     79  C   UNL A   1      48.104  26.490  30.251  1.00  0.00     0.057 A 
ATOM     80  C   UNL A   1      49.115  26.727  29.312  1.00  0.00     0.134 A 
ATOM     81  C   UNL A   1      48.467  25.851  31.444  1.00  0.00     0.134 A 
ATOM     82  F   UNL A   1      48.832  27.327  28.145  1.00  0.00    -0.206 F 
ATOM     83  C   UNL A   1      50.433  26.335  29.545  1.00  0.00     0.040 A 
ATOM     84  C   UNL A   1      49.786  25.481  31.702  1.00  0.00     0.040 A 
ATOM     85  F   UNL A   1      47.548  25.605  32.391  1.00  0.00    -0.206 F 
ATOM     86  C   UNL A   1      50.774  25.721  30.749  1.00  0.00     0.006 A 
ENDBRANCH  62  79
ENDBRANCH  36  37
ENDBRANCH  28  31
ENDBRANCH  26  27
ENDBRANCH  25  26
ENDBRANCH   1  25
TORSDOF 14
ENDMDL
