MODEL 1
REMARK VINA RESULT:     -13.0      0.000      0.000
REMARK SMILES Cc1nn(C(C)C)c(C)c1S(=O)(=O)Nc1cccc(C(=O)NCCCCCCNC(=O)c2ccc(-c3c4nc(c(-c5c(F)cccc5F)c5ccc([nH]5)c(-c5c(F)cccc5F)c5nc(c(-c6c(F)cccc6F)c6ccc3[nH]6)C=C5)C=C4)cc2)c1C
REMARK SMILES IDX 24 1 23 2 22 3 20 4 21 5 19 7 15 8 16 9 86 10 17 11 87 12
REMARK SMILES IDX 18 13 14 14 11 16 12 17 13 18 10 19 1 20 2 21 3 22 4 23 8 24
REMARK SMILES IDX 9 25 5 26 6 27 7 28 25 29 26 30 27 31 28 32 29 33 30 34
REMARK SMILES IDX 31 36 32 37 33 38 85 39 34 40 84 41 35 42 36 43 37 44 78 45
REMARK SMILES IDX 38 46 83 47 77 48 79 49 39 50 82 51 76 52 75 53 40 55 66 56
REMARK SMILES IDX 49 57 65 58 50 59 53 60 64 61 80 62 51 63 52 64 63 66 81 67
REMARK SMILES IDX 54 68 41 69 42 70 47 71 43 72 44 73 46 74 48 75 45 76 67 77
REMARK SMILES IDX 68 78 73 79 69 80 70 81 72 82 74 83 71 84 55 85 56 86 61 87
REMARK SMILES IDX 57 88 58 89 60 90 62 91 59 92
REMARK H PARENT 22 6 14 15 29 35 79 54 53 65
REMARK Flexibility Score: inf
ROOT
ATOM      1  C   UNL A   1      35.388  22.255  26.188  1.00  0.00     0.021 C 
ENDROOT
BRANCH   1   2
ATOM      2  C   UNL A   1      34.383  21.683  27.191  1.00  0.00     0.116 C 
BRANCH   2   3
ATOM      3  N   UNL A   1      33.552  20.661  26.593  1.00  0.00    -0.352 N 
ATOM      4  C   UNL A   1      32.554  20.647  25.654  1.00  0.00     0.251 C 
ATOM      5  O   UNL A   1      32.351  19.530  25.176  1.00  0.00    -0.269 OA
ATOM      6  H   UNL A   1      33.750  19.763  26.944  1.00  0.00     0.163 HD
BRANCH   4   7
ATOM      7  C   UNL A   1      31.785  21.851  25.165  1.00  0.00     0.044 A 
ATOM      8  C   UNL A   1      31.486  23.601  23.473  1.00  0.00     0.053 A 
ATOM      9  C   UNL A   1      30.642  24.304  24.327  1.00  0.00     0.027 A 
ATOM     10  C   UNL A   1      31.928  22.299  23.821  1.00  0.00    -0.014 A 
ATOM     11  C   UNL A   1      30.340  23.777  25.580  1.00  0.00     0.003 A 
ATOM     12  C   UNL A   1      32.554  21.441  22.744  1.00  0.00     0.047 C 
ATOM     13  C   UNL A   1      30.928  22.579  26.003  1.00  0.00     0.014 A 
BRANCH   8  14
ATOM     14  N   UNL A   1      31.984  24.175  22.275  1.00  0.00    -0.279 N 
ATOM     15  H   UNL A   1      32.100  23.558  21.517  1.00  0.00     0.180 HD
BRANCH  14  16
ATOM     16  S   UNL A   1      32.395  25.756  21.992  1.00  0.00     0.265 S 
ATOM     17  O   UNL A   1      31.571  26.287  20.926  1.00  0.00    -0.201 OA
ATOM     18  O   UNL A   1      33.838  25.703  21.851  1.00  0.00    -0.201 OA
BRANCH  16  19
ATOM     19  C   UNL A   1      32.169  26.888  23.282  1.00  0.00     0.131 A 
ATOM     20  C   UNL A   1      30.343  28.651  22.482  1.00  0.00     0.070 C 
ATOM     21  C   UNL A   1      31.349  28.042  23.375  1.00  0.00     0.080 A 
ATOM     22  N   UNL A   1      31.578  28.707  24.513  1.00  0.00    -0.176 NA
ATOM     23  N   UNL A   1      32.525  28.006  25.146  1.00  0.00    -0.266 N 
ATOM     24  C   UNL A   1      32.885  26.865  24.479  1.00  0.00     0.056 A 
ATOM     25  C   UNL A   1      33.884  25.903  25.015  1.00  0.00     0.068 C 
BRANCH  23  26
ATOM     26  C   UNL A   1      33.081  28.554  26.383  1.00  0.00     0.101 C 
ATOM     27  C   UNL A   1      33.318  30.059  26.244  1.00  0.00     0.033 C 
ATOM     28  C   UNL A   1      32.188  28.242  27.584  1.00  0.00     0.033 C 
ENDBRANCH  23  26
ENDBRANCH  16  19
ENDBRANCH  14  16
ENDBRANCH   8  14
ENDBRANCH   4   7
ENDBRANCH   2   3
ENDBRANCH   1   2
BRANCH   1  29
ATOM     29  C   UNL A   1      36.039  21.236  25.234  1.00  0.00     0.002 C 
BRANCH  29  30
ATOM     30  C   UNL A   1      37.432  21.577  24.678  1.00  0.00     0.002 C 
BRANCH  30  31
ATOM     31  C   UNL A   1      38.584  21.591  25.685  1.00  0.00     0.021 C 
BRANCH  31  32
ATOM     32  C   UNL A   1      38.968  22.975  26.190  1.00  0.00     0.116 C 
BRANCH  32  33
ATOM     33  N   UNL A   1      40.393  23.125  26.463  1.00  0.00    -0.352 N 
ATOM     34  C   UNL A   1      41.080  24.263  26.871  1.00  0.00     0.251 C 
ATOM     35  H   UNL A   1      40.939  22.315  26.342  1.00  0.00     0.163 HD
ATOM     36  O   UNL A   1      42.261  24.233  27.120  1.00  0.00    -0.269 OA
BRANCH  34  37
ATOM     37  C   UNL A   1      40.283  25.490  27.117  1.00  0.00     0.039 A 
ATOM     38  C   UNL A   1      40.653  26.647  26.425  1.00  0.00     0.014 A 
ATOM     39  C   UNL A   1      39.395  25.549  28.189  1.00  0.00     0.014 A 
ATOM     40  C   UNL A   1      40.341  27.886  26.972  1.00  0.00     0.010 A 
ATOM     41  C   UNL A   1      39.159  26.775  28.780  1.00  0.00     0.010 A 
ATOM     42  C   UNL A   1      39.702  27.934  28.212  1.00  0.00    -0.014 A 
BRANCH  42  43
ATOM     43  C   UNL A   1      39.712  29.132  29.045  1.00  0.00     0.031 A 
ATOM     44  C   UNL A   1      38.668  30.162  28.897  1.00  0.00     0.074 A 
ATOM     45  C   UNL A   1      40.684  29.282  29.972  1.00  0.00     0.049 A 
ATOM     46  N   UNL A   1      38.827  31.409  29.197  1.00  0.00    -0.248 NA
ATOM     47  C   UNL A   1      37.355  29.866  28.344  1.00  0.00     0.031 C 
ATOM     48  C   UNL A   1      40.753  30.279  31.035  1.00  0.00     0.029 A 
ATOM     49  N   UNL A   1      41.947  28.672  29.981  1.00  0.00    -0.354 N 
ATOM     50  C   UNL A   1      37.595  32.018  29.132  1.00  0.00     0.074 A 
ATOM     51  C   UNL A   1      36.726  31.029  28.534  1.00  0.00     0.031 C 
ATOM     52  C   UNL A   1      42.036  30.429  31.403  1.00  0.00     0.029 A 
ATOM     53  C   UNL A   1      42.841  29.637  30.489  1.00  0.00     0.049 A 
ATOM     54  H   UNL A   1      42.165  27.756  29.692  1.00  0.00     0.167 HD
ATOM     55  C   UNL A   1      37.419  33.241  29.716  1.00  0.00     0.037 A 
ATOM     56  C   UNL A   1      43.876  30.117  29.741  1.00  0.00     0.037 A 
ATOM     57  C   UNL A   1      38.677  33.760  30.249  1.00  0.00     0.049 A 
ATOM     58  C   UNL A   1      43.849  31.615  29.545  1.00  0.00     0.074 A 
ATOM     59  C   UNL A   1      39.230  33.741  31.520  1.00  0.00     0.029 A 
ATOM     60  N   UNL A   1      39.699  34.131  29.383  1.00  0.00    -0.354 N 
ATOM     61  N   UNL A   1      42.786  32.351  29.711  1.00  0.00    -0.248 NA
ATOM     62  C   UNL A   1      45.005  32.391  29.102  1.00  0.00     0.031 C 
ATOM     63  C   UNL A   1      40.606  34.048  31.408  1.00  0.00     0.029 A 
ATOM     64  C   UNL A   1      40.888  34.272  30.072  1.00  0.00     0.049 A 
ATOM     65  H   UNL A   1      39.590  34.272  28.415  1.00  0.00     0.167 HD
ATOM     66  C   UNL A   1      43.073  33.647  29.369  1.00  0.00     0.074 A 
ATOM     67  C   UNL A   1      44.482  33.627  29.024  1.00  0.00     0.031 C 
ATOM     68  C   UNL A   1      42.119  34.623  29.381  1.00  0.00     0.037 A 
BRANCH  55  69
ATOM     69  C   UNL A   1      36.060  33.800  30.086  1.00  0.00     0.057 A 
ATOM     70  C   UNL A   1      35.174  34.269  29.093  1.00  0.00     0.134 A 
ATOM     71  C   UNL A   1      35.592  33.972  31.398  1.00  0.00     0.134 A 
ATOM     72  F   UNL A   1      35.399  34.064  27.789  1.00  0.00    -0.206 F 
ATOM     73  C   UNL A   1      34.002  34.980  29.387  1.00  0.00     0.040 A 
ATOM     74  C   UNL A   1      34.450  34.728  31.710  1.00  0.00     0.040 A 
ATOM     75  F   UNL A   1      36.183  33.367  32.436  1.00  0.00    -0.206 F 
ATOM     76  C   UNL A   1      33.661  35.254  30.701  1.00  0.00     0.006 A 
ENDBRANCH  55  69
BRANCH  56  77
ATOM     77  C   UNL A   1      44.393  29.149  28.739  1.00  0.00     0.057 A 
ATOM     78  C   UNL A   1      45.197  28.082  29.177  1.00  0.00     0.134 A 
ATOM     79  C   UNL A   1      43.852  29.053  27.455  1.00  0.00     0.134 A 
ATOM     80  F   UNL A   1      45.747  28.109  30.402  1.00  0.00    -0.206 F 
ATOM     81  C   UNL A   1      45.368  26.923  28.415  1.00  0.00     0.040 A 
ATOM     82  C   UNL A   1      44.026  27.902  26.676  1.00  0.00     0.040 A 
ATOM     83  F   UNL A   1      43.056  30.019  26.974  1.00  0.00    -0.206 F 
ATOM     84  C   UNL A   1      44.756  26.821  27.170  1.00  0.00     0.006 A 
ENDBRANCH  56  77
BRANCH  68  85
ATOM     85  C   UNL A   1      42.278  36.014  28.825  1.00  0.00     0.057 A 
ATOM     86  C   UNL A   1      42.975  37.045  29.473  1.00  0.00     0.134 A 
ATOM     87  C   UNL A   1      41.842  36.314  27.515  1.00  0.00     0.134 A 
ATOM     88  F   UNL A   1      43.538  36.862  30.674  1.00  0.00    -0.206 F 
ATOM     89  C   UNL A   1      43.173  38.301  28.885  1.00  0.00     0.040 A 
ATOM     90  C   UNL A   1      42.080  37.546  26.899  1.00  0.00     0.040 A 
ATOM     91  F   UNL A   1      41.186  35.412  26.769  1.00  0.00    -0.206 F 
ATOM     92  C   UNL A   1      42.736  38.552  27.590  1.00  0.00     0.006 A 
ENDBRANCH  68  85
ENDBRANCH  42  43
ENDBRANCH  34  37
ENDBRANCH  32  33
ENDBRANCH  31  32
ENDBRANCH  30  31
ENDBRANCH  29  30
ENDBRANCH   1  29
TORSDOF 17
ENDMDL
MODEL 2
REMARK VINA RESULT:     -12.8      3.577      9.370
REMARK SMILES Cc1nn(C(C)C)c(C)c1S(=O)(=O)Nc1cccc(C(=O)NCCCCCCNC(=O)c2ccc(-c3c4nc(c(-c5c(F)cccc5F)c5ccc([nH]5)c(-c5c(F)cccc5F)c5nc(c(-c6c(F)cccc6F)c6ccc3[nH]6)C=C5)C=C4)cc2)c1C
REMARK SMILES IDX 24 1 23 2 22 3 20 4 21 5 19 7 15 8 16 9 86 10 17 11 87 12
REMARK SMILES IDX 18 13 14 14 11 16 12 17 13 18 10 19 1 20 2 21 3 22 4 23 8 24
REMARK SMILES IDX 9 25 5 26 6 27 7 28 25 29 26 30 27 31 28 32 29 33 30 34
REMARK SMILES IDX 31 36 32 37 33 38 85 39 34 40 84 41 35 42 36 43 37 44 78 45
REMARK SMILES IDX 38 46 83 47 77 48 79 49 39 50 82 51 76 52 75 53 40 55 66 56
REMARK SMILES IDX 49 57 65 58 50 59 53 60 64 61 80 62 51 63 52 64 63 66 81 67
REMARK SMILES IDX 54 68 41 69 42 70 47 71 43 72 44 73 46 74 48 75 45 76 67 77
REMARK SMILES IDX 68 78 73 79 69 80 70 81 72 82 74 83 71 84 55 85 56 86 61 87
REMARK SMILES IDX 57 88 58 89 60 90 62 91 59 92
REMARK H PARENT 22 6 14 15 29 35 79 54 53 65
REMARK Flexibility Score: inf
ROOT
ATOM      1  C   UNL A   1      31.825  30.078  25.255  1.00  0.00     0.021 C 
ENDROOT
BRANCH   1   2
ATOM      2  C   UNL A   1      30.535  29.880  24.454  1.00  0.00     0.116 C 
BRANCH   2   3
ATOM      3  N   UNL A   1      30.736  28.997  23.325  1.00  0.00    -0.352 N 
ATOM      4  C   UNL A   1      30.973  27.656  23.171  1.00  0.00     0.251 C 
ATOM      5  O   UNL A   1      30.734  27.249  22.033  1.00  0.00    -0.269 OA
ATOM      6  H   UNL A   1      30.692  29.473  22.464  1.00  0.00     0.163 HD
BRANCH   4   7
ATOM      7  C   UNL A   1      31.421  26.708  24.257  1.00  0.00     0.044 A 
ATOM      8  C   UNL A   1      33.192  25.313  25.221  1.00  0.00     0.053 A 
ATOM      9  C   UNL A   1      32.265  24.672  26.037  1.00  0.00     0.027 A 
ATOM     10  C   UNL A   1      32.806  26.440  24.451  1.00  0.00    -0.014 A 
ATOM     11  C   UNL A   1      30.929  25.062  25.994  1.00  0.00     0.003 A 
ATOM     12  C   UNL A   1      33.891  27.306  23.850  1.00  0.00     0.047 C 
ATOM     13  C   UNL A   1      30.509  26.048  25.094  1.00  0.00     0.014 A 
BRANCH   8  14
ATOM     14  N   UNL A   1      34.519  24.832  25.076  1.00  0.00    -0.279 N 
ATOM     15  H   UNL A   1      35.194  25.246  25.662  1.00  0.00     0.180 HD
BRANCH  14  16
ATOM     16  S   UNL A   1      35.076  23.659  24.045  1.00  0.00     0.265 S 
ATOM     17  O   UNL A   1      36.447  23.335  24.376  1.00  0.00    -0.201 OA
ATOM     18  O   UNL A   1      34.738  24.183  22.735  1.00  0.00    -0.201 OA
BRANCH  16  19
ATOM     19  C   UNL A   1      34.278  22.124  24.070  1.00  0.00     0.131 A 
ATOM     20  C   UNL A   1      31.820  22.490  23.118  1.00  0.00     0.070 C 
ATOM     21  C   UNL A   1      32.956  21.756  23.713  1.00  0.00     0.080 A 
ATOM     22  N   UNL A   1      32.712  20.475  24.011  1.00  0.00    -0.176 NA
ATOM     23  N   UNL A   1      33.847  20.018  24.552  1.00  0.00    -0.266 N 
ATOM     24  C   UNL A   1      34.850  20.951  24.566  1.00  0.00     0.056 A 
ATOM     25  C   UNL A   1      36.215  20.655  25.074  1.00  0.00     0.068 C 
BRANCH  23  26
ATOM     26  C   UNL A   1      33.855  18.661  25.099  1.00  0.00     0.101 C 
ATOM     27  C   UNL A   1      32.435  18.213  25.446  1.00  0.00     0.033 C 
ATOM     28  C   UNL A   1      34.529  17.677  24.142  1.00  0.00     0.033 C 
ENDBRANCH  23  26
ENDBRANCH  16  19
ENDBRANCH  14  16
ENDBRANCH   8  14
ENDBRANCH   4   7
ENDBRANCH   2   3
ENDBRANCH   1   2
BRANCH   1  29
ATOM     29  C   UNL A   1      31.877  29.379  26.627  1.00  0.00     0.002 C 
BRANCH  29  30
ATOM     30  C   UNL A   1      33.223  28.772  27.059  1.00  0.00     0.002 C 
BRANCH  30  31
ATOM     31  C   UNL A   1      34.035  29.570  28.081  1.00  0.00     0.021 C 
BRANCH  31  32
ATOM     32  C   UNL A   1      34.716  30.811  27.520  1.00  0.00     0.116 C 
BRANCH  32  33
ATOM     33  N   UNL A   1      35.456  31.576  28.518  1.00  0.00    -0.352 N 
ATOM     34  C   UNL A   1      36.623  31.224  29.186  1.00  0.00     0.251 C 
ATOM     35  H   UNL A   1      35.080  32.456  28.748  1.00  0.00     0.163 HD
ATOM     36  O   UNL A   1      37.166  31.982  29.952  1.00  0.00    -0.269 OA
BRANCH  34  37
ATOM     37  C   UNL A   1      37.251  29.928  28.827  1.00  0.00     0.039 A 
ATOM     38  C   UNL A   1      37.422  28.991  29.849  1.00  0.00     0.014 A 
ATOM     39  C   UNL A   1      37.887  29.772  27.597  1.00  0.00     0.014 A 
ATOM     40  C   UNL A   1      38.434  28.045  29.730  1.00  0.00     0.010 A 
ATOM     41  C   UNL A   1      38.947  28.890  27.512  1.00  0.00     0.010 A 
ATOM     42  C   UNL A   1      39.268  28.086  28.612  1.00  0.00    -0.014 A 
BRANCH  42  43
ATOM     43  C   UNL A   1      40.575  27.437  28.593  1.00  0.00     0.031 A 
ATOM     44  C   UNL A   1      40.698  25.994  28.322  1.00  0.00     0.074 A 
ATOM     45  C   UNL A   1      41.682  28.182  28.812  1.00  0.00     0.049 A 
ATOM     46  N   UNL A   1      41.671  25.254  28.738  1.00  0.00    -0.248 NA
ATOM     47  C   UNL A   1      39.685  25.252  27.585  1.00  0.00     0.031 C 
ATOM     48  C   UNL A   1      43.073  27.782  28.626  1.00  0.00     0.029 A 
ATOM     49  N   UNL A   1      41.757  29.411  29.483  1.00  0.00    -0.354 N 
ATOM     50  C   UNL A   1      41.563  24.029  28.122  1.00  0.00     0.074 A 
ATOM     51  C   UNL A   1      40.275  24.058  27.466  1.00  0.00     0.031 C 
ATOM     52  C   UNL A   1      43.852  28.562  29.393  1.00  0.00     0.029 A 
ATOM     53  C   UNL A   1      42.971  29.389  30.200  1.00  0.00     0.049 A 
ATOM     54  H   UNL A   1      41.097  30.141  29.458  1.00  0.00     0.167 HD
ATOM     55  C   UNL A   1      42.633  23.179  28.124  1.00  0.00     0.037 A 
ATOM     56  C   UNL A   1      42.999  29.464  31.562  1.00  0.00     0.037 A 
ATOM     57  C   UNL A   1      43.736  23.717  28.918  1.00  0.00     0.049 A 
ATOM     58  C   UNL A   1      43.672  28.287  32.228  1.00  0.00     0.074 A 
ATOM     59  C   UNL A   1      44.878  24.423  28.571  1.00  0.00     0.029 A 
ATOM     60  N   UNL A   1      43.608  23.832  30.297  1.00  0.00    -0.354 N 
ATOM     61  N   UNL A   1      43.866  27.136  31.648  1.00  0.00    -0.248 NA
ATOM     62  C   UNL A   1      44.138  28.302  33.613  1.00  0.00     0.031 C 
ATOM     63  C   UNL A   1      45.407  25.012  29.744  1.00  0.00     0.029 A 
ATOM     64  C   UNL A   1      44.599  24.650  30.807  1.00  0.00     0.049 A 
ATOM     65  H   UNL A   1      42.910  23.393  30.835  1.00  0.00     0.167 HD
ATOM     66  C   UNL A   1      44.417  26.261  32.548  1.00  0.00     0.074 A 
ATOM     67  C   UNL A   1      44.596  27.046  33.754  1.00  0.00     0.031 C 
ATOM     68  C   UNL A   1      44.661  24.957  32.228  1.00  0.00     0.037 A 
BRANCH  55  69
ATOM     69  C   UNL A   1      42.789  22.033  27.145  1.00  0.00     0.057 A 
ATOM     70  C   UNL A   1      42.025  20.855  27.280  1.00  0.00     0.134 A 
ATOM     71  C   UNL A   1      43.720  21.994  26.095  1.00  0.00     0.134 A 
ATOM     72  F   UNL A   1      41.002  20.769  28.140  1.00  0.00    -0.206 F 
ATOM     73  C   UNL A   1      42.272  19.693  26.536  1.00  0.00     0.040 A 
ATOM     74  C   UNL A   1      44.017  20.823  25.379  1.00  0.00     0.040 A 
ATOM     75  F   UNL A   1      44.344  23.100  25.673  1.00  0.00    -0.206 F 
ATOM     76  C   UNL A   1      43.304  19.658  25.614  1.00  0.00     0.006 A 
ENDBRANCH  55  69
BRANCH  56  77
ATOM     77  C   UNL A   1      41.860  30.220  32.146  1.00  0.00     0.057 A 
ATOM     78  C   UNL A   1      41.917  31.624  32.169  1.00  0.00     0.134 A 
ATOM     79  C   UNL A   1      40.612  29.629  32.358  1.00  0.00     0.134 A 
ATOM     80  F   UNL A   1      43.086  32.256  31.970  1.00  0.00    -0.206 F 
ATOM     81  C   UNL A   1      40.768  32.409  32.292  1.00  0.00     0.040 A 
ATOM     82  C   UNL A   1      39.454  30.405  32.495  1.00  0.00     0.040 A 
ATOM     83  F   UNL A   1      40.472  28.296  32.327  1.00  0.00    -0.206 F 
ATOM     84  C   UNL A   1      39.526  31.796  32.425  1.00  0.00     0.006 A 
ENDBRANCH  56  77
BRANCH  68  85
ATOM     85  C   UNL A   1      45.060  23.874  33.196  1.00  0.00     0.057 A 
ATOM     86  C   UNL A   1      46.316  23.795  33.814  1.00  0.00     0.134 A 
ATOM     87  C   UNL A   1      44.106  22.937  33.652  1.00  0.00     0.134 A 
ATOM     88  F   UNL A   1      47.280  24.689  33.557  1.00  0.00    -0.206 F 
ATOM     89  C   UNL A   1      46.621  22.821  34.774  1.00  0.00     0.040 A 
ATOM     90  C   UNL A   1      44.383  21.994  34.646  1.00  0.00     0.040 A 
ATOM     91  F   UNL A   1      42.855  22.914  33.167  1.00  0.00    -0.206 F 
ATOM     92  C   UNL A   1      45.650  21.923  35.202  1.00  0.00     0.006 A 
ENDBRANCH  68  85
ENDBRANCH  42  43
ENDBRANCH  34  37
ENDBRANCH  32  33
ENDBRANCH  31  32
ENDBRANCH  30  31
ENDBRANCH  29  30
ENDBRANCH   1  29
TORSDOF 17
ENDMDL
MODEL 3
REMARK VINA RESULT:     -12.7      3.629      9.329
REMARK SMILES Cc1nn(C(C)C)c(C)c1S(=O)(=O)Nc1cccc(C(=O)NCCCCCCNC(=O)c2ccc(-c3c4nc(c(-c5c(F)cccc5F)c5ccc([nH]5)c(-c5c(F)cccc5F)c5nc(c(-c6c(F)cccc6F)c6ccc3[nH]6)C=C5)C=C4)cc2)c1C
REMARK SMILES IDX 24 1 23 2 22 3 20 4 21 5 19 7 15 8 16 9 86 10 17 11 87 12
REMARK SMILES IDX 18 13 14 14 11 16 12 17 13 18 10 19 1 20 2 21 3 22 4 23 8 24
REMARK SMILES IDX 9 25 5 26 6 27 7 28 25 29 26 30 27 31 28 32 29 33 30 34
REMARK SMILES IDX 31 36 32 37 33 38 85 39 34 40 84 41 35 42 36 43 37 44 78 45
REMARK SMILES IDX 38 46 83 47 77 48 79 49 39 50 82 51 76 52 75 53 40 55 66 56
REMARK SMILES IDX 49 57 65 58 50 59 53 60 64 61 80 62 51 63 52 64 63 66 81 67
REMARK SMILES IDX 54 68 41 69 42 70 47 71 43 72 44 73 46 74 48 75 45 76 67 77
REMARK SMILES IDX 68 78 73 79 69 80 70 81 72 82 74 83 71 84 55 85 56 86 61 87
REMARK SMILES IDX 57 88 58 89 60 90 62 91 59 92
REMARK H PARENT 22 6 14 15 29 35 79 54 53 65
REMARK Flexibility Score: inf
ROOT
ATOM      1  C   UNL A   1      31.571  28.845  25.712  1.00  0.00     0.021 C 
ENDROOT
BRANCH   1   2
ATOM      2  C   UNL A   1      32.291  29.312  24.444  1.00  0.00     0.116 C 
BRANCH   2   3
ATOM      3  N   UNL A   1      31.388  29.398  23.316  1.00  0.00    -0.352 N 
ATOM      4  C   UNL A   1      30.660  28.497  22.584  1.00  0.00     0.251 C 
ATOM      5  O   UNL A   1      29.753  29.019  21.935  1.00  0.00    -0.269 OA
ATOM      6  H   UNL A   1      31.269  30.322  23.000  1.00  0.00     0.163 HD
BRANCH   4   7
ATOM      7  C   UNL A   1      30.858  27.000  22.578  1.00  0.00     0.044 A 
ATOM      8  C   UNL A   1      30.613  24.849  23.731  1.00  0.00     0.053 A 
ATOM      9  C   UNL A   1      31.481  24.247  22.825  1.00  0.00     0.027 A 
ATOM     10  C   UNL A   1      30.170  26.179  23.517  1.00  0.00    -0.014 A 
ATOM     11  C   UNL A   1      32.013  25.000  21.782  1.00  0.00     0.003 A 
ATOM     12  C   UNL A   1      28.986  26.679  24.314  1.00  0.00     0.047 C 
ATOM     13  C   UNL A   1      31.727  26.366  21.678  1.00  0.00     0.014 A 
BRANCH   8  14
ATOM     14  N   UNL A   1      30.198  24.192  24.918  1.00  0.00    -0.279 N 
ATOM     15  H   UNL A   1      29.248  24.293  25.157  1.00  0.00     0.180 HD
BRANCH  14  16
ATOM     16  S   UNL A   1      31.112  23.274  25.952  1.00  0.00     0.265 S 
ATOM     17  O   UNL A   1      30.459  22.003  26.178  1.00  0.00    -0.201 OA
ATOM     18  O   UNL A   1      31.368  24.178  27.058  1.00  0.00    -0.201 OA
BRANCH  16  19
ATOM     19  C   UNL A   1      32.703  22.828  25.437  1.00  0.00     0.131 A 
ATOM     20  C   UNL A   1      32.716  20.189  25.094  1.00  0.00     0.070 C 
ATOM     21  C   UNL A   1      33.267  21.559  25.151  1.00  0.00     0.080 A 
ATOM     22  N   UNL A   1      34.579  21.655  24.909  1.00  0.00    -0.176 NA
ATOM     23  N   UNL A   1      34.865  22.956  25.036  1.00  0.00    -0.266 N 
ATOM     24  C   UNL A   1      33.763  23.725  25.300  1.00  0.00     0.056 A 
ATOM     25  C   UNL A   1      33.830  25.204  25.433  1.00  0.00     0.068 C 
BRANCH  23  26
ATOM     26  C   UNL A   1      36.266  23.367  24.946  1.00  0.00     0.101 C 
ATOM     27  C   UNL A   1      37.053  22.859  26.155  1.00  0.00     0.033 C 
ATOM     28  C   UNL A   1      36.903  22.904  23.636  1.00  0.00     0.033 C 
ENDBRANCH  23  26
ENDBRANCH  16  19
ENDBRANCH  14  16
ENDBRANCH   8  14
ENDBRANCH   4   7
ENDBRANCH   2   3
ENDBRANCH   1   2
BRANCH   1  29
ATOM     29  C   UNL A   1      31.910  29.618  27.000  1.00  0.00     0.002 C 
BRANCH  29  30
ATOM     30  C   UNL A   1      32.892  30.796  26.880  1.00  0.00     0.002 C 
BRANCH  30  31
ATOM     31  C   UNL A   1      34.351  30.507  27.235  1.00  0.00     0.021 C 
BRANCH  31  32
ATOM     32  C   UNL A   1      34.680  30.631  28.716  1.00  0.00     0.116 C 
BRANCH  32  33
ATOM     33  N   UNL A   1      35.689  31.641  29.011  1.00  0.00    -0.352 N 
ATOM     34  C   UNL A   1      37.070  31.488  29.085  1.00  0.00     0.251 C 
ATOM     35  H   UNL A   1      35.349  32.549  29.179  1.00  0.00     0.163 HD
ATOM     36  O   UNL A   1      37.799  32.429  29.283  1.00  0.00    -0.269 OA
BRANCH  34  37
ATOM     37  C   UNL A   1      37.625  30.146  28.784  1.00  0.00     0.039 A 
ATOM     38  C   UNL A   1      37.780  29.259  29.854  1.00  0.00     0.014 A 
ATOM     39  C   UNL A   1      38.218  29.891  27.550  1.00  0.00     0.014 A 
ATOM     40  C   UNL A   1      38.741  28.260  29.763  1.00  0.00     0.010 A 
ATOM     41  C   UNL A   1      39.233  28.955  27.489  1.00  0.00     0.010 A 
ATOM     42  C   UNL A   1      39.545  28.198  28.624  1.00  0.00    -0.014 A 
BRANCH  42  43
ATOM     43  C   UNL A   1      40.819  27.486  28.610  1.00  0.00     0.031 A 
ATOM     44  C   UNL A   1      40.870  26.035  28.355  1.00  0.00     0.074 A 
ATOM     45  C   UNL A   1      41.962  28.178  28.817  1.00  0.00     0.049 A 
ATOM     46  N   UNL A   1      41.808  25.254  28.778  1.00  0.00    -0.248 NA
ATOM     47  C   UNL A   1      39.820  25.335  27.629  1.00  0.00     0.031 C 
ATOM     48  C   UNL A   1      43.331  27.708  28.632  1.00  0.00     0.029 A 
ATOM     49  N   UNL A   1      42.099  29.410  29.472  1.00  0.00    -0.354 N 
ATOM     50  C   UNL A   1      41.638  24.028  28.176  1.00  0.00     0.074 A 
ATOM     51  C   UNL A   1      40.351  24.113  27.523  1.00  0.00     0.031 C 
ATOM     52  C   UNL A   1      44.149  28.458  29.387  1.00  0.00     0.029 A 
ATOM     53  C   UNL A   1      43.313  29.337  30.187  1.00  0.00     0.049 A 
ATOM     54  H   UNL A   1      41.475  30.171  29.440  1.00  0.00     0.167 HD
ATOM     55  C   UNL A   1      42.665  23.127  28.185  1.00  0.00     0.037 A 
ATOM     56  C   UNL A   1      43.348  29.426  31.547  1.00  0.00     0.037 A 
ATOM     57  C   UNL A   1      43.796  23.620  28.970  1.00  0.00     0.049 A 
ATOM     58  C   UNL A   1      43.966  28.225  32.226  1.00  0.00     0.074 A 
ATOM     59  C   UNL A   1      44.969  24.265  28.611  1.00  0.00     0.029 A 
ATOM     60  N   UNL A   1      43.678  23.757  30.348  1.00  0.00    -0.354 N 
ATOM     61  N   UNL A   1      44.101  27.060  31.659  1.00  0.00    -0.248 NA
ATOM     62  C   UNL A   1      44.436  28.234  33.609  1.00  0.00     0.031 C 
ATOM     63  C   UNL A   1      45.531  24.841  29.775  1.00  0.00     0.029 A 
ATOM     64  C   UNL A   1      44.709  24.531  30.846  1.00  0.00     0.049 A 
ATOM     65  H   UNL A   1      42.961  23.358  30.892  1.00  0.00     0.167 HD
ATOM     66  C   UNL A   1      44.612  26.170  32.567  1.00  0.00     0.074 A 
ATOM     67  C   UNL A   1      44.833  26.959  33.764  1.00  0.00     0.031 C 
ATOM     68  C   UNL A   1      44.791  24.851  32.262  1.00  0.00     0.037 A 
BRANCH  55  69
ATOM     69  C   UNL A   1      42.761  21.964  27.219  1.00  0.00     0.057 A 
ATOM     70  C   UNL A   1      41.952  20.819  27.380  1.00  0.00     0.134 A 
ATOM     71  C   UNL A   1      43.677  21.873  26.158  1.00  0.00     0.134 A 
ATOM     72  F   UNL A   1      40.938  20.786  28.253  1.00  0.00    -0.206 F 
ATOM     73  C   UNL A   1      42.142  19.638  26.647  1.00  0.00     0.040 A 
ATOM     74  C   UNL A   1      43.916  20.682  25.454  1.00  0.00     0.040 A 
ATOM     75  F   UNL A   1      44.339  22.947  25.714  1.00  0.00    -0.206 F 
ATOM     76  C   UNL A   1      43.160  19.550  25.713  1.00  0.00     0.006 A 
ENDBRANCH  55  69
BRANCH  56  77
ATOM     77  C   UNL A   1      42.250  30.243  32.125  1.00  0.00     0.057 A 
ATOM     78  C   UNL A   1      42.353  31.645  32.087  1.00  0.00     0.134 A 
ATOM     79  C   UNL A   1      40.989  29.705  32.393  1.00  0.00     0.134 A 
ATOM     80  F   UNL A   1      43.536  32.228  31.832  1.00  0.00    -0.206 F 
ATOM     81  C   UNL A   1      41.233  32.472  32.203  1.00  0.00     0.040 A 
ATOM     82  C   UNL A   1      39.861  30.524  32.523  1.00  0.00     0.040 A 
ATOM     83  F   UNL A   1      40.805  28.377  32.423  1.00  0.00    -0.206 F 
ATOM     84  C   UNL A   1      39.976  31.907  32.393  1.00  0.00     0.006 A 
ENDBRANCH  56  77
BRANCH  68  85
ATOM     85  C   UNL A   1      45.140  23.761  33.242  1.00  0.00     0.057 A 
ATOM     86  C   UNL A   1      46.393  23.628  33.857  1.00  0.00     0.134 A 
ATOM     87  C   UNL A   1      44.142  22.878  33.713  1.00  0.00     0.134 A 
ATOM     88  F   UNL A   1      47.399  24.469  33.586  1.00  0.00    -0.206 F 
ATOM     89  C   UNL A   1      46.653  22.651  34.827  1.00  0.00     0.040 A 
ATOM     90  C   UNL A   1      44.376  21.935  34.717  1.00  0.00     0.040 A 
ATOM     91  F   UNL A   1      42.890  22.912  33.232  1.00  0.00    -0.206 F 
ATOM     92  C   UNL A   1      45.641  21.808  35.269  1.00  0.00     0.006 A 
ENDBRANCH  68  85
ENDBRANCH  42  43
ENDBRANCH  34  37
ENDBRANCH  32  33
ENDBRANCH  31  32
ENDBRANCH  30  31
ENDBRANCH  29  30
ENDBRANCH   1  29
TORSDOF 17
ENDMDL
