MODEL 1
REMARK VINA RESULT:     -13.4      0.000      0.000
REMARK SMILES O=C(Cc1c(C(=O)c2cc3c(cn2)CCCC3)[nH]c2cc(Cl)ccc12)NCCCCCCNC(=O)c1ccc(-c2c3nc(c(-c4c(F)cccc4F)c4ccc([nH]4)c(-c4c(F)cccc4F)c4nc(c(-c5c(F)cccc5F)c5ccc2[nH]5)C=C4)C=C3)cc1
REMARK SMILES IDX 29 1 28 2 27 3 26 4 1 5 2 6 3 8 4 9 5 10 25 11 18 12 19 13
REMARK SMILES IDX 24 14 20 16 23 17 21 18 22 19 6 20 7 21 8 22 9 23 13 24
REMARK SMILES IDX 10 25 12 26 11 27 17 28 14 29 16 30 15 31 30 32 31 33 32 34
REMARK SMILES IDX 33 35 34 36 35 38 36 39 37 40 89 41 38 42 88 43 39 44 40 45
REMARK SMILES IDX 41 46 82 47 42 48 87 49 81 50 83 51 43 52 86 53 80 54 79 55
REMARK SMILES IDX 44 57 70 58 53 59 69 60 54 61 57 62 68 63 84 64 55 65 56 66
REMARK SMILES IDX 67 68 85 69 58 70 45 71 46 72 51 73 47 74 48 75 50 76 52 77
REMARK SMILES IDX 49 78 71 79 72 80 77 81 73 82 74 83 76 84 78 85 75 86 59 87
REMARK SMILES IDX 60 88 65 89 61 90 62 91 64 92 66 93 63 94
REMARK H PARENT 26 7 18 15 33 37 83 56 57 67
REMARK Flexibility Score: inf
ROOT
ATOM      1  C   UNL A   1      32.076  29.627  25.659  1.00  0.00     0.002 C 
ENDROOT
BRANCH   1   2
ATOM      2  C   UNL A   1      31.909  28.862  26.981  1.00  0.00     0.021 C 
BRANCH   2   3
ATOM      3  C   UNL A   1      31.339  27.446  26.860  1.00  0.00     0.116 C 
BRANCH   3   4
ATOM      4  N   UNL A   1      32.283  26.511  26.293  1.00  0.00    -0.356 N 
ATOM      5  O   UNL A   1      31.316  24.613  27.145  1.00  0.00    -0.275 OA
ATOM      6  C   UNL A   1      32.187  25.147  26.463  1.00  0.00     0.224 C 
ATOM      7  H   UNL A   1      33.031  26.865  25.760  1.00  0.00     0.163 HD
BRANCH   6   8
ATOM      8  C   UNL A   1      33.254  24.358  25.712  1.00  0.00     0.138 C 
BRANCH   8   9
ATOM      9  C   UNL A   1      32.736  23.701  24.459  1.00  0.00    -0.002 A 
ATOM     10  C   UNL A   1      32.338  24.325  23.276  1.00  0.00     0.093 A 
ATOM     11  C   UNL A   1      32.667  22.285  24.231  1.00  0.00     0.004 A 
ATOM     12  N   UNL A   1      31.944  23.333  22.408  1.00  0.00    -0.351 N 
ATOM     13  C   UNL A   1      32.173  22.092  22.943  1.00  0.00     0.048 A 
ATOM     14  C   UNL A   1      33.019  21.148  24.990  1.00  0.00     0.012 A 
ATOM     15  H   UNL A   1      31.550  23.493  21.519  1.00  0.00     0.167 HD
ATOM     16  C   UNL A   1      32.005  20.825  22.371  1.00  0.00     0.047 A 
ATOM     17  C   UNL A   1      32.880  19.871  24.428  1.00  0.00     0.021 A 
ATOM     18  C   UNL A   1      32.380  19.720  23.139  1.00  0.00     0.043 A 
ATOM     19  Cl  UNL A   1      32.232  18.142  22.465  1.00  0.00    -0.084 Cl
BRANCH  10  20
ATOM     20  C   UNL A   1      32.402  25.739  22.929  1.00  0.00     0.227 C 
ATOM     21  O   UNL A   1      33.457  26.265  22.579  1.00  0.00    -0.285 OA
BRANCH  20  22
ATOM     22  C   UNL A   1      31.153  26.567  22.975  1.00  0.00     0.113 A 
ATOM     23  C   UNL A   1      31.092  27.825  22.380  1.00  0.00     0.036 A 
ATOM     24  N   UNL A   1      30.104  25.998  23.618  1.00  0.00    -0.252 NA
ATOM     25  C   UNL A   1      29.903  28.562  22.484  1.00  0.00    -0.041 A 
ATOM     26  C   UNL A   1      28.967  26.718  23.694  1.00  0.00     0.115 A 
ATOM     27  C   UNL A   1      28.821  28.002  23.178  1.00  0.00    -0.026 A 
ATOM     28  C   UNL A   1      29.836  29.959  21.915  1.00  0.00     0.036 C 
ATOM     29  C   UNL A   1      27.511  28.727  23.330  1.00  0.00     0.037 C 
ATOM     30  C   UNL A   1      28.422  30.540  21.867  1.00  0.00     0.005 C 
ATOM     31  C   UNL A   1      27.662  30.235  23.152  1.00  0.00     0.005 C 
ENDBRANCH  20  22
ENDBRANCH  10  20
ENDBRANCH   8   9
ENDBRANCH   6   8
ENDBRANCH   3   4
ENDBRANCH   2   3
ENDBRANCH   1   2
BRANCH   1  32
ATOM     32  C   UNL A   1      31.004  30.679  25.363  1.00  0.00     0.002 C 
BRANCH  32  33
ATOM     33  C   UNL A   1      30.959  31.868  26.317  1.00  0.00     0.021 C 
BRANCH  33  34
ATOM     34  C   UNL A   1      32.316  32.434  26.706  1.00  0.00     0.116 C 
BRANCH  34  35
ATOM     35  N   UNL A   1      32.242  33.717  27.392  1.00  0.00    -0.352 N 
ATOM     36  C   UNL A   1      33.126  34.252  28.305  1.00  0.00     0.251 C 
ATOM     37  H   UNL A   1      31.459  34.274  27.176  1.00  0.00     0.163 HD
ATOM     38  O   UNL A   1      32.884  35.303  28.876  1.00  0.00    -0.269 OA
BRANCH  36  39
ATOM     39  C   UNL A   1      34.360  33.498  28.628  1.00  0.00     0.039 A 
ATOM     40  C   UNL A   1      34.295  32.152  28.990  1.00  0.00     0.014 A 
ATOM     41  C   UNL A   1      35.584  34.174  28.643  1.00  0.00     0.014 A 
ATOM     42  C   UNL A   1      35.411  31.535  29.541  1.00  0.00     0.010 A 
ATOM     43  C   UNL A   1      36.725  33.524  29.121  1.00  0.00     0.010 A 
ATOM     44  C   UNL A   1      36.635  32.219  29.630  1.00  0.00    -0.014 A 
BRANCH  44  45
ATOM     45  C   UNL A   1      37.792  31.559  30.287  1.00  0.00     0.031 A 
ATOM     46  C   UNL A   1      38.098  31.807  31.741  1.00  0.00     0.074 A 
ATOM     47  C   UNL A   1      38.533  30.678  29.587  1.00  0.00     0.049 A 
ATOM     48  N   UNL A   1      39.051  31.300  32.483  1.00  0.00    -0.248 NA
ATOM     49  C   UNL A   1      37.221  32.748  32.457  1.00  0.00     0.031 C 
ATOM     50  C   UNL A   1      38.329  30.338  28.178  1.00  0.00     0.029 A 
ATOM     51  N   UNL A   1      39.585  29.888  29.973  1.00  0.00    -0.354 N 
ATOM     52  C   UNL A   1      38.905  31.876  33.739  1.00  0.00     0.074 A 
ATOM     53  C   UNL A   1      37.785  32.788  33.656  1.00  0.00     0.031 C 
ATOM     54  C   UNL A   1      39.191  29.370  27.832  1.00  0.00     0.029 A 
ATOM     55  C   UNL A   1      40.044  29.062  28.975  1.00  0.00     0.049 A 
ATOM     56  H   UNL A   1      39.973  29.909  30.877  1.00  0.00     0.167 HD
ATOM     57  C   UNL A   1      39.633  31.659  34.862  1.00  0.00     0.037 A 
ATOM     58  C   UNL A   1      41.046  28.166  28.978  1.00  0.00     0.037 A 
ATOM     59  C   UNL A   1      40.727  30.727  34.957  1.00  0.00     0.049 A 
ATOM     60  C   UNL A   1      41.857  27.973  30.225  1.00  0.00     0.074 A 
ATOM     61  C   UNL A   1      41.500  30.412  36.062  1.00  0.00     0.029 A 
ATOM     62  N   UNL A   1      41.201  29.958  33.906  1.00  0.00    -0.354 N 
ATOM     63  N   UNL A   1      41.703  28.524  31.404  1.00  0.00    -0.248 NA
ATOM     64  C   UNL A   1      42.991  27.043  30.134  1.00  0.00     0.031 C 
ATOM     65  C   UNL A   1      42.465  29.476  35.670  1.00  0.00     0.029 A 
ATOM     66  C   UNL A   1      42.270  29.185  34.330  1.00  0.00     0.049 A 
ATOM     67  H   UNL A   1      40.834  29.961  32.992  1.00  0.00     0.167 HD
ATOM     68  C   UNL A   1      42.717  28.004  32.197  1.00  0.00     0.074 A 
ATOM     69  C   UNL A   1      43.463  27.075  31.372  1.00  0.00     0.031 C 
ATOM     70  C   UNL A   1      43.007  28.275  33.493  1.00  0.00     0.037 A 
BRANCH  57  71
ATOM     71  C   UNL A   1      39.277  32.455  36.083  1.00  0.00     0.057 A 
ATOM     72  C   UNL A   1      39.878  33.698  36.321  1.00  0.00     0.134 A 
ATOM     73  C   UNL A   1      38.373  31.979  37.040  1.00  0.00     0.134 A 
ATOM     74  F   UNL A   1      40.757  34.209  35.447  1.00  0.00    -0.206 F 
ATOM     75  C   UNL A   1      39.594  34.437  37.471  1.00  0.00     0.040 A 
ATOM     76  C   UNL A   1      38.065  32.720  38.184  1.00  0.00     0.040 A 
ATOM     77  F   UNL A   1      37.754  30.803  36.864  1.00  0.00    -0.206 F 
ATOM     78  C   UNL A   1      38.682  33.950  38.404  1.00  0.00     0.006 A 
ENDBRANCH  57  71
BRANCH  58  79
ATOM     79  C   UNL A   1      41.346  27.388  27.751  1.00  0.00     0.057 A 
ATOM     80  C   UNL A   1      42.176  27.902  26.748  1.00  0.00     0.134 A 
ATOM     81  C   UNL A   1      40.813  26.109  27.561  1.00  0.00     0.134 A 
ATOM     82  F   UNL A   1      42.714  29.124  26.874  1.00  0.00    -0.206 F 
ATOM     83  C   UNL A   1      42.457  27.175  25.591  1.00  0.00     0.040 A 
ATOM     84  C   UNL A   1      41.104  25.362  26.419  1.00  0.00     0.040 A 
ATOM     85  F   UNL A   1      40.028  25.559  28.498  1.00  0.00    -0.206 F 
ATOM     86  C   UNL A   1      41.923  25.898  25.427  1.00  0.00     0.006 A 
ENDBRANCH  58  79
BRANCH  70  87
ATOM     87  C   UNL A   1      44.176  27.550  34.087  1.00  0.00     0.057 A 
ATOM     88  C   UNL A   1      45.458  28.111  34.055  1.00  0.00     0.134 A 
ATOM     89  C   UNL A   1      44.030  26.294  34.688  1.00  0.00     0.134 A 
ATOM     90  F   UNL A   1      45.663  29.310  33.489  1.00  0.00    -0.206 F 
ATOM     91  C   UNL A   1      46.556  27.447  34.605  1.00  0.00     0.040 A 
ATOM     92  C   UNL A   1      45.117  25.631  35.260  1.00  0.00     0.040 A 
ATOM     93  F   UNL A   1      42.822  25.713  34.765  1.00  0.00    -0.206 F 
ATOM     94  C   UNL A   1      46.384  26.207  35.216  1.00  0.00     0.006 A 
ENDBRANCH  70  87
ENDBRANCH  44  45
ENDBRANCH  36  39
ENDBRANCH  34  35
ENDBRANCH  33  34
ENDBRANCH  32  33
ENDBRANCH   1  32
TORSDOF 16
ENDMDL
MODEL 2
REMARK VINA RESULT:     -13.3      0.278      6.010
REMARK SMILES O=C(Cc1c(C(=O)c2cc3c(cn2)CCCC3)[nH]c2cc(Cl)ccc12)NCCCCCCNC(=O)c1ccc(-c2c3nc(c(-c4c(F)cccc4F)c4ccc([nH]4)c(-c4c(F)cccc4F)c4nc(c(-c5c(F)cccc5F)c5ccc2[nH]5)C=C4)C=C3)cc1
REMARK SMILES IDX 29 1 28 2 27 3 26 4 1 5 2 6 3 8 4 9 5 10 25 11 18 12 19 13
REMARK SMILES IDX 24 14 20 16 23 17 21 18 22 19 6 20 7 21 8 22 9 23 13 24
REMARK SMILES IDX 10 25 12 26 11 27 17 28 14 29 16 30 15 31 30 32 31 33 32 34
REMARK SMILES IDX 33 35 34 36 35 38 36 39 37 40 89 41 38 42 88 43 39 44 40 45
REMARK SMILES IDX 41 46 82 47 42 48 87 49 81 50 83 51 43 52 86 53 80 54 79 55
REMARK SMILES IDX 44 57 70 58 53 59 69 60 54 61 57 62 68 63 84 64 55 65 56 66
REMARK SMILES IDX 67 68 85 69 58 70 45 71 46 72 51 73 47 74 48 75 50 76 52 77
REMARK SMILES IDX 49 78 71 79 72 80 77 81 73 82 74 83 76 84 78 85 75 86 59 87
REMARK SMILES IDX 60 88 65 89 61 90 62 91 64 92 66 93 63 94
REMARK H PARENT 26 7 18 15 33 37 83 56 57 67
REMARK Flexibility Score: inf
ROOT
ATOM      1  C   UNL A   1      32.193  29.789  25.794  1.00  0.00     0.002 C 
ENDROOT
BRANCH   1   2
ATOM      2  C   UNL A   1      32.043  28.868  27.014  1.00  0.00     0.021 C 
BRANCH   2   3
ATOM      3  C   UNL A   1      31.383  27.513  26.746  1.00  0.00     0.116 C 
BRANCH   3   4
ATOM      4  N   UNL A   1      32.309  26.535  26.222  1.00  0.00    -0.356 N 
ATOM      5  O   UNL A   1      31.210  24.683  27.014  1.00  0.00    -0.275 OA
ATOM      6  C   UNL A   1      32.139  25.177  26.380  1.00  0.00     0.224 C 
ATOM      7  H   UNL A   1      33.100  26.855  25.730  1.00  0.00     0.163 HD
BRANCH   6   8
ATOM      8  C   UNL A   1      33.204  24.340  25.680  1.00  0.00     0.138 C 
BRANCH   8   9
ATOM      9  C   UNL A   1      32.709  23.682  24.418  1.00  0.00    -0.002 A 
ATOM     10  C   UNL A   1      32.331  24.306  23.228  1.00  0.00     0.093 A 
ATOM     11  C   UNL A   1      32.647  22.266  24.188  1.00  0.00     0.004 A 
ATOM     12  N   UNL A   1      31.953  23.314  22.353  1.00  0.00    -0.351 N 
ATOM     13  C   UNL A   1      32.176  22.073  22.892  1.00  0.00     0.048 A 
ATOM     14  C   UNL A   1      32.987  21.130  24.952  1.00  0.00     0.012 A 
ATOM     15  H   UNL A   1      31.575  23.473  21.458  1.00  0.00     0.167 HD
ATOM     16  C   UNL A   1      32.020  20.806  22.317  1.00  0.00     0.047 A 
ATOM     17  C   UNL A   1      32.860  19.853  24.388  1.00  0.00     0.021 A 
ATOM     18  C   UNL A   1      32.383  19.701  23.091  1.00  0.00     0.043 A 
ATOM     19  Cl  UNL A   1      32.250  18.123  22.413  1.00  0.00    -0.084 Cl
BRANCH  10  20
ATOM     20  C   UNL A   1      32.398  25.720  22.883  1.00  0.00     0.227 C 
ATOM     21  O   UNL A   1      33.453  26.242  22.524  1.00  0.00    -0.285 OA
BRANCH  20  22
ATOM     22  C   UNL A   1      31.154  26.554  22.941  1.00  0.00     0.113 A 
ATOM     23  C   UNL A   1      31.098  27.819  22.361  1.00  0.00     0.036 A 
ATOM     24  N   UNL A   1      30.103  25.982  23.578  1.00  0.00    -0.252 NA
ATOM     25  C   UNL A   1      29.913  28.561  22.477  1.00  0.00    -0.041 A 
ATOM     26  C   UNL A   1      28.969  26.707  23.665  1.00  0.00     0.115 A 
ATOM     27  C   UNL A   1      28.829  27.998  23.166  1.00  0.00    -0.026 A 
ATOM     28  C   UNL A   1      29.853  29.965  21.925  1.00  0.00     0.036 C 
ATOM     29  C   UNL A   1      27.523  28.727  23.328  1.00  0.00     0.037 C 
ATOM     30  C   UNL A   1      28.441  30.554  21.886  1.00  0.00     0.005 C 
ATOM     31  C   UNL A   1      27.682  30.237  23.169  1.00  0.00     0.005 C 
ENDBRANCH  20  22
ENDBRANCH  10  20
ENDBRANCH   8   9
ENDBRANCH   6   8
ENDBRANCH   3   4
ENDBRANCH   2   3
ENDBRANCH   1   2
BRANCH   1  32
ATOM     32  C   UNL A   1      30.967  30.640  25.452  1.00  0.00     0.002 C 
BRANCH  32  33
ATOM     33  C   UNL A   1      30.934  32.035  26.067  1.00  0.00     0.021 C 
BRANCH  33  34
ATOM     34  C   UNL A   1      32.264  32.528  26.617  1.00  0.00     0.116 C 
BRANCH  34  35
ATOM     35  N   UNL A   1      32.176  33.808  27.306  1.00  0.00    -0.352 N 
ATOM     36  C   UNL A   1      33.019  34.322  28.268  1.00  0.00     0.251 C 
ATOM     37  H   UNL A   1      31.415  34.380  27.053  1.00  0.00     0.163 HD
ATOM     38  O   UNL A   1      32.765  35.374  28.833  1.00  0.00    -0.269 OA
BRANCH  36  39
ATOM     39  C   UNL A   1      34.221  33.544  28.652  1.00  0.00     0.039 A 
ATOM     40  C   UNL A   1      34.112  32.199  29.004  1.00  0.00     0.014 A 
ATOM     41  C   UNL A   1      35.455  34.198  28.733  1.00  0.00     0.014 A 
ATOM     42  C   UNL A   1      35.188  31.560  29.610  1.00  0.00     0.010 A 
ATOM     43  C   UNL A   1      36.558  33.526  29.266  1.00  0.00     0.010 A 
ATOM     44  C   UNL A   1      36.418  32.221  29.765  1.00  0.00    -0.014 A 
BRANCH  44  45
ATOM     45  C   UNL A   1      37.527  31.537  30.477  1.00  0.00     0.031 A 
ATOM     46  C   UNL A   1      38.420  30.561  29.756  1.00  0.00     0.074 A 
ATOM     47  C   UNL A   1      37.776  31.848  31.764  1.00  0.00     0.049 A 
ATOM     48  N   UNL A   1      39.448  29.889  30.212  1.00  0.00    -0.248 NA
ATOM     49  C   UNL A   1      38.119  30.301  28.339  1.00  0.00     0.031 C 
ATOM     50  C   UNL A   1      36.995  32.789  32.568  1.00  0.00     0.029 A 
ATOM     51  N   UNL A   1      38.769  31.428  32.610  1.00  0.00    -0.354 N 
ATOM     52  C   UNL A   1      39.899  29.113  29.152  1.00  0.00     0.074 A 
ATOM     53  C   UNL A   1      39.021  29.379  28.033  1.00  0.00     0.031 C 
ATOM     54  C   UNL A   1      37.570  32.918  33.774  1.00  0.00     0.029 A 
ATOM     55  C   UNL A   1      38.723  32.026  33.846  1.00  0.00     0.049 A 
ATOM     56  H   UNL A   1      39.449  30.763  32.357  1.00  0.00     0.167 HD
ATOM     57  C   UNL A   1      40.953  28.263  29.111  1.00  0.00     0.037 A 
ATOM     58  C   UNL A   1      39.515  31.866  34.921  1.00  0.00     0.037 A 
ATOM     59  C   UNL A   1      41.850  28.022  30.212  1.00  0.00     0.049 A 
ATOM     60  C   UNL A   1      40.654  30.892  34.858  1.00  0.00     0.074 A 
ATOM     61  C   UNL A   1      42.968  27.206  30.253  1.00  0.00     0.029 A 
ATOM     62  N   UNL A   1      41.730  28.598  31.466  1.00  0.00    -0.354 N 
ATOM     63  N   UNL A   1      41.067  30.169  33.846  1.00  0.00    -0.248 NA
ATOM     64  C   UNL A   1      41.425  30.702  36.093  1.00  0.00     0.031 C 
ATOM     65  C   UNL A   1      43.506  27.263  31.544  1.00  0.00     0.029 A 
ATOM     66  C   UNL A   1      42.742  28.141  32.296  1.00  0.00     0.049 A 
ATOM     67  H   UNL A   1      41.030  29.239  31.730  1.00  0.00     0.167 HD
ATOM     68  C   UNL A   1      42.150  29.442  34.321  1.00  0.00     0.074 A 
ATOM     69  C   UNL A   1      42.345  29.830  35.703  1.00  0.00     0.031 C 
ATOM     70  C   UNL A   1      42.914  28.530  33.670  1.00  0.00     0.037 A 
BRANCH  57  71
ATOM     71  C   UNL A   1      41.192  27.516  27.831  1.00  0.00     0.057 A 
ATOM     72  C   UNL A   1      40.608  26.259  27.622  1.00  0.00     0.134 A 
ATOM     73  C   UNL A   1      42.026  28.017  26.825  1.00  0.00     0.134 A 
ATOM     74  F   UNL A   1      39.802  25.720  28.548  1.00  0.00    -0.206 F 
ATOM     75  C   UNL A   1      40.848  25.528  26.458  1.00  0.00     0.040 A 
ATOM     76  C   UNL A   1      42.258  27.304  25.646  1.00  0.00     0.040 A 
ATOM     77  F   UNL A   1      42.605  29.220  26.958  1.00  0.00    -0.206 F 
ATOM     78  C   UNL A   1      41.673  26.052  25.464  1.00  0.00     0.006 A 
ENDBRANCH  57  71
BRANCH  58  79
ATOM     79  C   UNL A   1      39.251  32.643  36.157  1.00  0.00     0.057 A 
ATOM     80  C   UNL A   1      38.397  32.157  37.154  1.00  0.00     0.134 A 
ATOM     81  C   UNL A   1      39.854  33.887  36.368  1.00  0.00     0.134 A 
ATOM     82  F   UNL A   1      37.789  30.971  37.006  1.00  0.00    -0.206 F 
ATOM     83  C   UNL A   1      38.143  32.887  38.315  1.00  0.00     0.040 A 
ATOM     84  C   UNL A   1      39.626  34.617  37.535  1.00  0.00     0.040 A 
ATOM     85  F   UNL A   1      40.696  34.393  35.456  1.00  0.00    -0.206 F 
ATOM     86  C   UNL A   1      38.764  34.119  38.510  1.00  0.00     0.006 A 
ENDBRANCH  58  79
BRANCH  70  87
ATOM     87  C   UNL A   1      44.026  27.902  34.454  1.00  0.00     0.057 A 
ATOM     88  C   UNL A   1      43.828  26.700  35.143  1.00  0.00     0.134 A 
ATOM     89  C   UNL A   1      45.294  28.492  34.526  1.00  0.00     0.134 A 
ATOM     90  F   UNL A   1      42.634  26.088  35.116  1.00  0.00    -0.206 F 
ATOM     91  C   UNL A   1      44.855  26.104  35.876  1.00  0.00     0.040 A 
ATOM     92  C   UNL A   1      46.334  27.894  35.238  1.00  0.00     0.040 A 
ATOM     93  F   UNL A   1      45.550  29.635  33.871  1.00  0.00    -0.206 F 
ATOM     94  C   UNL A   1      46.114  26.698  35.919  1.00  0.00     0.006 A 
ENDBRANCH  70  87
ENDBRANCH  44  45
ENDBRANCH  36  39
ENDBRANCH  34  35
ENDBRANCH  33  34
ENDBRANCH  32  33
ENDBRANCH   1  32
TORSDOF 16
ENDMDL
MODEL 3
REMARK VINA RESULT:     -12.9      1.971      4.237
REMARK SMILES O=C(Cc1c(C(=O)c2cc3c(cn2)CCCC3)[nH]c2cc(Cl)ccc12)NCCCCCCNC(=O)c1ccc(-c2c3nc(c(-c4c(F)cccc4F)c4ccc([nH]4)c(-c4c(F)cccc4F)c4nc(c(-c5c(F)cccc5F)c5ccc2[nH]5)C=C4)C=C3)cc1
REMARK SMILES IDX 29 1 28 2 27 3 26 4 1 5 2 6 3 8 4 9 5 10 25 11 18 12 19 13
REMARK SMILES IDX 24 14 20 16 23 17 21 18 22 19 6 20 7 21 8 22 9 23 13 24
REMARK SMILES IDX 10 25 12 26 11 27 17 28 14 29 16 30 15 31 30 32 31 33 32 34
REMARK SMILES IDX 33 35 34 36 35 38 36 39 37 40 89 41 38 42 88 43 39 44 40 45
REMARK SMILES IDX 41 46 82 47 42 48 87 49 81 50 83 51 43 52 86 53 80 54 79 55
REMARK SMILES IDX 44 57 70 58 53 59 69 60 54 61 57 62 68 63 84 64 55 65 56 66
REMARK SMILES IDX 67 68 85 69 58 70 45 71 46 72 51 73 47 74 48 75 50 76 52 77
REMARK SMILES IDX 49 78 71 79 72 80 77 81 73 82 74 83 76 84 78 85 75 86 59 87
REMARK SMILES IDX 60 88 65 89 61 90 62 91 64 92 66 93 63 94
REMARK H PARENT 26 7 18 15 33 37 83 56 57 67
REMARK Flexibility Score: inf
ROOT
ATOM      1  C   UNL A   1      33.045  29.603  27.295  1.00  0.00     0.002 C 
ENDROOT
BRANCH   1   2
ATOM      2  C   UNL A   1      32.991  28.069  27.262  1.00  0.00     0.021 C 
BRANCH   2   3
ATOM      3  C   UNL A   1      31.590  27.455  27.172  1.00  0.00     0.116 C 
BRANCH   3   4
ATOM      4  N   UNL A   1      31.258  27.019  25.835  1.00  0.00    -0.356 N 
ATOM      5  O   UNL A   1      30.110  25.132  26.453  1.00  0.00    -0.275 OA
ATOM      6  C   UNL A   1      30.516  25.888  25.574  1.00  0.00     0.224 C 
ATOM      7  H   UNL A   1      31.578  27.556  25.074  1.00  0.00     0.163 HD
BRANCH   6   8
ATOM      8  C   UNL A   1      30.231  25.669  24.093  1.00  0.00     0.138 C 
BRANCH   8   9
ATOM      9  C   UNL A   1      30.571  26.862  23.238  1.00  0.00    -0.002 A 
ATOM     10  C   UNL A   1      31.715  27.052  22.462  1.00  0.00     0.093 A 
ATOM     11  C   UNL A   1      29.705  27.980  22.990  1.00  0.00     0.004 A 
ATOM     12  N   UNL A   1      31.594  28.281  21.855  1.00  0.00    -0.351 N 
ATOM     13  C   UNL A   1      30.372  28.842  22.122  1.00  0.00     0.048 A 
ATOM     14  C   UNL A   1      28.395  28.319  23.393  1.00  0.00     0.012 A 
ATOM     15  H   UNL A   1      32.291  28.701  21.301  1.00  0.00     0.167 HD
ATOM     16  C   UNL A   1      29.806  30.027  21.638  1.00  0.00     0.047 A 
ATOM     17  C   UNL A   1      27.801  29.490  22.903  1.00  0.00     0.021 A 
ATOM     18  C   UNL A   1      28.501  30.326  22.040  1.00  0.00     0.043 A 
ATOM     19  Cl  UNL A   1      27.745  31.752  21.438  1.00  0.00    -0.084 Cl
BRANCH  10  20
ATOM     20  C   UNL A   1      32.811  26.123  22.218  1.00  0.00     0.227 C 
ATOM     21  O   UNL A   1      33.334  26.026  21.108  1.00  0.00    -0.285 OA
BRANCH  20  22
ATOM     22  C   UNL A   1      33.332  25.284  23.346  1.00  0.00     0.113 A 
ATOM     23  C   UNL A   1      33.254  23.894  23.316  1.00  0.00     0.036 A 
ATOM     24  N   UNL A   1      33.888  25.974  24.372  1.00  0.00    -0.252 NA
ATOM     25  C   UNL A   1      33.733  23.168  24.416  1.00  0.00    -0.041 A 
ATOM     26  C   UNL A   1      34.355  25.255  25.413  1.00  0.00     0.115 A 
ATOM     27  C   UNL A   1      34.277  23.869  25.501  1.00  0.00    -0.026 A 
ATOM     28  C   UNL A   1      33.589  21.665  24.441  1.00  0.00     0.036 C 
ATOM     29  C   UNL A   1      34.816  23.164  26.716  1.00  0.00     0.037 C 
ATOM     30  C   UNL A   1      34.378  20.987  25.563  1.00  0.00     0.005 C 
ATOM     31  C   UNL A   1      34.240  21.759  26.870  1.00  0.00     0.005 C 
ENDBRANCH  20  22
ENDBRANCH  10  20
ENDBRANCH   8   9
ENDBRANCH   6   8
ENDBRANCH   3   4
ENDBRANCH   2   3
ENDBRANCH   1   2
BRANCH   1  32
ATOM     32  C   UNL A   1      32.134  30.319  26.295  1.00  0.00     0.002 C 
BRANCH  32  33
ATOM     33  C   UNL A   1      31.726  31.741  26.667  1.00  0.00     0.021 C 
BRANCH  33  34
ATOM     34  C   UNL A   1      32.816  32.573  27.324  1.00  0.00     0.116 C 
BRANCH  34  35
ATOM     35  N   UNL A   1      32.418  33.946  27.605  1.00  0.00    -0.352 N 
ATOM     36  C   UNL A   1      32.976  34.833  28.501  1.00  0.00     0.251 C 
ATOM     37  H   UNL A   1      31.651  34.283  27.089  1.00  0.00     0.163 HD
ATOM     38  O   UNL A   1      32.473  35.926  28.702  1.00  0.00    -0.269 OA
BRANCH  36  39
ATOM     39  C   UNL A   1      34.175  34.414  29.266  1.00  0.00     0.039 A 
ATOM     40  C   UNL A   1      35.454  34.619  28.748  1.00  0.00     0.014 A 
ATOM     41  C   UNL A   1      34.004  33.739  30.479  1.00  0.00     0.014 A 
ATOM     42  C   UNL A   1      36.543  33.991  29.343  1.00  0.00     0.010 A 
ATOM     43  C   UNL A   1      35.112  33.179  31.119  1.00  0.00     0.010 A 
ATOM     44  C   UNL A   1      36.382  33.249  30.525  1.00  0.00    -0.014 A 
BRANCH  44  45
ATOM     45  C   UNL A   1      37.550  32.533  31.099  1.00  0.00     0.031 A 
ATOM     46  C   UNL A   1      38.034  32.841  32.492  1.00  0.00     0.074 A 
ATOM     47  C   UNL A   1      38.138  31.552  30.387  1.00  0.00     0.049 A 
ATOM     48  N   UNL A   1      39.022  32.301  33.162  1.00  0.00    -0.248 NA
ATOM     49  C   UNL A   1      37.318  33.894  33.231  1.00  0.00     0.031 C 
ATOM     50  C   UNL A   1      37.753  31.148  29.034  1.00  0.00     0.029 A 
ATOM     51  N   UNL A   1      39.161  30.701  30.713  1.00  0.00    -0.354 N 
ATOM     52  C   UNL A   1      39.062  32.961  34.384  1.00  0.00     0.074 A 
ATOM     53  C   UNL A   1      38.014  33.958  34.358  1.00  0.00     0.031 C 
ATOM     54  C   UNL A   1      38.492  30.091  28.666  1.00  0.00     0.029 A 
ATOM     55  C   UNL A   1      39.441  29.781  29.731  1.00  0.00     0.049 A 
ATOM     56  H   UNL A   1      39.649  30.743  31.567  1.00  0.00     0.167 HD
ATOM     57  C   UNL A   1      39.891  32.751  35.435  1.00  0.00     0.037 A 
ATOM     58  C   UNL A   1      40.365  28.805  29.689  1.00  0.00     0.037 A 
ATOM     59  C   UNL A   1      40.913  31.737  35.477  1.00  0.00     0.049 A 
ATOM     60  C   UNL A   1      41.292  28.619  30.853  1.00  0.00     0.074 A 
ATOM     61  C   UNL A   1      41.777  31.425  36.513  1.00  0.00     0.029 A 
ATOM     62  N   UNL A   1      41.206  30.870  34.438  1.00  0.00    -0.354 N 
ATOM     63  N   UNL A   1      41.314  29.250  32.001  1.00  0.00    -0.248 NA
ATOM     64  C   UNL A   1      42.333  27.593  30.707  1.00  0.00     0.031 C 
ATOM     65  C   UNL A   1      42.617  30.389  36.087  1.00  0.00     0.029 A 
ATOM     66  C   UNL A   1      42.253  30.035  34.798  1.00  0.00     0.049 A 
ATOM     67  H   UNL A   1      40.741  30.849  33.570  1.00  0.00     0.167 HD
ATOM     68  C   UNL A   1      42.365  28.695  32.717  1.00  0.00     0.074 A 
ATOM     69  C   UNL A   1      42.941  27.659  31.883  1.00  0.00     0.031 C 
ATOM     70  C   UNL A   1      42.818  29.018  33.953  1.00  0.00     0.037 A 
BRANCH  57  71
ATOM     71  C   UNL A   1      39.736  33.647  36.630  1.00  0.00     0.057 A 
ATOM     72  C   UNL A   1      40.506  34.811  36.750  1.00  0.00     0.134 A 
ATOM     73  C   UNL A   1      38.857  33.341  37.676  1.00  0.00     0.134 A 
ATOM     74  F   UNL A   1      41.370  35.159  35.785  1.00  0.00    -0.206 F 
ATOM     75  C   UNL A   1      40.409  35.637  37.871  1.00  0.00     0.040 A 
ATOM     76  C   UNL A   1      38.737  34.170  38.793  1.00  0.00     0.040 A 
ATOM     77  F   UNL A   1      38.083  32.247  37.615  1.00  0.00    -0.206 F 
ATOM     78  C   UNL A   1      39.519  35.319  38.895  1.00  0.00     0.006 A 
ENDBRANCH  57  71
BRANCH  58  79
ATOM     79  C   UNL A   1      40.465  27.933  28.494  1.00  0.00     0.057 A 
ATOM     80  C   UNL A   1      41.213  28.315  27.374  1.00  0.00     0.134 A 
ATOM     81  C   UNL A   1      39.819  26.693  28.451  1.00  0.00     0.134 A 
ATOM     82  F   UNL A   1      41.852  29.493  27.356  1.00  0.00    -0.206 F 
ATOM     83  C   UNL A   1      41.305  27.498  26.246  1.00  0.00     0.040 A 
ATOM     84  C   UNL A   1      39.922  25.856  27.339  1.00  0.00     0.040 A 
ATOM     85  F   UNL A   1      39.106  26.266  29.503  1.00  0.00    -0.206 F 
ATOM     86  C   UNL A   1      40.662  26.262  26.230  1.00  0.00     0.006 A 
ENDBRANCH  58  79
BRANCH  70  87
ATOM     87  C   UNL A   1      43.986  28.233  34.467  1.00  0.00     0.057 A 
ATOM     88  C   UNL A   1      43.795  27.016  35.133  1.00  0.00     0.134 A 
ATOM     89  C   UNL A   1      45.301  28.686  34.304  1.00  0.00     0.134 A 
ATOM     90  F   UNL A   1      42.559  26.532  35.325  1.00  0.00    -0.206 F 
ATOM     91  C   UNL A   1      44.873  26.275  35.617  1.00  0.00     0.040 A 
ATOM     92  C   UNL A   1      46.389  27.942  34.765  1.00  0.00     0.040 A 
ATOM     93  F   UNL A   1      45.549  29.836  33.658  1.00  0.00    -0.206 F 
ATOM     94  C   UNL A   1      46.175  26.735  35.427  1.00  0.00     0.006 A 
ENDBRANCH  70  87
ENDBRANCH  44  45
ENDBRANCH  36  39
ENDBRANCH  34  35
ENDBRANCH  33  34
ENDBRANCH  32  33
ENDBRANCH   1  32
TORSDOF 16
ENDMDL
