MODEL 1
REMARK VINA RESULT:     -12.9      0.000      0.000
REMARK SMILES Cc1ccccc1C(=O)Nc1cc(NC(=O)c2ccccc2C)cc(C(=O)NCCCCCCNC(=O)c2ccc(-c3c4nc(c(-c5c(F)cccc5F)c5ccc([nH]5)c(-c5c(F)cccc5F)c5nc(c(-c6c(F)cccc6F)c6ccc3[nH]6)C=C5)C=C4)cc2)c1
REMARK SMILES IDX 31 1 30 2 29 3 28 4 26 5 27 6 25 8 11 9 12 10 92 11 13 12
REMARK SMILES IDX 24 13 10 14 8 15 9 16 7 18 1 19 2 20 3 21 4 22 6 23 5 24
REMARK SMILES IDX 14 25 15 26 16 28 17 29 18 30 22 31 19 32 21 33 23 34 20 35
REMARK SMILES IDX 32 36 33 37 34 38 35 39 36 40 37 42 38 43 39 44 91 45 40 46
REMARK SMILES IDX 90 47 41 48 42 49 43 50 84 51 44 52 89 53 83 54 85 55 45 56
REMARK SMILES IDX 88 57 82 58 81 59 46 61 72 62 55 63 71 64 56 65 59 66 70 67
REMARK SMILES IDX 86 68 57 69 58 70 69 72 87 73 60 74 47 75 48 76 53 77 49 78
REMARK SMILES IDX 50 79 52 80 54 81 51 82 73 83 74 84 79 85 75 86 76 87 78 88
REMARK SMILES IDX 80 89 77 90 61 91 62 92 67 93 63 94 64 95 66 96 68 97 65 98
REMARK H PARENT 28 7 10 17 14 27 35 41 85 60 59 71
REMARK Flexibility Score: inf
ROOT
ATOM      1  C   UNL A   1      37.050  21.636  24.180  1.00  0.00     0.002 C 
ENDROOT
BRANCH   1   2
ATOM      2  C   UNL A   1      36.744  23.112  23.944  1.00  0.00     0.021 C 
BRANCH   2   3
ATOM      3  C   UNL A   1      35.295  23.529  23.740  1.00  0.00     0.116 C 
BRANCH   3   4
ATOM      4  N   UNL A   1      34.732  23.270  22.432  1.00  0.00    -0.352 N 
ATOM      5  C   UNL A   1      33.534  23.653  21.867  1.00  0.00     0.251 C 
ATOM      6  O   UNL A   1      33.324  23.323  20.698  1.00  0.00    -0.269 OA
ATOM      7  H   UNL A   1      35.305  22.726  21.843  1.00  0.00     0.163 HD
BRANCH   5   8
ATOM      8  C   UNL A   1      32.473  24.427  22.591  1.00  0.00     0.043 A 
ATOM      9  C   UNL A   1      30.873  24.503  24.409  1.00  0.00     0.044 A 
ATOM     10  C   UNL A   1      30.477  25.786  24.033  1.00  0.00     0.052 A 
ATOM     11  C   UNL A   1      31.969  23.894  23.787  1.00  0.00     0.040 A 
ATOM     12  C   UNL A   1      30.998  26.346  22.878  1.00  0.00     0.044 A 
ATOM     13  C   UNL A   1      31.878  25.591  22.100  1.00  0.00     0.040 A 
BRANCH   9  14
ATOM     14  N   UNL A   1      30.108  23.719  25.284  1.00  0.00    -0.322 N 
ATOM     15  C   UNL A   1      30.515  22.689  26.118  1.00  0.00     0.255 C 
ATOM     16  O   UNL A   1      29.658  22.066  26.746  1.00  0.00    -0.269 OA
ATOM     17  H   UNL A   1      29.147  23.928  25.310  1.00  0.00     0.170 HD
BRANCH  15  18
ATOM     18  C   UNL A   1      31.953  22.318  26.322  1.00  0.00     0.043 A 
ATOM     19  C   UNL A   1      32.132  20.496  24.491  1.00  0.00     0.045 C 
ATOM     20  C   UNL A   1      32.653  21.285  25.659  1.00  0.00    -0.038 A 
ATOM     21  C   UNL A   1      33.972  20.992  26.059  1.00  0.00     0.004 A 
ATOM     22  C   UNL A   1      34.636  21.782  26.994  1.00  0.00     0.000 A 
ATOM     23  C   UNL A   1      32.656  23.136  27.226  1.00  0.00     0.014 A 
ATOM     24  C   UNL A   1      33.991  22.880  27.547  1.00  0.00     0.001 A 
ENDBRANCH  15  18
ENDBRANCH   9  14
BRANCH  12  25
ATOM     25  N   UNL A   1      30.658  27.613  22.383  1.00  0.00    -0.322 N 
ATOM     26  C   UNL A   1      30.887  28.879  22.867  1.00  0.00     0.255 C 
ATOM     27  H   UNL A   1      30.162  27.593  21.532  1.00  0.00     0.170 HD
ATOM     28  O   UNL A   1      30.345  29.836  22.315  1.00  0.00    -0.269 OA
BRANCH  26  29
ATOM     29  C   UNL A   1      31.809  29.135  23.997  1.00  0.00     0.043 A 
ATOM     30  C   UNL A   1      31.208  29.615  25.172  1.00  0.00     0.014 A 
ATOM     31  C   UNL A   1      33.207  28.969  23.931  1.00  0.00    -0.038 A 
ATOM     32  C   UNL A   1      31.976  29.859  26.307  1.00  0.00     0.001 A 
ATOM     33  C   UNL A   1      33.957  29.185  25.099  1.00  0.00     0.004 A 
ATOM     34  C   UNL A   1      33.951  28.563  22.690  1.00  0.00     0.045 C 
ATOM     35  C   UNL A   1      33.348  29.623  26.276  1.00  0.00     0.000 A 
ENDBRANCH  26  29
ENDBRANCH  12  25
ENDBRANCH   5   8
ENDBRANCH   3   4
ENDBRANCH   2   3
ENDBRANCH   1   2
BRANCH   1  36
ATOM     36  C   UNL A   1      37.973  21.256  25.346  1.00  0.00     0.002 C 
BRANCH  36  37
ATOM     37  C   UNL A   1      38.641  22.386  26.126  1.00  0.00     0.021 C 
BRANCH  37  38
ATOM     38  C   UNL A   1      39.982  22.051  26.770  1.00  0.00     0.116 C 
BRANCH  38  39
ATOM     39  N   UNL A   1      40.762  21.038  26.073  1.00  0.00    -0.352 N 
ATOM     40  C   UNL A   1      42.155  20.910  25.995  1.00  0.00     0.251 C 
ATOM     41  H   UNL A   1      40.243  20.353  25.593  1.00  0.00     0.163 HD
ATOM     42  O   UNL A   1      42.659  19.974  25.400  1.00  0.00    -0.269 OA
BRANCH  40  43
ATOM     43  C   UNL A   1      42.991  21.841  26.785  1.00  0.00     0.039 A 
ATOM     44  C   UNL A   1      42.968  21.682  28.176  1.00  0.00     0.014 A 
ATOM     45  C   UNL A   1      43.453  23.023  26.216  1.00  0.00     0.014 A 
ATOM     46  C   UNL A   1      43.059  22.812  28.978  1.00  0.00     0.010 A 
ATOM     47  C   UNL A   1      43.446  24.161  26.996  1.00  0.00     0.010 A 
ATOM     48  C   UNL A   1      43.155  24.057  28.358  1.00  0.00    -0.014 A 
BRANCH  48  49
ATOM     49  C   UNL A   1      42.885  25.303  29.058  1.00  0.00     0.031 A 
ATOM     50  C   UNL A   1      41.688  26.073  28.709  1.00  0.00     0.074 A 
ATOM     51  C   UNL A   1      43.736  25.781  29.992  1.00  0.00     0.049 A 
ATOM     52  N   UNL A   1      41.651  27.360  28.699  1.00  0.00    -0.248 NA
ATOM     53  C   UNL A   1      40.443  25.444  28.292  1.00  0.00     0.031 C 
ATOM     54  C   UNL A   1      43.524  26.913  30.888  1.00  0.00     0.029 A 
ATOM     55  N   UNL A   1      45.070  25.437  30.188  1.00  0.00    -0.354 N 
ATOM     56  C   UNL A   1      40.336  27.726  28.564  1.00  0.00     0.074 A 
ATOM     57  C   UNL A   1      39.637  26.508  28.215  1.00  0.00     0.031 C 
ATOM     58  C   UNL A   1      44.711  27.330  31.357  1.00  0.00     0.029 A 
ATOM     59  C   UNL A   1      45.748  26.566  30.687  1.00  0.00     0.049 A 
ATOM     60  H   UNL A   1      45.470  24.556  30.008  1.00  0.00     0.167 HD
ATOM     61  C   UNL A   1      39.953  28.984  28.919  1.00  0.00     0.037 A 
ATOM     62  C   UNL A   1      46.816  27.091  30.015  1.00  0.00     0.037 A 
ATOM     63  C   UNL A   1      41.078  29.760  29.441  1.00  0.00     0.049 A 
ATOM     64  C   UNL A   1      46.559  28.468  29.434  1.00  0.00     0.074 A 
ATOM     65  C   UNL A   1      41.525  30.035  30.723  1.00  0.00     0.029 A 
ATOM     66  N   UNL A   1      42.124  30.100  28.599  1.00  0.00    -0.354 N 
ATOM     67  N   UNL A   1      45.447  29.135  29.563  1.00  0.00    -0.248 NA
ATOM     68  C   UNL A   1      47.507  29.138  28.546  1.00  0.00     0.031 C 
ATOM     69  C   UNL A   1      42.837  30.576  30.637  1.00  0.00     0.029 A 
ATOM     70  C   UNL A   1      43.187  30.642  29.302  1.00  0.00     0.049 A 
ATOM     71  H   UNL A   1      42.114  29.971  27.623  1.00  0.00     0.167 HD
ATOM     72  C   UNL A   1      45.467  30.227  28.731  1.00  0.00     0.074 A 
ATOM     73  C   UNL A   1      46.778  30.177  28.109  1.00  0.00     0.031 C 
ATOM     74  C   UNL A   1      44.384  31.052  28.579  1.00  0.00     0.037 A 
BRANCH  61  75
ATOM     75  C   UNL A   1      38.505  29.374  29.082  1.00  0.00     0.057 A 
ATOM     76  C   UNL A   1      37.758  29.862  27.994  1.00  0.00     0.134 A 
ATOM     77  C   UNL A   1      37.803  29.332  30.300  1.00  0.00     0.134 A 
ATOM     78  F   UNL A   1      38.245  29.860  26.746  1.00  0.00    -0.206 F 
ATOM     79  C   UNL A   1      36.468  30.388  28.132  1.00  0.00     0.040 A 
ATOM     80  C   UNL A   1      36.531  29.902  30.464  1.00  0.00     0.040 A 
ATOM     81  F   UNL A   1      38.306  28.705  31.374  1.00  0.00    -0.206 F 
ATOM     82  C   UNL A   1      35.866  30.448  29.377  1.00  0.00     0.006 A 
ENDBRANCH  61  75
BRANCH  62  83
ATOM     83  C   UNL A   1      47.606  26.025  29.334  1.00  0.00     0.057 A 
ATOM     84  C   UNL A   1      47.376  25.816  27.961  1.00  0.00     0.134 A 
ATOM     85  C   UNL A   1      48.841  25.623  29.849  1.00  0.00     0.134 A 
ATOM     86  F   UNL A   1      46.197  26.152  27.414  1.00  0.00    -0.206 F 
ATOM     87  C   UNL A   1      48.408  25.435  27.104  1.00  0.00     0.040 A 
ATOM     88  C   UNL A   1      49.869  25.213  28.999  1.00  0.00     0.040 A 
ATOM     89  F   UNL A   1      49.122  25.762  31.151  1.00  0.00    -0.206 F 
ATOM     90  C   UNL A   1      49.676  25.189  27.619  1.00  0.00     0.006 A 
ENDBRANCH  62  83
BRANCH  74  91
ATOM     91  C   UNL A   1      44.350  32.296  27.710  1.00  0.00     0.057 A 
ATOM     92  C   UNL A   1      44.754  32.318  26.367  1.00  0.00     0.134 A 
ATOM     93  C   UNL A   1      43.997  33.562  28.231  1.00  0.00     0.134 A 
ATOM     94  F   UNL A   1      45.295  31.240  25.781  1.00  0.00    -0.206 F 
ATOM     95  C   UNL A   1      44.679  33.470  25.571  1.00  0.00     0.040 A 
ATOM     96  C   UNL A   1      43.968  34.730  27.462  1.00  0.00     0.040 A 
ATOM     97  F   UNL A   1      43.662  33.744  29.514  1.00  0.00    -0.206 F 
ATOM     98  C   UNL A   1      44.279  34.682  26.116  1.00  0.00     0.006 A 
ENDBRANCH  74  91
ENDBRANCH  48  49
ENDBRANCH  40  43
ENDBRANCH  38  39
ENDBRANCH  37  38
ENDBRANCH  36  37
ENDBRANCH   1  36
TORSDOF 17
ENDMDL
MODEL 2
REMARK VINA RESULT:     -12.6      4.132      9.182
REMARK SMILES Cc1ccccc1C(=O)Nc1cc(NC(=O)c2ccccc2C)cc(C(=O)NCCCCCCNC(=O)c2ccc(-c3c4nc(c(-c5c(F)cccc5F)c5ccc([nH]5)c(-c5c(F)cccc5F)c5nc(c(-c6c(F)cccc6F)c6ccc3[nH]6)C=C5)C=C4)cc2)c1
REMARK SMILES IDX 31 1 30 2 29 3 28 4 26 5 27 6 25 8 11 9 12 10 92 11 13 12
REMARK SMILES IDX 24 13 10 14 8 15 9 16 7 18 1 19 2 20 3 21 4 22 6 23 5 24
REMARK SMILES IDX 14 25 15 26 16 28 17 29 18 30 22 31 19 32 21 33 23 34 20 35
REMARK SMILES IDX 32 36 33 37 34 38 35 39 36 40 37 42 38 43 39 44 91 45 40 46
REMARK SMILES IDX 90 47 41 48 42 49 43 50 84 51 44 52 89 53 83 54 85 55 45 56
REMARK SMILES IDX 88 57 82 58 81 59 46 61 72 62 55 63 71 64 56 65 59 66 70 67
REMARK SMILES IDX 86 68 57 69 58 70 69 72 87 73 60 74 47 75 48 76 53 77 49 78
REMARK SMILES IDX 50 79 52 80 54 81 51 82 73 83 74 84 79 85 75 86 76 87 78 88
REMARK SMILES IDX 80 89 77 90 61 91 62 92 67 93 63 94 64 95 66 96 68 97 65 98
REMARK H PARENT 28 7 10 17 14 27 35 41 85 60 59 71
REMARK Flexibility Score: inf
ROOT
ATOM      1  C   UNL A   1      35.024  31.812  27.845  1.00  0.00     0.002 C 
ENDROOT
BRANCH   1   2
ATOM      2  C   UNL A   1      35.830  30.519  27.760  1.00  0.00     0.021 C 
BRANCH   2   3
ATOM      3  C   UNL A   1      35.171  29.292  27.145  1.00  0.00     0.116 C 
BRANCH   3   4
ATOM      4  N   UNL A   1      33.801  29.452  26.707  1.00  0.00    -0.352 N 
ATOM      5  C   UNL A   1      33.017  28.680  25.875  1.00  0.00     0.251 C 
ATOM      6  O   UNL A   1      31.849  29.033  25.705  1.00  0.00    -0.269 OA
ATOM      7  H   UNL A   1      33.349  30.250  27.068  1.00  0.00     0.163 HD
BRANCH   5   8
ATOM      8  C   UNL A   1      33.506  27.457  25.158  1.00  0.00     0.043 A 
ATOM      9  C   UNL A   1      33.753  26.276  23.057  1.00  0.00     0.044 A 
ATOM     10  C   UNL A   1      34.387  25.217  23.704  1.00  0.00     0.052 A 
ATOM     11  C   UNL A   1      33.455  27.451  23.756  1.00  0.00     0.040 A 
ATOM     12  C   UNL A   1      34.485  25.227  25.087  1.00  0.00     0.044 A 
ATOM     13  C   UNL A   1      33.909  26.282  25.795  1.00  0.00     0.040 A 
BRANCH   9  14
ATOM     14  N   UNL A   1      33.245  26.151  21.756  1.00  0.00    -0.322 N 
ATOM     15  C   UNL A   1      31.932  26.233  21.318  1.00  0.00     0.255 C 
ATOM     16  O   UNL A   1      31.691  26.004  20.132  1.00  0.00    -0.269 OA
ATOM     17  H   UNL A   1      33.914  25.981  21.055  1.00  0.00     0.170 HD
BRANCH  15  18
ATOM     18  C   UNL A   1      30.793  26.624  22.210  1.00  0.00     0.043 A 
ATOM     19  C   UNL A   1      30.546  24.393  23.500  1.00  0.00     0.045 C 
ATOM     20  C   UNL A   1      30.118  25.782  23.122  1.00  0.00    -0.038 A 
ATOM     21  C   UNL A   1      28.986  26.281  23.799  1.00  0.00     0.004 A 
ATOM     22  C   UNL A   1      28.605  27.616  23.684  1.00  0.00     0.000 A 
ATOM     23  C   UNL A   1      30.426  27.981  22.146  1.00  0.00     0.014 A 
ATOM     24  C   UNL A   1      29.352  28.476  22.889  1.00  0.00     0.001 A 
ENDBRANCH  15  18
ENDBRANCH   9  14
BRANCH  12  25
ATOM     25  N   UNL A   1      35.073  24.209  25.851  1.00  0.00    -0.322 N 
ATOM     26  C   UNL A   1      34.535  23.132  26.513  1.00  0.00     0.255 C 
ATOM     27  H   UNL A   1      36.052  24.280  25.930  1.00  0.00     0.170 HD
ATOM     28  O   UNL A   1      35.259  22.462  27.249  1.00  0.00    -0.269 OA
BRANCH  26  29
ATOM     29  C   UNL A   1      33.127  22.716  26.327  1.00  0.00     0.043 A 
ATOM     30  C   UNL A   1      32.194  23.344  27.168  1.00  0.00     0.014 A 
ATOM     31  C   UNL A   1      32.707  21.727  25.414  1.00  0.00    -0.038 A 
ATOM     32  C   UNL A   1      30.837  23.052  27.056  1.00  0.00     0.001 A 
ATOM     33  C   UNL A   1      31.330  21.477  25.292  1.00  0.00     0.004 A 
ATOM     34  C   UNL A   1      33.640  20.927  24.549  1.00  0.00     0.045 C 
ATOM     35  C   UNL A   1      30.404  22.134  26.103  1.00  0.00     0.000 A 
ENDBRANCH  26  29
ENDBRANCH  12  25
ENDBRANCH   5   8
ENDBRANCH   3   4
ENDBRANCH   2   3
ENDBRANCH   1   2
BRANCH   1  36
ATOM     36  C   UNL A   1      35.774  33.128  28.092  1.00  0.00     0.002 C 
BRANCH  36  37
ATOM     37  C   UNL A   1      35.902  33.619  29.533  1.00  0.00     0.021 C 
BRANCH  37  38
ATOM     38  C   UNL A   1      35.205  32.769  30.590  1.00  0.00     0.116 C 
BRANCH  38  39
ATOM     39  N   UNL A   1      34.359  33.509  31.514  1.00  0.00    -0.352 N 
ATOM     40  C   UNL A   1      34.681  34.014  32.780  1.00  0.00     0.251 C 
ATOM     41  H   UNL A   1      33.437  33.676  31.210  1.00  0.00     0.163 HD
ATOM     42  O   UNL A   1      33.864  34.654  33.419  1.00  0.00    -0.269 OA
BRANCH  40  43
ATOM     43  C   UNL A   1      36.080  33.895  33.248  1.00  0.00     0.039 A 
ATOM     44  C   UNL A   1      37.020  34.738  32.645  1.00  0.00     0.014 A 
ATOM     45  C   UNL A   1      36.490  32.766  33.949  1.00  0.00     0.014 A 
ATOM     46  C   UNL A   1      38.309  34.262  32.437  1.00  0.00     0.010 A 
ATOM     47  C   UNL A   1      37.735  32.244  33.663  1.00  0.00     0.010 A 
ATOM     48  C   UNL A   1      38.602  32.955  32.830  1.00  0.00    -0.014 A 
BRANCH  48  49
ATOM     49  C   UNL A   1      39.766  32.235  32.341  1.00  0.00     0.031 A 
ATOM     50  C   UNL A   1      39.575  31.110  31.421  1.00  0.00     0.074 A 
ATOM     51  C   UNL A   1      41.012  32.556  32.752  1.00  0.00     0.049 A 
ATOM     52  N   UNL A   1      40.305  30.049  31.438  1.00  0.00    -0.248 NA
ATOM     53  C   UNL A   1      38.505  31.074  30.435  1.00  0.00     0.031 C 
ATOM     54  C   UNL A   1      42.276  32.044  32.232  1.00  0.00     0.029 A 
ATOM     55  N   UNL A   1      41.378  33.291  33.874  1.00  0.00    -0.354 N 
ATOM     56  C   UNL A   1      40.002  29.333  30.308  1.00  0.00     0.074 A 
ATOM     57  C   UNL A   1      38.812  29.956  29.770  1.00  0.00     0.031 C 
ATOM     58  C   UNL A   1      43.244  32.264  33.136  1.00  0.00     0.029 A 
ATOM     59  C   UNL A   1      42.624  32.812  34.328  1.00  0.00     0.049 A 
ATOM     60  H   UNL A   1      40.858  34.020  34.281  1.00  0.00     0.167 HD
ATOM     61  C   UNL A   1      40.879  28.392  29.859  1.00  0.00     0.037 A 
ATOM     62  C   UNL A   1      42.760  32.321  35.596  1.00  0.00     0.037 A 
ATOM     63  C   UNL A   1      42.076  28.330  30.698  1.00  0.00     0.049 A 
ATOM     64  C   UNL A   1      43.044  30.832  35.650  1.00  0.00     0.074 A 
ATOM     65  C   UNL A   1      43.339  28.890  30.590  1.00  0.00     0.029 A 
ATOM     66  N   UNL A   1      41.971  27.895  32.009  1.00  0.00    -0.354 N 
ATOM     67  N   UNL A   1      43.179  30.062  34.607  1.00  0.00    -0.248 NA
ATOM     68  C   UNL A   1      43.066  30.079  36.902  1.00  0.00     0.031 C 
ATOM     69  C   UNL A   1      44.001  28.754  31.840  1.00  0.00     0.029 A 
ATOM     70  C   UNL A   1      43.148  28.101  32.709  1.00  0.00     0.049 A 
ATOM     71  H   UNL A   1      41.161  27.492  32.395  1.00  0.00     0.167 HD
ATOM     72  C   UNL A   1      43.196  28.748  35.006  1.00  0.00     0.074 A 
ATOM     73  C   UNL A   1      43.112  28.814  36.453  1.00  0.00     0.031 C 
ATOM     74  C   UNL A   1      43.221  27.710  34.111  1.00  0.00     0.037 A 
BRANCH  61  75
ATOM     75  C   UNL A   1      40.774  27.775  28.487  1.00  0.00     0.057 A 
ATOM     76  C   UNL A   1      40.075  26.570  28.285  1.00  0.00     0.134 A 
ATOM     77  C   UNL A   1      41.377  28.301  27.330  1.00  0.00     0.134 A 
ATOM     78  F   UNL A   1      39.352  26.002  29.259  1.00  0.00    -0.206 F 
ATOM     79  C   UNL A   1      40.087  25.879  27.068  1.00  0.00     0.040 A 
ATOM     80  C   UNL A   1      41.441  27.595  26.119  1.00  0.00     0.040 A 
ATOM     81  F   UNL A   1      41.898  29.536  27.316  1.00  0.00    -0.206 F 
ATOM     82  C   UNL A   1      40.807  26.369  25.991  1.00  0.00     0.006 A 
ENDBRANCH  61  75
BRANCH  62  83
ATOM     83  C   UNL A   1      41.878  33.044  36.557  1.00  0.00     0.057 A 
ATOM     84  C   UNL A   1      42.287  34.322  36.984  1.00  0.00     0.134 A 
ATOM     85  C   UNL A   1      40.515  32.747  36.627  1.00  0.00     0.134 A 
ATOM     86  F   UNL A   1      43.587  34.656  36.971  1.00  0.00    -0.206 F 
ATOM     87  C   UNL A   1      41.358  35.327  37.253  1.00  0.00     0.040 A 
ATOM     88  C   UNL A   1      39.582  33.741  36.924  1.00  0.00     0.040 A 
ATOM     89  F   UNL A   1      40.054  31.542  36.266  1.00  0.00    -0.206 F 
ATOM     90  C   UNL A   1      39.999  35.050  37.166  1.00  0.00     0.006 A 
ENDBRANCH  62  83
BRANCH  74  91
ATOM     91  C   UNL A   1      43.281  26.240  34.481  1.00  0.00     0.057 A 
ATOM     92  C   UNL A   1      44.372  25.409  34.191  1.00  0.00     0.134 A 
ATOM     93  C   UNL A   1      42.180  25.571  35.065  1.00  0.00     0.134 A 
ATOM     94  F   UNL A   1      45.414  25.848  33.470  1.00  0.00    -0.206 F 
ATOM     95  C   UNL A   1      44.423  24.061  34.576  1.00  0.00     0.040 A 
ATOM     96  C   UNL A   1      42.197  24.215  35.406  1.00  0.00     0.040 A 
ATOM     97  F   UNL A   1      41.024  26.189  35.337  1.00  0.00    -0.206 F 
ATOM     98  C   UNL A   1      43.334  23.460  35.191  1.00  0.00     0.006 A 
ENDBRANCH  74  91
ENDBRANCH  48  49
ENDBRANCH  40  43
ENDBRANCH  38  39
ENDBRANCH  37  38
ENDBRANCH  36  37
ENDBRANCH   1  36
TORSDOF 17
ENDMDL
MODEL 3
REMARK VINA RESULT:     -12.6      3.692      8.615
REMARK SMILES Cc1ccccc1C(=O)Nc1cc(NC(=O)c2ccccc2C)cc(C(=O)NCCCCCCNC(=O)c2ccc(-c3c4nc(c(-c5c(F)cccc5F)c5ccc([nH]5)c(-c5c(F)cccc5F)c5nc(c(-c6c(F)cccc6F)c6ccc3[nH]6)C=C5)C=C4)cc2)c1
REMARK SMILES IDX 31 1 30 2 29 3 28 4 26 5 27 6 25 8 11 9 12 10 92 11 13 12
REMARK SMILES IDX 24 13 10 14 8 15 9 16 7 18 1 19 2 20 3 21 4 22 6 23 5 24
REMARK SMILES IDX 14 25 15 26 16 28 17 29 18 30 22 31 19 32 21 33 23 34 20 35
REMARK SMILES IDX 32 36 33 37 34 38 35 39 36 40 37 42 38 43 39 44 91 45 40 46
REMARK SMILES IDX 90 47 41 48 42 49 43 50 84 51 44 52 89 53 83 54 85 55 45 56
REMARK SMILES IDX 88 57 82 58 81 59 46 61 72 62 55 63 71 64 56 65 59 66 70 67
REMARK SMILES IDX 86 68 57 69 58 70 69 72 87 73 60 74 47 75 48 76 53 77 49 78
REMARK SMILES IDX 50 79 52 80 54 81 51 82 73 83 74 84 79 85 75 86 76 87 78 88
REMARK SMILES IDX 80 89 77 90 61 91 62 92 67 93 63 94 64 95 66 96 68 97 65 98
REMARK H PARENT 28 7 10 17 14 27 35 41 85 60 59 71
REMARK Flexibility Score: inf
ROOT
ATOM      1  C   UNL A   1      34.213  29.044  27.271  1.00  0.00     0.002 C 
ENDROOT
BRANCH   1   2
ATOM      2  C   UNL A   1      33.480  29.256  25.950  1.00  0.00     0.021 C 
BRANCH   2   3
ATOM      3  C   UNL A   1      31.958  29.237  25.952  1.00  0.00     0.116 C 
BRANCH   3   4
ATOM      4  N   UNL A   1      31.310  29.690  24.740  1.00  0.00    -0.352 N 
ATOM      5  C   UNL A   1      30.771  28.987  23.683  1.00  0.00     0.251 C 
ATOM      6  O   UNL A   1      30.232  29.636  22.784  1.00  0.00    -0.269 OA
ATOM      7  H   UNL A   1      31.241  30.668  24.656  1.00  0.00     0.163 HD
BRANCH   5   8
ATOM      8  C   UNL A   1      30.816  27.494  23.556  1.00  0.00     0.043 A 
ATOM      9  C   UNL A   1      30.264  25.338  24.515  1.00  0.00     0.044 A 
ATOM     10  C   UNL A   1      30.834  24.684  23.424  1.00  0.00     0.052 A 
ATOM     11  C   UNL A   1      30.120  26.730  24.505  1.00  0.00     0.040 A 
ATOM     12  C   UNL A   1      31.489  25.427  22.454  1.00  0.00     0.044 A 
ATOM     13  C   UNL A   1      31.592  26.809  22.618  1.00  0.00     0.040 A 
BRANCH   9  14
ATOM     14  N   UNL A   1      29.974  24.667  25.711  1.00  0.00    -0.322 N 
ATOM     15  C   UNL A   1      30.842  24.073  26.614  1.00  0.00     0.255 C 
ATOM     16  O   UNL A   1      30.368  23.453  27.567  1.00  0.00    -0.269 OA
ATOM     17  H   UNL A   1      29.019  24.608  25.942  1.00  0.00     0.170 HD
BRANCH  15  18
ATOM     18  C   UNL A   1      32.334  24.179  26.509  1.00  0.00     0.043 A 
ATOM     19  C   UNL A   1      32.940  21.831  27.417  1.00  0.00     0.045 C 
ATOM     20  C   UNL A   1      33.273  23.218  26.944  1.00  0.00    -0.038 A 
ATOM     21  C   UNL A   1      34.646  23.530  26.879  1.00  0.00     0.004 A 
ATOM     22  C   UNL A   1      35.092  24.704  26.276  1.00  0.00     0.000 A 
ATOM     23  C   UNL A   1      32.803  25.335  25.858  1.00  0.00     0.014 A 
ATOM     24  C   UNL A   1      34.171  25.587  25.728  1.00  0.00     0.001 A 
ENDBRANCH  15  18
ENDBRANCH   9  14
BRANCH  12  25
ATOM     25  N   UNL A   1      32.123  24.883  21.327  1.00  0.00    -0.322 N 
ATOM     26  C   UNL A   1      32.934  23.785  21.173  1.00  0.00     0.255 C 
ATOM     27  H   UNL A   1      31.959  25.381  20.494  1.00  0.00     0.170 HD
ATOM     28  O   UNL A   1      33.496  23.606  20.093  1.00  0.00    -0.269 OA
BRANCH  26  29
ATOM     29  C   UNL A   1      33.111  22.779  22.245  1.00  0.00     0.043 A 
ATOM     30  C   UNL A   1      32.048  21.875  22.408  1.00  0.00     0.014 A 
ATOM     31  C   UNL A   1      34.230  22.722  23.100  1.00  0.00    -0.038 A 
ATOM     32  C   UNL A   1      32.122  20.867  23.365  1.00  0.00     0.001 A 
ATOM     33  C   UNL A   1      34.300  21.674  24.033  1.00  0.00     0.004 A 
ATOM     34  C   UNL A   1      35.365  23.707  23.072  1.00  0.00     0.045 C 
ATOM     35  C   UNL A   1      33.258  20.753  24.163  1.00  0.00     0.000 A 
ENDBRANCH  26  29
ENDBRANCH  12  25
ENDBRANCH   5   8
ENDBRANCH   3   4
ENDBRANCH   2   3
ENDBRANCH   1   2
BRANCH   1  36
ATOM     36  C   UNL A   1      35.107  30.171  27.804  1.00  0.00     0.002 C 
BRANCH  36  37
ATOM     37  C   UNL A   1      34.436  31.481  28.216  1.00  0.00     0.021 C 
BRANCH  37  38
ATOM     38  C   UNL A   1      35.061  32.205  29.403  1.00  0.00     0.116 C 
BRANCH  38  39
ATOM     39  N   UNL A   1      34.137  33.008  30.190  1.00  0.00    -0.352 N 
ATOM     40  C   UNL A   1      34.335  33.580  31.453  1.00  0.00     0.251 C 
ATOM     41  H   UNL A   1      33.256  33.171  29.781  1.00  0.00     0.163 HD
ATOM     42  O   UNL A   1      33.468  34.266  31.966  1.00  0.00    -0.269 OA
BRANCH  40  43
ATOM     43  C   UNL A   1      35.674  33.467  32.073  1.00  0.00     0.039 A 
ATOM     44  C   UNL A   1      36.663  34.336  31.597  1.00  0.00     0.014 A 
ATOM     45  C   UNL A   1      36.020  32.328  32.792  1.00  0.00     0.014 A 
ATOM     46  C   UNL A   1      37.973  33.880  31.526  1.00  0.00     0.010 A 
ATOM     47  C   UNL A   1      37.297  31.829  32.637  1.00  0.00     0.010 A 
ATOM     48  C   UNL A   1      38.240  32.569  31.921  1.00  0.00    -0.014 A 
BRANCH  48  49
ATOM     49  C   UNL A   1      39.462  31.874  31.552  1.00  0.00     0.031 A 
ATOM     50  C   UNL A   1      39.377  30.681  30.704  1.00  0.00     0.074 A 
ATOM     51  C   UNL A   1      40.666  32.282  32.008  1.00  0.00     0.049 A 
ATOM     52  N   UNL A   1      40.151  29.660  30.838  1.00  0.00    -0.248 NA
ATOM     53  C   UNL A   1      38.370  30.527  29.664  1.00  0.00     0.031 C 
ATOM     54  C   UNL A   1      41.981  31.799  31.598  1.00  0.00     0.029 A 
ATOM     55  N   UNL A   1      40.932  33.110  33.094  1.00  0.00    -0.354 N 
ATOM     56  C   UNL A   1      39.949  28.855  29.746  1.00  0.00     0.074 A 
ATOM     57  C   UNL A   1      38.767  29.382  29.098  1.00  0.00     0.031 C 
ATOM     58  C   UNL A   1      42.882  32.126  32.538  1.00  0.00     0.029 A 
ATOM     59  C   UNL A   1      42.168  32.724  33.651  1.00  0.00     0.049 A 
ATOM     60  H   UNL A   1      40.356  33.838  33.419  1.00  0.00     0.167 HD
ATOM     61  C   UNL A   1      40.892  27.930  29.414  1.00  0.00     0.037 A 
ATOM     62  C   UNL A   1      42.249  32.327  34.956  1.00  0.00     0.037 A 
ATOM     63  C   UNL A   1      42.038  27.984  30.323  1.00  0.00     0.049 A 
ATOM     64  C   UNL A   1      42.595  30.861  35.131  1.00  0.00     0.074 A 
ATOM     65  C   UNL A   1      43.279  28.595  30.246  1.00  0.00     0.029 A 
ATOM     66  N   UNL A   1      41.874  27.634  31.653  1.00  0.00    -0.354 N 
ATOM     67  N   UNL A   1      42.827  30.029  34.155  1.00  0.00    -0.248 NA
ATOM     68  C   UNL A   1      42.576  30.196  36.433  1.00  0.00     0.031 C 
ATOM     69  C   UNL A   1      43.871  28.577  31.539  1.00  0.00     0.029 A 
ATOM     70  C   UNL A   1      42.997  27.944  32.402  1.00  0.00     0.049 A 
ATOM     71  H   UNL A   1      41.061  27.219  32.020  1.00  0.00     0.167 HD
ATOM     72  C   UNL A   1      42.878  28.747  34.646  1.00  0.00     0.074 A 
ATOM     73  C   UNL A   1      42.705  28.908  36.079  1.00  0.00     0.031 C 
ATOM     74  C   UNL A   1      43.003  27.654  33.830  1.00  0.00     0.037 A 
BRANCH  61  75
ATOM     75  C   UNL A   1      40.896  27.216  28.086  1.00  0.00     0.057 A 
ATOM     76  C   UNL A   1      40.219  25.994  27.917  1.00  0.00     0.134 A 
ATOM     77  C   UNL A   1      41.586  27.664  26.945  1.00  0.00     0.134 A 
ATOM     78  F   UNL A   1      39.425  25.489  28.870  1.00  0.00    -0.206 F 
ATOM     79  C   UNL A   1      40.330  25.218  26.757  1.00  0.00     0.040 A 
ATOM     80  C   UNL A   1      41.748  26.875  25.796  1.00  0.00     0.040 A 
ATOM     81  F   UNL A   1      42.103  28.900  26.884  1.00  0.00    -0.206 F 
ATOM     82  C   UNL A   1      41.130  25.637  25.707  1.00  0.00     0.006 A 
ENDBRANCH  61  75
BRANCH  62  83
ATOM     83  C   UNL A   1      41.280  33.070  35.812  1.00  0.00     0.057 A 
ATOM     84  C   UNL A   1      41.630  34.374  36.214  1.00  0.00     0.134 A 
ATOM     85  C   UNL A   1      39.922  32.747  35.788  1.00  0.00     0.134 A 
ATOM     86  F   UNL A   1      42.921  34.735  36.288  1.00  0.00    -0.206 F 
ATOM     87  C   UNL A   1      40.664  35.369  36.365  1.00  0.00     0.040 A 
ATOM     88  C   UNL A   1      38.950  33.731  35.967  1.00  0.00     0.040 A 
ATOM     89  F   UNL A   1      39.514  31.518  35.445  1.00  0.00    -0.206 F 
ATOM     90  C   UNL A   1      39.321  35.058  36.183  1.00  0.00     0.006 A 
ENDBRANCH  62  83
BRANCH  74  91
ATOM     91  C   UNL A   1      43.106  26.217  34.306  1.00  0.00     0.057 A 
ATOM     92  C   UNL A   1      42.085  25.553  35.002  1.00  0.00     0.134 A 
ATOM     93  C   UNL A   1      44.297  25.468  34.167  1.00  0.00     0.134 A 
ATOM     94  F   UNL A   1      40.967  26.189  35.380  1.00  0.00    -0.206 F 
ATOM     95  C   UNL A   1      42.187  24.212  35.400  1.00  0.00     0.040 A 
ATOM     96  C   UNL A   1      44.431  24.146  34.606  1.00  0.00     0.040 A 
ATOM     97  F   UNL A   1      45.401  25.970  33.601  1.00  0.00    -0.206 F 
ATOM     98  C   UNL A   1      43.361  23.501  35.198  1.00  0.00     0.006 A 
ENDBRANCH  74  91
ENDBRANCH  48  49
ENDBRANCH  40  43
ENDBRANCH  38  39
ENDBRANCH  37  38
ENDBRANCH  36  37
ENDBRANCH   1  36
TORSDOF 17
ENDMDL
