MODEL 1
REMARK VINA RESULT:      -9.9      0.000      0.000
REMARK SMILES CC(=O)N1CCC[C@H]1COCC(=O)NCCCCCCNC(=O)c1ccc(-c2c3nc(c(-c4c(F)cccc4F)c4ccc([nH]4)c(-c4c(F)cccc4F)c4nc(c(-c5c(F)cccc5F)c5ccc2[nH]5)C=C4)C=C3)cc1
REMARK SMILES IDX 16 1 15 2 14 3 12 4 13 5 11 7 10 8 9 9 8 10 4 11 5 12 6 13
REMARK SMILES IDX 7 14 2 15 1 16 3 17 17 18 18 19 19 20 20 21 21 22 22 23
REMARK SMILES IDX 23 25 24 26 25 27 77 28 26 29 76 30 27 31 28 32 29 33 70 34
REMARK SMILES IDX 30 35 75 36 69 37 71 38 31 39 74 40 68 41 67 42 32 44 58 45
REMARK SMILES IDX 41 46 57 47 42 48 45 49 56 50 72 51 43 52 44 53 55 55 73 56
REMARK SMILES IDX 46 57 33 58 34 59 39 60 35 61 36 62 38 63 40 64 37 65 59 66
REMARK SMILES IDX 60 67 65 68 61 69 62 70 64 71 66 72 63 73 47 74 48 75 53 76
REMARK SMILES IDX 49 77 50 78 52 79 54 80 51 81
REMARK H PARENT 14 6 21 24 71 43 45 54
REMARK Flexibility Score: inf
ROOT
ATOM      1  C   UNL A   1      30.787  28.307  23.031  1.00  0.00     0.021 C 
ENDROOT
BRANCH   1   2
ATOM      2  C   UNL A   1      31.319  26.890  22.828  1.00  0.00     0.116 C 
BRANCH   2   3
ATOM      3  N   UNL A   1      31.914  26.713  21.520  1.00  0.00    -0.354 N 
ATOM      4  C   UNL A   1      32.661  25.662  21.071  1.00  0.00     0.245 C 
ATOM      5  O   UNL A   1      33.005  25.631  19.890  1.00  0.00    -0.272 OA
ATOM      6  H   UNL A   1      31.762  27.440  20.874  1.00  0.00     0.163 HD
BRANCH   4   7
ATOM      7  C   UNL A   1      32.998  24.524  22.044  1.00  0.00     0.260 C 
BRANCH   7   8
ATOM      8  O   UNL A   1      34.265  24.568  22.690  1.00  0.00    -0.370 OA
BRANCH   8   9
ATOM      9  C   UNL A   1      34.180  24.786  24.105  1.00  0.00     0.185 C 
BRANCH   9  10
ATOM     10  C   UNL A   1      33.039  23.982  24.746  1.00  0.00     0.111 C 
ATOM     11  N   UNL A   1      33.439  22.711  25.347  1.00  0.00    -0.338 N 
ATOM     12  C   UNL A   1      33.158  22.696  26.771  1.00  0.00     0.120 C 
ATOM     13  C   UNL A   1      32.019  23.689  26.916  1.00  0.00     0.024 C 
ATOM     14  C   UNL A   1      32.364  24.761  25.888  1.00  0.00     0.029 C 
BRANCH  11  15
ATOM     15  C   UNL A   1      33.785  21.645  24.546  1.00  0.00     0.219 C 
ATOM     16  C   UNL A   1      34.955  20.810  24.991  1.00  0.00     0.114 C 
ATOM     17  O   UNL A   1      33.131  21.329  23.555  1.00  0.00    -0.275 OA
ENDBRANCH  11  15
ENDBRANCH   9  10
ENDBRANCH   8   9
ENDBRANCH   7   8
ENDBRANCH   4   7
ENDBRANCH   2   3
ENDBRANCH   1   2
BRANCH   1  18
ATOM     18  C   UNL A   1      31.459  29.082  24.171  1.00  0.00     0.002 C 
BRANCH  18  19
ATOM     19  C   UNL A   1      31.962  28.228  25.339  1.00  0.00     0.002 C 
BRANCH  19  20
ATOM     20  C   UNL A   1      33.428  28.443  25.723  1.00  0.00     0.021 C 
BRANCH  20  21
ATOM     21  C   UNL A   1      33.682  28.604  27.218  1.00  0.00     0.116 C 
BRANCH  21  22
ATOM     22  N   UNL A   1      33.671  29.999  27.633  1.00  0.00    -0.352 N 
ATOM     23  C   UNL A   1      34.644  30.726  28.271  1.00  0.00     0.251 C 
ATOM     24  H   UNL A   1      32.845  30.493  27.425  1.00  0.00     0.163 HD
ATOM     25  O   UNL A   1      34.390  31.849  28.705  1.00  0.00    -0.269 OA
BRANCH  23  26
ATOM     26  C   UNL A   1      35.994  30.155  28.461  1.00  0.00     0.039 A 
ATOM     27  C   UNL A   1      36.896  30.184  27.393  1.00  0.00     0.014 A 
ATOM     28  C   UNL A   1      36.371  29.589  29.682  1.00  0.00     0.014 A 
ATOM     29  C   UNL A   1      38.195  29.707  27.572  1.00  0.00     0.010 A 
ATOM     30  C   UNL A   1      37.687  29.180  29.879  1.00  0.00     0.010 A 
ATOM     31  C   UNL A   1      38.615  29.237  28.827  1.00  0.00    -0.014 A 
BRANCH  31  32
ATOM     32  C   UNL A   1      40.021  28.817  29.062  1.00  0.00     0.031 A 
ATOM     33  C   UNL A   1      41.000  29.764  29.701  1.00  0.00     0.074 A 
ATOM     34  C   UNL A   1      40.432  27.606  28.638  1.00  0.00     0.049 A 
ATOM     35  N   UNL A   1      42.279  29.601  29.927  1.00  0.00    -0.248 NA
ATOM     36  C   UNL A   1      40.481  31.076  30.118  1.00  0.00     0.031 C 
ATOM     37  C   UNL A   1      39.591  26.612  27.968  1.00  0.00     0.029 A 
ATOM     38  N   UNL A   1      41.665  27.005  28.702  1.00  0.00    -0.354 N 
ATOM     39  C   UNL A   1      42.719  30.789  30.494  1.00  0.00     0.074 A 
ATOM     40  C   UNL A   1      41.582  31.682  30.539  1.00  0.00     0.031 C 
ATOM     41  C   UNL A   1      40.324  25.518  27.707  1.00  0.00     0.029 A 
ATOM     42  C   UNL A   1      41.696  25.747  28.150  1.00  0.00     0.049 A 
ATOM     43  H   UNL A   1      42.454  27.436  29.106  1.00  0.00     0.167 HD
ATOM     44  C   UNL A   1      43.954  31.101  30.954  1.00  0.00     0.037 A 
ATOM     45  C   UNL A   1      42.716  24.879  28.008  1.00  0.00     0.037 A 
ATOM     46  C   UNL A   1      45.076  30.199  30.937  1.00  0.00     0.049 A 
ATOM     47  C   UNL A   1      44.081  25.262  28.513  1.00  0.00     0.074 A 
ATOM     48  C   UNL A   1      46.346  30.397  31.452  1.00  0.00     0.029 A 
ATOM     49  N   UNL A   1      45.067  28.933  30.374  1.00  0.00    -0.354 N 
ATOM     50  N   UNL A   1      44.462  26.359  29.121  1.00  0.00    -0.248 NA
ATOM     51  C   UNL A   1      45.159  24.283  28.311  1.00  0.00     0.031 C 
ATOM     52  C   UNL A   1      47.121  29.273  31.150  1.00  0.00     0.029 A 
ATOM     53  C   UNL A   1      46.317  28.351  30.499  1.00  0.00     0.049 A 
ATOM     54  H   UNL A   1      44.286  28.510  29.948  1.00  0.00     0.167 HD
ATOM     55  C   UNL A   1      45.810  26.186  29.407  1.00  0.00     0.074 A 
ATOM     56  C   UNL A   1      46.178  24.875  28.916  1.00  0.00     0.031 C 
ATOM     57  C   UNL A   1      46.667  27.039  30.019  1.00  0.00     0.037 A 
BRANCH  44  58
ATOM     58  C   UNL A   1      44.168  32.478  31.514  1.00  0.00     0.057 A 
ATOM     59  C   UNL A   1      43.969  32.763  32.872  1.00  0.00     0.134 A 
ATOM     60  C   UNL A   1      44.640  33.514  30.699  1.00  0.00     0.134 A 
ATOM     61  F   UNL A   1      43.510  31.819  33.706  1.00  0.00    -0.206 F 
ATOM     62  C   UNL A   1      44.217  34.035  33.394  1.00  0.00     0.040 A 
ATOM     63  C   UNL A   1      44.917  34.781  31.214  1.00  0.00     0.040 A 
ATOM     64  F   UNL A   1      44.858  33.307  29.392  1.00  0.00    -0.206 F 
ATOM     65  C   UNL A   1      44.700  35.046  32.565  1.00  0.00     0.006 A 
ENDBRANCH  44  58
BRANCH  45  66
ATOM     66  C   UNL A   1      42.495  23.554  27.373  1.00  0.00     0.057 A 
ATOM     67  C   UNL A   1      42.148  22.437  28.143  1.00  0.00     0.134 A 
ATOM     68  C   UNL A   1      42.661  23.362  25.997  1.00  0.00     0.134 A 
ATOM     69  F   UNL A   1      41.995  22.552  29.470  1.00  0.00    -0.206 F 
ATOM     70  C   UNL A   1      42.003  21.171  27.571  1.00  0.00     0.040 A 
ATOM     71  C   UNL A   1      42.490  22.107  25.408  1.00  0.00     0.040 A 
ATOM     72  F   UNL A   1      42.986  24.392  25.202  1.00  0.00    -0.206 F 
ATOM     73  C   UNL A   1      42.172  21.005  26.199  1.00  0.00     0.006 A 
ENDBRANCH  45  66
BRANCH  57  74
ATOM     74  C   UNL A   1      48.075  26.564  30.234  1.00  0.00     0.057 A 
ATOM     75  C   UNL A   1      49.095  26.825  29.312  1.00  0.00     0.134 A 
ATOM     76  C   UNL A   1      48.420  25.869  31.400  1.00  0.00     0.134 A 
ATOM     77  F   UNL A   1      48.829  27.474  28.168  1.00  0.00    -0.206 F 
ATOM     78  C   UNL A   1      50.403  26.388  29.528  1.00  0.00     0.040 A 
ATOM     79  C   UNL A   1      49.729  25.454  31.643  1.00  0.00     0.040 A 
ATOM     80  F   UNL A   1      47.492  25.594  32.331  1.00  0.00    -0.206 F 
ATOM     81  C   UNL A   1      50.725  25.707  30.701  1.00  0.00     0.006 A 
ENDBRANCH  57  74
ENDBRANCH  31  32
ENDBRANCH  23  26
ENDBRANCH  21  22
ENDBRANCH  20  21
ENDBRANCH  19  20
ENDBRANCH  18  19
ENDBRANCH   1  18
TORSDOF 17
ENDMDL
MODEL 2
REMARK VINA RESULT:      -9.9      3.879      8.138
REMARK SMILES CC(=O)N1CCC[C@H]1COCC(=O)NCCCCCCNC(=O)c1ccc(-c2c3nc(c(-c4c(F)cccc4F)c4ccc([nH]4)c(-c4c(F)cccc4F)c4nc(c(-c5c(F)cccc5F)c5ccc2[nH]5)C=C4)C=C3)cc1
REMARK SMILES IDX 16 1 15 2 14 3 12 4 13 5 11 7 10 8 9 9 8 10 4 11 5 12 6 13
REMARK SMILES IDX 7 14 2 15 1 16 3 17 17 18 18 19 19 20 20 21 21 22 22 23
REMARK SMILES IDX 23 25 24 26 25 27 77 28 26 29 76 30 27 31 28 32 29 33 70 34
REMARK SMILES IDX 30 35 75 36 69 37 71 38 31 39 74 40 68 41 67 42 32 44 58 45
REMARK SMILES IDX 41 46 57 47 42 48 45 49 56 50 72 51 43 52 44 53 55 55 73 56
REMARK SMILES IDX 46 57 33 58 34 59 39 60 35 61 36 62 38 63 40 64 37 65 59 66
REMARK SMILES IDX 60 67 65 68 61 69 62 70 64 71 66 72 63 73 47 74 48 75 53 76
REMARK SMILES IDX 49 77 50 78 52 79 54 80 51 81
REMARK H PARENT 14 6 21 24 71 43 45 54
REMARK Flexibility Score: inf
ROOT
ATOM      1  C   UNL A   1      33.077  29.302  25.056  1.00  0.00     0.021 C 
ENDROOT
BRANCH   1   2
ATOM      2  C   UNL A   1      33.107  28.883  23.588  1.00  0.00     0.116 C 
BRANCH   2   3
ATOM      3  N   UNL A   1      31.813  29.027  22.953  1.00  0.00    -0.354 N 
ATOM      4  C   UNL A   1      31.080  28.071  22.312  1.00  0.00     0.245 C 
ATOM      5  O   UNL A   1      29.948  28.347  21.916  1.00  0.00    -0.272 OA
ATOM      6  H   UNL A   1      31.413  29.926  22.989  1.00  0.00     0.163 HD
BRANCH   4   7
ATOM      7  C   UNL A   1      31.673  26.664  22.158  1.00  0.00     0.260 C 
BRANCH   7   8
ATOM      8  O   UNL A   1      31.016  25.597  22.834  1.00  0.00    -0.370 OA
BRANCH   8   9
ATOM      9  C   UNL A   1      31.910  24.578  23.302  1.00  0.00     0.185 C 
BRANCH   9  10
ATOM     10  C   UNL A   1      32.891  25.110  24.357  1.00  0.00     0.111 C 
ATOM     11  N   UNL A   1      32.703  24.573  25.703  1.00  0.00    -0.338 N 
ATOM     12  C   UNL A   1      33.882  23.855  26.148  1.00  0.00     0.120 C 
ATOM     13  C   UNL A   1      35.004  24.490  25.348  1.00  0.00     0.024 C 
ATOM     14  C   UNL A   1      34.349  24.773  24.000  1.00  0.00     0.029 C 
BRANCH  11  15
ATOM     15  C   UNL A   1      31.622  24.968  26.460  1.00  0.00     0.219 C 
ATOM     16  C   UNL A   1      31.173  26.396  26.313  1.00  0.00     0.114 C 
ATOM     17  O   UNL A   1      30.992  24.184  27.167  1.00  0.00    -0.275 OA
ENDBRANCH  11  15
ENDBRANCH   9  10
ENDBRANCH   8   9
ENDBRANCH   7   8
ENDBRANCH   4   7
ENDBRANCH   2   3
ENDBRANCH   1   2
BRANCH   1  18
ATOM     18  C   UNL A   1      31.740  29.893  25.522  1.00  0.00     0.002 C 
BRANCH  18  19
ATOM     19  C   UNL A   1      31.762  30.560  26.902  1.00  0.00     0.002 C 
BRANCH  19  20
ATOM     20  C   UNL A   1      31.510  32.070  26.901  1.00  0.00     0.021 C 
BRANCH  20  21
ATOM     21  C   UNL A   1      32.751  32.926  27.126  1.00  0.00     0.116 C 
BRANCH  21  22
ATOM     22  N   UNL A   1      32.420  34.268  27.582  1.00  0.00    -0.352 N 
ATOM     23  C   UNL A   1      32.964  34.997  28.609  1.00  0.00     0.251 C 
ATOM     24  H   UNL A   1      31.702  34.717  27.082  1.00  0.00     0.163 HD
ATOM     25  O   UNL A   1      32.435  36.049  28.967  1.00  0.00    -0.269 OA
BRANCH  23  26
ATOM     26  C   UNL A   1      34.173  34.512  29.307  1.00  0.00     0.039 A 
ATOM     27  C   UNL A   1      34.057  34.060  30.625  1.00  0.00     0.014 A 
ATOM     28  C   UNL A   1      35.418  34.507  28.672  1.00  0.00     0.014 A 
ATOM     29  C   UNL A   1      35.174  33.541  31.280  1.00  0.00     0.010 A 
ATOM     30  C   UNL A   1      36.515  33.923  29.301  1.00  0.00     0.010 A 
ATOM     31  C   UNL A   1      36.405  33.431  30.610  1.00  0.00    -0.014 A 
BRANCH  31  32
ATOM     32  C   UNL A   1      37.579  32.791  31.258  1.00  0.00     0.031 A 
ATOM     33  C   UNL A   1      38.223  31.581  30.637  1.00  0.00     0.074 A 
ATOM     34  C   UNL A   1      38.023  33.260  32.440  1.00  0.00     0.049 A 
ATOM     35  N   UNL A   1      39.213  30.851  31.086  1.00  0.00    -0.248 NA
ATOM     36  C   UNL A   1      37.670  31.116  29.355  1.00  0.00     0.031 C 
ATOM     37  C   UNL A   1      37.459  34.400  33.166  1.00  0.00     0.029 A 
ATOM     38  N   UNL A   1      39.049  32.832  33.246  1.00  0.00    -0.354 N 
ATOM     39  C   UNL A   1      39.387  29.835  30.156  1.00  0.00     0.074 A 
ATOM     40  C   UNL A   1      38.375  30.015  29.138  1.00  0.00     0.031 C 
ATOM     41  C   UNL A   1      38.161  34.596  34.294  1.00  0.00     0.029 A 
ATOM     42  C   UNL A   1      39.196  33.573  34.394  1.00  0.00     0.049 A 
ATOM     43  H   UNL A   1      39.626  32.066  33.021  1.00  0.00     0.167 HD
ATOM     44  C   UNL A   1      40.318  28.852  30.142  1.00  0.00     0.037 A 
ATOM     45  C   UNL A   1      40.060  33.436  35.418  1.00  0.00     0.037 A 
ATOM     46  C   UNL A   1      41.344  28.693  31.139  1.00  0.00     0.049 A 
ATOM     47  C   UNL A   1      41.072  32.322  35.381  1.00  0.00     0.074 A 
ATOM     48  C   UNL A   1      42.381  27.776  31.168  1.00  0.00     0.029 A 
ATOM     49  N   UNL A   1      41.462  29.465  32.284  1.00  0.00    -0.354 N 
ATOM     50  N   UNL A   1      41.276  31.419  34.454  1.00  0.00    -0.248 NA
ATOM     51  C   UNL A   1      41.975  32.211  36.537  1.00  0.00     0.031 C 
ATOM     52  C   UNL A   1      43.092  27.956  32.359  1.00  0.00     0.029 A 
ATOM     53  C   UNL A   1      42.533  29.023  33.043  1.00  0.00     0.049 A 
ATOM     54  H   UNL A   1      40.871  30.216  32.523  1.00  0.00     0.167 HD
ATOM     55  C   UNL A   1      42.351  30.658  34.895  1.00  0.00     0.074 A 
ATOM     56  C   UNL A   1      42.764  31.214  36.167  1.00  0.00     0.031 C 
ATOM     57  C   UNL A   1      42.942  29.594  34.301  1.00  0.00     0.037 A 
BRANCH  44  58
ATOM     58  C   UNL A   1      40.276  27.861  29.014  1.00  0.00     0.057 A 
ATOM     59  C   UNL A   1      41.026  28.039  27.844  1.00  0.00     0.134 A 
ATOM     60  C   UNL A   1      39.526  26.683  29.127  1.00  0.00     0.134 A 
ATOM     61  F   UNL A   1      41.759  29.149  27.668  1.00  0.00    -0.206 F 
ATOM     62  C   UNL A   1      41.018  27.089  26.821  1.00  0.00     0.040 A 
ATOM     63  C   UNL A   1      39.531  25.714  28.123  1.00  0.00     0.040 A 
ATOM     64  F   UNL A   1      38.790  26.447  30.224  1.00  0.00    -0.206 F 
ATOM     65  C   UNL A   1      40.275  25.918  26.963  1.00  0.00     0.006 A 
ENDBRANCH  44  58
BRANCH  45  66
ATOM     66  C   UNL A   1      40.026  34.382  36.563  1.00  0.00     0.057 A 
ATOM     67  C   UNL A   1      39.258  34.105  37.701  1.00  0.00     0.134 A 
ATOM     68  C   UNL A   1      40.722  35.596  36.536  1.00  0.00     0.134 A 
ATOM     69  F   UNL A   1      38.551  32.968  37.779  1.00  0.00    -0.206 F 
ATOM     70  C   UNL A   1      39.160  35.014  38.757  1.00  0.00     0.040 A 
ATOM     71  C   UNL A   1      40.657  36.500  37.597  1.00  0.00     0.040 A 
ATOM     72  F   UNL A   1      41.481  35.918  35.479  1.00  0.00    -0.206 F 
ATOM     73  C   UNL A   1      39.864  36.214  38.708  1.00  0.00     0.006 A 
ENDBRANCH  45  66
BRANCH  57  74
ATOM     74  C   UNL A   1      44.127  28.987  34.995  1.00  0.00     0.057 A 
ATOM     75  C   UNL A   1      43.996  27.918  35.890  1.00  0.00     0.134 A 
ATOM     76  C   UNL A   1      45.421  29.456  34.735  1.00  0.00     0.134 A 
ATOM     77  F   UNL A   1      42.783  27.430  36.194  1.00  0.00    -0.206 F 
ATOM     78  C   UNL A   1      45.106  27.354  36.521  1.00  0.00     0.040 A 
ATOM     79  C   UNL A   1      46.541  28.881  35.336  1.00  0.00     0.040 A 
ATOM     80  F   UNL A   1      45.619  30.472  33.880  1.00  0.00    -0.206 F 
ATOM     81  C   UNL A   1      46.384  27.831  36.238  1.00  0.00     0.006 A 
ENDBRANCH  57  74
ENDBRANCH  31  32
ENDBRANCH  23  26
ENDBRANCH  21  22
ENDBRANCH  20  21
ENDBRANCH  19  20
ENDBRANCH  18  19
ENDBRANCH   1  18
TORSDOF 17
ENDMDL
MODEL 3
REMARK VINA RESULT:      -9.8      2.456      7.830
REMARK SMILES CC(=O)N1CCC[C@H]1COCC(=O)NCCCCCCNC(=O)c1ccc(-c2c3nc(c(-c4c(F)cccc4F)c4ccc([nH]4)c(-c4c(F)cccc4F)c4nc(c(-c5c(F)cccc5F)c5ccc2[nH]5)C=C4)C=C3)cc1
REMARK SMILES IDX 16 1 15 2 14 3 12 4 13 5 11 7 10 8 9 9 8 10 4 11 5 12 6 13
REMARK SMILES IDX 7 14 2 15 1 16 3 17 17 18 18 19 19 20 20 21 21 22 22 23
REMARK SMILES IDX 23 25 24 26 25 27 77 28 26 29 76 30 27 31 28 32 29 33 70 34
REMARK SMILES IDX 30 35 75 36 69 37 71 38 31 39 74 40 68 41 67 42 32 44 58 45
REMARK SMILES IDX 41 46 57 47 42 48 45 49 56 50 72 51 43 52 44 53 55 55 73 56
REMARK SMILES IDX 46 57 33 58 34 59 39 60 35 61 36 62 38 63 40 64 37 65 59 66
REMARK SMILES IDX 60 67 65 68 61 69 62 70 64 71 66 72 63 73 47 74 48 75 53 76
REMARK SMILES IDX 49 77 50 78 52 79 54 80 51 81
REMARK H PARENT 14 6 21 24 71 43 45 54
REMARK Flexibility Score: inf
ROOT
ATOM      1  C   UNL A   1      37.690  23.476  25.962  1.00  0.00     0.021 C 
ENDROOT
BRANCH   1   2
ATOM      2  C   UNL A   1      36.195  23.384  25.668  1.00  0.00     0.116 C 
BRANCH   2   3
ATOM      3  N   UNL A   1      35.445  22.894  26.805  1.00  0.00    -0.354 N 
ATOM      4  C   UNL A   1      34.090  22.864  26.970  1.00  0.00     0.245 C 
ATOM      5  O   UNL A   1      33.618  22.316  27.966  1.00  0.00    -0.272 OA
ATOM      6  H   UNL A   1      35.978  22.537  27.553  1.00  0.00     0.163 HD
BRANCH   4   7
ATOM      7  C   UNL A   1      33.198  23.467  25.877  1.00  0.00     0.260 C 
BRANCH   7   8
ATOM      8  O   UNL A   1      32.654  24.761  26.113  1.00  0.00    -0.370 OA
BRANCH   8   9
ATOM      9  C   UNL A   1      31.273  24.740  26.498  1.00  0.00     0.185 C 
BRANCH   9  10
ATOM     10  C   UNL A   1      30.526  26.002  26.040  1.00  0.00     0.111 C 
ATOM     11  N   UNL A   1      31.349  27.206  25.942  1.00  0.00    -0.338 N 
ATOM     12  C   UNL A   1      31.370  27.713  24.583  1.00  0.00     0.120 C 
ATOM     13  C   UNL A   1      30.069  27.200  23.994  1.00  0.00     0.024 C 
ATOM     14  C   UNL A   1      29.917  25.827  24.639  1.00  0.00     0.029 C 
BRANCH  11  15
ATOM     15  C   UNL A   1      31.787  27.839  27.084  1.00  0.00     0.219 C 
ATOM     16  C   UNL A   1      33.235  28.246  27.124  1.00  0.00     0.114 C 
ATOM     17  O   UNL A   1      31.028  28.137  28.004  1.00  0.00    -0.275 OA
ENDBRANCH  11  15
ENDBRANCH   9  10
ENDBRANCH   8   9
ENDBRANCH   7   8
ENDBRANCH   4   7
ENDBRANCH   2   3
ENDBRANCH   1   2
BRANCH   1  18
ATOM     18  C   UNL A   1      38.449  22.150  25.822  1.00  0.00     0.002 C 
BRANCH  18  19
ATOM     19  C   UNL A   1      37.819  21.130  24.869  1.00  0.00     0.002 C 
BRANCH  19  20
ATOM     20  C   UNL A   1      38.451  19.736  24.893  1.00  0.00     0.021 C 
BRANCH  20  21
ATOM     21  C   UNL A   1      39.265  19.424  26.144  1.00  0.00     0.116 C 
BRANCH  21  22
ATOM     22  N   UNL A   1      40.566  18.855  25.828  1.00  0.00    -0.352 N 
ATOM     23  C   UNL A   1      41.796  19.462  25.782  1.00  0.00     0.251 C 
ATOM     24  H   UNL A   1      40.564  17.894  25.616  1.00  0.00     0.163 HD
ATOM     25  O   UNL A   1      42.764  18.860  25.319  1.00  0.00    -0.269 OA
BRANCH  23  26
ATOM     26  C   UNL A   1      41.959  20.848  26.266  1.00  0.00     0.039 A 
ATOM     27  C   UNL A   1      41.843  21.104  27.635  1.00  0.00     0.014 A 
ATOM     28  C   UNL A   1      42.218  21.896  25.377  1.00  0.00     0.014 A 
ATOM     29  C   UNL A   1      42.056  22.396  28.119  1.00  0.00     0.010 A 
ATOM     30  C   UNL A   1      42.499  23.168  25.868  1.00  0.00     0.010 A 
ATOM     31  C   UNL A   1      42.424  23.432  27.244  1.00  0.00    -0.014 A 
BRANCH  31  32
ATOM     32  C   UNL A   1      42.749  24.789  27.753  1.00  0.00     0.031 A 
ATOM     33  C   UNL A   1      44.175  25.169  28.048  1.00  0.00     0.074 A 
ATOM     34  C   UNL A   1      41.753  25.659  28.011  1.00  0.00     0.049 A 
ATOM     35  N   UNL A   1      44.646  26.281  28.556  1.00  0.00    -0.248 NA
ATOM     36  C   UNL A   1      45.206  24.160  27.758  1.00  0.00     0.031 C 
ATOM     37  C   UNL A   1      40.326  25.398  27.806  1.00  0.00     0.029 A 
ATOM     38  N   UNL A   1      41.786  26.938  28.510  1.00  0.00    -0.354 N 
ATOM     39  C   UNL A   1      46.018  26.098  28.662  1.00  0.00     0.074 A 
ATOM     40  C   UNL A   1      46.302  24.754  28.207  1.00  0.00     0.031 C 
ATOM     41  C   UNL A   1      39.624  26.489  28.151  1.00  0.00     0.029 A 
ATOM     42  C   UNL A   1      40.543  27.512  28.640  1.00  0.00     0.049 A 
ATOM     43  H   UNL A   1      42.621  27.401  28.750  1.00  0.00     0.167 HD
ATOM     44  C   UNL A   1      46.958  26.976  29.083  1.00  0.00     0.037 A 
ATOM     45  C   UNL A   1      40.185  28.721  29.111  1.00  0.00     0.037 A 
ATOM     46  C   UNL A   1      46.676  28.324  29.504  1.00  0.00     0.049 A 
ATOM     47  C   UNL A   1      41.252  29.669  29.588  1.00  0.00     0.074 A 
ATOM     48  C   UNL A   1      47.571  29.315  29.872  1.00  0.00     0.029 A 
ATOM     49  N   UNL A   1      45.407  28.869  29.620  1.00  0.00    -0.354 N 
ATOM     50  N   UNL A   1      42.553  29.511  29.606  1.00  0.00    -0.248 NA
ATOM     51  C   UNL A   1      40.798  30.967  30.111  1.00  0.00     0.031 C 
ATOM     52  C   UNL A   1      46.840  30.441  30.264  1.00  0.00     0.029 A 
ATOM     53  C   UNL A   1      45.493  30.171  30.085  1.00  0.00     0.049 A 
ATOM     54  H   UNL A   1      44.569  28.400  29.402  1.00  0.00     0.167 HD
ATOM     55  C   UNL A   1      43.073  30.699  30.104  1.00  0.00     0.074 A 
ATOM     56  C   UNL A   1      41.948  31.572  30.365  1.00  0.00     0.031 C 
ATOM     57  C   UNL A   1      44.366  31.035  30.327  1.00  0.00     0.037 A 
BRANCH  44  58
ATOM     58  C   UNL A   1      48.387  26.515  29.114  1.00  0.00     0.057 A 
ATOM     59  C   UNL A   1      49.248  26.699  28.023  1.00  0.00     0.134 A 
ATOM     60  C   UNL A   1      48.925  25.939  30.271  1.00  0.00     0.134 A 
ATOM     61  F   UNL A   1      48.795  27.237  26.881  1.00  0.00    -0.206 F 
ATOM     62  C   UNL A   1      50.588  26.311  28.079  1.00  0.00     0.040 A 
ATOM     63  C   UNL A   1      50.269  25.571  30.348  1.00  0.00     0.040 A 
ATOM     64  F   UNL A   1      48.157  25.741  31.353  1.00  0.00    -0.206 F 
ATOM     65  C   UNL A   1      51.104  25.752  29.247  1.00  0.00     0.006 A 
ENDBRANCH  44  58
BRANCH  45  66
ATOM     66  C   UNL A   1      38.755  29.121  29.147  1.00  0.00     0.057 A 
ATOM     67  C   UNL A   1      38.008  29.018  30.327  1.00  0.00     0.134 A 
ATOM     68  C   UNL A   1      38.089  29.577  28.003  1.00  0.00     0.134 A 
ATOM     69  F   UNL A   1      38.583  28.568  31.453  1.00  0.00    -0.206 F 
ATOM     70  C   UNL A   1      36.646  29.325  30.362  1.00  0.00     0.040 A 
ATOM     71  C   UNL A   1      36.735  29.915  28.030  1.00  0.00     0.040 A 
ATOM     72  F   UNL A   1      38.748  29.705  26.842  1.00  0.00    -0.206 F 
ATOM     73  C   UNL A   1      36.007  29.778  29.210  1.00  0.00     0.006 A 
ENDBRANCH  45  66
BRANCH  57  74
ATOM     74  C   UNL A   1      44.640  32.420  30.837  1.00  0.00     0.057 A 
ATOM     75  C   UNL A   1      44.775  33.515  29.975  1.00  0.00     0.134 A 
ATOM     76  C   UNL A   1      44.733  32.666  32.213  1.00  0.00     0.134 A 
ATOM     77  F   UNL A   1      44.711  33.346  28.645  1.00  0.00    -0.206 F 
ATOM     78  C   UNL A   1      45.017  34.801  30.461  1.00  0.00     0.040 A 
ATOM     79  C   UNL A   1      44.944  33.951  32.713  1.00  0.00     0.040 A 
ATOM     80  F   UNL A   1      44.603  31.663  33.095  1.00  0.00    -0.206 F 
ATOM     81  C   UNL A   1      45.095  35.023  31.834  1.00  0.00     0.006 A 
ENDBRANCH  57  74
ENDBRANCH  31  32
ENDBRANCH  23  26
ENDBRANCH  21  22
ENDBRANCH  20  21
ENDBRANCH  19  20
ENDBRANCH  18  19
ENDBRANCH   1  18
TORSDOF 17
ENDMDL
