MODEL 1
REMARK VINA RESULT:     -12.0      0.000      0.000
REMARK SMILES O=C(NCCCCCCNC(=O)c1ccc([C@H]2CCCN(C(=O)c3ccc4[nH]ccc4c3)C2)cc1)c1ccc(-c2c3nc(c(-c4c(F)cccc4F)c4ccc([nH]4)c(-c4c(F)cccc4F)c4nc(c(-c5c(F)cccc5F)c5ccc2[nH]5)C=C4)C=C3)cc1
REMARK SMILES IDX 7 1 6 2 5 3 4 4 3 5 1 6 2 7 36 9 37 10 89 11 38 12 88 13
REMARK SMILES IDX 39 14 40 15 41 16 82 17 42 18 87 19 81 20 83 21 43 22 86 23
REMARK SMILES IDX 80 24 79 25 44 27 70 28 53 29 69 30 54 31 57 32 68 33 84 34
REMARK SMILES IDX 55 35 56 36 67 38 85 39 58 40 45 41 46 42 51 43 47 44 48 45
REMARK SMILES IDX 50 46 52 47 49 48 71 49 72 50 77 51 73 52 74 53 76 54 78 55
REMARK SMILES IDX 75 56 59 57 60 58 65 59 61 60 62 61 64 62 66 63 63 64 8 65
REMARK SMILES IDX 9 66 10 67 11 68 12 70 13 71 14 72 35 73 15 74 34 75 16 76
REMARK SMILES IDX 17 77 18 78 33 79 19 80 21 81 20 82 22 83 23 84 24 85 25 86
REMARK SMILES IDX 32 87 26 88 31 89 27 90 30 91 28 92 29 93
REMARK H PARENT 3 8 83 26 57 37 10 69 28 94
REMARK Flexibility Score: inf
ROOT
ATOM      1  C   UNL A   1      41.669  21.397  26.619  1.00  0.00     0.002 C 
ENDROOT
BRANCH   1   2
ATOM      2  C   UNL A   1      42.038  20.178  27.471  1.00  0.00     0.002 C 
BRANCH   2   3
ATOM      3  C   UNL A   1      42.635  19.006  26.694  1.00  0.00     0.021 C 
BRANCH   3   4
ATOM      4  C   UNL A   1      42.660  19.201  25.186  1.00  0.00     0.116 C 
BRANCH   4   5
ATOM      5  N   UNL A   1      43.935  18.818  24.603  1.00  0.00    -0.352 N 
ATOM      6  O   UNL A   1      45.957  19.184  23.664  1.00  0.00    -0.269 OA
ATOM      7  C   UNL A   1      45.021  19.612  24.326  1.00  0.00     0.251 C 
ATOM      8  H   UNL A   1      44.033  17.865  24.376  1.00  0.00     0.163 HD
BRANCH   7   9
ATOM      9  C   UNL A   1      45.042  20.999  24.834  1.00  0.00     0.039 A 
ATOM     10  C   UNL A   1      45.417  21.256  26.156  1.00  0.00     0.014 A 
ATOM     11  C   UNL A   1      44.701  22.048  23.978  1.00  0.00     0.014 A 
ATOM     12  C   UNL A   1      45.351  22.550  26.653  1.00  0.00     0.010 A 
ATOM     13  C   UNL A   1      44.723  23.361  24.455  1.00  0.00     0.010 A 
ATOM     14  C   UNL A   1      45.048  23.619  25.796  1.00  0.00    -0.014 A 
BRANCH  14  15
ATOM     15  C   UNL A   1      45.232  25.007  26.284  1.00  0.00     0.031 A 
ATOM     16  C   UNL A   1      44.086  25.812  26.819  1.00  0.00     0.074 A 
ATOM     17  C   UNL A   1      46.471  25.534  26.216  1.00  0.00     0.049 A 
ATOM     18  N   UNL A   1      44.086  27.050  27.244  1.00  0.00    -0.248 NA
ATOM     19  C   UNL A   1      42.772  25.156  26.882  1.00  0.00     0.031 C 
ATOM     20  C   UNL A   1      47.652  24.841  25.692  1.00  0.00     0.029 A 
ATOM     21  N   UNL A   1      46.947  26.766  26.580  1.00  0.00    -0.354 N 
ATOM     22  C   UNL A   1      42.774  27.330  27.605  1.00  0.00     0.074 A 
ATOM     23  C   UNL A   1      42.001  26.135  27.341  1.00  0.00     0.031 C 
ATOM     24  C   UNL A   1      48.719  25.647  25.789  1.00  0.00     0.029 A 
ATOM     25  C   UNL A   1      48.284  26.936  26.307  1.00  0.00     0.049 A 
ATOM     26  H   UNL A   1      46.388  27.461  26.996  1.00  0.00     0.167 HD
ATOM     27  C   UNL A   1      42.274  28.483  28.109  1.00  0.00     0.037 A 
ATOM     28  C   UNL A   1      49.067  28.024  26.417  1.00  0.00     0.037 A 
ATOM     29  C   UNL A   1      43.063  29.658  28.381  1.00  0.00     0.049 A 
ATOM     30  C   UNL A   1      48.465  29.295  26.937  1.00  0.00     0.074 A 
ATOM     31  C   UNL A   1      42.659  30.847  28.965  1.00  0.00     0.029 A 
ATOM     32  N   UNL A   1      44.407  29.801  28.071  1.00  0.00    -0.354 N 
ATOM     33  N   UNL A   1      47.242  29.520  27.353  1.00  0.00    -0.248 NA
ATOM     34  C   UNL A   1      49.345  30.469  26.995  1.00  0.00     0.031 C 
ATOM     35  C   UNL A   1      43.740  31.732  28.945  1.00  0.00     0.029 A 
ATOM     36  C   UNL A   1      44.834  31.076  28.404  1.00  0.00     0.049 A 
ATOM     37  H   UNL A   1      44.974  29.100  27.673  1.00  0.00     0.167 HD
ATOM     38  C   UNL A   1      47.209  30.854  27.730  1.00  0.00     0.074 A 
ATOM     39  C   UNL A   1      48.544  31.379  27.527  1.00  0.00     0.031 C 
ATOM     40  C   UNL A   1      46.165  31.583  28.193  1.00  0.00     0.037 A 
BRANCH  27  41
ATOM     41  C   UNL A   1      40.801  28.562  28.386  1.00  0.00     0.057 A 
ATOM     42  C   UNL A   1      40.268  28.308  29.655  1.00  0.00     0.134 A 
ATOM     43  C   UNL A   1      39.919  29.010  27.393  1.00  0.00     0.134 A 
ATOM     44  F   UNL A   1      41.057  27.872  30.649  1.00  0.00    -0.206 F 
ATOM     45  C   UNL A   1      38.911  28.496  29.927  1.00  0.00     0.040 A 
ATOM     46  C   UNL A   1      38.565  29.224  27.658  1.00  0.00     0.040 A 
ATOM     47  F   UNL A   1      40.366  29.281  26.157  1.00  0.00    -0.206 F 
ATOM     48  C   UNL A   1      38.059  28.968  28.930  1.00  0.00     0.006 A 
ENDBRANCH  27  41
BRANCH  28  49
ATOM     49  C   UNL A   1      50.482  27.973  25.972  1.00  0.00     0.057 A 
ATOM     50  C   UNL A   1      50.821  27.998  24.616  1.00  0.00     0.134 A 
ATOM     51  C   UNL A   1      51.532  27.867  26.895  1.00  0.00     0.134 A 
ATOM     52  F   UNL A   1      49.861  28.084  23.682  1.00  0.00    -0.206 F 
ATOM     53  C   UNL A   1      52.145  27.888  24.190  1.00  0.00     0.040 A 
ATOM     54  C   UNL A   1      52.863  27.792  26.487  1.00  0.00     0.040 A 
ATOM     55  F   UNL A   1      51.277  27.847  28.212  1.00  0.00    -0.206 F 
ATOM     56  C   UNL A   1      53.171  27.788  25.129  1.00  0.00     0.006 A 
ENDBRANCH  28  49
BRANCH  40  57
ATOM     57  C   UNL A   1      46.431  33.022  28.518  1.00  0.00     0.057 A 
ATOM     58  C   UNL A   1      46.238  34.037  27.572  1.00  0.00     0.134 A 
ATOM     59  C   UNL A   1      46.852  33.402  29.800  1.00  0.00     0.134 A 
ATOM     60  F   UNL A   1      45.855  33.738  26.322  1.00  0.00    -0.206 F 
ATOM     61  C   UNL A   1      46.472  35.377  27.884  1.00  0.00     0.040 A 
ATOM     62  C   UNL A   1      47.059  34.740  30.132  1.00  0.00     0.040 A 
ATOM     63  F   UNL A   1      47.050  32.478  30.753  1.00  0.00    -0.206 F 
ATOM     64  C   UNL A   1      46.875  35.732  29.170  1.00  0.00     0.006 A 
ENDBRANCH  40  57
ENDBRANCH  14  15
ENDBRANCH   7   9
ENDBRANCH   4   5
ENDBRANCH   3   4
ENDBRANCH   2   3
ENDBRANCH   1   2
BRANCH   1  65
ATOM     65  C   UNL A   1      40.632  22.334  27.243  1.00  0.00     0.021 C 
BRANCH  65  66
ATOM     66  C   UNL A   1      39.292  22.372  26.515  1.00  0.00     0.116 C 
BRANCH  66  67
ATOM     67  N   UNL A   1      39.047  21.149  25.768  1.00  0.00    -0.352 N 
ATOM     68  C   UNL A   1      37.904  20.753  25.119  1.00  0.00     0.251 C 
ATOM     69  H   UNL A   1      39.802  20.520  25.722  1.00  0.00     0.163 HD
ATOM     70  O   UNL A   1      37.781  19.604  24.712  1.00  0.00    -0.269 OA
BRANCH  68  71
ATOM     71  C   UNL A   1      36.817  21.731  24.930  1.00  0.00     0.039 A 
ATOM     72  C   UNL A   1      36.788  22.516  23.780  1.00  0.00     0.014 A 
ATOM     73  C   UNL A   1      35.819  21.860  25.894  1.00  0.00     0.014 A 
ATOM     74  C   UNL A   1      35.702  23.365  23.553  1.00  0.00     0.005 A 
ATOM     75  C   UNL A   1      34.727  22.689  25.652  1.00  0.00     0.005 A 
ATOM     76  C   UNL A   1      34.625  23.425  24.459  1.00  0.00    -0.043 A 
BRANCH  76  77
ATOM     77  C   UNL A   1      33.411  24.300  24.149  1.00  0.00     0.039 C 
ATOM     78  C   UNL A   1      32.933  24.123  22.685  1.00  0.00     0.012 C 
ATOM     79  C   UNL A   1      32.213  24.058  25.094  1.00  0.00     0.128 C 
ATOM     80  C   UNL A   1      31.688  24.960  22.377  1.00  0.00     0.022 C 
ATOM     81  N   UNL A   1      31.071  24.885  24.740  1.00  0.00    -0.338 N 
ATOM     82  C   UNL A   1      30.570  24.700  23.380  1.00  0.00     0.120 C 
BRANCH  81  83
ATOM     83  C   UNL A   1      30.613  25.813  25.666  1.00  0.00     0.253 C 
ATOM     84  O   UNL A   1      29.663  25.626  26.422  1.00  0.00    -0.269 OA
BRANCH  83  85
ATOM     85  C   UNL A   1      31.320  27.094  25.781  1.00  0.00     0.040 A 
ATOM     86  C   UNL A   1      31.007  28.106  24.875  1.00  0.00     0.016 A 
ATOM     87  C   UNL A   1      32.320  27.245  26.751  1.00  0.00     0.024 A 
ATOM     88  C   UNL A   1      31.655  29.340  24.947  1.00  0.00     0.027 A 
ATOM     89  C   UNL A   1      33.008  28.470  26.807  1.00  0.00     0.000 A 
ATOM     90  C   UNL A   1      32.646  29.491  25.925  1.00  0.00     0.045 A 
ATOM     91  C   UNL A   1      34.093  28.956  27.587  1.00  0.00     0.028 A 
ATOM     92  N   UNL A   1      33.442  30.575  26.217  1.00  0.00    -0.361 N 
ATOM     93  C   UNL A   1      34.350  30.247  27.188  1.00  0.00     0.083 A 
ATOM     94  H   UNL A   1      33.370  31.459  25.788  1.00  0.00     0.166 HD
ENDBRANCH  83  85
ENDBRANCH  81  83
ENDBRANCH  76  77
ENDBRANCH  68  71
ENDBRANCH  66  67
ENDBRANCH  65  66
ENDBRANCH   1  65
TORSDOF 16
ENDMDL
MODEL 2
REMARK VINA RESULT:     -11.9      0.660      5.951
REMARK SMILES O=C(NCCCCCCNC(=O)c1ccc([C@H]2CCCN(C(=O)c3ccc4[nH]ccc4c3)C2)cc1)c1ccc(-c2c3nc(c(-c4c(F)cccc4F)c4ccc([nH]4)c(-c4c(F)cccc4F)c4nc(c(-c5c(F)cccc5F)c5ccc2[nH]5)C=C4)C=C3)cc1
REMARK SMILES IDX 7 1 6 2 5 3 4 4 3 5 1 6 2 7 36 9 37 10 89 11 38 12 88 13
REMARK SMILES IDX 39 14 40 15 41 16 82 17 42 18 87 19 81 20 83 21 43 22 86 23
REMARK SMILES IDX 80 24 79 25 44 27 70 28 53 29 69 30 54 31 57 32 68 33 84 34
REMARK SMILES IDX 55 35 56 36 67 38 85 39 58 40 45 41 46 42 51 43 47 44 48 45
REMARK SMILES IDX 50 46 52 47 49 48 71 49 72 50 77 51 73 52 74 53 76 54 78 55
REMARK SMILES IDX 75 56 59 57 60 58 65 59 61 60 62 61 64 62 66 63 63 64 8 65
REMARK SMILES IDX 9 66 10 67 11 68 12 70 13 71 14 72 35 73 15 74 34 75 16 76
REMARK SMILES IDX 17 77 18 78 33 79 19 80 21 81 20 82 22 83 23 84 24 85 25 86
REMARK SMILES IDX 32 87 26 88 31 89 27 90 30 91 28 92 29 93
REMARK H PARENT 3 8 83 26 57 37 10 69 28 94
REMARK Flexibility Score: inf
ROOT
ATOM      1  C   UNL A   1      41.711  21.625  27.302  1.00  0.00     0.002 C 
ENDROOT
BRANCH   1   2
ATOM      2  C   UNL A   1      41.554  20.125  27.573  1.00  0.00     0.002 C 
BRANCH   2   3
ATOM      3  C   UNL A   1      42.590  19.234  26.890  1.00  0.00     0.021 C 
BRANCH   3   4
ATOM      4  C   UNL A   1      42.507  19.225  25.372  1.00  0.00     0.116 C 
BRANCH   4   5
ATOM      5  N   UNL A   1      43.747  18.785  24.756  1.00  0.00    -0.352 N 
ATOM      6  O   UNL A   1      45.734  19.058  23.716  1.00  0.00    -0.269 OA
ATOM      7  C   UNL A   1      44.837  19.539  24.395  1.00  0.00     0.251 C 
ATOM      8  H   UNL A   1      43.815  17.820  24.572  1.00  0.00     0.163 HD
BRANCH   7   9
ATOM      9  C   UNL A   1      44.909  20.948  24.834  1.00  0.00     0.039 A 
ATOM     10  C   UNL A   1      45.349  21.260  26.123  1.00  0.00     0.014 A 
ATOM     11  C   UNL A   1      44.550  21.963  23.943  1.00  0.00     0.014 A 
ATOM     12  C   UNL A   1      45.332  22.577  26.558  1.00  0.00     0.010 A 
ATOM     13  C   UNL A   1      44.620  23.295  24.354  1.00  0.00     0.010 A 
ATOM     14  C   UNL A   1      45.012  23.610  25.664  1.00  0.00    -0.014 A 
BRANCH  14  15
ATOM     15  C   UNL A   1      45.246  25.016  26.075  1.00  0.00     0.031 A 
ATOM     16  C   UNL A   1      46.604  25.647  25.983  1.00  0.00     0.074 A 
ATOM     17  C   UNL A   1      44.196  25.710  26.555  1.00  0.00     0.049 A 
ATOM     18  N   UNL A   1      46.970  26.851  26.341  1.00  0.00    -0.248 NA
ATOM     19  C   UNL A   1      47.691  24.829  25.425  1.00  0.00     0.031 C 
ATOM     20  C   UNL A   1      42.836  25.181  26.706  1.00  0.00     0.029 A 
ATOM     21  N   UNL A   1      44.099  27.000  27.008  1.00  0.00    -0.354 N 
ATOM     22  C   UNL A   1      48.331  26.931  26.074  1.00  0.00     0.074 A 
ATOM     23  C   UNL A   1      48.730  25.650  25.532  1.00  0.00     0.031 C 
ATOM     24  C   UNL A   1      42.039  26.142  27.193  1.00  0.00     0.029 A 
ATOM     25  C   UNL A   1      42.843  27.326  27.461  1.00  0.00     0.049 A 
ATOM     26  H   UNL A   1      44.854  27.631  27.008  1.00  0.00     0.167 HD
ATOM     27  C   UNL A   1      49.160  27.984  26.270  1.00  0.00     0.037 A 
ATOM     28  C   UNL A   1      42.395  28.439  28.070  1.00  0.00     0.037 A 
ATOM     29  C   UNL A   1      48.741  29.258  26.797  1.00  0.00     0.049 A 
ATOM     30  C   UNL A   1      43.355  29.565  28.309  1.00  0.00     0.074 A 
ATOM     31  C   UNL A   1      49.493  30.410  26.957  1.00  0.00     0.029 A 
ATOM     32  N   UNL A   1      47.468  29.544  27.265  1.00  0.00    -0.354 N 
ATOM     33  N   UNL A   1      44.619  29.657  27.975  1.00  0.00    -0.248 NA
ATOM     34  C   UNL A   1      42.833  30.740  29.019  1.00  0.00     0.031 C 
ATOM     35  C   UNL A   1      48.695  31.369  27.586  1.00  0.00     0.029 A 
ATOM     36  C   UNL A   1      47.428  30.836  27.762  1.00  0.00     0.049 A 
ATOM     37  H   UNL A   1      46.705  28.921  27.247  1.00  0.00     0.167 HD
ATOM     38  C   UNL A   1      45.040  30.900  28.424  1.00  0.00     0.074 A 
ATOM     39  C   UNL A   1      43.887  31.541  29.023  1.00  0.00     0.031 C 
ATOM     40  C   UNL A   1      46.273  31.457  28.358  1.00  0.00     0.037 A 
BRANCH  27  41
ATOM     41  C   UNL A   1      50.615  27.817  25.941  1.00  0.00     0.057 A 
ATOM     42  C   UNL A   1      51.561  27.468  26.911  1.00  0.00     0.134 A 
ATOM     43  C   UNL A   1      51.052  27.896  24.612  1.00  0.00     0.134 A 
ATOM     44  F   UNL A   1      51.210  27.379  28.203  1.00  0.00    -0.206 F 
ATOM     45  C   UNL A   1      52.891  27.203  26.571  1.00  0.00     0.040 A 
ATOM     46  C   UNL A   1      52.371  27.613  24.256  1.00  0.00     0.040 A 
ATOM     47  F   UNL A   1      50.194  28.217  23.631  1.00  0.00    -0.206 F 
ATOM     48  C   UNL A   1      53.295  27.263  25.239  1.00  0.00     0.006 A 
ENDBRANCH  27  41
BRANCH  28  49
ATOM     49  C   UNL A   1      40.991  28.515  28.546  1.00  0.00     0.057 A 
ATOM     50  C   UNL A   1      40.640  28.133  29.845  1.00  0.00     0.134 A 
ATOM     51  C   UNL A   1      39.958  28.944  27.700  1.00  0.00     0.134 A 
ATOM     52  F   UNL A   1      41.580  27.699  30.698  1.00  0.00    -0.206 F 
ATOM     53  C   UNL A   1      39.313  28.144  30.277  1.00  0.00     0.040 A 
ATOM     54  C   UNL A   1      38.632  28.994  28.129  1.00  0.00     0.040 A 
ATOM     55  F   UNL A   1      40.228  29.333  26.445  1.00  0.00    -0.206 F 
ATOM     56  C   UNL A   1      38.305  28.579  29.417  1.00  0.00     0.006 A 
ENDBRANCH  28  49
BRANCH  40  57
ATOM     57  C   UNL A   1      46.432  32.831  28.938  1.00  0.00     0.057 A 
ATOM     58  C   UNL A   1      46.174  33.982  28.183  1.00  0.00     0.134 A 
ATOM     59  C   UNL A   1      46.813  33.004  30.275  1.00  0.00     0.134 A 
ATOM     60  F   UNL A   1      45.825  33.883  26.892  1.00  0.00    -0.206 F 
ATOM     61  C   UNL A   1      46.308  35.258  28.732  1.00  0.00     0.040 A 
ATOM     62  C   UNL A   1      46.920  34.273  30.843  1.00  0.00     0.040 A 
ATOM     63  F   UNL A   1      47.068  31.942  31.054  1.00  0.00    -0.206 F 
ATOM     64  C   UNL A   1      46.673  35.406  30.069  1.00  0.00     0.006 A 
ENDBRANCH  40  57
ENDBRANCH  14  15
ENDBRANCH   7   9
ENDBRANCH   4   5
ENDBRANCH   3   4
ENDBRANCH   2   3
ENDBRANCH   1   2
BRANCH   1  65
ATOM     65  C   UNL A   1      40.905  22.158  26.116  1.00  0.00     0.021 C 
BRANCH  65  66
ATOM     66  C   UNL A   1      39.396  21.979  26.244  1.00  0.00     0.116 C 
BRANCH  66  67
ATOM     67  N   UNL A   1      38.948  20.724  25.661  1.00  0.00    -0.352 N 
ATOM     68  C   UNL A   1      37.724  20.415  25.123  1.00  0.00     0.251 C 
ATOM     69  H   UNL A   1      39.613  19.998  25.653  1.00  0.00     0.163 HD
ATOM     70  O   UNL A   1      37.429  19.253  24.864  1.00  0.00    -0.269 OA
BRANCH  68  71
ATOM     71  C   UNL A   1      36.760  21.502  24.874  1.00  0.00     0.039 A 
ATOM     72  C   UNL A   1      35.743  21.745  25.794  1.00  0.00     0.014 A 
ATOM     73  C   UNL A   1      36.873  22.286  23.728  1.00  0.00     0.014 A 
ATOM     74  C   UNL A   1      34.896  22.840  25.610  1.00  0.00     0.005 A 
ATOM     75  C   UNL A   1      36.042  23.392  23.562  1.00  0.00     0.005 A 
ATOM     76  C   UNL A   1      35.065  23.715  24.519  1.00  0.00    -0.043 A 
BRANCH  76  77
ATOM     77  C   UNL A   1      34.178  24.952  24.384  1.00  0.00     0.039 C 
ATOM     78  C   UNL A   1      34.014  25.385  22.906  1.00  0.00     0.012 C 
ATOM     79  C   UNL A   1      32.775  24.780  25.009  1.00  0.00     0.128 C 
ATOM     80  C   UNL A   1      33.088  26.596  22.756  1.00  0.00     0.022 C 
ATOM     81  N   UNL A   1      31.955  25.967  24.826  1.00  0.00    -0.338 N 
ATOM     82  C   UNL A   1      31.744  26.367  23.438  1.00  0.00     0.120 C 
BRANCH  81  83
ATOM     83  C   UNL A   1      31.518  26.649  25.954  1.00  0.00     0.253 C 
ATOM     84  O   UNL A   1      30.649  26.239  26.719  1.00  0.00    -0.269 OA
BRANCH  83  85
ATOM     85  C   UNL A   1      32.150  27.933  26.284  1.00  0.00     0.040 A 
ATOM     86  C   UNL A   1      31.516  29.106  25.875  1.00  0.00     0.016 A 
ATOM     87  C   UNL A   1      33.386  27.944  26.943  1.00  0.00     0.024 A 
ATOM     88  C   UNL A   1      32.081  30.348  26.166  1.00  0.00     0.027 A 
ATOM     89  C   UNL A   1      33.985  29.189  27.205  1.00  0.00     0.000 A 
ATOM     90  C   UNL A   1      33.312  30.356  26.835  1.00  0.00     0.045 A 
ATOM     91  C   UNL A   1      35.224  29.585  27.778  1.00  0.00     0.028 A 
ATOM     92  N   UNL A   1      34.093  31.415  27.236  1.00  0.00    -0.361 N 
ATOM     93  C   UNL A   1      35.270  30.960  27.766  1.00  0.00     0.083 A 
ATOM     94  H   UNL A   1      33.842  32.364  27.154  1.00  0.00     0.166 HD
ENDBRANCH  83  85
ENDBRANCH  81  83
ENDBRANCH  76  77
ENDBRANCH  68  71
ENDBRANCH  66  67
ENDBRANCH  65  66
ENDBRANCH   1  65
TORSDOF 16
ENDMDL
MODEL 3
REMARK VINA RESULT:     -11.9      6.237     11.842
REMARK SMILES O=C(NCCCCCCNC(=O)c1ccc([C@H]2CCCN(C(=O)c3ccc4[nH]ccc4c3)C2)cc1)c1ccc(-c2c3nc(c(-c4c(F)cccc4F)c4ccc([nH]4)c(-c4c(F)cccc4F)c4nc(c(-c5c(F)cccc5F)c5ccc2[nH]5)C=C4)C=C3)cc1
REMARK SMILES IDX 7 1 6 2 5 3 4 4 3 5 1 6 2 7 36 9 37 10 89 11 38 12 88 13
REMARK SMILES IDX 39 14 40 15 41 16 82 17 42 18 87 19 81 20 83 21 43 22 86 23
REMARK SMILES IDX 80 24 79 25 44 27 70 28 53 29 69 30 54 31 57 32 68 33 84 34
REMARK SMILES IDX 55 35 56 36 67 38 85 39 58 40 45 41 46 42 51 43 47 44 48 45
REMARK SMILES IDX 50 46 52 47 49 48 71 49 72 50 77 51 73 52 74 53 76 54 78 55
REMARK SMILES IDX 75 56 59 57 60 58 65 59 61 60 62 61 64 62 66 63 63 64 8 65
REMARK SMILES IDX 9 66 10 67 11 68 12 70 13 71 14 72 35 73 15 74 34 75 16 76
REMARK SMILES IDX 17 77 18 78 33 79 19 80 21 81 20 82 22 83 23 84 24 85 25 86
REMARK SMILES IDX 32 87 26 88 31 89 27 90 30 91 28 92 29 93
REMARK H PARENT 3 8 83 26 57 37 10 69 28 94
REMARK Flexibility Score: inf
ROOT
ATOM      1  C   UNL A   1      34.517  33.034  29.252  1.00  0.00     0.002 C 
ENDROOT
BRANCH   1   2
ATOM      2  C   UNL A   1      34.482  34.511  28.848  1.00  0.00     0.002 C 
BRANCH   2   3
ATOM      3  C   UNL A   1      33.168  35.231  29.146  1.00  0.00     0.021 C 
BRANCH   3   4
ATOM      4  C   UNL A   1      33.324  36.511  29.952  1.00  0.00     0.116 C 
BRANCH   4   5
ATOM      5  N   UNL A   1      32.441  36.545  31.106  1.00  0.00    -0.352 N 
ATOM      6  O   UNL A   1      31.601  35.814  33.072  1.00  0.00    -0.269 OA
ATOM      7  C   UNL A   1      32.522  35.813  32.265  1.00  0.00     0.251 C 
ATOM      8  H   UNL A   1      31.686  37.173  31.049  1.00  0.00     0.163 HD
BRANCH   7   9
ATOM      9  C   UNL A   1      33.738  35.015  32.525  1.00  0.00     0.039 A 
ATOM     10  C   UNL A   1      35.001  35.595  32.380  1.00  0.00     0.014 A 
ATOM     11  C   UNL A   1      33.611  33.685  32.932  1.00  0.00     0.014 A 
ATOM     12  C   UNL A   1      36.139  34.817  32.541  1.00  0.00     0.010 A 
ATOM     13  C   UNL A   1      34.759  32.929  33.181  1.00  0.00     0.010 A 
ATOM     14  C   UNL A   1      36.030  33.491  32.986  1.00  0.00    -0.014 A 
BRANCH  14  15
ATOM     15  C   UNL A   1      37.257  32.765  33.393  1.00  0.00     0.031 A 
ATOM     16  C   UNL A   1      37.981  33.094  34.665  1.00  0.00     0.074 A 
ATOM     17  C   UNL A   1      37.717  31.803  32.569  1.00  0.00     0.049 A 
ATOM     18  N   UNL A   1      39.087  32.573  35.133  1.00  0.00    -0.248 NA
ATOM     19  C   UNL A   1      37.400  34.140  35.520  1.00  0.00     0.031 C 
ATOM     20  C   UNL A   1      37.098  31.420  31.295  1.00  0.00     0.029 A 
ATOM     21  N   UNL A   1      38.805  30.976  32.667  1.00  0.00    -0.354 N 
ATOM     22  C   UNL A   1      39.348  33.239  36.323  1.00  0.00     0.074 A 
ATOM     23  C   UNL A   1      38.290  34.210  36.504  1.00  0.00     0.031 C 
ATOM     24  C   UNL A   1      37.801  30.421  30.744  1.00  0.00     0.029 A 
ATOM     25  C   UNL A   1      38.959  30.147  31.582  1.00  0.00     0.049 A 
ATOM     26  H   UNL A   1      39.416  30.976  33.439  1.00  0.00     0.167 HD
ATOM     27  C   UNL A   1      40.381  33.049  37.179  1.00  0.00     0.037 A 
ATOM     28  C   UNL A   1      39.948  29.290  31.270  1.00  0.00     0.037 A 
ATOM     29  C   UNL A   1      41.417  32.065  36.990  1.00  0.00     0.049 A 
ATOM     30  C   UNL A   1      41.098  29.140  32.222  1.00  0.00     0.074 A 
ATOM     31  C   UNL A   1      42.462  31.745  37.841  1.00  0.00     0.029 A 
ATOM     32  N   UNL A   1      41.553  31.259  35.870  1.00  0.00    -0.354 N 
ATOM     33  N   UNL A   1      41.289  29.716  33.384  1.00  0.00    -0.248 NA
ATOM     34  C   UNL A   1      42.177  28.231  31.817  1.00  0.00     0.031 C 
ATOM     35  C   UNL A   1      43.267  30.796  37.206  1.00  0.00     0.029 A 
ATOM     36  C   UNL A   1      42.693  30.480  35.985  1.00  0.00     0.049 A 
ATOM     37  H   UNL A   1      40.932  31.244  35.106  1.00  0.00     0.167 HD
ATOM     38  C   UNL A   1      42.501  29.233  33.852  1.00  0.00     0.074 A 
ATOM     39  C   UNL A   1      42.985  28.289  32.865  1.00  0.00     0.031 C 
ATOM     40  C   UNL A   1      43.161  29.549  34.992  1.00  0.00     0.037 A 
BRANCH  27  41
ATOM     41  C   UNL A   1      40.475  33.927  38.392  1.00  0.00     0.057 A 
ATOM     42  C   UNL A   1      39.849  33.596  39.599  1.00  0.00     0.134 A 
ATOM     43  C   UNL A   1      41.299  35.060  38.382  1.00  0.00     0.134 A 
ATOM     44  F   UNL A   1      39.042  32.527  39.677  1.00  0.00    -0.206 F 
ATOM     45  C   UNL A   1      40.038  34.362  40.753  1.00  0.00     0.040 A 
ATOM     46  C   UNL A   1      41.515  35.820  39.532  1.00  0.00     0.040 A 
ATOM     47  F   UNL A   1      41.937  35.428  37.259  1.00  0.00    -0.206 F 
ATOM     48  C   UNL A   1      40.883  35.470  40.723  1.00  0.00     0.006 A 
ENDBRANCH  27  41
BRANCH  28  49
ATOM     49  C   UNL A   1      39.923  28.559  29.979  1.00  0.00     0.057 A 
ATOM     50  C   UNL A   1      39.305  27.310  29.860  1.00  0.00     0.134 A 
ATOM     51  C   UNL A   1      40.546  29.080  28.836  1.00  0.00     0.134 A 
ATOM     52  F   UNL A   1      38.704  26.751  30.921  1.00  0.00    -0.206 F 
ATOM     53  C   UNL A   1      39.333  26.591  28.664  1.00  0.00     0.040 A 
ATOM     54  C   UNL A   1      40.551  28.389  27.625  1.00  0.00     0.040 A 
ATOM     55  F   UNL A   1      41.150  30.277  28.879  1.00  0.00    -0.206 F 
ATOM     56  C   UNL A   1      39.955  27.134  27.541  1.00  0.00     0.006 A 
ENDBRANCH  28  49
BRANCH  40  57
ATOM     57  C   UNL A   1      44.471  28.860  35.234  1.00  0.00     0.057 A 
ATOM     58  C   UNL A   1      45.683  29.417  34.807  1.00  0.00     0.134 A 
ATOM     59  C   UNL A   1      44.524  27.645  35.929  1.00  0.00     0.134 A 
ATOM     60  F   UNL A   1      45.698  30.569  34.120  1.00  0.00    -0.206 F 
ATOM     61  C   UNL A   1      46.902  28.781  35.048  1.00  0.00     0.040 A 
ATOM     62  C   UNL A   1      45.738  27.015  36.202  1.00  0.00     0.040 A 
ATOM     63  F   UNL A   1      43.399  27.062  36.369  1.00  0.00    -0.206 F 
ATOM     64  C   UNL A   1      46.932  27.580  35.756  1.00  0.00     0.006 A 
ENDBRANCH  40  57
ENDBRANCH  14  15
ENDBRANCH   7   9
ENDBRANCH   4   5
ENDBRANCH   3   4
ENDBRANCH   2   3
ENDBRANCH   1   2
BRANCH   1  65
ATOM     65  C   UNL A   1      35.332  32.127  28.327  1.00  0.00     0.021 C 
BRANCH  65  66
ATOM     66  C   UNL A   1      34.526  31.024  27.649  1.00  0.00     0.116 C 
BRANCH  66  67
ATOM     67  N   UNL A   1      33.236  31.505  27.182  1.00  0.00    -0.352 N 
ATOM     68  C   UNL A   1      32.243  30.813  26.535  1.00  0.00     0.251 C 
ATOM     69  H   UNL A   1      33.049  32.457  27.353  1.00  0.00     0.163 HD
ATOM     70  O   UNL A   1      31.302  31.404  26.017  1.00  0.00    -0.269 OA
BRANCH  68  71
ATOM     71  C   UNL A   1      32.334  29.343  26.457  1.00  0.00     0.039 A 
ATOM     72  C   UNL A   1      31.571  28.560  27.320  1.00  0.00     0.014 A 
ATOM     73  C   UNL A   1      33.171  28.744  25.518  1.00  0.00     0.014 A 
ATOM     74  C   UNL A   1      31.578  27.171  27.175  1.00  0.00     0.005 A 
ATOM     75  C   UNL A   1      33.155  27.360  25.361  1.00  0.00     0.005 A 
ATOM     76  C   UNL A   1      32.328  26.549  26.157  1.00  0.00    -0.043 A 
BRANCH  76  77
ATOM     77  C   UNL A   1      32.254  25.035  25.967  1.00  0.00     0.039 C 
ATOM     78  C   UNL A   1      31.339  24.366  27.024  1.00  0.00     0.012 C 
ATOM     79  C   UNL A   1      31.781  24.608  24.560  1.00  0.00     0.128 C 
ATOM     80  C   UNL A   1      31.221  22.853  26.813  1.00  0.00     0.022 C 
ATOM     81  N   UNL A   1      31.692  23.162  24.436  1.00  0.00    -0.338 N 
ATOM     82  C   UNL A   1      30.796  22.512  25.389  1.00  0.00     0.120 C 
BRANCH  81  83
ATOM     83  C   UNL A   1      32.502  22.527  23.504  1.00  0.00     0.253 C 
ATOM     84  O   UNL A   1      32.752  22.971  22.386  1.00  0.00    -0.269 OA
BRANCH  83  85
ATOM     85  C   UNL A   1      33.133  21.255  23.876  1.00  0.00     0.040 A 
ATOM     86  C   UNL A   1      34.354  21.294  24.549  1.00  0.00     0.016 A 
ATOM     87  C   UNL A   1      32.528  20.049  23.501  1.00  0.00     0.024 A 
ATOM     88  C   UNL A   1      34.991  20.109  24.920  1.00  0.00     0.027 A 
ATOM     89  C   UNL A   1      33.180  18.849  23.834  1.00  0.00     0.000 A 
ATOM     90  C   UNL A   1      34.376  18.905  24.552  1.00  0.00     0.045 A 
ATOM     91  C   UNL A   1      32.913  17.476  23.573  1.00  0.00     0.028 A 
ATOM     92  N   UNL A   1      34.774  17.606  24.773  1.00  0.00    -0.361 N 
ATOM     93  C   UNL A   1      33.921  16.737  24.147  1.00  0.00     0.083 A 
ATOM     94  H   UNL A   1      35.559  17.339  25.305  1.00  0.00     0.166 HD
ENDBRANCH  83  85
ENDBRANCH  81  83
ENDBRANCH  76  77
ENDBRANCH  68  71
ENDBRANCH  66  67
ENDBRANCH  65  66
ENDBRANCH   1  65
TORSDOF 16
ENDMDL
