MODEL 1
REMARK VINA RESULT:     -10.5      0.000      0.000
REMARK SMILES O=C(CCCNC(=O)N1CC[C@@H](C(=O)NCCCCCCNC(=O)c2ccc(-c3c4nc(c(-c5c(F)cccc5F)c5ccc([nH]5)c(-c5c(F)cccc5F)c5nc(c(-c6c(F)cccc6F)c6ccc3[nH]6)C=C5)C=C4)cc2)C1)NC1CC1
REMARK SMILES IDX 16 1 15 2 13 3 14 4 12 6 9 7 10 8 79 9 11 10 7 11 6 12 8 14
REMARK SMILES IDX 5 15 4 16 3 17 2 18 1 19 80 20 81 22 82 23 83 24 17 25 18 26
REMARK SMILES IDX 19 27 20 28 21 29 22 30 23 31 24 33 25 34 26 35 78 36 27 37
REMARK SMILES IDX 77 38 28 39 29 40 30 41 71 42 31 43 76 44 70 45 72 46 32 47
REMARK SMILES IDX 75 48 69 49 68 50 33 52 59 53 42 54 58 55 43 56 46 57 57 58
REMARK SMILES IDX 73 59 44 60 45 61 56 63 74 64 47 65 34 66 35 67 40 68 36 69
REMARK SMILES IDX 37 70 39 71 41 72 38 73 60 74 61 75 66 76 62 77 63 78 65 79
REMARK SMILES IDX 67 80 64 81 48 82 49 83 54 84 50 85 51 86 53 87 55 88 52 89
REMARK H PARENT 15 5 6 13 80 21 22 32 72 51 46 62
REMARK Flexibility Score: inf
ROOT
ATOM      1  C   UNL A   1      33.636  30.328  27.157  1.00  0.00     0.116 C 
ENDROOT
BRANCH   1   2
ATOM      2  N   UNL A   1      33.817  29.867  25.794  1.00  0.00    -0.356 N 
ATOM      3  C   UNL A   1      33.710  28.594  25.312  1.00  0.00     0.224 C 
ATOM      4  O   UNL A   1      33.793  28.417  24.098  1.00  0.00    -0.275 OA
ATOM      5  H   UNL A   1      34.047  30.559  25.133  1.00  0.00     0.163 HD
BRANCH   3   6
ATOM      6  C   UNL A   1      33.555  27.452  26.300  1.00  0.00     0.100 C 
ATOM      7  N   UNL A   1      32.056  25.648  26.008  1.00  0.00    -0.324 N 
ATOM      8  C   UNL A   1      33.211  25.360  25.179  1.00  0.00     0.122 C 
ATOM      9  C   UNL A   1      32.093  27.022  26.433  1.00  0.00     0.134 C 
ATOM     10  C   UNL A   1      34.295  26.174  25.859  1.00  0.00     0.037 C 
BRANCH   7  11
ATOM     11  C   UNL A   1      30.957  24.895  26.239  1.00  0.00     0.317 C 
ATOM     12  N   UNL A   1      29.902  25.007  25.399  1.00  0.00    -0.338 N 
ATOM     13  H   UNL A   1      29.017  24.798  25.776  1.00  0.00     0.165 HD
ATOM     14  O   UNL A   1      30.904  24.044  27.126  1.00  0.00    -0.249 OA
BRANCH  12  15
ATOM     15  C   UNL A   1      29.939  25.402  24.002  1.00  0.00     0.118 C 
BRANCH  15  16
ATOM     16  C   UNL A   1      29.456  26.837  23.788  1.00  0.00     0.031 C 
BRANCH  16  17
ATOM     17  C   UNL A   1      30.468  27.787  23.152  1.00  0.00     0.102 C 
BRANCH  17  18
ATOM     18  C   UNL A   1      30.231  29.231  23.533  1.00  0.00     0.220 C 
ATOM     19  O   UNL A   1      30.713  29.715  24.552  1.00  0.00    -0.275 OA
ATOM     20  N   UNL A   1      29.418  29.921  22.656  1.00  0.00    -0.353 N 
ATOM     21  H   UNL A   1      29.098  29.459  21.847  1.00  0.00     0.163 HD
BRANCH  20  22
ATOM     22  C   UNL A   1      29.020  31.273  22.875  1.00  0.00     0.082 C 
ATOM     23  C   UNL A   1      27.991  31.913  21.983  1.00  0.00     0.027 C 
ATOM     24  C   UNL A   1      27.658  31.608  23.413  1.00  0.00     0.027 C 
ENDBRANCH  20  22
ENDBRANCH  17  18
ENDBRANCH  16  17
ENDBRANCH  15  16
ENDBRANCH  12  15
ENDBRANCH   7  11
ENDBRANCH   3   6
ENDBRANCH   1   2
BRANCH   1  25
ATOM     25  C   UNL A   1      34.743  31.258  27.626  1.00  0.00     0.021 C 
BRANCH  25  26
ATOM     26  C   UNL A   1      34.407  32.095  28.862  1.00  0.00     0.002 C 
BRANCH  26  27
ATOM     27  C   UNL A   1      34.560  33.611  28.707  1.00  0.00     0.002 C 
BRANCH  27  28
ATOM     28  C   UNL A   1      33.265  34.424  28.772  1.00  0.00     0.021 C 
BRANCH  28  29
ATOM     29  C   UNL A   1      33.414  35.851  29.284  1.00  0.00     0.116 C 
BRANCH  29  30
ATOM     30  N   UNL A   1      32.534  36.143  30.401  1.00  0.00    -0.352 N 
ATOM     31  C   UNL A   1      32.643  35.765  31.714  1.00  0.00     0.251 C 
ATOM     32  H   UNL A   1      31.745  36.691  30.184  1.00  0.00     0.163 HD
ATOM     33  O   UNL A   1      31.725  35.992  32.500  1.00  0.00    -0.269 OA
BRANCH  31  34
ATOM     34  C   UNL A   1      33.853  35.056  32.180  1.00  0.00     0.039 A 
ATOM     35  C   UNL A   1      33.723  33.746  32.648  1.00  0.00     0.014 A 
ATOM     36  C   UNL A   1      35.107  35.674  32.159  1.00  0.00     0.014 A 
ATOM     37  C   UNL A   1      34.859  33.036  33.040  1.00  0.00     0.010 A 
ATOM     38  C   UNL A   1      36.247  34.939  32.479  1.00  0.00     0.010 A 
ATOM     39  C   UNL A   1      36.134  33.615  32.927  1.00  0.00    -0.014 A 
BRANCH  39  40
ATOM     40  C   UNL A   1      37.355  32.846  33.278  1.00  0.00     0.031 A 
ATOM     41  C   UNL A   1      38.079  33.120  34.569  1.00  0.00     0.074 A 
ATOM     42  C   UNL A   1      37.837  31.931  32.415  1.00  0.00     0.049 A 
ATOM     43  N   UNL A   1      39.182  32.584  35.028  1.00  0.00    -0.248 NA
ATOM     44  C   UNL A   1      37.499  34.147  35.450  1.00  0.00     0.031 C 
ATOM     45  C   UNL A   1      37.250  31.603  31.114  1.00  0.00     0.029 A 
ATOM     46  N   UNL A   1      38.934  31.111  32.499  1.00  0.00    -0.354 N 
ATOM     47  C   UNL A   1      39.429  33.210  36.242  1.00  0.00     0.074 A 
ATOM     48  C   UNL A   1      38.397  34.207  36.423  1.00  0.00     0.031 C 
ATOM     49  C   UNL A   1      37.977  30.634  30.536  1.00  0.00     0.029 A 
ATOM     50  C   UNL A   1      39.101  30.299  31.403  1.00  0.00     0.049 A 
ATOM     51  H   UNL A   1      39.544  31.104  33.272  1.00  0.00     0.167 HD
ATOM     52  C   UNL A   1      40.412  32.959  37.140  1.00  0.00     0.037 A 
ATOM     53  C   UNL A   1      40.058  29.392  31.127  1.00  0.00     0.037 A 
ATOM     54  C   UNL A   1      41.429  31.955  36.967  1.00  0.00     0.049 A 
ATOM     55  C   UNL A   1      41.152  29.152  32.130  1.00  0.00     0.074 A 
ATOM     56  C   UNL A   1      42.443  31.596  37.837  1.00  0.00     0.029 A 
ATOM     57  N   UNL A   1      41.561  31.150  35.845  1.00  0.00    -0.354 N 
ATOM     58  N   UNL A   1      41.337  29.707  33.303  1.00  0.00    -0.248 NA
ATOM     59  C   UNL A   1      42.169  28.153  31.773  1.00  0.00     0.031 C 
ATOM     60  C   UNL A   1      43.217  30.606  37.224  1.00  0.00     0.029 A 
ATOM     61  C   UNL A   1      42.653  30.310  35.993  1.00  0.00     0.049 A 
ATOM     62  H   UNL A   1      40.967  31.173  35.060  1.00  0.00     0.167 HD
ATOM     63  C   UNL A   1      42.467  29.102  33.838  1.00  0.00     0.074 A 
ATOM     64  C   UNL A   1      42.916  28.125  32.867  1.00  0.00     0.031 C 
ATOM     65  C   UNL A   1      43.079  29.333  35.025  1.00  0.00     0.037 A 
BRANCH  52  66
ATOM     66  C   UNL A   1      40.430  33.777  38.398  1.00  0.00     0.057 A 
ATOM     67  C   UNL A   1      39.679  33.414  39.524  1.00  0.00     0.134 A 
ATOM     68  C   UNL A   1      41.243  34.913  38.506  1.00  0.00     0.134 A 
ATOM     69  F   UNL A   1      38.870  32.344  39.485  1.00  0.00    -0.206 F 
ATOM     70  C   UNL A   1      39.719  34.162  40.703  1.00  0.00     0.040 A 
ATOM     71  C   UNL A   1      41.313  35.651  39.688  1.00  0.00     0.040 A 
ATOM     72  F   UNL A   1      41.995  35.313  37.469  1.00  0.00    -0.206 F 
ATOM     73  C   UNL A   1      40.545  35.279  40.790  1.00  0.00     0.006 A 
ENDBRANCH  52  66
BRANCH  53  74
ATOM     74  C   UNL A   1      40.022  28.628  29.853  1.00  0.00     0.057 A 
ATOM     75  C   UNL A   1      39.268  27.454  29.735  1.00  0.00     0.134 A 
ATOM     76  C   UNL A   1      40.765  29.030  28.736  1.00  0.00     0.134 A 
ATOM     77  F   UNL A   1      38.550  27.007  30.775  1.00  0.00    -0.206 F 
ATOM     78  C   UNL A   1      39.277  26.692  28.565  1.00  0.00     0.040 A 
ATOM     79  C   UNL A   1      40.761  28.294  27.551  1.00  0.00     0.040 A 
ATOM     80  F   UNL A   1      41.504  30.149  28.781  1.00  0.00    -0.206 F 
ATOM     81  C   UNL A   1      40.023  27.114  27.467  1.00  0.00     0.006 A 
ENDBRANCH  53  74
BRANCH  65  82
ATOM     82  C   UNL A   1      44.272  28.485  35.359  1.00  0.00     0.057 A 
ATOM     83  C   UNL A   1      45.572  28.853  34.991  1.00  0.00     0.134 A 
ATOM     84  C   UNL A   1      44.118  27.297  36.088  1.00  0.00     0.134 A 
ATOM     85  F   UNL A   1      45.787  29.971  34.281  1.00  0.00    -0.206 F 
ATOM     86  C   UNL A   1      46.673  28.057  35.312  1.00  0.00     0.040 A 
ATOM     87  C   UNL A   1      45.214  26.510  36.440  1.00  0.00     0.040 A 
ATOM     88  F   UNL A   1      42.901  26.892  36.480  1.00  0.00    -0.206 F 
ATOM     89  C   UNL A   1      46.496  26.885  36.045  1.00  0.00     0.006 A 
ENDBRANCH  65  82
ENDBRANCH  39  40
ENDBRANCH  31  34
ENDBRANCH  29  30
ENDBRANCH  28  29
ENDBRANCH  27  28
ENDBRANCH  26  27
ENDBRANCH  25  26
ENDBRANCH   1  25
TORSDOF 19
ENDMDL
MODEL 2
REMARK VINA RESULT:     -10.1      4.327      9.114
REMARK SMILES O=C(CCCNC(=O)N1CC[C@@H](C(=O)NCCCCCCNC(=O)c2ccc(-c3c4nc(c(-c5c(F)cccc5F)c5ccc([nH]5)c(-c5c(F)cccc5F)c5nc(c(-c6c(F)cccc6F)c6ccc3[nH]6)C=C5)C=C4)cc2)C1)NC1CC1
REMARK SMILES IDX 16 1 15 2 13 3 14 4 12 6 9 7 10 8 79 9 11 10 7 11 6 12 8 14
REMARK SMILES IDX 5 15 4 16 3 17 2 18 1 19 80 20 81 22 82 23 83 24 17 25 18 26
REMARK SMILES IDX 19 27 20 28 21 29 22 30 23 31 24 33 25 34 26 35 78 36 27 37
REMARK SMILES IDX 77 38 28 39 29 40 30 41 71 42 31 43 76 44 70 45 72 46 32 47
REMARK SMILES IDX 75 48 69 49 68 50 33 52 59 53 42 54 58 55 43 56 46 57 57 58
REMARK SMILES IDX 73 59 44 60 45 61 56 63 74 64 47 65 34 66 35 67 40 68 36 69
REMARK SMILES IDX 37 70 39 71 41 72 38 73 60 74 61 75 66 76 62 77 63 78 65 79
REMARK SMILES IDX 67 80 64 81 48 82 49 83 54 84 50 85 51 86 53 87 55 88 52 89
REMARK H PARENT 15 5 6 13 80 21 22 32 72 51 46 62
REMARK Flexibility Score: inf
ROOT
ATOM      1  C   UNL A   1      32.866  36.006  30.271  1.00  0.00     0.116 C 
ENDROOT
BRANCH   1   2
ATOM      2  N   UNL A   1      33.206  36.676  31.511  1.00  0.00    -0.356 N 
ATOM      3  C   UNL A   1      34.095  36.280  32.469  1.00  0.00     0.224 C 
ATOM      4  O   UNL A   1      34.329  37.042  33.405  1.00  0.00    -0.275 OA
ATOM      5  H   UNL A   1      32.737  37.524  31.684  1.00  0.00     0.163 HD
BRANCH   3   6
ATOM      6  C   UNL A   1      34.705  34.894  32.366  1.00  0.00     0.100 C 
ATOM      7  N   UNL A   1      36.423  34.100  33.782  1.00  0.00    -0.324 N 
ATOM      8  C   UNL A   1      35.188  33.983  34.532  1.00  0.00     0.122 C 
ATOM      9  C   UNL A   1      36.213  34.926  32.623  1.00  0.00     0.134 C 
ATOM     10  C   UNL A   1      34.154  33.917  33.423  1.00  0.00     0.037 C 
BRANCH   7  11
ATOM     11  C   UNL A   1      37.675  33.717  34.125  1.00  0.00     0.317 C 
ATOM     12  N   UNL A   1      37.950  32.395  34.210  1.00  0.00    -0.338 N 
ATOM     13  H   UNL A   1      38.677  32.137  34.822  1.00  0.00     0.165 HD
ATOM     14  O   UNL A   1      38.600  34.513  34.275  1.00  0.00    -0.249 OA
BRANCH  12  15
ATOM     15  C   UNL A   1      37.288  31.318  33.495  1.00  0.00     0.118 C 
BRANCH  15  16
ATOM     16  C   UNL A   1      38.278  30.321  32.893  1.00  0.00     0.031 C 
BRANCH  16  17
ATOM     17  C   UNL A   1      39.671  30.313  33.517  1.00  0.00     0.102 C 
BRANCH  17  18
ATOM     18  C   UNL A   1      40.371  28.982  33.363  1.00  0.00     0.220 C 
ATOM     19  O   UNL A   1      39.761  27.920  33.452  1.00  0.00    -0.275 OA
ATOM     20  N   UNL A   1      41.731  29.079  33.147  1.00  0.00    -0.353 N 
ATOM     21  H   UNL A   1      42.132  29.975  33.061  1.00  0.00     0.163 HD
BRANCH  20  22
ATOM     22  C   UNL A   1      42.578  27.937  33.043  1.00  0.00     0.082 C 
ATOM     23  C   UNL A   1      43.963  27.966  33.632  1.00  0.00     0.027 C 
ATOM     24  C   UNL A   1      42.906  27.098  34.246  1.00  0.00     0.027 C 
ENDBRANCH  20  22
ENDBRANCH  17  18
ENDBRANCH  16  17
ENDBRANCH  15  16
ENDBRANCH  12  15
ENDBRANCH   7  11
ENDBRANCH   3   6
ENDBRANCH   1   2
BRANCH   1  25
ATOM     25  C   UNL A   1      33.324  36.765  29.036  1.00  0.00     0.021 C 
BRANCH  25  26
ATOM     26  C   UNL A   1      34.367  36.043  28.180  1.00  0.00     0.002 C 
BRANCH  26  27
ATOM     27  C   UNL A   1      34.310  34.512  28.203  1.00  0.00     0.002 C 
BRANCH  27  28
ATOM     28  C   UNL A   1      35.487  33.810  28.881  1.00  0.00     0.021 C 
BRANCH  28  29
ATOM     29  C   UNL A   1      35.135  32.550  29.663  1.00  0.00     0.116 C 
BRANCH  29  30
ATOM     30  N   UNL A   1      34.335  31.614  28.893  1.00  0.00    -0.352 N 
ATOM     31  C   UNL A   1      34.717  30.456  28.267  1.00  0.00     0.251 C 
ATOM     32  H   UNL A   1      33.382  31.845  28.808  1.00  0.00     0.163 HD
ATOM     33  O   UNL A   1      33.926  29.857  27.542  1.00  0.00    -0.269 OA
BRANCH  31  34
ATOM     34  C   UNL A   1      36.092  29.942  28.441  1.00  0.00     0.039 A 
ATOM     35  C   UNL A   1      37.003  30.104  27.394  1.00  0.00     0.014 A 
ATOM     36  C   UNL A   1      36.484  29.305  29.622  1.00  0.00     0.014 A 
ATOM     37  C   UNL A   1      38.323  29.677  27.555  1.00  0.00     0.010 A 
ATOM     38  C   UNL A   1      37.818  28.951  29.808  1.00  0.00     0.010 A 
ATOM     39  C   UNL A   1      38.750  29.128  28.775  1.00  0.00    -0.014 A 
BRANCH  39  40
ATOM     40  C   UNL A   1      40.166  28.733  28.980  1.00  0.00     0.031 A 
ATOM     41  C   UNL A   1      41.136  29.690  29.619  1.00  0.00     0.074 A 
ATOM     42  C   UNL A   1      40.590  27.528  28.551  1.00  0.00     0.049 A 
ATOM     43  N   UNL A   1      42.417  29.543  29.842  1.00  0.00    -0.248 NA
ATOM     44  C   UNL A   1      40.599  30.994  30.044  1.00  0.00     0.031 C 
ATOM     45  C   UNL A   1      39.759  26.528  27.880  1.00  0.00     0.029 A 
ATOM     46  N   UNL A   1      41.829  26.941  28.614  1.00  0.00    -0.354 N 
ATOM     47  C   UNL A   1      42.838  30.731  30.425  1.00  0.00     0.074 A 
ATOM     48  C   UNL A   1      41.692  31.612  30.468  1.00  0.00     0.031 C 
ATOM     49  C   UNL A   1      40.504  25.442  27.617  1.00  0.00     0.029 A 
ATOM     50  C   UNL A   1      41.871  25.683  28.063  1.00  0.00     0.049 A 
ATOM     51  H   UNL A   1      42.615  27.380  29.014  1.00  0.00     0.167 HD
ATOM     52  C   UNL A   1      44.063  31.051  30.907  1.00  0.00     0.037 A 
ATOM     53  C   UNL A   1      42.899  24.823  27.929  1.00  0.00     0.037 A 
ATOM     54  C   UNL A   1      45.200  30.167  30.880  1.00  0.00     0.049 A 
ATOM     55  C   UNL A   1      44.255  25.214  28.450  1.00  0.00     0.074 A 
ATOM     56  C   UNL A   1      46.471  30.382  31.380  1.00  0.00     0.029 A 
ATOM     57  N   UNL A   1      45.200  28.898  30.319  1.00  0.00    -0.354 N 
ATOM     58  N   UNL A   1      44.623  26.317  29.056  1.00  0.00    -0.248 NA
ATOM     59  C   UNL A   1      45.339  24.237  28.273  1.00  0.00     0.031 C 
ATOM     60  C   UNL A   1      47.255  29.263  31.082  1.00  0.00     0.029 A 
ATOM     61  C   UNL A   1      46.456  28.328  30.443  1.00  0.00     0.049 A 
ATOM     62  H   UNL A   1      44.423  28.467  29.895  1.00  0.00     0.167 HD
ATOM     63  C   UNL A   1      45.968  26.152  29.364  1.00  0.00     0.074 A 
ATOM     64  C   UNL A   1      46.345  24.836  28.891  1.00  0.00     0.031 C 
ATOM     65  C   UNL A   1      46.814  27.012  29.980  1.00  0.00     0.037 A 
BRANCH  52  66
ATOM     66  C   UNL A   1      44.238  32.411  31.517  1.00  0.00     0.057 A 
ATOM     67  C   UNL A   1      44.583  33.526  30.741  1.00  0.00     0.134 A 
ATOM     68  C   UNL A   1      44.012  32.621  32.883  1.00  0.00     0.134 A 
ATOM     69  F   UNL A   1      44.825  33.393  29.428  1.00  0.00    -0.206 F 
ATOM     70  C   UNL A   1      44.718  34.797  31.306  1.00  0.00     0.040 A 
ATOM     71  C   UNL A   1      44.116  33.891  33.453  1.00  0.00     0.040 A 
ATOM     72  F   UNL A   1      43.671  31.600  33.682  1.00  0.00    -0.206 F 
ATOM     73  C   UNL A   1      44.476  34.982  32.665  1.00  0.00     0.006 A 
ENDBRANCH  52  66
BRANCH  53  74
ATOM     74  C   UNL A   1      42.691  23.499  27.288  1.00  0.00     0.057 A 
ATOM     75  C   UNL A   1      42.258  22.395  28.033  1.00  0.00     0.134 A 
ATOM     76  C   UNL A   1      42.952  23.295  25.927  1.00  0.00     0.134 A 
ATOM     77  F   UNL A   1      42.010  22.522  29.344  1.00  0.00    -0.206 F 
ATOM     78  C   UNL A   1      42.121  21.131  27.457  1.00  0.00     0.040 A 
ATOM     79  C   UNL A   1      42.792  22.043  25.331  1.00  0.00     0.040 A 
ATOM     80  F   UNL A   1      43.364  24.311  25.156  1.00  0.00    -0.206 F 
ATOM     81  C   UNL A   1      42.385  20.953  26.100  1.00  0.00     0.006 A 
ENDBRANCH  53  74
BRANCH  65  82
ATOM     82  C   UNL A   1      48.218  26.539  30.221  1.00  0.00     0.057 A 
ATOM     83  C   UNL A   1      48.583  25.855  31.386  1.00  0.00     0.134 A 
ATOM     84  C   UNL A   1      49.213  26.745  29.254  1.00  0.00     0.134 A 
ATOM     85  F   UNL A   1      47.683  25.636  32.357  1.00  0.00    -0.206 F 
ATOM     86  C   UNL A   1      49.893  25.417  31.595  1.00  0.00     0.040 A 
ATOM     87  C   UNL A   1      50.517  26.285  29.438  1.00  0.00     0.040 A 
ATOM     88  F   UNL A   1      48.929  27.385  28.110  1.00  0.00    -0.206 F 
ATOM     89  C   UNL A   1      50.862  25.626  30.616  1.00  0.00     0.006 A 
ENDBRANCH  65  82
ENDBRANCH  39  40
ENDBRANCH  31  34
ENDBRANCH  29  30
ENDBRANCH  28  29
ENDBRANCH  27  28
ENDBRANCH  26  27
ENDBRANCH  25  26
ENDBRANCH   1  25
TORSDOF 19
ENDMDL
MODEL 3
REMARK VINA RESULT:     -10.0      6.759     12.057
REMARK SMILES O=C(CCCNC(=O)N1CC[C@@H](C(=O)NCCCCCCNC(=O)c2ccc(-c3c4nc(c(-c5c(F)cccc5F)c5ccc([nH]5)c(-c5c(F)cccc5F)c5nc(c(-c6c(F)cccc6F)c6ccc3[nH]6)C=C5)C=C4)cc2)C1)NC1CC1
REMARK SMILES IDX 16 1 15 2 13 3 14 4 12 6 9 7 10 8 79 9 11 10 7 11 6 12 8 14
REMARK SMILES IDX 5 15 4 16 3 17 2 18 1 19 80 20 81 22 82 23 83 24 17 25 18 26
REMARK SMILES IDX 19 27 20 28 21 29 22 30 23 31 24 33 25 34 26 35 78 36 27 37
REMARK SMILES IDX 77 38 28 39 29 40 30 41 71 42 31 43 76 44 70 45 72 46 32 47
REMARK SMILES IDX 75 48 69 49 68 50 33 52 59 53 42 54 58 55 43 56 46 57 57 58
REMARK SMILES IDX 73 59 44 60 45 61 56 63 74 64 47 65 34 66 35 67 40 68 36 69
REMARK SMILES IDX 37 70 39 71 41 72 38 73 60 74 61 75 66 76 62 77 63 78 65 79
REMARK SMILES IDX 67 80 64 81 48 82 49 83 54 84 50 85 51 86 53 87 55 88 52 89
REMARK H PARENT 15 5 6 13 80 21 22 32 72 51 46 62
REMARK Flexibility Score: inf
ROOT
ATOM      1  C   UNL A   1      39.450  22.789  26.486  1.00  0.00     0.116 C 
ENDROOT
BRANCH   1   2
ATOM      2  N   UNL A   1      38.488  21.751  26.169  1.00  0.00    -0.356 N 
ATOM      3  C   UNL A   1      37.441  21.809  25.295  1.00  0.00     0.224 C 
ATOM      4  O   UNL A   1      36.798  20.783  25.079  1.00  0.00    -0.275 OA
ATOM      5  H   UNL A   1      38.604  20.897  26.644  1.00  0.00     0.163 HD
BRANCH   3   6
ATOM      6  C   UNL A   1      37.082  23.148  24.677  1.00  0.00     0.100 C 
ATOM      7  N   UNL A   1      34.949  23.670  23.803  1.00  0.00    -0.324 N 
ATOM      8  C   UNL A   1      34.846  23.807  25.243  1.00  0.00     0.122 C 
ATOM      9  C   UNL A   1      36.164  22.978  23.465  1.00  0.00     0.134 C 
ATOM     10  C   UNL A   1      36.289  24.057  25.637  1.00  0.00     0.037 C 
BRANCH   7  11
ATOM     11  C   UNL A   1      34.024  23.923  22.848  1.00  0.00     0.317 C 
ATOM     12  N   UNL A   1      33.175  22.934  22.486  1.00  0.00    -0.338 N 
ATOM     13  H   UNL A   1      32.814  22.978  21.572  1.00  0.00     0.165 HD
ATOM     14  O   UNL A   1      33.858  25.038  22.357  1.00  0.00    -0.249 OA
BRANCH  12  15
ATOM     15  C   UNL A   1      32.740  21.815  23.305  1.00  0.00     0.118 C 
BRANCH  15  16
ATOM     16  C   UNL A   1      31.458  22.121  24.080  1.00  0.00     0.031 C 
BRANCH  16  17
ATOM     17  C   UNL A   1      31.625  22.302  25.586  1.00  0.00     0.102 C 
BRANCH  17  18
ATOM     18  C   UNL A   1      31.028  23.599  26.087  1.00  0.00     0.220 C 
ATOM     19  O   UNL A   1      30.672  23.735  27.254  1.00  0.00    -0.275 OA
ATOM     20  N   UNL A   1      30.901  24.574  25.118  1.00  0.00    -0.353 N 
ATOM     21  H   UNL A   1      31.241  24.386  24.213  1.00  0.00     0.163 HD
BRANCH  20  22
ATOM     22  C   UNL A   1      30.299  25.841  25.375  1.00  0.00     0.082 C 
ATOM     23  C   UNL A   1      31.025  27.110  25.017  1.00  0.00     0.027 C 
ATOM     24  C   UNL A   1      29.798  26.707  24.254  1.00  0.00     0.027 C 
ENDBRANCH  20  22
ENDBRANCH  17  18
ENDBRANCH  16  17
ENDBRANCH  15  16
ENDBRANCH  12  15
ENDBRANCH   7  11
ENDBRANCH   3   6
ENDBRANCH   1   2
BRANCH   1  25
ATOM     25  C   UNL A   1      40.629  22.282  27.300  1.00  0.00     0.021 C 
BRANCH  25  26
ATOM     26  C   UNL A   1      41.638  21.434  26.521  1.00  0.00     0.002 C 
BRANCH  26  27
ATOM     27  C   UNL A   1      41.907  20.033  27.077  1.00  0.00     0.002 C 
BRANCH  27  28
ATOM     28  C   UNL A   1      42.306  18.972  26.050  1.00  0.00     0.021 C 
BRANCH  28  29
ATOM     29  C   UNL A   1      43.764  18.535  26.094  1.00  0.00     0.116 C 
BRANCH  29  30
ATOM     30  N   UNL A   1      44.370  18.457  24.776  1.00  0.00    -0.352 N 
ATOM     31  C   UNL A   1      44.834  19.467  23.973  1.00  0.00     0.251 C 
ATOM     32  H   UNL A   1      44.459  17.549  24.407  1.00  0.00     0.163 HD
ATOM     33  O   UNL A   1      45.193  19.225  22.823  1.00  0.00    -0.269 OA
BRANCH  31  34
ATOM     34  C   UNL A   1      44.873  20.854  24.481  1.00  0.00     0.039 A 
ATOM     35  C   UNL A   1      45.410  21.087  25.750  1.00  0.00     0.014 A 
ATOM     36  C   UNL A   1      44.387  21.919  23.717  1.00  0.00     0.014 A 
ATOM     37  C   UNL A   1      45.510  22.395  26.228  1.00  0.00     0.010 A 
ATOM     38  C   UNL A   1      44.558  23.227  24.164  1.00  0.00     0.010 A 
ATOM     39  C   UNL A   1      45.116  23.478  25.426  1.00  0.00    -0.014 A 
BRANCH  39  40
ATOM     40  C   UNL A   1      45.281  24.877  25.898  1.00  0.00     0.031 A 
ATOM     41  C   UNL A   1      46.630  25.540  25.850  1.00  0.00     0.074 A 
ATOM     42  C   UNL A   1      44.222  25.536  26.410  1.00  0.00     0.049 A 
ATOM     43  N   UNL A   1      46.980  26.734  26.255  1.00  0.00    -0.248 NA
ATOM     44  C   UNL A   1      47.740  24.748  25.293  1.00  0.00     0.031 C 
ATOM     45  C   UNL A   1      42.872  24.989  26.549  1.00  0.00     0.029 A 
ATOM     46  N   UNL A   1      44.118  26.808  26.912  1.00  0.00    -0.354 N 
ATOM     47  C   UNL A   1      48.343  26.834  26.008  1.00  0.00     0.074 A 
ATOM     48  C   UNL A   1      48.771  25.560  25.474  1.00  0.00     0.031 C 
ATOM     49  C   UNL A   1      42.069  25.928  27.075  1.00  0.00     0.029 A 
ATOM     50  C   UNL A   1      42.854  27.127  27.346  1.00  0.00     0.049 A 
ATOM     51  H   UNL A   1      44.877  27.434  26.958  1.00  0.00     0.167 HD
ATOM     52  C   UNL A   1      49.160  27.900  26.185  1.00  0.00     0.037 A 
ATOM     53  C   UNL A   1      42.383  28.258  27.906  1.00  0.00     0.037 A 
ATOM     54  C   UNL A   1      48.729  29.174  26.701  1.00  0.00     0.049 A 
ATOM     55  C   UNL A   1      43.319  29.417  28.115  1.00  0.00     0.074 A 
ATOM     56  C   UNL A   1      49.471  30.327  26.878  1.00  0.00     0.029 A 
ATOM     57  N   UNL A   1      47.439  29.459  27.124  1.00  0.00    -0.354 N 
ATOM     58  N   UNL A   1      44.592  29.518  27.817  1.00  0.00    -0.248 NA
ATOM     59  C   UNL A   1      42.750  30.624  28.732  1.00  0.00     0.031 C 
ATOM     60  C   UNL A   1      48.643  31.298  27.451  1.00  0.00     0.029 A 
ATOM     61  C   UNL A   1      47.371  30.764  27.581  1.00  0.00     0.049 A 
ATOM     62  H   UNL A   1      46.684  28.826  27.103  1.00  0.00     0.167 HD
ATOM     63  C   UNL A   1      44.966  30.807  28.177  1.00  0.00     0.074 A 
ATOM     64  C   UNL A   1      43.781  31.455  28.700  1.00  0.00     0.031 C 
ATOM     65  C   UNL A   1      46.181  31.400  28.085  1.00  0.00     0.037 A 
BRANCH  52  66
ATOM     66  C   UNL A   1      50.604  27.740  25.807  1.00  0.00     0.057 A 
ATOM     67  C   UNL A   1      51.046  27.929  24.491  1.00  0.00     0.134 A 
ATOM     68  C   UNL A   1      51.571  27.442  26.775  1.00  0.00     0.134 A 
ATOM     69  F   UNL A   1      50.170  28.204  23.512  1.00  0.00    -0.206 F 
ATOM     70  C   UNL A   1      52.394  27.806  24.147  1.00  0.00     0.040 A 
ATOM     71  C   UNL A   1      52.925  27.345  26.449  1.00  0.00     0.040 A 
ATOM     72  F   UNL A   1      51.218  27.256  28.056  1.00  0.00    -0.206 F 
ATOM     73  C   UNL A   1      53.339  27.521  25.130  1.00  0.00     0.006 A 
ENDBRANCH  52  66
BRANCH  53  74
ATOM     74  C   UNL A   1      40.954  28.364  28.298  1.00  0.00     0.057 A 
ATOM     75  C   UNL A   1      40.000  28.887  27.417  1.00  0.00     0.134 A 
ATOM     76  C   UNL A   1      40.513  27.978  29.569  1.00  0.00     0.134 A 
ATOM     77  F   UNL A   1      40.364  29.291  26.191  1.00  0.00    -0.206 F 
ATOM     78  C   UNL A   1      38.666  29.051  27.795  1.00  0.00     0.040 A 
ATOM     79  C   UNL A   1      39.177  28.109  29.951  1.00  0.00     0.040 A 
ATOM     80  F   UNL A   1      41.374  27.463  30.458  1.00  0.00    -0.206 F 
ATOM     81  C   UNL A   1      38.251  28.658  29.065  1.00  0.00     0.006 A 
ENDBRANCH  53  74
BRANCH  65  82
ATOM     82  C   UNL A   1      46.279  32.835  28.516  1.00  0.00     0.057 A 
ATOM     83  C   UNL A   1      46.032  33.894  27.635  1.00  0.00     0.134 A 
ATOM     84  C   UNL A   1      46.594  33.159  29.843  1.00  0.00     0.134 A 
ATOM     85  F   UNL A   1      45.738  33.654  26.348  1.00  0.00    -0.206 F 
ATOM     86  C   UNL A   1      46.122  35.225  28.050  1.00  0.00     0.040 A 
ATOM     87  C   UNL A   1      46.657  34.483  30.277  1.00  0.00     0.040 A 
ATOM     88  F   UNL A   1      46.833  32.192  30.742  1.00  0.00    -0.206 F 
ATOM     89  C   UNL A   1      46.428  35.521  29.376  1.00  0.00     0.006 A 
ENDBRANCH  65  82
ENDBRANCH  39  40
ENDBRANCH  31  34
ENDBRANCH  29  30
ENDBRANCH  28  29
ENDBRANCH  27  28
ENDBRANCH  26  27
ENDBRANCH  25  26
ENDBRANCH   1  25
TORSDOF 19
ENDMDL
