MODEL 1
REMARK VINA RESULT:     -10.5      0.000      0.000
REMARK SMILES O=C(Nc1ccc2c(c1)OCO2)N[C@H]1C=C[C@@H](C(=O)NCCCCCCNC(=O)c2ccc(-c3c4nc(c(-c5c(F)cccc5F)c5ccc([nH]5)c(-c5c(F)cccc5F)c5nc(c(-c6c(F)cccc6F)c6ccc3[nH]6)C=C5)C=C4)cc2)C1
REMARK SMILES IDX 23 1 22 2 21 3 20 4 18 5 19 6 17 8 14 9 15 10 84 11 16 12
REMARK SMILES IDX 13 13 1 14 2 15 3 16 4 19 5 20 9 21 6 22 8 23 7 24 10 25
REMARK SMILES IDX 12 26 11 27 24 28 25 29 26 30 27 31 28 32 29 34 30 35 31 36
REMARK SMILES IDX 83 37 32 38 82 39 33 40 34 41 35 42 76 43 36 44 81 45 75 46
REMARK SMILES IDX 77 47 37 48 80 49 74 50 73 51 38 53 64 54 47 55 63 56 48 57
REMARK SMILES IDX 51 58 62 59 78 60 49 61 50 62 61 64 79 65 52 66 39 67 40 68
REMARK SMILES IDX 45 69 41 70 42 71 44 72 46 73 43 74 65 75 66 76 71 77 67 78
REMARK SMILES IDX 68 79 70 80 72 81 69 82 53 83 54 84 59 85 55 86 56 87 58 88
REMARK SMILES IDX 60 89 57 90
REMARK H PARENT 20 7 3 17 13 18 27 33 77 52 51 63
REMARK Flexibility Score: inf
ROOT
ATOM      1  C   UNL A   1      34.883  33.988  33.870  1.00  0.00     0.002 C 
ENDROOT
BRANCH   1   2
ATOM      2  C   UNL A   1      36.244  33.751  34.531  1.00  0.00     0.021 C 
BRANCH   2   3
ATOM      3  C   UNL A   1      36.963  32.493  34.052  1.00  0.00     0.116 C 
BRANCH   3   4
ATOM      4  N   UNL A   1      37.391  31.658  35.152  1.00  0.00    -0.356 N 
ATOM      5  C   UNL A   1      38.444  30.803  35.258  1.00  0.00     0.227 C 
ATOM      6  O   UNL A   1      38.610  30.251  36.352  1.00  0.00    -0.274 OA
ATOM      7  H   UNL A   1      36.826  31.716  35.957  1.00  0.00     0.163 HD
BRANCH   5   8
ATOM      8  C   UNL A   1      39.403  30.511  34.097  1.00  0.00     0.103 C 
ATOM      9  C   UNL A   1      41.206  28.846  33.756  1.00  0.00     0.107 C 
ATOM     10  C   UNL A   1      39.964  28.524  32.975  1.00  0.00    -0.006 C 
ATOM     11  C   UNL A   1      40.822  30.126  34.526  1.00  0.00     0.047 C 
ATOM     12  C   UNL A   1      38.978  29.405  33.183  1.00  0.00    -0.016 C 
BRANCH   9  13
ATOM     13  N   UNL A   1      41.516  27.688  34.566  1.00  0.00    -0.332 N 
ATOM     14  O   UNL A   1      41.200  28.616  36.636  1.00  0.00    -0.248 OA
ATOM     15  C   UNL A   1      41.542  27.673  35.931  1.00  0.00     0.319 C 
ATOM     16  N   UNL A   1      41.811  26.457  36.499  1.00  0.00    -0.308 N 
ATOM     17  H   UNL A   1      41.346  26.277  37.348  1.00  0.00     0.171 HD
ATOM     18  H   UNL A   1      41.724  26.847  34.098  1.00  0.00     0.165 HD
BRANCH  16  19
ATOM     19  C   UNL A   1      42.652  25.429  36.044  1.00  0.00     0.046 A 
ATOM     20  C   UNL A   1      42.142  24.309  35.355  1.00  0.00     0.030 A 
ATOM     21  C   UNL A   1      44.032  25.582  36.210  1.00  0.00     0.076 A 
ATOM     22  C   UNL A   1      43.001  23.326  34.854  1.00  0.00     0.053 A 
ATOM     23  C   UNL A   1      44.853  24.577  35.736  1.00  0.00     0.167 A 
ATOM     24  C   UNL A   1      44.352  23.483  35.075  1.00  0.00     0.165 A 
ATOM     25  O   UNL A   1      46.208  24.535  35.857  1.00  0.00    -0.454 OA
ATOM     26  O   UNL A   1      45.326  22.621  34.681  1.00  0.00    -0.454 OA
ATOM     27  C   UNL A   1      46.500  23.270  35.220  1.00  0.00     0.468 C 
ENDBRANCH  16  19
ENDBRANCH   9  13
ENDBRANCH   5   8
ENDBRANCH   3   4
ENDBRANCH   2   3
ENDBRANCH   1   2
BRANCH   1  28
ATOM     28  C   UNL A   1      34.727  35.345  33.173  1.00  0.00     0.002 C 
BRANCH  28  29
ATOM     29  C   UNL A   1      33.403  35.550  32.432  1.00  0.00     0.021 C 
BRANCH  29  30
ATOM     30  C   UNL A   1      33.524  36.287  31.104  1.00  0.00     0.116 C 
BRANCH  30  31
ATOM     31  N   UNL A   1      32.785  35.626  30.041  1.00  0.00    -0.352 N 
ATOM     32  C   UNL A   1      33.191  34.637  29.183  1.00  0.00     0.251 C 
ATOM     33  H   UNL A   1      31.858  35.933  29.920  1.00  0.00     0.163 HD
ATOM     34  O   UNL A   1      32.497  34.338  28.212  1.00  0.00    -0.269 OA
BRANCH  32  35
ATOM     35  C   UNL A   1      34.473  33.939  29.412  1.00  0.00     0.039 A 
ATOM     36  C   UNL A   1      35.585  34.299  28.648  1.00  0.00     0.014 A 
ATOM     37  C   UNL A   1      34.575  32.926  30.370  1.00  0.00     0.014 A 
ATOM     38  C   UNL A   1      36.815  33.683  28.884  1.00  0.00     0.010 A 
ATOM     39  C   UNL A   1      35.817  32.368  30.658  1.00  0.00     0.010 A 
ATOM     40  C   UNL A   1      36.948  32.736  29.913  1.00  0.00    -0.014 A 
BRANCH  40  41
ATOM     41  C   UNL A   1      38.261  32.120  30.225  1.00  0.00     0.031 A 
ATOM     42  C   UNL A   1      39.240  32.833  31.115  1.00  0.00     0.074 A 
ATOM     43  C   UNL A   1      38.593  30.942  29.662  1.00  0.00     0.049 A 
ATOM     44  N   UNL A   1      40.454  32.482  31.458  1.00  0.00    -0.248 NA
ATOM     45  C   UNL A   1      38.807  34.124  31.673  1.00  0.00     0.031 C 
ATOM     46  C   UNL A   1      37.745  30.169  28.754  1.00  0.00     0.029 A 
ATOM     47  N   UNL A   1      39.735  30.190  29.770  1.00  0.00    -0.354 N 
ATOM     48  C   UNL A   1      40.931  33.508  32.263  1.00  0.00     0.074 A 
ATOM     49  C   UNL A   1      39.900  34.523  32.308  1.00  0.00     0.031 C 
ATOM     50  C   UNL A   1      38.382  29.039  28.413  1.00  0.00     0.029 A 
ATOM     51  C   UNL A   1      39.698  29.025  29.043  1.00  0.00     0.049 A 
ATOM     52  H   UNL A   1      40.509  30.459  30.317  1.00  0.00     0.167 HD
ATOM     53  C   UNL A   1      42.110  33.589  32.924  1.00  0.00     0.037 A 
ATOM     54  C   UNL A   1      40.623  28.058  28.898  1.00  0.00     0.037 A 
ATOM     55  C   UNL A   1      43.128  32.571  32.888  1.00  0.00     0.049 A 
ATOM     56  C   UNL A   1      41.937  28.184  29.618  1.00  0.00     0.074 A 
ATOM     57  C   UNL A   1      44.339  32.538  33.558  1.00  0.00     0.029 A 
ATOM     58  N   UNL A   1      43.055  31.407  32.137  1.00  0.00    -0.354 N 
ATOM     59  N   UNL A   1      42.353  29.134  30.421  1.00  0.00    -0.248 NA
ATOM     60  C   UNL A   1      42.910  27.101  29.414  1.00  0.00     0.031 C 
ATOM     61  C   UNL A   1      45.020  31.379  33.172  1.00  0.00     0.029 A 
ATOM     62  C   UNL A   1      44.211  30.662  32.305  1.00  0.00     0.049 A 
ATOM     63  H   UNL A   1      42.294  31.149  31.568  1.00  0.00     0.167 HD
ATOM     64  C   UNL A   1      43.618  28.748  30.844  1.00  0.00     0.074 A 
ATOM     65  C   UNL A   1      43.898  27.473  30.216  1.00  0.00     0.031 C 
ATOM     66  C   UNL A   1      44.473  29.392  31.677  1.00  0.00     0.037 A 
BRANCH  53  67
ATOM     67  C   UNL A   1      42.362  34.825  33.740  1.00  0.00     0.057 A 
ATOM     68  C   UNL A   1      42.079  34.876  35.113  1.00  0.00     0.134 A 
ATOM     69  C   UNL A   1      42.916  35.970  33.155  1.00  0.00     0.134 A 
ATOM     70  F   UNL A   1      41.536  33.818  35.735  1.00  0.00    -0.206 F 
ATOM     71  C   UNL A   1      42.307  36.031  35.863  1.00  0.00     0.040 A 
ATOM     72  C   UNL A   1      43.178  37.120  33.901  1.00  0.00     0.040 A 
ATOM     73  F   UNL A   1      43.220  35.989  31.847  1.00  0.00    -0.206 F 
ATOM     74  C   UNL A   1      42.865  37.155  35.259  1.00  0.00     0.006 A 
ENDBRANCH  53  67
BRANCH  54  75
ATOM     75  C   UNL A   1      40.335  26.874  28.049  1.00  0.00     0.057 A 
ATOM     76  C   UNL A   1      40.869  26.763  26.760  1.00  0.00     0.134 A 
ATOM     77  C   UNL A   1      39.513  25.833  28.498  1.00  0.00     0.134 A 
ATOM     78  F   UNL A   1      41.648  27.737  26.267  1.00  0.00    -0.206 F 
ATOM     79  C   UNL A   1      40.579  25.673  25.938  1.00  0.00     0.040 A 
ATOM     80  C   UNL A   1      39.237  24.724  27.697  1.00  0.00     0.040 A 
ATOM     81  F   UNL A   1      38.977  25.875  29.727  1.00  0.00    -0.206 F 
ATOM     82  C   UNL A   1      39.764  24.647  26.410  1.00  0.00     0.006 A 
ENDBRANCH  54  75
BRANCH  66  83
ATOM     83  C   UNL A   1      45.774  28.710  31.986  1.00  0.00     0.057 A 
ATOM     84  C   UNL A   1      46.935  28.956  31.243  1.00  0.00     0.134 A 
ATOM     85  C   UNL A   1      45.874  27.824  33.066  1.00  0.00     0.134 A 
ATOM     86  F   UNL A   1      46.905  29.784  30.188  1.00  0.00    -0.206 F 
ATOM     87  C   UNL A   1      48.143  28.326  31.546  1.00  0.00     0.040 A 
ATOM     88  C   UNL A   1      47.082  27.209  33.398  1.00  0.00     0.040 A 
ATOM     89  F   UNL A   1      44.802  27.550  33.825  1.00  0.00    -0.206 F 
ATOM     90  C   UNL A   1      48.220  27.455  32.632  1.00  0.00     0.006 A 
ENDBRANCH  66  83
ENDBRANCH  40  41
ENDBRANCH  32  35
ENDBRANCH  30  31
ENDBRANCH  29  30
ENDBRANCH  28  29
ENDBRANCH   1  28
TORSDOF 15
ENDMDL
MODEL 2
REMARK VINA RESULT:     -10.4      4.865      9.127
REMARK SMILES O=C(Nc1ccc2c(c1)OCO2)N[C@H]1C=C[C@@H](C(=O)NCCCCCCNC(=O)c2ccc(-c3c4nc(c(-c5c(F)cccc5F)c5ccc([nH]5)c(-c5c(F)cccc5F)c5nc(c(-c6c(F)cccc6F)c6ccc3[nH]6)C=C5)C=C4)cc2)C1
REMARK SMILES IDX 23 1 22 2 21 3 20 4 18 5 19 6 17 8 14 9 15 10 84 11 16 12
REMARK SMILES IDX 13 13 1 14 2 15 3 16 4 19 5 20 9 21 6 22 8 23 7 24 10 25
REMARK SMILES IDX 12 26 11 27 24 28 25 29 26 30 27 31 28 32 29 34 30 35 31 36
REMARK SMILES IDX 83 37 32 38 82 39 33 40 34 41 35 42 76 43 36 44 81 45 75 46
REMARK SMILES IDX 77 47 37 48 80 49 74 50 73 51 38 53 64 54 47 55 63 56 48 57
REMARK SMILES IDX 51 58 62 59 78 60 49 61 50 62 61 64 79 65 52 66 39 67 40 68
REMARK SMILES IDX 45 69 41 70 42 71 44 72 46 73 43 74 65 75 66 76 71 77 67 78
REMARK SMILES IDX 68 79 70 80 72 81 69 82 53 83 54 84 59 85 55 86 56 87 58 88
REMARK SMILES IDX 60 89 57 90
REMARK H PARENT 20 7 3 17 13 18 27 33 77 52 51 63
REMARK Flexibility Score: inf
ROOT
ATOM      1  C   UNL A   1      35.341  33.488  27.882  1.00  0.00     0.002 C 
ENDROOT
BRANCH   1   2
ATOM      2  C   UNL A   1      36.204  32.238  28.082  1.00  0.00     0.021 C 
BRANCH   2   3
ATOM      3  C   UNL A   1      35.508  30.931  27.712  1.00  0.00     0.116 C 
BRANCH   3   4
ATOM      4  N   UNL A   1      34.132  31.140  27.316  1.00  0.00    -0.356 N 
ATOM      5  C   UNL A   1      33.113  30.254  27.155  1.00  0.00     0.227 C 
ATOM      6  O   UNL A   1      32.006  30.720  26.862  1.00  0.00    -0.274 OA
ATOM      7  H   UNL A   1      33.895  32.078  27.132  1.00  0.00     0.163 HD
BRANCH   5   8
ATOM      8  C   UNL A   1      33.288  28.739  27.320  1.00  0.00     0.103 C 
ATOM      9  C   UNL A   1      31.925  26.783  26.647  1.00  0.00     0.107 C 
ATOM     10  C   UNL A   1      33.148  26.958  25.794  1.00  0.00    -0.006 C 
ATOM     11  C   UNL A   1      31.994  27.977  27.620  1.00  0.00     0.047 C 
ATOM     12  C   UNL A   1      33.869  28.032  26.136  1.00  0.00    -0.016 C 
BRANCH   9  13
ATOM     13  N   UNL A   1      30.783  26.755  25.758  1.00  0.00    -0.332 N 
ATOM     14  O   UNL A   1      30.946  24.583  25.050  1.00  0.00    -0.248 OA
ATOM     15  C   UNL A   1      30.414  25.685  24.993  1.00  0.00     0.319 C 
ATOM     16  N   UNL A   1      29.270  25.855  24.261  1.00  0.00    -0.308 N 
ATOM     17  H   UNL A   1      28.716  25.049  24.152  1.00  0.00     0.171 HD
ATOM     18  H   UNL A   1      30.230  27.568  25.700  1.00  0.00     0.165 HD
BRANCH  16  19
ATOM     19  C   UNL A   1      28.773  27.015  23.644  1.00  0.00     0.046 A 
ATOM     20  C   UNL A   1      27.427  27.409  23.790  1.00  0.00     0.030 A 
ATOM     21  C   UNL A   1      29.671  27.828  22.945  1.00  0.00     0.076 A 
ATOM     22  C   UNL A   1      26.965  28.600  23.221  1.00  0.00     0.053 A 
ATOM     23  C   UNL A   1      29.177  28.979  22.363  1.00  0.00     0.167 A 
ATOM     24  C   UNL A   1      27.863  29.355  22.500  1.00  0.00     0.165 A 
ATOM     25  O   UNL A   1      29.892  29.857  21.608  1.00  0.00    -0.454 OA
ATOM     26  O   UNL A   1      27.587  30.524  21.862  1.00  0.00    -0.454 OA
ATOM     27  C   UNL A   1      28.867  30.815  21.258  1.00  0.00     0.468 C 
ENDBRANCH  16  19
ENDBRANCH   9  13
ENDBRANCH   5   8
ENDBRANCH   3   4
ENDBRANCH   2   3
ENDBRANCH   1   2
BRANCH   1  28
ATOM     28  C   UNL A   1      35.005  34.257  29.165  1.00  0.00     0.002 C 
BRANCH  28  29
ATOM     29  C   UNL A   1      33.565  34.770  29.260  1.00  0.00     0.021 C 
BRANCH  29  30
ATOM     30  C   UNL A   1      33.431  36.202  29.765  1.00  0.00     0.116 C 
BRANCH  30  31
ATOM     31  N   UNL A   1      32.497  36.307  30.874  1.00  0.00    -0.352 N 
ATOM     32  C   UNL A   1      32.542  35.714  32.110  1.00  0.00     0.251 C 
ATOM     33  H   UNL A   1      31.719  36.888  30.715  1.00  0.00     0.163 HD
ATOM     34  O   UNL A   1      31.559  35.754  32.850  1.00  0.00    -0.269 OA
BRANCH  32  35
ATOM     35  C   UNL A   1      33.763  35.009  32.549  1.00  0.00     0.039 A 
ATOM     36  C   UNL A   1      33.668  33.672  32.941  1.00  0.00     0.014 A 
ATOM     37  C   UNL A   1      34.997  35.667  32.582  1.00  0.00     0.014 A 
ATOM     38  C   UNL A   1      34.820  32.978  33.313  1.00  0.00     0.010 A 
ATOM     39  C   UNL A   1      36.154  34.953  32.877  1.00  0.00     0.010 A 
ATOM     40  C   UNL A   1      36.077  33.603  33.253  1.00  0.00    -0.014 A 
BRANCH  40  41
ATOM     41  C   UNL A   1      37.320  32.862  33.579  1.00  0.00     0.031 A 
ATOM     42  C   UNL A   1      38.075  33.168  34.842  1.00  0.00     0.074 A 
ATOM     43  C   UNL A   1      37.798  31.951  32.709  1.00  0.00     0.049 A 
ATOM     44  N   UNL A   1      39.207  32.669  35.271  1.00  0.00    -0.248 NA
ATOM     45  C   UNL A   1      37.495  34.191  35.727  1.00  0.00     0.031 C 
ATOM     46  C   UNL A   1      37.176  31.589  31.435  1.00  0.00     0.029 A 
ATOM     47  N   UNL A   1      38.920  31.163  32.767  1.00  0.00    -0.354 N 
ATOM     48  C   UNL A   1      39.477  33.319  36.467  1.00  0.00     0.074 A 
ATOM     49  C   UNL A   1      38.424  34.291  36.667  1.00  0.00     0.031 C 
ATOM     50  C   UNL A   1      37.907  30.630  30.846  1.00  0.00     0.029 A 
ATOM     51  C   UNL A   1      39.069  30.338  31.679  1.00  0.00     0.049 A 
ATOM     52  H   UNL A   1      39.558  31.188  33.517  1.00  0.00     0.167 HD
ATOM     53  C   UNL A   1      40.496  33.109  37.335  1.00  0.00     0.037 A 
ATOM     54  C   UNL A   1      40.037  29.450  31.384  1.00  0.00     0.037 A 
ATOM     55  C   UNL A   1      41.534  32.131  37.141  1.00  0.00     0.049 A 
ATOM     56  C   UNL A   1      41.175  29.256  32.349  1.00  0.00     0.074 A 
ATOM     57  C   UNL A   1      42.586  31.810  37.982  1.00  0.00     0.029 A 
ATOM     58  N   UNL A   1      41.653  31.316  36.024  1.00  0.00    -0.354 N 
ATOM     59  N   UNL A   1      41.387  29.838  33.504  1.00  0.00    -0.248 NA
ATOM     60  C   UNL A   1      42.205  28.279  31.969  1.00  0.00     0.031 C 
ATOM     61  C   UNL A   1      43.370  30.839  37.350  1.00  0.00     0.029 A 
ATOM     62  C   UNL A   1      42.776  30.514  36.141  1.00  0.00     0.049 A 
ATOM     63  H   UNL A   1      41.031  31.310  35.261  1.00  0.00     0.167 HD
ATOM     64  C   UNL A   1      42.554  29.275  34.005  1.00  0.00     0.074 A 
ATOM     65  C   UNL A   1      42.998  28.299  33.031  1.00  0.00     0.031 C 
ATOM     66  C   UNL A   1      43.202  29.542  35.166  1.00  0.00     0.037 A 
BRANCH  53  67
ATOM     67  C   UNL A   1      40.537  33.960  38.572  1.00  0.00     0.057 A 
ATOM     68  C   UNL A   1      39.847  33.602  39.740  1.00  0.00     0.134 A 
ATOM     69  C   UNL A   1      41.291  35.139  38.608  1.00  0.00     0.134 A 
ATOM     70  F   UNL A   1      39.095  32.491  39.772  1.00  0.00    -0.206 F 
ATOM     71  C   UNL A   1      39.882  34.402  40.884  1.00  0.00     0.040 A 
ATOM     72  C   UNL A   1      41.359  35.930  39.755  1.00  0.00     0.040 A 
ATOM     73  F   UNL A   1      41.982  35.538  37.529  1.00  0.00    -0.206 F 
ATOM     74  C   UNL A   1      40.645  35.567  40.896  1.00  0.00     0.006 A 
ENDBRANCH  53  67
BRANCH  54  75
ATOM     75  C   UNL A   1      39.966  28.661  30.128  1.00  0.00     0.057 A 
ATOM     76  C   UNL A   1      39.259  27.454  30.075  1.00  0.00     0.134 A 
ATOM     77  C   UNL A   1      40.608  29.085  28.958  1.00  0.00     0.134 A 
ATOM     78  F   UNL A   1      38.640  26.986  31.168  1.00  0.00    -0.206 F 
ATOM     79  C   UNL A   1      39.212  26.684  28.911  1.00  0.00     0.040 A 
ATOM     80  C   UNL A   1      40.546  28.339  27.780  1.00  0.00     0.040 A 
ATOM     81  F   UNL A   1      41.294  30.237  28.942  1.00  0.00    -0.206 F 
ATOM     82  C   UNL A   1      39.853  27.131  27.758  1.00  0.00     0.006 A 
ENDBRANCH  54  75
BRANCH  66  83
ATOM     83  C   UNL A   1      44.437  28.743  35.463  1.00  0.00     0.057 A 
ATOM     84  C   UNL A   1      45.711  29.175  35.077  1.00  0.00     0.134 A 
ATOM     85  C   UNL A   1      44.351  27.541  36.178  1.00  0.00     0.134 A 
ATOM     86  F   UNL A   1      45.862  30.310  34.378  1.00  0.00    -0.206 F 
ATOM     87  C   UNL A   1      46.854  28.429  35.370  1.00  0.00     0.040 A 
ATOM     88  C   UNL A   1      45.489  26.801  36.503  1.00  0.00     0.040 A 
ATOM     89  F   UNL A   1      43.161  27.074  36.586  1.00  0.00    -0.206 F 
ATOM     90  C   UNL A   1      46.745  27.241  36.091  1.00  0.00     0.006 A 
ENDBRANCH  66  83
ENDBRANCH  40  41
ENDBRANCH  32  35
ENDBRANCH  30  31
ENDBRANCH  29  30
ENDBRANCH  28  29
ENDBRANCH   1  28
TORSDOF 15
ENDMDL
MODEL 3
REMARK VINA RESULT:     -10.2      0.259      6.191
REMARK SMILES O=C(Nc1ccc2c(c1)OCO2)N[C@H]1C=C[C@@H](C(=O)NCCCCCCNC(=O)c2ccc(-c3c4nc(c(-c5c(F)cccc5F)c5ccc([nH]5)c(-c5c(F)cccc5F)c5nc(c(-c6c(F)cccc6F)c6ccc3[nH]6)C=C5)C=C4)cc2)C1
REMARK SMILES IDX 23 1 22 2 21 3 20 4 18 5 19 6 17 8 14 9 15 10 84 11 16 12
REMARK SMILES IDX 13 13 1 14 2 15 3 16 4 19 5 20 9 21 6 22 8 23 7 24 10 25
REMARK SMILES IDX 12 26 11 27 24 28 25 29 26 30 27 31 28 32 29 34 30 35 31 36
REMARK SMILES IDX 83 37 32 38 82 39 33 40 34 41 35 42 76 43 36 44 81 45 75 46
REMARK SMILES IDX 77 47 37 48 80 49 74 50 73 51 38 53 64 54 47 55 63 56 48 57
REMARK SMILES IDX 51 58 62 59 78 60 49 61 50 62 61 64 79 65 52 66 39 67 40 68
REMARK SMILES IDX 45 69 41 70 42 71 44 72 46 73 43 74 65 75 66 76 71 77 67 78
REMARK SMILES IDX 68 79 70 80 72 81 69 82 53 83 54 84 59 85 55 86 56 87 58 88
REMARK SMILES IDX 60 89 57 90
REMARK H PARENT 20 7 3 17 13 18 27 33 77 52 51 63
REMARK Flexibility Score: inf
ROOT
ATOM      1  C   UNL A   1      34.861  33.882  33.877  1.00  0.00     0.002 C 
ENDROOT
BRANCH   1   2
ATOM      2  C   UNL A   1      36.244  33.649  34.493  1.00  0.00     0.021 C 
BRANCH   2   3
ATOM      3  C   UNL A   1      36.933  32.371  34.022  1.00  0.00     0.116 C 
BRANCH   3   4
ATOM      4  N   UNL A   1      37.387  31.558  35.129  1.00  0.00    -0.356 N 
ATOM      5  C   UNL A   1      38.465  30.737  35.241  1.00  0.00     0.227 C 
ATOM      6  O   UNL A   1      38.650  30.200  36.339  1.00  0.00    -0.274 OA
ATOM      7  H   UNL A   1      36.822  31.607  35.935  1.00  0.00     0.163 HD
BRANCH   5   8
ATOM      8  C   UNL A   1      39.431  30.462  34.081  1.00  0.00     0.103 C 
ATOM      9  C   UNL A   1      41.232  28.800  33.720  1.00  0.00     0.107 C 
ATOM     10  C   UNL A   1      39.994  28.495  32.927  1.00  0.00    -0.006 C 
ATOM     11  C   UNL A   1      40.846  30.066  34.511  1.00  0.00     0.047 C 
ATOM     12  C   UNL A   1      39.009  29.374  33.145  1.00  0.00    -0.016 C 
BRANCH   9  13
ATOM     13  N   UNL A   1      41.534  27.626  34.512  1.00  0.00    -0.332 N 
ATOM     14  O   UNL A   1      41.190  28.514  36.595  1.00  0.00    -0.248 OA
ATOM     15  C   UNL A   1      41.543  27.585  35.877  1.00  0.00     0.319 C 
ATOM     16  N   UNL A   1      41.807  26.359  36.424  1.00  0.00    -0.308 N 
ATOM     17  H   UNL A   1      41.333  26.161  37.264  1.00  0.00     0.171 HD
ATOM     18  H   UNL A   1      41.750  26.795  34.030  1.00  0.00     0.165 HD
BRANCH  16  19
ATOM     19  C   UNL A   1      42.657  25.342  35.960  1.00  0.00     0.046 A 
ATOM     20  C   UNL A   1      42.151  24.203  35.299  1.00  0.00     0.030 A 
ATOM     21  C   UNL A   1      44.038  25.524  36.087  1.00  0.00     0.076 A 
ATOM     22  C   UNL A   1      43.016  23.230  34.788  1.00  0.00     0.053 A 
ATOM     23  C   UNL A   1      44.865  24.529  35.605  1.00  0.00     0.167 A 
ATOM     24  C   UNL A   1      44.369  23.417  34.971  1.00  0.00     0.165 A 
ATOM     25  O   UNL A   1      46.223  24.516  35.689  1.00  0.00    -0.454 OA
ATOM     26  O   UNL A   1      45.350  22.569  34.562  1.00  0.00    -0.454 OA
ATOM     27  C   UNL A   1      46.523  23.248  35.061  1.00  0.00     0.468 C 
ENDBRANCH  16  19
ENDBRANCH   9  13
ENDBRANCH   5   8
ENDBRANCH   3   4
ENDBRANCH   2   3
ENDBRANCH   1   2
BRANCH   1  28
ATOM     28  C   UNL A   1      34.680  35.235  33.179  1.00  0.00     0.002 C 
BRANCH  28  29
ATOM     29  C   UNL A   1      33.353  35.414  32.437  1.00  0.00     0.021 C 
BRANCH  29  30
ATOM     30  C   UNL A   1      33.465  36.133  31.097  1.00  0.00     0.116 C 
BRANCH  30  31
ATOM     31  N   UNL A   1      32.768  35.425  30.036  1.00  0.00    -0.352 N 
ATOM     32  C   UNL A   1      33.233  34.457  29.183  1.00  0.00     0.251 C 
ATOM     33  H   UNL A   1      31.825  35.676  29.911  1.00  0.00     0.163 HD
ATOM     34  O   UNL A   1      32.560  34.114  28.212  1.00  0.00    -0.269 OA
BRANCH  32  35
ATOM     35  C   UNL A   1      34.553  33.835  29.418  1.00  0.00     0.039 A 
ATOM     36  C   UNL A   1      35.659  34.311  28.710  1.00  0.00     0.014 A 
ATOM     37  C   UNL A   1      34.696  32.782  30.325  1.00  0.00     0.014 A 
ATOM     38  C   UNL A   1      36.921  33.767  28.955  1.00  0.00     0.010 A 
ATOM     39  C   UNL A   1      35.965  32.294  30.625  1.00  0.00     0.010 A 
ATOM     40  C   UNL A   1      37.089  32.778  29.937  1.00  0.00    -0.014 A 
BRANCH  40  41
ATOM     41  C   UNL A   1      38.432  32.236  30.260  1.00  0.00     0.031 A 
ATOM     42  C   UNL A   1      38.874  30.917  29.689  1.00  0.00     0.074 A 
ATOM     43  C   UNL A   1      39.233  32.906  31.111  1.00  0.00     0.049 A 
ATOM     44  N   UNL A   1      39.984  30.256  29.899  1.00  0.00    -0.248 NA
ATOM     45  C   UNL A   1      37.932  30.240  28.784  1.00  0.00     0.031 C 
ATOM     46  C   UNL A   1      38.905  34.178  31.758  1.00  0.00     0.029 A 
ATOM     47  N   UNL A   1      40.488  32.610  31.579  1.00  0.00    -0.354 N 
ATOM     48  C   UNL A   1      39.871  29.085  29.160  1.00  0.00     0.074 A 
ATOM     49  C   UNL A   1      38.561  29.098  28.546  1.00  0.00     0.031 C 
ATOM     50  C   UNL A   1      39.943  34.567  32.513  1.00  0.00     0.029 A 
ATOM     51  C   UNL A   1      40.993  33.555  32.438  1.00  0.00     0.049 A 
ATOM     52  H   UNL A   1      40.980  31.795  31.324  1.00  0.00     0.167 HD
ATOM     53  C   UNL A   1      40.784  28.100  28.988  1.00  0.00     0.037 A 
ATOM     54  C   UNL A   1      42.167  33.598  33.095  1.00  0.00     0.037 A 
ATOM     55  C   UNL A   1      42.093  28.097  29.589  1.00  0.00     0.049 A 
ATOM     56  C   UNL A   1      43.154  32.478  32.911  1.00  0.00     0.074 A 
ATOM     57  C   UNL A   1      43.108  27.167  29.441  1.00  0.00     0.029 A 
ATOM     58  N   UNL A   1      42.566  29.071  30.455  1.00  0.00    -0.354 N 
ATOM     59  N   UNL A   1      43.056  31.404  32.165  1.00  0.00    -0.248 NA
ATOM     60  C   UNL A   1      44.414  32.577  33.659  1.00  0.00     0.031 C 
ATOM     61  C   UNL A   1      44.175  27.552  30.260  1.00  0.00     0.029 A 
ATOM     62  C   UNL A   1      43.847  28.750  30.874  1.00  0.00     0.049 A 
ATOM     63  H   UNL A   1      42.065  29.871  30.733  1.00  0.00     0.167 HD
ATOM     64  C   UNL A   1      44.252  30.718  32.327  1.00  0.00     0.074 A 
ATOM     65  C   UNL A   1      45.064  31.502  33.234  1.00  0.00     0.031 C 
ATOM     66  C   UNL A   1      44.645  29.544  31.774  1.00  0.00     0.037 A 
BRANCH  53  67
ATOM     67  C   UNL A   1      40.395  26.940  28.116  1.00  0.00     0.057 A 
ATOM     68  C   UNL A   1      40.879  26.802  26.807  1.00  0.00     0.134 A 
ATOM     69  C   UNL A   1      39.544  25.936  28.596  1.00  0.00     0.134 A 
ATOM     70  F   UNL A   1      41.689  27.734  26.280  1.00  0.00    -0.206 F 
ATOM     71  C   UNL A   1      40.506  25.727  26.000  1.00  0.00     0.040 A 
ATOM     72  C   UNL A   1      39.189  24.840  27.808  1.00  0.00     0.040 A 
ATOM     73  F   UNL A   1      39.049  26.000  29.842  1.00  0.00    -0.206 F 
ATOM     74  C   UNL A   1      39.663  24.738  26.502  1.00  0.00     0.006 A 
ENDBRANCH  53  67
BRANCH  54  75
ATOM     75  C   UNL A   1      42.486  34.752  33.973  1.00  0.00     0.057 A 
ATOM     76  C   UNL A   1      42.226  34.707  35.347  1.00  0.00     0.134 A 
ATOM     77  C   UNL A   1      43.047  35.930  33.462  1.00  0.00     0.134 A 
ATOM     78  F   UNL A   1      41.672  33.614  35.892  1.00  0.00    -0.206 F 
ATOM     79  C   UNL A   1      42.489  35.796  36.179  1.00  0.00     0.040 A 
ATOM     80  C   UNL A   1      43.341  37.017  34.287  1.00  0.00     0.040 A 
ATOM     81  F   UNL A   1      43.329  36.033  32.154  1.00  0.00    -0.206 F 
ATOM     82  C   UNL A   1      43.053  36.954  35.648  1.00  0.00     0.006 A 
ENDBRANCH  54  75
BRANCH  66  83
ATOM     83  C   UNL A   1      46.025  29.055  32.107  1.00  0.00     0.057 A 
ATOM     84  C   UNL A   1      46.266  28.188  33.179  1.00  0.00     0.134 A 
ATOM     85  C   UNL A   1      47.121  29.431  31.320  1.00  0.00     0.134 A 
ATOM     86  F   UNL A   1      45.262  27.800  33.980  1.00  0.00    -0.206 F 
ATOM     87  C   UNL A   1      47.552  27.731  33.472  1.00  0.00     0.040 A 
ATOM     88  C   UNL A   1      48.407  28.958  31.585  1.00  0.00     0.040 A 
ATOM     89  F   UNL A   1      46.959  30.254  30.273  1.00  0.00    -0.206 F 
ATOM     90  C   UNL A   1      48.626  28.110  32.668  1.00  0.00     0.006 A 
ENDBRANCH  66  83
ENDBRANCH  40  41
ENDBRANCH  32  35
ENDBRANCH  30  31
ENDBRANCH  29  30
ENDBRANCH  28  29
ENDBRANCH   1  28
TORSDOF 15
ENDMDL
