MODEL 1
REMARK VINA RESULT:     -12.0      0.000      0.000
REMARK SMILES O=C1C[C@@H](C(=O)NCCCCCCNC(=O)c2ccc(-c3c4nc(c(-c5c(F)cccc5F)c5ccc([nH]5)c(-c5c(F)cccc5F)c5nc(c(-c6c(F)cccc6F)c6ccc3[nH]6)C=C5)C=C4)cc2)C2(CC[NH+](Cc3c[nH]nc3-c3ccc(Cl)cc3)CC2)N1
REMARK SMILES IDX 10 1 9 2 8 3 7 4 5 5 6 6 4 8 1 9 2 10 3 11 90 12 71 13 72 15
REMARK SMILES IDX 89 16 73 17 88 18 74 19 75 21 76 22 77 23 80 24 78 25 79 26
REMARK SMILES IDX 81 28 82 29 87 30 83 31 86 32 84 33 85 34 11 35 12 36 13 37
REMARK SMILES IDX 14 38 15 39 16 41 17 42 18 43 70 44 19 45 69 46 20 47 21 48
REMARK SMILES IDX 22 49 63 50 23 51 68 52 62 53 64 54 24 55 67 56 61 57 60 58
REMARK SMILES IDX 25 60 51 61 34 62 50 63 35 64 38 65 49 66 65 67 36 68 37 69
REMARK SMILES IDX 48 71 66 72 39 73 26 74 27 75 32 76 28 77 29 78 31 79 33 80
REMARK SMILES IDX 30 81 52 82 53 83 58 84 54 85 55 86 57 87 59 88 56 89 40 90
REMARK SMILES IDX 41 91 46 92 42 93 43 94 45 95 47 96 44 97
REMARK H PARENT 7 7 90 14 74 20 78 27 14 40 64 59 38 70
REMARK Flexibility Score: inf
ROOT
ATOM      1  C   UNL A   1      32.237  28.549  26.371  1.00  0.00     0.002 C 
ENDROOT
BRANCH   1   2
ATOM      2  C   UNL A   1      31.914  27.120  25.938  1.00  0.00     0.021 C 
BRANCH   2   3
ATOM      3  C   UNL A   1      33.125  26.183  25.908  1.00  0.00     0.116 C 
BRANCH   3   4
ATOM      4  N   UNL A   1      33.555  25.839  24.564  1.00  0.00    -0.356 N 
ATOM      5  C   UNL A   1      33.916  24.670  23.973  1.00  0.00     0.226 C 
ATOM      6  O   UNL A   1      34.269  24.742  22.791  1.00  0.00    -0.275 OA
ATOM      7  H   UNL A   1      33.588  26.611  23.954  1.00  0.00     0.163 HD
BRANCH   5   8
ATOM      8  C   UNL A   1      33.939  23.302  24.666  1.00  0.00     0.114 C 
ATOM      9  O   UNL A   1      32.225  23.094  27.796  1.00  0.00    -0.275 OA
ATOM     10  C   UNL A   1      32.993  23.094  26.854  1.00  0.00     0.221 C 
ATOM     11  C   UNL A   1      32.625  23.001  25.398  1.00  0.00     0.116 C 
ATOM     12  N   UNL A   1      34.361  23.216  26.951  1.00  0.00    -0.349 N 
ATOM     13  C   UNL A   1      35.062  23.015  25.689  1.00  0.00     0.063 C 
ATOM     14  H   UNL A   1      34.823  23.420  27.794  1.00  0.00     0.164 HD
ATOM     15  C   UNL A   1      36.265  23.964  25.570  1.00  0.00     0.091 C 
ATOM     16  C   UNL A   1      35.477  21.514  25.685  1.00  0.00     0.091 C 
ATOM     17  C   UNL A   1      37.382  23.455  24.676  1.00  0.00     0.264 C 
ATOM     18  C   UNL A   1      36.781  21.163  24.967  1.00  0.00     0.264 C 
ATOM     19  N   UNL A   1      37.844  22.145  25.075  1.00  0.00    -0.331 N 
ATOM     20  H   UNL A   1      38.530  21.840  24.386  1.00  0.00     0.348 HD
BRANCH  19  21
ATOM     21  C   UNL A   1      38.781  22.080  26.208  1.00  0.00     0.303 C 
BRANCH  21  22
ATOM     22  C   UNL A   1      39.741  20.928  26.210  1.00  0.00     0.052 A 
ATOM     23  C   UNL A   1      39.501  19.653  25.731  1.00  0.00     0.115 A 
ATOM     24  C   UNL A   1      41.141  20.896  26.558  1.00  0.00     0.101 A 
ATOM     25  N   UNL A   1      40.625  18.925  25.956  1.00  0.00    -0.285 N 
ATOM     26  N   UNL A   1      41.628  19.646  26.461  1.00  0.00    -0.175 NA
ATOM     27  H   UNL A   1      40.693  17.961  25.765  1.00  0.00     0.189 HD
BRANCH  24  28
ATOM     28  C   UNL A   1      42.055  21.979  26.924  1.00  0.00     0.003 A 
ATOM     29  C   UNL A   1      42.942  22.465  25.950  1.00  0.00     0.012 A 
ATOM     30  C   UNL A   1      42.111  22.522  28.210  1.00  0.00     0.012 A 
ATOM     31  C   UNL A   1      43.836  23.497  26.246  1.00  0.00     0.021 A 
ATOM     32  C   UNL A   1      43.001  23.563  28.509  1.00  0.00     0.021 A 
ATOM     33  C   UNL A   1      43.855  24.049  27.522  1.00  0.00     0.041 A 
ATOM     34  Cl  UNL A   1      44.943  25.329  27.888  1.00  0.00    -0.084 Cl
ENDBRANCH  24  28
ENDBRANCH  21  22
ENDBRANCH  19  21
ENDBRANCH   5   8
ENDBRANCH   3   4
ENDBRANCH   2   3
ENDBRANCH   1   2
BRANCH   1  35
ATOM     35  C   UNL A   1      31.766  29.622  25.389  1.00  0.00     0.002 C 
BRANCH  35  36
ATOM     36  C   UNL A   1      31.366  30.950  26.038  1.00  0.00     0.021 C 
BRANCH  36  37
ATOM     37  C   UNL A   1      32.434  31.552  26.941  1.00  0.00     0.116 C 
BRANCH  37  38
ATOM     38  N   UNL A   1      32.207  32.971  27.162  1.00  0.00    -0.352 N 
ATOM     39  C   UNL A   1      32.865  33.831  28.000  1.00  0.00     0.251 C 
ATOM     40  H   UNL A   1      31.476  33.368  26.636  1.00  0.00     0.163 HD
ATOM     41  O   UNL A   1      32.386  34.929  28.262  1.00  0.00    -0.269 OA
BRANCH  39  42
ATOM     42  C   UNL A   1      34.154  33.425  28.593  1.00  0.00     0.039 A 
ATOM     43  C   UNL A   1      34.153  32.739  29.808  1.00  0.00     0.014 A 
ATOM     44  C   UNL A   1      35.360  33.735  27.955  1.00  0.00     0.014 A 
ATOM     45  C   UNL A   1      35.364  32.327  30.366  1.00  0.00     0.010 A 
ATOM     46  C   UNL A   1      36.557  33.251  28.470  1.00  0.00     0.010 A 
ATOM     47  C   UNL A   1      36.573  32.557  29.688  1.00  0.00    -0.014 A 
BRANCH  47  48
ATOM     48  C   UNL A   1      37.862  32.082  30.248  1.00  0.00     0.031 A 
ATOM     49  C   UNL A   1      38.564  30.901  29.640  1.00  0.00     0.074 A 
ATOM     50  C   UNL A   1      38.370  32.681  31.342  1.00  0.00     0.049 A 
ATOM     51  N   UNL A   1      39.677  30.319  30.010  1.00  0.00    -0.248 NA
ATOM     52  C   UNL A   1      37.913  30.269  28.482  1.00  0.00     0.031 C 
ATOM     53  C   UNL A   1      37.748  33.796  32.060  1.00  0.00     0.029 A 
ATOM     54  N   UNL A   1      39.517  32.428  32.048  1.00  0.00    -0.354 N 
ATOM     55  C   UNL A   1      39.849  29.249  29.143  1.00  0.00     0.074 A 
ATOM     56  C   UNL A   1      38.698  29.224  28.268  1.00  0.00     0.031 C 
ATOM     57  C   UNL A   1      38.531  34.142  33.093  1.00  0.00     0.029 A 
ATOM     58  C   UNL A   1      39.686  33.251  33.134  1.00  0.00     0.049 A 
ATOM     59  H   UNL A   1      40.160  31.724  31.800  1.00  0.00     0.167 HD
ATOM     60  C   UNL A   1      40.883  28.377  29.070  1.00  0.00     0.037 A 
ATOM     61  C   UNL A   1      40.657  33.278  34.067  1.00  0.00     0.037 A 
ATOM     62  C   UNL A   1      42.032  28.418  29.937  1.00  0.00     0.049 A 
ATOM     63  C   UNL A   1      41.799  32.307  33.964  1.00  0.00     0.074 A 
ATOM     64  C   UNL A   1      43.170  27.631  29.897  1.00  0.00     0.029 A 
ATOM     65  N   UNL A   1      42.181  29.282  31.012  1.00  0.00    -0.354 N 
ATOM     66  N   UNL A   1      41.999  31.357  33.083  1.00  0.00    -0.248 NA
ATOM     67  C   UNL A   1      42.856  32.420  34.977  1.00  0.00     0.031 C 
ATOM     68  C   UNL A   1      43.977  27.976  30.987  1.00  0.00     0.029 A 
ATOM     69  C   UNL A   1      43.376  29.024  31.666  1.00  0.00     0.049 A 
ATOM     70  H   UNL A   1      41.534  29.978  31.271  1.00  0.00     0.167 HD
ATOM     71  C   UNL A   1      43.212  30.773  33.420  1.00  0.00     0.074 A 
ATOM     72  C   UNL A   1      43.711  31.488  34.577  1.00  0.00     0.031 C 
ATOM     73  C   UNL A   1      43.857  29.738  32.823  1.00  0.00     0.037 A 
BRANCH  60  74
ATOM     74  C   UNL A   1      40.804  27.298  28.025  1.00  0.00     0.057 A 
ATOM     75  C   UNL A   1      41.531  27.362  26.828  1.00  0.00     0.134 A 
ATOM     76  C   UNL A   1      39.992  26.174  28.224  1.00  0.00     0.134 A 
ATOM     77  F   UNL A   1      42.322  28.415  26.567  1.00  0.00    -0.206 F 
ATOM     78  C   UNL A   1      41.419  26.373  25.850  1.00  0.00     0.040 A 
ATOM     79  C   UNL A   1      39.900  25.160  27.268  1.00  0.00     0.040 A 
ATOM     80  F   UNL A   1      39.275  26.040  29.350  1.00  0.00    -0.206 F 
ATOM     81  C   UNL A   1      40.605  25.264  26.071  1.00  0.00     0.006 A 
ENDBRANCH  60  74
BRANCH  61  82
ATOM     82  C   UNL A   1      40.584  34.270  35.169  1.00  0.00     0.057 A 
ATOM     83  C   UNL A   1      41.105  35.561  35.022  1.00  0.00     0.134 A 
ATOM     84  C   UNL A   1      39.967  33.959  36.387  1.00  0.00     0.134 A 
ATOM     85  F   UNL A   1      41.722  35.914  33.885  1.00  0.00    -0.206 F 
ATOM     86  C   UNL A   1      41.025  36.502  36.049  1.00  0.00     0.040 A 
ATOM     87  C   UNL A   1      39.855  34.899  37.412  1.00  0.00     0.040 A 
ATOM     88  F   UNL A   1      39.439  32.742  36.587  1.00  0.00    -0.206 F 
ATOM     89  C   UNL A   1      40.391  36.174  37.245  1.00  0.00     0.006 A 
ENDBRANCH  61  82
BRANCH  73  90
ATOM     90  C   UNL A   1      45.185  29.333  33.396  1.00  0.00     0.057 A 
ATOM     91  C   UNL A   1      45.301  28.335  34.373  1.00  0.00     0.134 A 
ATOM     92  C   UNL A   1      46.369  29.927  32.937  1.00  0.00     0.134 A 
ATOM     93  F   UNL A   1      44.206  27.735  34.865  1.00  0.00    -0.206 F 
ATOM     94  C   UNL A   1      46.543  27.961  34.890  1.00  0.00     0.040 A 
ATOM     95  C   UNL A   1      47.617  29.538  33.423  1.00  0.00     0.040 A 
ATOM     96  F   UNL A   1      46.331  30.882  31.995  1.00  0.00    -0.206 F 
ATOM     97  C   UNL A   1      47.707  28.559  34.409  1.00  0.00     0.006 A 
ENDBRANCH  73  90
ENDBRANCH  47  48
ENDBRANCH  39  42
ENDBRANCH  37  38
ENDBRANCH  36  37
ENDBRANCH  35  36
ENDBRANCH   1  35
TORSDOF 16
ENDMDL
MODEL 2
REMARK VINA RESULT:     -12.0      1.384      5.827
REMARK SMILES O=C1C[C@@H](C(=O)NCCCCCCNC(=O)c2ccc(-c3c4nc(c(-c5c(F)cccc5F)c5ccc([nH]5)c(-c5c(F)cccc5F)c5nc(c(-c6c(F)cccc6F)c6ccc3[nH]6)C=C5)C=C4)cc2)C2(CC[NH+](Cc3c[nH]nc3-c3ccc(Cl)cc3)CC2)N1
REMARK SMILES IDX 10 1 9 2 8 3 7 4 5 5 6 6 4 8 1 9 2 10 3 11 90 12 71 13 72 15
REMARK SMILES IDX 89 16 73 17 88 18 74 19 75 21 76 22 77 23 80 24 78 25 79 26
REMARK SMILES IDX 81 28 82 29 87 30 83 31 86 32 84 33 85 34 11 35 12 36 13 37
REMARK SMILES IDX 14 38 15 39 16 41 17 42 18 43 70 44 19 45 69 46 20 47 21 48
REMARK SMILES IDX 22 49 63 50 23 51 68 52 62 53 64 54 24 55 67 56 61 57 60 58
REMARK SMILES IDX 25 60 51 61 34 62 50 63 35 64 38 65 49 66 65 67 36 68 37 69
REMARK SMILES IDX 48 71 66 72 39 73 26 74 27 75 32 76 28 77 29 78 31 79 33 80
REMARK SMILES IDX 30 81 52 82 53 83 58 84 54 85 55 86 57 87 59 88 56 89 40 90
REMARK SMILES IDX 41 91 46 92 42 93 43 94 45 95 47 96 44 97
REMARK H PARENT 7 7 90 14 74 20 78 27 14 40 64 59 38 70
REMARK Flexibility Score: inf
ROOT
ATOM      1  C   UNL A   1      31.840  28.023  26.323  1.00  0.00     0.002 C 
ENDROOT
BRANCH   1   2
ATOM      2  C   UNL A   1      31.655  26.518  26.137  1.00  0.00     0.021 C 
BRANCH   2   3
ATOM      3  C   UNL A   1      32.960  25.718  26.156  1.00  0.00     0.116 C 
BRANCH   3   4
ATOM      4  N   UNL A   1      33.502  25.467  24.833  1.00  0.00    -0.356 N 
ATOM      5  C   UNL A   1      34.055  24.374  24.245  1.00  0.00     0.226 C 
ATOM      6  O   UNL A   1      34.454  24.521  23.085  1.00  0.00    -0.275 OA
ATOM      7  H   UNL A   1      33.458  26.250  24.238  1.00  0.00     0.163 HD
BRANCH   5   8
ATOM      8  C   UNL A   1      34.234  23.007  24.917  1.00  0.00     0.114 C 
ATOM      9  O   UNL A   1      32.647  22.594  28.094  1.00  0.00    -0.275 OA
ATOM     10  C   UNL A   1      33.381  22.681  27.129  1.00  0.00     0.221 C 
ATOM     11  C   UNL A   1      32.980  22.568  25.684  1.00  0.00     0.116 C 
ATOM     12  N   UNL A   1      34.734  22.938  27.187  1.00  0.00    -0.349 N 
ATOM     13  C   UNL A   1      35.412  22.821  25.902  1.00  0.00     0.063 C 
ATOM     14  H   UNL A   1      35.199  23.178  28.019  1.00  0.00     0.164 HD
ATOM     15  C   UNL A   1      36.510  23.886  25.761  1.00  0.00     0.091 C 
ATOM     16  C   UNL A   1      35.972  21.369  25.864  1.00  0.00     0.091 C 
ATOM     17  C   UNL A   1      37.643  23.502  24.826  1.00  0.00     0.264 C 
ATOM     18  C   UNL A   1      37.282  21.158  25.102  1.00  0.00     0.264 C 
ATOM     19  N   UNL A   1      38.246  22.239  25.193  1.00  0.00    -0.331 N 
ATOM     20  H   UNL A   1      38.937  22.011  24.479  1.00  0.00     0.348 HD
BRANCH  19  21
ATOM     21  C   UNL A   1      39.219  22.255  26.296  1.00  0.00     0.303 C 
BRANCH  21  22
ATOM     22  C   UNL A   1      40.116  21.059  26.407  1.00  0.00     0.052 A 
ATOM     23  C   UNL A   1      39.832  19.773  25.984  1.00  0.00     0.115 A 
ATOM     24  C   UNL A   1      41.494  20.975  26.826  1.00  0.00     0.101 A 
ATOM     25  N   UNL A   1      40.904  19.003  26.303  1.00  0.00    -0.285 N 
ATOM     26  N   UNL A   1      41.919  19.699  26.820  1.00  0.00    -0.175 NA
ATOM     27  H   UNL A   1      40.930  18.028  26.167  1.00  0.00     0.189 HD
BRANCH  24  28
ATOM     28  C   UNL A   1      42.446  22.030  27.180  1.00  0.00     0.003 A 
ATOM     29  C   UNL A   1      43.495  22.311  26.292  1.00  0.00     0.012 A 
ATOM     30  C   UNL A   1      42.378  22.741  28.382  1.00  0.00     0.012 A 
ATOM     31  C   UNL A   1      44.432  23.307  26.580  1.00  0.00     0.021 A 
ATOM     32  C   UNL A   1      43.310  23.745  28.672  1.00  0.00     0.021 A 
ATOM     33  C   UNL A   1      44.329  24.028  27.766  1.00  0.00     0.041 A 
ATOM     34  Cl  UNL A   1      45.471  25.264  28.120  1.00  0.00    -0.084 Cl
ENDBRANCH  24  28
ENDBRANCH  21  22
ENDBRANCH  19  21
ENDBRANCH   5   8
ENDBRANCH   3   4
ENDBRANCH   2   3
ENDBRANCH   1   2
BRANCH   1  35
ATOM     35  C   UNL A   1      31.469  28.855  25.095  1.00  0.00     0.002 C 
BRANCH  35  36
ATOM     36  C   UNL A   1      31.361  30.361  25.352  1.00  0.00     0.021 C 
BRANCH  36  37
ATOM     37  C   UNL A   1      31.975  30.815  26.670  1.00  0.00     0.116 C 
BRANCH  37  38
ATOM     38  N   UNL A   1      32.013  32.265  26.768  1.00  0.00    -0.352 N 
ATOM     39  C   UNL A   1      32.844  33.059  27.513  1.00  0.00     0.251 C 
ATOM     40  H   UNL A   1      31.348  32.743  26.222  1.00  0.00     0.163 HD
ATOM     41  O   UNL A   1      32.578  34.244  27.685  1.00  0.00    -0.269 OA
BRANCH  39  42
ATOM     42  C   UNL A   1      34.059  32.478  28.116  1.00  0.00     0.039 A 
ATOM     43  C   UNL A   1      35.145  33.312  28.385  1.00  0.00     0.014 A 
ATOM     44  C   UNL A   1      34.128  31.110  28.400  1.00  0.00     0.014 A 
ATOM     45  C   UNL A   1      36.290  32.779  28.978  1.00  0.00     0.010 A 
ATOM     46  C   UNL A   1      35.235  30.599  29.067  1.00  0.00     0.010 A 
ATOM     47  C   UNL A   1      36.333  31.424  29.347  1.00  0.00    -0.014 A 
BRANCH  47  48
ATOM     48  C   UNL A   1      37.527  30.857  30.021  1.00  0.00     0.031 A 
ATOM     49  C   UNL A   1      37.818  31.193  31.457  1.00  0.00     0.074 A 
ATOM     50  C   UNL A   1      38.379  30.084  29.321  1.00  0.00     0.049 A 
ATOM     51  N   UNL A   1      38.828  30.824  32.204  1.00  0.00    -0.248 NA
ATOM     52  C   UNL A   1      36.868  32.089  32.133  1.00  0.00     0.031 C 
ATOM     53  C   UNL A   1      38.237  29.739  27.905  1.00  0.00     0.029 A 
ATOM     54  N   UNL A   1      39.540  29.461  29.701  1.00  0.00    -0.354 N 
ATOM     55  C   UNL A   1      38.641  31.453  33.428  1.00  0.00     0.074 A 
ATOM     56  C   UNL A   1      37.457  32.274  33.304  1.00  0.00     0.031 C 
ATOM     57  C   UNL A   1      39.260  28.952  27.542  1.00  0.00     0.029 A 
ATOM     58  C   UNL A   1      40.150  28.769  28.685  1.00  0.00     0.049 A 
ATOM     59  H   UNL A   1      39.901  29.505  30.616  1.00  0.00     0.167 HD
ATOM     60  C   UNL A   1      39.378  31.341  34.558  1.00  0.00     0.037 A 
ATOM     61  C   UNL A   1      41.303  28.075  28.670  1.00  0.00     0.037 A 
ATOM     62  C   UNL A   1      40.549  30.511  34.676  1.00  0.00     0.049 A 
ATOM     63  C   UNL A   1      42.103  27.956  29.936  1.00  0.00     0.074 A 
ATOM     64  C   UNL A   1      41.322  30.265  35.797  1.00  0.00     0.029 A 
ATOM     65  N   UNL A   1      41.124  29.803  33.630  1.00  0.00    -0.354 N 
ATOM     66  N   UNL A   1      41.867  28.480  31.115  1.00  0.00    -0.248 NA
ATOM     67  C   UNL A   1      43.322  27.141  29.875  1.00  0.00     0.031 C 
ATOM     68  C   UNL A   1      42.403  29.462  35.415  1.00  0.00     0.029 A 
ATOM     69  C   UNL A   1      42.265  29.150  34.071  1.00  0.00     0.049 A 
ATOM     70  H   UNL A   1      40.774  29.768  32.711  1.00  0.00     0.167 HD
ATOM     71  C   UNL A   1      42.893  28.042  31.941  1.00  0.00     0.074 A 
ATOM     72  C   UNL A   1      43.744  27.195  31.131  1.00  0.00     0.031 C 
ATOM     73  C   UNL A   1      43.110  28.315  33.252  1.00  0.00     0.037 A 
BRANCH  60  74
ATOM     74  C   UNL A   1      38.945  32.152  35.748  1.00  0.00     0.057 A 
ATOM     75  C   UNL A   1      39.316  33.493  35.915  1.00  0.00     0.134 A 
ATOM     76  C   UNL A   1      38.139  31.581  36.742  1.00  0.00     0.134 A 
ATOM     77  F   UNL A   1      40.095  34.102  35.006  1.00  0.00    -0.206 F 
ATOM     78  C   UNL A   1      38.940  34.223  37.043  1.00  0.00     0.040 A 
ATOM     79  C   UNL A   1      37.727  32.312  37.859  1.00  0.00     0.040 A 
ATOM     80  F   UNL A   1      37.738  30.304  36.647  1.00  0.00    -0.206 F 
ATOM     81  C   UNL A   1      38.138  33.633  38.018  1.00  0.00     0.006 A 
ENDBRANCH  60  74
BRANCH  61  82
ATOM     82  C   UNL A   1      41.754  27.433  27.410  1.00  0.00     0.057 A 
ATOM     83  C   UNL A   1      42.752  28.009  26.615  1.00  0.00     0.134 A 
ATOM     84  C   UNL A   1      41.216  26.212  26.984  1.00  0.00     0.134 A 
ATOM     85  F   UNL A   1      43.295  29.186  26.961  1.00  0.00    -0.206 F 
ATOM     86  C   UNL A   1      43.190  27.401  25.438  1.00  0.00     0.040 A 
ATOM     87  C   UNL A   1      41.664  25.579  25.824  1.00  0.00     0.040 A 
ATOM     88  F   UNL A   1      40.264  25.604  27.706  1.00  0.00    -0.206 F 
ATOM     89  C   UNL A   1      42.651  26.178  25.044  1.00  0.00     0.006 A 
ENDBRANCH  61  82
BRANCH  73  90
ATOM     90  C   UNL A   1      44.302  27.672  33.901  1.00  0.00     0.057 A 
ATOM     91  C   UNL A   1      44.244  26.385  34.453  1.00  0.00     0.134 A 
ATOM     92  C   UNL A   1      45.535  28.336  33.941  1.00  0.00     0.134 A 
ATOM     93  F   UNL A   1      43.091  25.699  34.459  1.00  0.00    -0.206 F 
ATOM     94  C   UNL A   1      45.362  25.794  35.045  1.00  0.00     0.040 A 
ATOM     95  C   UNL A   1      46.667  27.743  34.501  1.00  0.00     0.040 A 
ATOM     96  F   UNL A   1      45.664  29.567  33.422  1.00  0.00    -0.206 F 
ATOM     97  C   UNL A   1      46.581  26.472  35.063  1.00  0.00     0.006 A 
ENDBRANCH  73  90
ENDBRANCH  47  48
ENDBRANCH  39  42
ENDBRANCH  37  38
ENDBRANCH  36  37
ENDBRANCH  35  36
ENDBRANCH   1  35
TORSDOF 16
ENDMDL
MODEL 3
REMARK VINA RESULT:     -11.8      2.423      6.849
REMARK SMILES O=C1C[C@@H](C(=O)NCCCCCCNC(=O)c2ccc(-c3c4nc(c(-c5c(F)cccc5F)c5ccc([nH]5)c(-c5c(F)cccc5F)c5nc(c(-c6c(F)cccc6F)c6ccc3[nH]6)C=C5)C=C4)cc2)C2(CC[NH+](Cc3c[nH]nc3-c3ccc(Cl)cc3)CC2)N1
REMARK SMILES IDX 10 1 9 2 8 3 7 4 5 5 6 6 4 8 1 9 2 10 3 11 90 12 71 13 72 15
REMARK SMILES IDX 89 16 73 17 88 18 74 19 75 21 76 22 77 23 80 24 78 25 79 26
REMARK SMILES IDX 81 28 82 29 87 30 83 31 86 32 84 33 85 34 11 35 12 36 13 37
REMARK SMILES IDX 14 38 15 39 16 41 17 42 18 43 70 44 19 45 69 46 20 47 21 48
REMARK SMILES IDX 22 49 63 50 23 51 68 52 62 53 64 54 24 55 67 56 61 57 60 58
REMARK SMILES IDX 25 60 51 61 34 62 50 63 35 64 38 65 49 66 65 67 36 68 37 69
REMARK SMILES IDX 48 71 66 72 39 73 26 74 27 75 32 76 28 77 29 78 31 79 33 80
REMARK SMILES IDX 30 81 52 82 53 83 58 84 54 85 55 86 57 87 59 88 56 89 40 90
REMARK SMILES IDX 41 91 46 92 42 93 43 94 45 95 47 96 44 97
REMARK H PARENT 7 7 90 14 74 20 78 27 14 40 64 59 38 70
REMARK Flexibility Score: inf
ROOT
ATOM      1  C   UNL A   1      33.872  30.806  26.973  1.00  0.00     0.002 C 
ENDROOT
BRANCH   1   2
ATOM      2  C   UNL A   1      34.534  29.528  27.485  1.00  0.00     0.021 C 
BRANCH   2   3
ATOM      3  C   UNL A   1      34.485  28.357  26.500  1.00  0.00     0.116 C 
BRANCH   3   4
ATOM      4  N   UNL A   1      34.403  28.774  25.112  1.00  0.00    -0.356 N 
ATOM      5  C   UNL A   1      33.487  28.566  24.130  1.00  0.00     0.226 C 
ATOM      6  O   UNL A   1      33.755  29.048  23.023  1.00  0.00    -0.275 OA
ATOM      7  H   UNL A   1      35.168  29.322  24.823  1.00  0.00     0.163 HD
BRANCH   5   8
ATOM      8  C   UNL A   1      32.187  27.771  24.292  1.00  0.00     0.114 C 
ATOM      9  O   UNL A   1      30.945  27.444  27.628  1.00  0.00    -0.275 OA
ATOM     10  C   UNL A   1      31.367  27.323  26.494  1.00  0.00     0.221 C 
ATOM     11  C   UNL A   1      31.288  28.346  25.394  1.00  0.00     0.116 C 
ATOM     12  N   UNL A   1      32.036  26.218  26.015  1.00  0.00    -0.349 N 
ATOM     13  C   UNL A   1      32.282  26.254  24.579  1.00  0.00     0.063 C 
ATOM     14  H   UNL A   1      32.320  25.472  26.589  1.00  0.00     0.164 HD
ATOM     15  C   UNL A   1      33.652  25.646  24.241  1.00  0.00     0.091 C 
ATOM     16  C   UNL A   1      31.100  25.469  23.939  1.00  0.00     0.091 C 
ATOM     17  C   UNL A   1      33.755  25.067  22.841  1.00  0.00     0.264 C 
ATOM     18  C   UNL A   1      31.403  24.696  22.655  1.00  0.00     0.264 C 
ATOM     19  N   UNL A   1      32.721  24.091  22.580  1.00  0.00    -0.331 N 
ATOM     20  H   UNL A   1      32.805  23.810  21.603  1.00  0.00     0.348 HD
BRANCH  19  21
ATOM     21  C   UNL A   1      32.927  22.734  23.110  1.00  0.00     0.303 C 
BRANCH  21  22
ATOM     22  C   UNL A   1      32.649  22.542  24.570  1.00  0.00     0.052 A 
ATOM     23  C   UNL A   1      31.412  22.332  25.153  1.00  0.00     0.115 A 
ATOM     24  C   UNL A   1      33.568  22.385  25.671  1.00  0.00     0.101 A 
ATOM     25  N   UNL A   1      31.614  22.240  26.493  1.00  0.00    -0.285 N 
ATOM     26  N   UNL A   1      32.904  22.277  26.836  1.00  0.00    -0.175 NA
ATOM     27  H   UNL A   1      30.882  22.154  27.146  1.00  0.00     0.189 HD
BRANCH  24  28
ATOM     28  C   UNL A   1      35.028  22.279  25.684  1.00  0.00     0.003 A 
ATOM     29  C   UNL A   1      35.777  23.392  26.096  1.00  0.00     0.012 A 
ATOM     30  C   UNL A   1      35.708  21.132  25.265  1.00  0.00     0.012 A 
ATOM     31  C   UNL A   1      37.174  23.346  26.126  1.00  0.00     0.021 A 
ATOM     32  C   UNL A   1      37.108  21.079  25.301  1.00  0.00     0.021 A 
ATOM     33  C   UNL A   1      37.833  22.184  25.738  1.00  0.00     0.041 A 
ATOM     34  Cl  UNL A   1      39.551  22.116  25.786  1.00  0.00    -0.084 Cl
ENDBRANCH  24  28
ENDBRANCH  21  22
ENDBRANCH  19  21
ENDBRANCH   5   8
ENDBRANCH   3   4
ENDBRANCH   2   3
ENDBRANCH   1   2
BRANCH   1  35
ATOM     35  C   UNL A   1      32.373  30.893  27.260  1.00  0.00     0.002 C 
BRANCH  35  36
ATOM     36  C   UNL A   1      31.779  32.299  27.131  1.00  0.00     0.021 C 
BRANCH  36  37
ATOM     37  C   UNL A   1      32.809  33.392  26.876  1.00  0.00     0.116 C 
BRANCH  37  38
ATOM     38  N   UNL A   1      32.596  34.537  27.746  1.00  0.00    -0.352 N 
ATOM     39  C   UNL A   1      33.124  34.792  28.983  1.00  0.00     0.251 C 
ATOM     40  H   UNL A   1      31.985  35.225  27.396  1.00  0.00     0.163 HD
ATOM     41  O   UNL A   1      32.644  35.670  29.692  1.00  0.00    -0.269 OA
BRANCH  39  42
ATOM     42  C   UNL A   1      34.271  33.997  29.462  1.00  0.00     0.039 A 
ATOM     43  C   UNL A   1      35.564  34.422  29.151  1.00  0.00     0.014 A 
ATOM     44  C   UNL A   1      34.068  32.829  30.204  1.00  0.00     0.014 A 
ATOM     45  C   UNL A   1      36.658  33.693  29.620  1.00  0.00     0.010 A 
ATOM     46  C   UNL A   1      35.158  32.154  30.740  1.00  0.00     0.010 A 
ATOM     47  C   UNL A   1      36.463  32.569  30.440  1.00  0.00    -0.014 A 
BRANCH  47  48
ATOM     48  C   UNL A   1      37.619  31.814  30.982  1.00  0.00     0.031 A 
ATOM     49  C   UNL A   1      38.153  32.126  32.352  1.00  0.00     0.074 A 
ATOM     50  C   UNL A   1      38.224  30.886  30.217  1.00  0.00     0.049 A 
ATOM     51  N   UNL A   1      39.173  31.601  32.982  1.00  0.00    -0.248 NA
ATOM     52  C   UNL A   1      37.470  33.193  33.101  1.00  0.00     0.031 C 
ATOM     53  C   UNL A   1      37.837  30.539  28.847  1.00  0.00     0.029 A 
ATOM     54  N   UNL A   1      39.299  30.076  30.475  1.00  0.00    -0.354 N 
ATOM     55  C   UNL A   1      39.262  32.282  34.189  1.00  0.00     0.074 A 
ATOM     56  C   UNL A   1      38.233  33.298  34.178  1.00  0.00     0.031 C 
ATOM     57  C   UNL A   1      38.651  29.574  28.395  1.00  0.00     0.029 A 
ATOM     58  C   UNL A   1      39.639  29.262  29.423  1.00  0.00     0.049 A 
ATOM     59  H   UNL A   1      39.781  30.076  31.334  1.00  0.00     0.167 HD
ATOM     60  C   UNL A   1      40.113  32.067  35.221  1.00  0.00     0.037 A 
ATOM     61  C   UNL A   1      40.642  28.373  29.294  1.00  0.00     0.037 A 
ATOM     62  C   UNL A   1      41.127  31.044  35.228  1.00  0.00     0.049 A 
ATOM     63  C   UNL A   1      41.570  28.144  30.453  1.00  0.00     0.074 A 
ATOM     64  C   UNL A   1      41.987  30.691  36.252  1.00  0.00     0.029 A 
ATOM     65  N   UNL A   1      41.426  30.221  34.152  1.00  0.00    -0.354 N 
ATOM     66  N   UNL A   1      41.587  28.729  31.627  1.00  0.00    -0.248 NA
ATOM     67  C   UNL A   1      42.611  27.123  30.276  1.00  0.00     0.031 C 
ATOM     68  C   UNL A   1      42.852  29.700  35.774  1.00  0.00     0.029 A 
ATOM     69  C   UNL A   1      42.485  29.386  34.475  1.00  0.00     0.049 A 
ATOM     70  H   UNL A   1      40.956  30.228  33.287  1.00  0.00     0.167 HD
ATOM     71  C   UNL A   1      42.622  28.134  32.336  1.00  0.00     0.074 A 
ATOM     72  C   UNL A   1      43.199  27.130  31.465  1.00  0.00     0.031 C 
ATOM     73  C   UNL A   1      43.055  28.395  33.595  1.00  0.00     0.037 A 
BRANCH  60  74
ATOM     74  C   UNL A   1      39.989  32.969  36.418  1.00  0.00     0.057 A 
ATOM     75  C   UNL A   1      40.798  34.101  36.588  1.00  0.00     0.134 A 
ATOM     76  C   UNL A   1      39.040  32.703  37.414  1.00  0.00     0.134 A 
ATOM     77  F   UNL A   1      41.734  34.411  35.677  1.00  0.00    -0.206 F 
ATOM     78  C   UNL A   1      40.699  34.909  37.722  1.00  0.00     0.040 A 
ATOM     79  C   UNL A   1      38.908  33.524  38.536  1.00  0.00     0.040 A 
ATOM     80  F   UNL A   1      38.225  31.642  37.315  1.00  0.00    -0.206 F 
ATOM     81  C   UNL A   1      39.748  34.623  38.698  1.00  0.00     0.006 A 
ENDBRANCH  60  74
BRANCH  61  82
ATOM     82  C   UNL A   1      40.803  27.632  28.019  1.00  0.00     0.057 A 
ATOM     83  C   UNL A   1      41.569  28.149  26.967  1.00  0.00     0.134 A 
ATOM     84  C   UNL A   1      40.216  26.375  27.830  1.00  0.00     0.134 A 
ATOM     85  F   UNL A   1      42.144  29.356  27.081  1.00  0.00    -0.206 F 
ATOM     86  C   UNL A   1      41.737  27.448  25.772  1.00  0.00     0.040 A 
ATOM     87  C   UNL A   1      40.399  25.651  26.652  1.00  0.00     0.040 A 
ATOM     88  F   UNL A   1      39.479  25.820  28.803  1.00  0.00    -0.206 F 
ATOM     89  C   UNL A   1      41.157  26.192  25.615  1.00  0.00     0.006 A 
ENDBRANCH  61  82
BRANCH  73  90
ATOM     90  C   UNL A   1      44.193  27.565  34.117  1.00  0.00     0.057 A 
ATOM     91  C   UNL A   1      43.987  26.322  34.730  1.00  0.00     0.134 A 
ATOM     92  C   UNL A   1      45.517  28.000  33.971  1.00  0.00     0.134 A 
ATOM     93  F   UNL A   1      42.744  25.852  34.913  1.00  0.00    -0.206 F 
ATOM     94  C   UNL A   1      45.054  25.556  35.203  1.00  0.00     0.040 A 
ATOM     95  C   UNL A   1      46.593  27.228  34.410  1.00  0.00     0.040 A 
ATOM     96  F   UNL A   1      45.787  29.176  33.383  1.00  0.00    -0.206 F 
ATOM     97  C   UNL A   1      46.363  26.006  35.036  1.00  0.00     0.006 A 
ENDBRANCH  73  90
ENDBRANCH  47  48
ENDBRANCH  39  42
ENDBRANCH  37  38
ENDBRANCH  36  37
ENDBRANCH  35  36
ENDBRANCH   1  35
TORSDOF 16
ENDMDL
