MODEL 1
REMARK VINA RESULT:     -12.0      0.000      0.000
REMARK SMILES O=C(NCCCCCCNC(=O)[C@@H](c1ccccc1)N1C(=O)/C(=C\c2ccc(-c3ccc(F)cc3)o2)SC1=S)c1ccc(-c2c3nc(c(-c4c(F)cccc4F)c4ccc([nH]4)c(-c4c(F)cccc4F)c4nc(c(-c5c(F)cccc5F)c5ccc2[nH]5)C=C4)C=C3)cc1
REMARK SMILES IDX 7 1 6 2 5 3 4 4 3 5 1 6 2 7 40 9 41 10 93 11 42 12 92 13
REMARK SMILES IDX 43 14 44 15 45 16 86 17 46 18 91 19 85 20 87 21 47 22 90 23
REMARK SMILES IDX 84 24 83 25 48 27 74 28 57 29 73 30 58 31 61 32 72 33 88 34
REMARK SMILES IDX 59 35 60 36 71 38 89 39 62 40 49 41 50 42 55 43 51 44 52 45
REMARK SMILES IDX 54 46 56 47 53 48 75 49 76 50 81 51 77 52 78 53 80 54 82 55
REMARK SMILES IDX 79 56 63 57 64 58 69 59 65 60 66 61 68 62 70 63 67 64 8 65
REMARK SMILES IDX 9 66 10 67 11 68 12 70 13 71 14 72 15 73 19 74 16 75 18 76
REMARK SMILES IDX 17 77 20 78 21 79 38 80 22 81 23 82 37 83 39 84 24 85 25 86
REMARK SMILES IDX 26 87 36 88 27 89 28 90 29 91 30 92 35 93 31 94 34 95 32 96
REMARK SMILES IDX 33 97
REMARK H PARENT 3 8 87 26 61 37 10 69
REMARK Flexibility Score: inf
ROOT
ATOM      1  C   UNL A   1      33.561  23.604  22.950  1.00  0.00     0.002 C 
ENDROOT
BRANCH   1   2
ATOM      2  C   UNL A   1      35.016  23.238  23.251  1.00  0.00     0.002 C 
BRANCH   2   3
ATOM      3  C   UNL A   1      35.405  23.207  24.729  1.00  0.00     0.021 C 
BRANCH   3   4
ATOM      4  C   UNL A   1      36.801  23.723  25.045  1.00  0.00     0.116 C 
BRANCH   4   5
ATOM      5  N   UNL A   1      37.705  22.673  25.482  1.00  0.00    -0.352 N 
ATOM      6  O   UNL A   1      39.602  21.786  26.325  1.00  0.00    -0.269 OA
ATOM      7  C   UNL A   1      38.889  22.771  26.170  1.00  0.00     0.251 C 
ATOM      8  H   UNL A   1      37.428  21.756  25.251  1.00  0.00     0.163 HD
BRANCH   7   9
ATOM      9  C   UNL A   1      39.316  24.084  26.701  1.00  0.00     0.039 A 
ATOM     10  C   UNL A   1      40.004  24.987  25.888  1.00  0.00     0.014 A 
ATOM     11  C   UNL A   1      39.035  24.409  28.029  1.00  0.00     0.014 A 
ATOM     12  C   UNL A   1      40.549  26.135  26.444  1.00  0.00     0.010 A 
ATOM     13  C   UNL A   1      39.497  25.616  28.560  1.00  0.00     0.010 A 
ATOM     14  C   UNL A   1      40.288  26.473  27.782  1.00  0.00    -0.014 A 
BRANCH  14  15
ATOM     15  C   UNL A   1      40.803  27.761  28.314  1.00  0.00     0.031 A 
ATOM     16  C   UNL A   1      42.270  28.084  28.300  1.00  0.00     0.074 A 
ATOM     17  C   UNL A   1      39.916  28.659  28.785  1.00  0.00     0.049 A 
ATOM     18  N   UNL A   1      42.876  29.177  28.691  1.00  0.00    -0.248 NA
ATOM     19  C   UNL A   1      43.179  27.047  27.789  1.00  0.00     0.031 C 
ATOM     20  C   UNL A   1      38.467  28.454  28.859  1.00  0.00     0.029 A 
ATOM     21  N   UNL A   1      40.094  29.930  29.268  1.00  0.00    -0.354 N 
ATOM     22  C   UNL A   1      44.233  28.955  28.496  1.00  0.00     0.074 A 
ATOM     23  C   UNL A   1      44.365  27.610  27.975  1.00  0.00     0.031 C 
ATOM     24  C   UNL A   1      37.884  29.577  29.298  1.00  0.00     0.029 A 
ATOM     25  C   UNL A   1      38.919  30.555  29.608  1.00  0.00     0.049 A 
ATOM     26  H   UNL A   1      40.978  30.354  29.361  1.00  0.00     0.167 HD
ATOM     27  C   UNL A   1      45.270  29.798  28.722  1.00  0.00     0.037 A 
ATOM     28  C   UNL A   1      38.697  31.774  30.128  1.00  0.00     0.037 A 
ATOM     29  C   UNL A   1      45.128  31.137  29.235  1.00  0.00     0.049 A 
ATOM     30  C   UNL A   1      39.868  32.670  30.406  1.00  0.00     0.074 A 
ATOM     31  C   UNL A   1      46.113  32.083  29.463  1.00  0.00     0.029 A 
ATOM     32  N   UNL A   1      43.925  31.718  29.613  1.00  0.00    -0.354 N 
ATOM     33  N   UNL A   1      41.141  32.463  30.173  1.00  0.00    -0.248 NA
ATOM     34  C   UNL A   1      39.572  33.968  31.025  1.00  0.00     0.031 C 
ATOM     35  C   UNL A   1      45.515  33.213  30.032  1.00  0.00     0.029 A 
ATOM     36  C   UNL A   1      44.147  32.998  30.100  1.00  0.00     0.049 A 
ATOM     37  H   UNL A   1      43.044  31.286  29.546  1.00  0.00     0.167 HD
ATOM     38  C   UNL A   1      41.796  33.613  30.591  1.00  0.00     0.074 A 
ATOM     39  C   UNL A   1      40.774  34.520  31.074  1.00  0.00     0.031 C 
ATOM     40  C   UNL A   1      43.121  33.892  30.576  1.00  0.00     0.037 A 
BRANCH  27  41
ATOM     41  C   UNL A   1      46.657  29.286  28.445  1.00  0.00     0.057 A 
ATOM     42  C   UNL A   1      47.265  29.424  27.189  1.00  0.00     0.134 A 
ATOM     43  C   UNL A   1      47.408  28.677  29.459  1.00  0.00     0.134 A 
ATOM     44  F   UNL A   1      46.601  29.989  26.170  1.00  0.00    -0.206 F 
ATOM     45  C   UNL A   1      48.557  28.949  26.946  1.00  0.00     0.040 A 
ATOM     46  C   UNL A   1      48.710  28.224  29.235  1.00  0.00     0.040 A 
ATOM     47  F   UNL A   1      46.893  28.520  30.687  1.00  0.00    -0.206 F 
ATOM     48  C   UNL A   1      49.286  28.353  27.974  1.00  0.00     0.006 A 
ENDBRANCH  27  41
BRANCH  28  49
ATOM     49  C   UNL A   1      37.310  32.216  30.417  1.00  0.00     0.057 A 
ATOM     50  C   UNL A   1      36.666  31.844  31.602  1.00  0.00     0.134 A 
ATOM     51  C   UNL A   1      36.597  33.021  29.520  1.00  0.00     0.134 A 
ATOM     52  F   UNL A   1      37.292  31.062  32.494  1.00  0.00    -0.206 F 
ATOM     53  C   UNL A   1      35.357  32.241  31.878  1.00  0.00     0.040 A 
ATOM     54  C   UNL A   1      35.299  33.451  29.796  1.00  0.00     0.040 A 
ATOM     55  F   UNL A   1      37.162  33.420  28.371  1.00  0.00    -0.206 F 
ATOM     56  C   UNL A   1      34.672  33.053  30.975  1.00  0.00     0.006 A 
ENDBRANCH  28  49
BRANCH  40  57
ATOM     57  C   UNL A   1      43.535  35.253  31.058  1.00  0.00     0.057 A 
ATOM     58  C   UNL A   1      43.629  36.351  30.194  1.00  0.00     0.134 A 
ATOM     59  C   UNL A   1      43.835  35.467  32.410  1.00  0.00     0.134 A 
ATOM     60  F   UNL A   1      43.371  36.212  28.885  1.00  0.00    -0.206 F 
ATOM     61  C   UNL A   1      44.036  37.607  30.651  1.00  0.00     0.040 A 
ATOM     62  C   UNL A   1      44.212  36.723  32.885  1.00  0.00     0.040 A 
ATOM     63  F   UNL A   1      43.759  34.459  33.293  1.00  0.00    -0.206 F 
ATOM     64  C   UNL A   1      44.323  37.795  32.002  1.00  0.00     0.006 A 
ENDBRANCH  40  57
ENDBRANCH  14  15
ENDBRANCH   7   9
ENDBRANCH   4   5
ENDBRANCH   3   4
ENDBRANCH   2   3
ENDBRANCH   1   2
BRANCH   1  65
ATOM     65  C   UNL A   1      33.331  25.015  22.426  1.00  0.00     0.021 C 
BRANCH  65  66
ATOM     66  C   UNL A   1      34.435  26.013  22.725  1.00  0.00     0.116 C 
BRANCH  66  67
ATOM     67  N   UNL A   1      34.034  27.397  22.650  1.00  0.00    -0.354 N 
ATOM     68  C   UNL A   1      33.477  28.175  23.627  1.00  0.00     0.247 C 
ATOM     69  H   UNL A   1      34.182  27.839  21.782  1.00  0.00     0.163 HD
ATOM     70  O   UNL A   1      33.076  29.292  23.282  1.00  0.00    -0.272 OA
BRANCH  68  71
ATOM     71  C   UNL A   1      33.303  27.684  25.107  1.00  0.00     0.211 C 
BRANCH  71  72
ATOM     72  C   UNL A   1      33.460  28.838  26.120  1.00  0.00    -0.016 A 
ATOM     73  C   UNL A   1      32.426  29.734  26.432  1.00  0.00     0.006 A 
ATOM     74  C   UNL A   1      34.709  29.059  26.740  1.00  0.00     0.006 A 
ATOM     75  C   UNL A   1      32.694  30.926  27.114  1.00  0.00     0.000 A 
ATOM     76  C   UNL A   1      34.968  30.233  27.450  1.00  0.00     0.000 A 
ATOM     77  C   UNL A   1      33.972  31.190  27.594  1.00  0.00     0.000 A 
ENDBRANCH  71  72
BRANCH  71  78
ATOM     78  N   UNL A   1      32.101  26.786  25.181  1.00  0.00    -0.276 N 
ATOM     79  C   UNL A   1      32.134  25.523  25.731  1.00  0.00     0.267 C 
ATOM     80  C   UNL A   1      30.834  27.211  24.809  1.00  0.00     0.149 C 
ATOM     81  O   UNL A   1      33.091  24.989  26.276  1.00  0.00    -0.268 OA
ATOM     82  C   UNL A   1      30.833  24.819  25.616  1.00  0.00     0.084 C 
ATOM     83  S   UNL A   1      29.644  25.934  25.083  1.00  0.00    -0.054 SA
ATOM     84  S   UNL A   1      30.354  28.685  24.189  1.00  0.00    -0.052 S 
ATOM     85  C   UNL A   1      30.604  23.511  25.820  1.00  0.00     0.068 C 
BRANCH  85  86
ATOM     86  C   UNL A   1      31.633  22.588  26.162  1.00  0.00     0.128 A 
ATOM     87  C   UNL A   1      32.522  22.593  27.232  1.00  0.00     0.051 A 
ATOM     88  O   UNL A   1      31.919  21.477  25.396  1.00  0.00    -0.457 OA
ATOM     89  C   UNL A   1      33.420  21.519  27.061  1.00  0.00     0.051 A 
ATOM     90  C   UNL A   1      32.995  20.842  25.941  1.00  0.00     0.134 A 
BRANCH  90  91
ATOM     91  C   UNL A   1      33.432  19.613  25.299  1.00  0.00     0.017 A 
ATOM     92  C   UNL A   1      34.768  19.411  24.924  1.00  0.00     0.015 A 
ATOM     93  C   UNL A   1      32.494  18.597  25.050  1.00  0.00     0.015 A 
ATOM     94  C   UNL A   1      35.155  18.218  24.306  1.00  0.00     0.040 A 
ATOM     95  C   UNL A   1      32.877  17.413  24.422  1.00  0.00     0.040 A 
ATOM     96  C   UNL A   1      34.205  17.233  24.056  1.00  0.00     0.123 A 
ATOM     97  F   UNL A   1      34.574  16.097  23.452  1.00  0.00    -0.207 F 
ENDBRANCH  90  91
ENDBRANCH  85  86
ENDBRANCH  71  78
ENDBRANCH  68  71
ENDBRANCH  66  67
ENDBRANCH  65  66
ENDBRANCH   1  65
TORSDOF 17
ENDMDL
MODEL 2
REMARK VINA RESULT:     -11.8      1.589      2.602
REMARK SMILES O=C(NCCCCCCNC(=O)[C@@H](c1ccccc1)N1C(=O)/C(=C\c2ccc(-c3ccc(F)cc3)o2)SC1=S)c1ccc(-c2c3nc(c(-c4c(F)cccc4F)c4ccc([nH]4)c(-c4c(F)cccc4F)c4nc(c(-c5c(F)cccc5F)c5ccc2[nH]5)C=C4)C=C3)cc1
REMARK SMILES IDX 7 1 6 2 5 3 4 4 3 5 1 6 2 7 40 9 41 10 93 11 42 12 92 13
REMARK SMILES IDX 43 14 44 15 45 16 86 17 46 18 91 19 85 20 87 21 47 22 90 23
REMARK SMILES IDX 84 24 83 25 48 27 74 28 57 29 73 30 58 31 61 32 72 33 88 34
REMARK SMILES IDX 59 35 60 36 71 38 89 39 62 40 49 41 50 42 55 43 51 44 52 45
REMARK SMILES IDX 54 46 56 47 53 48 75 49 76 50 81 51 77 52 78 53 80 54 82 55
REMARK SMILES IDX 79 56 63 57 64 58 69 59 65 60 66 61 68 62 70 63 67 64 8 65
REMARK SMILES IDX 9 66 10 67 11 68 12 70 13 71 14 72 15 73 19 74 16 75 18 76
REMARK SMILES IDX 17 77 20 78 21 79 38 80 22 81 23 82 37 83 39 84 24 85 25 86
REMARK SMILES IDX 26 87 36 88 27 89 28 90 29 91 30 92 35 93 31 94 34 95 32 96
REMARK SMILES IDX 33 97
REMARK H PARENT 3 8 87 26 61 37 10 69
REMARK Flexibility Score: inf
ROOT
ATOM      1  C   UNL A   1      33.047  23.649  22.891  1.00  0.00     0.002 C 
ENDROOT
BRANCH   1   2
ATOM      2  C   UNL A   1      34.409  22.953  22.822  1.00  0.00     0.002 C 
BRANCH   2   3
ATOM      3  C   UNL A   1      35.194  22.890  24.131  1.00  0.00     0.021 C 
BRANCH   3   4
ATOM      4  C   UNL A   1      36.696  22.698  23.980  1.00  0.00     0.116 C 
BRANCH   4   5
ATOM      5  N   UNL A   1      37.173  21.476  24.607  1.00  0.00    -0.352 N 
ATOM      6  O   UNL A   1      38.573  20.165  25.797  1.00  0.00    -0.269 OA
ATOM      7  C   UNL A   1      38.214  21.295  25.484  1.00  0.00     0.251 C 
ATOM      8  H   UNL A   1      36.678  20.659  24.368  1.00  0.00     0.163 HD
BRANCH   7   9
ATOM      9  C   UNL A   1      38.922  22.474  26.028  1.00  0.00     0.039 A 
ATOM     10  C   UNL A   1      38.323  23.735  25.998  1.00  0.00     0.014 A 
ATOM     11  C   UNL A   1      40.202  22.316  26.562  1.00  0.00     0.014 A 
ATOM     12  C   UNL A   1      39.064  24.855  26.349  1.00  0.00     0.010 A 
ATOM     13  C   UNL A   1      40.908  23.435  27.013  1.00  0.00     0.010 A 
ATOM     14  C   UNL A   1      40.358  24.718  26.878  1.00  0.00    -0.014 A 
BRANCH  14  15
ATOM     15  C   UNL A   1      41.081  25.931  27.338  1.00  0.00     0.031 A 
ATOM     16  C   UNL A   1      42.504  26.196  26.933  1.00  0.00     0.074 A 
ATOM     17  C   UNL A   1      40.421  26.817  28.108  1.00  0.00     0.049 A 
ATOM     18  N   UNL A   1      43.262  27.225  27.217  1.00  0.00    -0.248 NA
ATOM     19  C   UNL A   1      43.166  25.175  26.108  1.00  0.00     0.031 C 
ATOM     20  C   UNL A   1      39.039  26.663  28.574  1.00  0.00     0.029 A 
ATOM     21  N   UNL A   1      40.806  28.031  28.615  1.00  0.00    -0.354 N 
ATOM     22  C   UNL A   1      44.494  26.968  26.629  1.00  0.00     0.074 A 
ATOM     23  C   UNL A   1      44.390  25.672  25.992  1.00  0.00     0.031 C 
ATOM     24  C   UNL A   1      38.674  27.764  29.244  1.00  0.00     0.029 A 
ATOM     25  C   UNL A   1      39.814  28.669  29.321  1.00  0.00     0.049 A 
ATOM     26  H   UNL A   1      41.705  28.410  28.485  1.00  0.00     0.167 HD
ATOM     27  C   UNL A   1      45.604  27.746  26.615  1.00  0.00     0.037 A 
ATOM     28  C   UNL A   1      39.825  29.844  29.973  1.00  0.00     0.037 A 
ATOM     29  C   UNL A   1      45.696  29.038  27.247  1.00  0.00     0.049 A 
ATOM     30  C   UNL A   1      41.080  30.664  29.974  1.00  0.00     0.074 A 
ATOM     31  C   UNL A   1      46.763  29.920  27.256  1.00  0.00     0.029 A 
ATOM     32  N   UNL A   1      44.686  29.629  27.993  1.00  0.00    -0.354 N 
ATOM     33  N   UNL A   1      42.222  30.429  29.374  1.00  0.00    -0.248 NA
ATOM     34  C   UNL A   1      41.051  31.911  30.748  1.00  0.00     0.031 C 
ATOM     35  C   UNL A   1      46.421  31.017  28.055  1.00  0.00     0.029 A 
ATOM     36  C   UNL A   1      45.116  30.850  28.492  1.00  0.00     0.049 A 
ATOM     37  H   UNL A   1      43.796  29.240  28.146  1.00  0.00     0.167 HD
ATOM     38  C   UNL A   1      43.039  31.510  29.675  1.00  0.00     0.074 A 
ATOM     39  C   UNL A   1      42.252  32.409  30.495  1.00  0.00     0.031 C 
ATOM     40  C   UNL A   1      44.322  31.737  29.306  1.00  0.00     0.037 A 
BRANCH  27  41
ATOM     41  C   UNL A   1      46.823  27.208  25.917  1.00  0.00     0.057 A 
ATOM     42  C   UNL A   1      47.771  26.414  26.577  1.00  0.00     0.134 A 
ATOM     43  C   UNL A   1      47.033  27.459  24.554  1.00  0.00     0.134 A 
ATOM     44  F   UNL A   1      47.638  26.141  27.884  1.00  0.00    -0.206 F 
ATOM     45  C   UNL A   1      48.897  25.916  25.916  1.00  0.00     0.040 A 
ATOM     46  C   UNL A   1      48.139  26.942  23.875  1.00  0.00     0.040 A 
ATOM     47  F   UNL A   1      46.162  28.203  23.856  1.00  0.00    -0.206 F 
ATOM     48  C   UNL A   1      49.079  26.174  24.558  1.00  0.00     0.006 A 
ENDBRANCH  27  41
BRANCH  28  49
ATOM     49  C   UNL A   1      38.604  30.311  30.676  1.00  0.00     0.057 A 
ATOM     50  C   UNL A   1      37.715  31.203  30.065  1.00  0.00     0.134 A 
ATOM     51  C   UNL A   1      38.293  29.876  31.970  1.00  0.00     0.134 A 
ATOM     52  F   UNL A   1      37.966  31.667  28.832  1.00  0.00    -0.206 F 
ATOM     53  C   UNL A   1      36.572  31.661  30.721  1.00  0.00     0.040 A 
ATOM     54  C   UNL A   1      37.137  30.300  32.627  1.00  0.00     0.040 A 
ATOM     55  F   UNL A   1      39.098  29.013  32.606  1.00  0.00    -0.206 F 
ATOM     56  C   UNL A   1      36.278  31.203  32.005  1.00  0.00     0.006 A 
ENDBRANCH  28  49
BRANCH  40  57
ATOM     57  C   UNL A   1      44.939  33.031  29.752  1.00  0.00     0.057 A 
ATOM     58  C   UNL A   1      45.661  33.138  30.947  1.00  0.00     0.134 A 
ATOM     59  C   UNL A   1      44.817  34.185  28.966  1.00  0.00     0.134 A 
ATOM     60  F   UNL A   1      45.802  32.076  31.755  1.00  0.00    -0.206 F 
ATOM     61  C   UNL A   1      46.212  34.353  31.362  1.00  0.00     0.040 A 
ATOM     62  C   UNL A   1      45.389  35.397  29.353  1.00  0.00     0.040 A 
ATOM     63  F   UNL A   1      44.145  34.151  27.805  1.00  0.00    -0.206 F 
ATOM     64  C   UNL A   1      46.080  35.485  30.559  1.00  0.00     0.006 A 
ENDBRANCH  40  57
ENDBRANCH  14  15
ENDBRANCH   7   9
ENDBRANCH   4   5
ENDBRANCH   3   4
ENDBRANCH   2   3
ENDBRANCH   1   2
BRANCH   1  65
ATOM     65  C   UNL A   1      33.014  25.084  22.382  1.00  0.00     0.021 C 
BRANCH  65  66
ATOM     66  C   UNL A   1      34.233  25.925  22.713  1.00  0.00     0.116 C 
BRANCH  66  67
ATOM     67  N   UNL A   1      34.004  27.350  22.703  1.00  0.00    -0.354 N 
ATOM     68  C   UNL A   1      33.627  28.157  23.741  1.00  0.00     0.247 C 
ATOM     69  H   UNL A   1      34.137  27.799  21.837  1.00  0.00     0.163 HD
ATOM     70  O   UNL A   1      33.343  29.326  23.457  1.00  0.00    -0.272 OA
BRANCH  68  71
ATOM     71  C   UNL A   1      33.511  27.643  25.218  1.00  0.00     0.211 C 
BRANCH  71  72
ATOM     72  C   UNL A   1      33.734  28.775  26.244  1.00  0.00    -0.016 A 
ATOM     73  C   UNL A   1      32.758  29.733  26.555  1.00  0.00     0.006 A 
ATOM     74  C   UNL A   1      34.989  28.908  26.876  1.00  0.00     0.006 A 
ATOM     75  C   UNL A   1      33.096  30.900  27.250  1.00  0.00     0.000 A 
ATOM     76  C   UNL A   1      35.318  30.056  27.599  1.00  0.00     0.000 A 
ATOM     77  C   UNL A   1      34.385  31.076  27.744  1.00  0.00     0.000 A 
ENDBRANCH  71  72
BRANCH  71  78
ATOM     78  N   UNL A   1      32.297  26.765  25.331  1.00  0.00    -0.276 N 
ATOM     79  C   UNL A   1      32.328  25.498  25.873  1.00  0.00     0.267 C 
ATOM     80  C   UNL A   1      31.025  27.212  25.004  1.00  0.00     0.149 C 
ATOM     81  O   UNL A   1      33.294  24.946  26.383  1.00  0.00    -0.268 OA
ATOM     82  C   UNL A   1      31.012  24.817  25.801  1.00  0.00     0.084 C 
ATOM     83  S   UNL A   1      29.825  25.953  25.314  1.00  0.00    -0.054 SA
ATOM     84  S   UNL A   1      30.549  28.696  24.407  1.00  0.00    -0.052 S 
ATOM     85  C   UNL A   1      30.769  23.512  26.008  1.00  0.00     0.068 C 
BRANCH  85  86
ATOM     86  C   UNL A   1      31.794  22.570  26.310  1.00  0.00     0.128 A 
ATOM     87  C   UNL A   1      32.742  22.574  27.328  1.00  0.00     0.051 A 
ATOM     88  O   UNL A   1      32.008  21.437  25.553  1.00  0.00    -0.457 OA
ATOM     89  C   UNL A   1      33.603  21.474  27.129  1.00  0.00     0.051 A 
ATOM     90  C   UNL A   1      33.098  20.786  26.050  1.00  0.00     0.134 A 
BRANCH  90  91
ATOM     91  C   UNL A   1      33.469  19.534  25.410  1.00  0.00     0.017 A 
ATOM     92  C   UNL A   1      34.744  19.335  24.861  1.00  0.00     0.015 A 
ATOM     93  C   UNL A   1      32.527  18.494  25.340  1.00  0.00     0.015 A 
ATOM     94  C   UNL A   1      35.066  18.119  24.251  1.00  0.00     0.040 A 
ATOM     95  C   UNL A   1      32.845  17.286  24.720  1.00  0.00     0.040 A 
ATOM     96  C   UNL A   1      34.112  17.109  24.181  1.00  0.00     0.123 A 
ATOM     97  F   UNL A   1      34.418  15.951  23.584  1.00  0.00    -0.207 F 
ENDBRANCH  90  91
ENDBRANCH  85  86
ENDBRANCH  71  78
ENDBRANCH  68  71
ENDBRANCH  66  67
ENDBRANCH  65  66
ENDBRANCH   1  65
TORSDOF 17
ENDMDL
MODEL 3
REMARK VINA RESULT:     -11.7      5.916     11.471
REMARK SMILES O=C(NCCCCCCNC(=O)[C@@H](c1ccccc1)N1C(=O)/C(=C\c2ccc(-c3ccc(F)cc3)o2)SC1=S)c1ccc(-c2c3nc(c(-c4c(F)cccc4F)c4ccc([nH]4)c(-c4c(F)cccc4F)c4nc(c(-c5c(F)cccc5F)c5ccc2[nH]5)C=C4)C=C3)cc1
REMARK SMILES IDX 7 1 6 2 5 3 4 4 3 5 1 6 2 7 40 9 41 10 93 11 42 12 92 13
REMARK SMILES IDX 43 14 44 15 45 16 86 17 46 18 91 19 85 20 87 21 47 22 90 23
REMARK SMILES IDX 84 24 83 25 48 27 74 28 57 29 73 30 58 31 61 32 72 33 88 34
REMARK SMILES IDX 59 35 60 36 71 38 89 39 62 40 49 41 50 42 55 43 51 44 52 45
REMARK SMILES IDX 54 46 56 47 53 48 75 49 76 50 81 51 77 52 78 53 80 54 82 55
REMARK SMILES IDX 79 56 63 57 64 58 69 59 65 60 66 61 68 62 70 63 67 64 8 65
REMARK SMILES IDX 9 66 10 67 11 68 12 70 13 71 14 72 15 73 19 74 16 75 18 76
REMARK SMILES IDX 17 77 20 78 21 79 38 80 22 81 23 82 37 83 39 84 24 85 25 86
REMARK SMILES IDX 26 87 36 88 27 89 28 90 29 91 30 92 35 93 31 94 34 95 32 96
REMARK SMILES IDX 33 97
REMARK H PARENT 3 8 87 26 61 37 10 69
REMARK Flexibility Score: inf
ROOT
ATOM      1  C   UNL A   1      40.551  28.060  27.998  1.00  0.00     0.002 C 
ENDROOT
BRANCH   1   2
ATOM      2  C   UNL A   1      39.331  27.219  28.382  1.00  0.00     0.002 C 
BRANCH   2   3
ATOM      3  C   UNL A   1      39.480  25.709  28.209  1.00  0.00     0.021 C 
BRANCH   3   4
ATOM      4  C   UNL A   1      39.631  25.230  26.773  1.00  0.00     0.116 C 
BRANCH   4   5
ATOM      5  N   UNL A   1      40.330  23.959  26.673  1.00  0.00    -0.352 N 
ATOM      6  O   UNL A   1      42.061  22.571  26.261  1.00  0.00    -0.269 OA
ATOM      7  C   UNL A   1      41.665  23.712  26.470  1.00  0.00     0.251 C 
ATOM      8  H   UNL A   1      39.764  23.159  26.764  1.00  0.00     0.163 HD
BRANCH   7   9
ATOM      9  C   UNL A   1      42.624  24.838  26.476  1.00  0.00     0.039 A 
ATOM     10  C   UNL A   1      42.973  25.478  25.285  1.00  0.00     0.014 A 
ATOM     11  C   UNL A   1      43.187  25.250  27.685  1.00  0.00     0.014 A 
ATOM     12  C   UNL A   1      43.999  26.411  25.281  1.00  0.00     0.010 A 
ATOM     13  C   UNL A   1      44.148  26.265  27.692  1.00  0.00     0.010 A 
ATOM     14  C   UNL A   1      44.587  26.830  26.486  1.00  0.00    -0.014 A 
BRANCH  14  15
ATOM     15  C   UNL A   1      45.611  27.906  26.454  1.00  0.00     0.031 A 
ATOM     16  C   UNL A   1      45.237  29.350  26.634  1.00  0.00     0.074 A 
ATOM     17  C   UNL A   1      46.902  27.556  26.292  1.00  0.00     0.049 A 
ATOM     18  N   UNL A   1      46.015  30.403  26.671  1.00  0.00    -0.248 NA
ATOM     19  C   UNL A   1      43.808  29.657  26.787  1.00  0.00     0.031 C 
ATOM     20  C   UNL A   1      47.385  26.186  26.097  1.00  0.00     0.029 A 
ATOM     21  N   UNL A   1      48.045  28.312  26.287  1.00  0.00    -0.354 N 
ATOM     22  C   UNL A   1      45.173  31.496  26.827  1.00  0.00     0.074 A 
ATOM     23  C   UNL A   1      43.820  30.981  26.852  1.00  0.00     0.031 C 
ATOM     24  C   UNL A   1      48.724  26.192  26.053  1.00  0.00     0.029 A 
ATOM     25  C   UNL A   1      49.192  27.570  26.142  1.00  0.00     0.049 A 
ATOM     26  H   UNL A   1      48.045  29.292  26.381  1.00  0.00     0.167 HD
ATOM     27  C   UNL A   1      45.501  32.807  26.947  1.00  0.00     0.037 A 
ATOM     28  C   UNL A   1      50.478  27.954  26.070  1.00  0.00     0.037 A 
ATOM     29  C   UNL A   1      46.851  33.309  26.926  1.00  0.00     0.049 A 
ATOM     30  C   UNL A   1      50.806  29.414  26.165  1.00  0.00     0.074 A 
ATOM     31  C   UNL A   1      47.289  34.614  27.079  1.00  0.00     0.029 A 
ATOM     32  N   UNL A   1      47.983  32.531  26.729  1.00  0.00    -0.354 N 
ATOM     33  N   UNL A   1      50.003  30.432  26.359  1.00  0.00    -0.248 NA
ATOM     34  C   UNL A   1      52.221  29.781  26.025  1.00  0.00     0.031 C 
ATOM     35  C   UNL A   1      48.679  34.633  26.917  1.00  0.00     0.029 A 
ATOM     36  C   UNL A   1      49.116  33.332  26.726  1.00  0.00     0.049 A 
ATOM     37  H   UNL A   1      47.984  31.555  26.609  1.00  0.00     0.167 HD
ATOM     38  C   UNL A   1      50.815  31.556  26.392  1.00  0.00     0.074 A 
ATOM     39  C   UNL A   1      52.177  31.090  26.217  1.00  0.00     0.031 C 
ATOM     40  C   UNL A   1      50.466  32.855  26.553  1.00  0.00     0.037 A 
BRANCH  27  41
ATOM     41  C   UNL A   1      44.376  33.796  27.082  1.00  0.00     0.057 A 
ATOM     42  C   UNL A   1      43.875  34.190  28.330  1.00  0.00     0.134 A 
ATOM     43  C   UNL A   1      43.809  34.389  25.945  1.00  0.00     0.134 A 
ATOM     44  F   UNL A   1      44.364  33.656  29.459  1.00  0.00    -0.206 F 
ATOM     45  C   UNL A   1      42.833  35.115  28.441  1.00  0.00     0.040 A 
ATOM     46  C   UNL A   1      42.787  35.335  26.045  1.00  0.00     0.040 A 
ATOM     47  F   UNL A   1      44.245  34.066  24.719  1.00  0.00    -0.206 F 
ATOM     48  C   UNL A   1      42.291  35.696  27.296  1.00  0.00     0.006 A 
ENDBRANCH  27  41
BRANCH  28  49
ATOM     49  C   UNL A   1      51.546  26.938  25.901  1.00  0.00     0.057 A 
ATOM     50  C   UNL A   1      52.191  26.377  27.009  1.00  0.00     0.134 A 
ATOM     51  C   UNL A   1      51.945  26.500  24.632  1.00  0.00     0.134 A 
ATOM     52  F   UNL A   1      51.864  26.767  28.250  1.00  0.00    -0.206 F 
ATOM     53  C   UNL A   1      53.207  25.432  26.862  1.00  0.00     0.040 A 
ATOM     54  C   UNL A   1      52.937  25.532  24.470  1.00  0.00     0.040 A 
ATOM     55  F   UNL A   1      51.358  26.990  23.531  1.00  0.00    -0.206 F 
ATOM     56  C   UNL A   1      53.578  25.002  25.588  1.00  0.00     0.006 A 
ENDBRANCH  28  49
BRANCH  40  57
ATOM     57  C   UNL A   1      51.582  33.860  26.590  1.00  0.00     0.057 A 
ATOM     58  C   UNL A   1      52.204  34.238  27.786  1.00  0.00     0.134 A 
ATOM     59  C   UNL A   1      52.046  34.450  25.406  1.00  0.00     0.134 A 
ATOM     60  F   UNL A   1      51.797  33.723  28.957  1.00  0.00    -0.206 F 
ATOM     61  C   UNL A   1      53.226  35.189  27.810  1.00  0.00     0.040 A 
ATOM     62  C   UNL A   1      53.088  35.378  25.412  1.00  0.00     0.040 A 
ATOM     63  F   UNL A   1      51.499  34.128  24.224  1.00  0.00    -0.206 F 
ATOM     64  C   UNL A   1      53.674  35.757  26.618  1.00  0.00     0.006 A 
ENDBRANCH  40  57
ENDBRANCH  14  15
ENDBRANCH   7   9
ENDBRANCH   4   5
ENDBRANCH   3   4
ENDBRANCH   2   3
ENDBRANCH   1   2
BRANCH   1  65
ATOM     65  C   UNL A   1      41.197  28.841  29.134  1.00  0.00     0.021 C 
BRANCH  65  66
ATOM     66  C   UNL A   1      41.781  28.003  30.257  1.00  0.00     0.116 C 
BRANCH  66  67
ATOM     67  N   UNL A   1      40.991  27.978  31.465  1.00  0.00    -0.354 N 
ATOM     68  C   UNL A   1      40.255  28.988  32.019  1.00  0.00     0.247 C 
ATOM     69  H   UNL A   1      40.981  27.122  31.951  1.00  0.00     0.163 HD
ATOM     70  O   UNL A   1      39.784  28.776  33.142  1.00  0.00    -0.272 OA
BRANCH  68  71
ATOM     71  C   UNL A   1      40.039  30.370  31.309  1.00  0.00     0.211 C 
BRANCH  71  72
ATOM     72  C   UNL A   1      38.695  30.426  30.551  1.00  0.00    -0.016 A 
ATOM     73  C   UNL A   1      37.668  29.488  30.736  1.00  0.00     0.006 A 
ATOM     74  C   UNL A   1      38.482  31.428  29.581  1.00  0.00     0.006 A 
ATOM     75  C   UNL A   1      36.607  29.400  29.828  1.00  0.00     0.000 A 
ATOM     76  C   UNL A   1      37.405  31.361  28.694  1.00  0.00     0.000 A 
ATOM     77  C   UNL A   1      36.494  30.317  28.788  1.00  0.00     0.000 A 
ENDBRANCH  71  72
BRANCH  71  78
ATOM     78  N   UNL A   1      40.399  31.468  32.269  1.00  0.00    -0.276 N 
ATOM     79  C   UNL A   1      39.479  32.086  33.090  1.00  0.00     0.267 C 
ATOM     80  C   UNL A   1      41.710  31.863  32.488  1.00  0.00     0.149 C 
ATOM     81  O   UNL A   1      38.294  31.800  33.203  1.00  0.00    -0.268 OA
ATOM     82  C   UNL A   1      40.078  33.184  33.888  1.00  0.00     0.084 C 
ATOM     83  S   UNL A   1      41.782  33.127  33.720  1.00  0.00    -0.054 SA
ATOM     84  S   UNL A   1      43.113  31.307  31.773  1.00  0.00    -0.052 S 
ATOM     85  C   UNL A   1      39.418  34.127  34.581  1.00  0.00     0.068 C 
BRANCH  85  86
ATOM     86  C   UNL A   1      37.996  34.211  34.618  1.00  0.00     0.128 A 
ATOM     87  C   UNL A   1      37.101  33.810  35.604  1.00  0.00     0.051 A 
ATOM     88  O   UNL A   1      37.256  34.732  33.578  1.00  0.00    -0.457 OA
ATOM     89  C   UNL A   1      35.793  34.007  35.114  1.00  0.00     0.051 A 
ATOM     90  C   UNL A   1      35.934  34.604  33.882  1.00  0.00     0.134 A 
BRANCH  90  91
ATOM     91  C   UNL A   1      34.979  35.136  32.923  1.00  0.00     0.017 A 
ATOM     92  C   UNL A   1      34.223  36.284  33.194  1.00  0.00     0.015 A 
ATOM     93  C   UNL A   1      34.812  34.486  31.689  1.00  0.00     0.015 A 
ATOM     94  C   UNL A   1      33.312  36.768  32.250  1.00  0.00     0.040 A 
ATOM     95  C   UNL A   1      33.894  34.961  30.753  1.00  0.00     0.040 A 
ATOM     96  C   UNL A   1      33.152  36.098  31.042  1.00  0.00     0.123 A 
ATOM     97  F   UNL A   1      32.270  36.555  30.144  1.00  0.00    -0.207 F 
ENDBRANCH  90  91
ENDBRANCH  85  86
ENDBRANCH  71  78
ENDBRANCH  68  71
ENDBRANCH  66  67
ENDBRANCH  65  66
ENDBRANCH   1  65
TORSDOF 17
ENDMDL
