MODEL 1
REMARK VINA RESULT:     -12.4      0.000      0.000
REMARK SMILES Cc1ccc(S(=O)(=O)N(c2ccccc2)[C@H](C)C(=O)NCCCCCCNC(=O)c2ccc(-c3c4nc(c(-c5c(F)cccc5F)c5ccc([nH]5)c(-c5c(F)cccc5F)c5nc(c(-c6c(F)cccc6F)c6ccc3[nH]6)C=C5)C=C4)cc2)cc1
REMARK SMILES IDX 23 1 22 2 21 3 20 4 18 5 19 6 16 8 17 9 9 10 6 11 7 12 8 13
REMARK SMILES IDX 5 14 1 15 2 16 3 17 85 18 4 19 84 20 10 21 11 22 15 23 12 24
REMARK SMILES IDX 14 25 13 26 24 27 25 28 26 29 27 30 28 31 29 33 30 34 31 35
REMARK SMILES IDX 83 36 32 37 82 38 33 39 34 40 35 41 76 42 36 43 81 44 75 45
REMARK SMILES IDX 77 46 37 47 80 48 74 49 73 50 38 52 64 53 47 54 63 55 48 56
REMARK SMILES IDX 51 57 62 58 78 59 49 60 50 61 61 63 79 64 52 65 39 66 40 67
REMARK SMILES IDX 45 68 41 69 42 70 44 71 46 72 43 73 65 74 66 75 71 76 67 77
REMARK SMILES IDX 68 78 70 79 72 80 69 81 53 82 54 83 59 84 55 85 56 86 58 87
REMARK SMILES IDX 60 88 57 89
REMARK H PARENT 20 7 27 32 77 51 51 62
REMARK Flexibility Score: inf
ROOT
ATOM      1  C   UNL A   1      31.802  28.064  27.166  1.00  0.00     0.002 C 
ENDROOT
BRANCH   1   2
ATOM      2  C   UNL A   1      32.434  26.834  26.494  1.00  0.00     0.021 C 
BRANCH   2   3
ATOM      3  C   UNL A   1      31.525  25.996  25.597  1.00  0.00     0.116 C 
BRANCH   3   4
ATOM      4  N   UNL A   1      31.080  24.742  26.154  1.00  0.00    -0.354 N 
ATOM      5  C   UNL A   1      31.823  23.708  26.653  1.00  0.00     0.243 C 
ATOM      6  O   UNL A   1      31.214  22.928  27.400  1.00  0.00    -0.273 OA
ATOM      7  H   UNL A   1      30.105  24.612  26.178  1.00  0.00     0.163 HD
BRANCH   5   8
ATOM      8  C   UNL A   1      33.300  23.446  26.308  1.00  0.00     0.185 C 
ATOM      9  C   UNL A   1      34.075  22.749  27.427  1.00  0.00     0.043 C 
BRANCH   8  10
ATOM     10  N   UNL A   1      33.586  22.921  24.920  1.00  0.00    -0.254 N 
BRANCH  10  11
ATOM     11  S   UNL A   1      34.894  23.719  24.138  1.00  0.00     0.265 S 
ATOM     12  O   UNL A   1      34.790  25.119  24.513  1.00  0.00    -0.201 OA
ATOM     13  O   UNL A   1      34.861  23.337  22.743  1.00  0.00    -0.201 OA
BRANCH  11  14
ATOM     14  C   UNL A   1      36.467  23.165  24.780  1.00  0.00     0.088 A 
ATOM     15  C   UNL A   1      39.985  21.788  26.854  1.00  0.00     0.044 C 
ATOM     16  C   UNL A   1      38.783  22.287  26.106  1.00  0.00    -0.051 A 
ATOM     17  C   UNL A   1      38.298  23.581  26.319  1.00  0.00     0.005 A 
ATOM     18  C   UNL A   1      38.156  21.476  25.151  1.00  0.00     0.005 A 
ATOM     19  C   UNL A   1      37.134  24.010  25.677  1.00  0.00     0.022 A 
ATOM     20  C   UNL A   1      37.028  21.931  24.459  1.00  0.00     0.022 A 
ENDBRANCH  11  14
ENDBRANCH  10  11
BRANCH  10  21
ATOM     21  C   UNL A   1      33.327  21.557  24.604  1.00  0.00     0.053 A 
ATOM     22  C   UNL A   1      32.431  21.317  23.556  1.00  0.00     0.027 A 
ATOM     23  C   UNL A   1      33.949  20.488  25.245  1.00  0.00     0.027 A 
ATOM     24  C   UNL A   1      32.177  20.017  23.125  1.00  0.00     0.002 A 
ATOM     25  C   UNL A   1      33.671  19.182  24.830  1.00  0.00     0.002 A 
ATOM     26  C   UNL A   1      32.792  18.948  23.769  1.00  0.00     0.000 A 
ENDBRANCH  10  21
ENDBRANCH   8  10
ENDBRANCH   5   8
ENDBRANCH   3   4
ENDBRANCH   2   3
ENDBRANCH   1   2
BRANCH   1  27
ATOM     27  C   UNL A   1      31.829  29.406  26.412  1.00  0.00     0.002 C 
BRANCH  27  28
ATOM     28  C   UNL A   1      32.551  30.576  27.082  1.00  0.00     0.021 C 
BRANCH  28  29
ATOM     29  C   UNL A   1      34.008  30.339  27.443  1.00  0.00     0.116 C 
BRANCH  29  30
ATOM     30  N   UNL A   1      34.531  31.263  28.447  1.00  0.00    -0.352 N 
ATOM     31  C   UNL A   1      35.717  31.161  29.161  1.00  0.00     0.251 C 
ATOM     32  H   UNL A   1      33.975  32.053  28.641  1.00  0.00     0.163 HD
ATOM     33  O   UNL A   1      36.082  32.040  29.923  1.00  0.00    -0.269 OA
BRANCH  31  34
ATOM     34  C   UNL A   1      36.592  30.003  28.869  1.00  0.00     0.039 A 
ATOM     35  C   UNL A   1      36.847  29.116  29.917  1.00  0.00     0.014 A 
ATOM     36  C   UNL A   1      37.382  30.011  27.721  1.00  0.00     0.014 A 
ATOM     37  C   UNL A   1      38.059  28.439  29.939  1.00  0.00     0.010 A 
ATOM     38  C   UNL A   1      38.622  29.402  27.779  1.00  0.00     0.010 A 
ATOM     39  C   UNL A   1      38.990  28.698  28.931  1.00  0.00    -0.014 A 
BRANCH  39  40
ATOM     40  C   UNL A   1      40.413  28.419  29.105  1.00  0.00     0.031 A 
ATOM     41  C   UNL A   1      41.004  27.173  28.584  1.00  0.00     0.074 A 
ATOM     42  C   UNL A   1      41.187  29.315  29.760  1.00  0.00     0.049 A 
ATOM     43  N   UNL A   1      42.085  26.636  29.039  1.00  0.00    -0.248 NA
ATOM     44  C   UNL A   1      40.351  26.371  27.557  1.00  0.00     0.031 C 
ATOM     45  C   UNL A   1      42.643  29.327  29.861  1.00  0.00     0.029 A 
ATOM     46  N   UNL A   1      40.763  30.285  30.681  1.00  0.00    -0.354 N 
ATOM     47  C   UNL A   1      42.420  25.593  28.206  1.00  0.00     0.074 A 
ATOM     48  C   UNL A   1      41.245  25.391  27.399  1.00  0.00     0.031 C 
ATOM     49  C   UNL A   1      42.994  30.021  30.955  1.00  0.00     0.029 A 
ATOM     50  C   UNL A   1      41.772  30.358  31.666  1.00  0.00     0.049 A 
ATOM     51  H   UNL A   1      39.931  30.808  30.647  1.00  0.00     0.167 HD
ATOM     52  C   UNL A   1      43.706  25.130  28.218  1.00  0.00     0.037 A 
ATOM     53  C   UNL A   1      41.515  30.057  32.971  1.00  0.00     0.037 A 
ATOM     54  C   UNL A   1      44.428  25.650  29.387  1.00  0.00     0.049 A 
ATOM     55  C   UNL A   1      42.335  28.908  33.514  1.00  0.00     0.074 A 
ATOM     56  C   UNL A   1      45.372  26.651  29.552  1.00  0.00     0.029 A 
ATOM     57  N   UNL A   1      44.001  25.300  30.666  1.00  0.00    -0.354 N 
ATOM     58  N   UNL A   1      43.012  28.079  32.768  1.00  0.00    -0.248 NA
ATOM     59  C   UNL A   1      42.407  28.567  34.933  1.00  0.00     0.031 C 
ATOM     60  C   UNL A   1      45.436  26.967  30.935  1.00  0.00     0.029 A 
ATOM     61  C   UNL A   1      44.560  26.136  31.613  1.00  0.00     0.049 A 
ATOM     62  H   UNL A   1      43.387  24.558  30.868  1.00  0.00     0.167 HD
ATOM     63  C   UNL A   1      43.534  27.085  33.551  1.00  0.00     0.074 A 
ATOM     64  C   UNL A   1      43.163  27.457  34.904  1.00  0.00     0.031 C 
ATOM     65  C   UNL A   1      44.197  26.017  33.019  1.00  0.00     0.037 A 
BRANCH  52  66
ATOM     66  C   UNL A   1      44.403  24.431  27.054  1.00  0.00     0.057 A 
ATOM     67  C   UNL A   1      44.329  23.025  26.925  1.00  0.00     0.134 A 
ATOM     68  C   UNL A   1      45.256  25.030  26.106  1.00  0.00     0.134 A 
ATOM     69  F   UNL A   1      43.523  22.289  27.701  1.00  0.00    -0.206 F 
ATOM     70  C   UNL A   1      45.090  22.291  26.000  1.00  0.00     0.040 A 
ATOM     71  C   UNL A   1      46.017  24.310  25.171  1.00  0.00     0.040 A 
ATOM     72  F   UNL A   1      45.425  26.349  26.010  1.00  0.00    -0.206 F 
ATOM     73  C   UNL A   1      45.952  22.932  25.126  1.00  0.00     0.006 A 
ENDBRANCH  52  66
BRANCH  53  74
ATOM     74  C   UNL A   1      40.129  30.380  33.396  1.00  0.00     0.057 A 
ATOM     75  C   UNL A   1      39.791  31.725  33.631  1.00  0.00     0.134 A 
ATOM     76  C   UNL A   1      39.077  29.476  33.242  1.00  0.00     0.134 A 
ATOM     77  F   UNL A   1      40.755  32.646  33.787  1.00  0.00    -0.206 F 
ATOM     78  C   UNL A   1      38.467  32.168  33.606  1.00  0.00     0.040 A 
ATOM     79  C   UNL A   1      37.744  29.907  33.226  1.00  0.00     0.040 A 
ATOM     80  F   UNL A   1      39.319  28.181  32.991  1.00  0.00    -0.206 F 
ATOM     81  C   UNL A   1      37.439  31.260  33.371  1.00  0.00     0.006 A 
ENDBRANCH  53  74
BRANCH  65  82
ATOM     82  C   UNL A   1      44.613  24.796  33.794  1.00  0.00     0.057 A 
ATOM     83  C   UNL A   1      43.716  23.932  34.439  1.00  0.00     0.134 A 
ATOM     84  C   UNL A   1      45.959  24.376  33.791  1.00  0.00     0.134 A 
ATOM     85  F   UNL A   1      42.394  24.158  34.423  1.00  0.00    -0.206 F 
ATOM     86  C   UNL A   1      44.134  22.764  35.091  1.00  0.00     0.040 A 
ATOM     87  C   UNL A   1      46.382  23.189  34.397  1.00  0.00     0.040 A 
ATOM     88  F   UNL A   1      46.914  25.096  33.185  1.00  0.00    -0.206 F 
ATOM     89  C   UNL A   1      45.470  22.384  35.064  1.00  0.00     0.006 A 
ENDBRANCH  65  82
ENDBRANCH  39  40
ENDBRANCH  31  34
ENDBRANCH  29  30
ENDBRANCH  28  29
ENDBRANCH  27  28
ENDBRANCH   1  27
TORSDOF 17
ENDMDL
MODEL 2
REMARK VINA RESULT:     -12.4      1.559      2.178
REMARK SMILES Cc1ccc(S(=O)(=O)N(c2ccccc2)[C@H](C)C(=O)NCCCCCCNC(=O)c2ccc(-c3c4nc(c(-c5c(F)cccc5F)c5ccc([nH]5)c(-c5c(F)cccc5F)c5nc(c(-c6c(F)cccc6F)c6ccc3[nH]6)C=C5)C=C4)cc2)cc1
REMARK SMILES IDX 23 1 22 2 21 3 20 4 18 5 19 6 16 8 17 9 9 10 6 11 7 12 8 13
REMARK SMILES IDX 5 14 1 15 2 16 3 17 85 18 4 19 84 20 10 21 11 22 15 23 12 24
REMARK SMILES IDX 14 25 13 26 24 27 25 28 26 29 27 30 28 31 29 33 30 34 31 35
REMARK SMILES IDX 83 36 32 37 82 38 33 39 34 40 35 41 76 42 36 43 81 44 75 45
REMARK SMILES IDX 77 46 37 47 80 48 74 49 73 50 38 52 64 53 47 54 63 55 48 56
REMARK SMILES IDX 51 57 62 58 78 59 49 60 50 61 61 63 79 64 52 65 39 66 40 67
REMARK SMILES IDX 45 68 41 69 42 70 44 71 46 72 43 73 65 74 66 75 71 76 67 77
REMARK SMILES IDX 68 78 70 79 72 80 69 81 53 82 54 83 59 84 55 85 56 86 58 87
REMARK SMILES IDX 60 88 57 89
REMARK H PARENT 20 7 27 32 77 51 51 62
REMARK Flexibility Score: inf
ROOT
ATOM      1  C   UNL A   1      32.866  29.512  26.276  1.00  0.00     0.002 C 
ENDROOT
BRANCH   1   2
ATOM      2  C   UNL A   1      31.951  28.921  25.191  1.00  0.00     0.021 C 
BRANCH   2   3
ATOM      3  C   UNL A   1      31.253  27.604  25.521  1.00  0.00     0.116 C 
BRANCH   3   4
ATOM      4  N   UNL A   1      30.779  26.845  24.389  1.00  0.00    -0.354 N 
ATOM      5  C   UNL A   1      30.701  25.488  24.232  1.00  0.00     0.243 C 
ATOM      6  O   UNL A   1      29.927  25.101  23.346  1.00  0.00    -0.273 OA
ATOM      7  H   UNL A   1      30.470  27.378  23.622  1.00  0.00     0.163 HD
BRANCH   5   8
ATOM      8  C   UNL A   1      31.528  24.466  25.032  1.00  0.00     0.185 C 
ATOM      9  C   UNL A   1      30.696  23.642  26.016  1.00  0.00     0.043 C 
BRANCH   8  10
ATOM     10  N   UNL A   1      32.555  23.675  24.256  1.00  0.00    -0.254 N 
BRANCH  10  11
ATOM     11  S   UNL A   1      33.932  24.599  23.796  1.00  0.00     0.265 S 
ATOM     12  O   UNL A   1      33.897  25.802  24.609  1.00  0.00    -0.201 OA
ATOM     13  O   UNL A   1      33.921  24.699  22.352  1.00  0.00    -0.201 OA
BRANCH  11  14
ATOM     14  C   UNL A   1      35.449  23.764  24.236  1.00  0.00     0.088 A 
ATOM     15  C   UNL A   1      38.793  21.497  25.735  1.00  0.00     0.044 C 
ATOM     16  C   UNL A   1      37.654  22.314  25.200  1.00  0.00    -0.051 A 
ATOM     17  C   UNL A   1      37.161  23.407  25.919  1.00  0.00     0.005 A 
ATOM     18  C   UNL A   1      37.096  22.018  23.949  1.00  0.00     0.005 A 
ATOM     19  C   UNL A   1      36.051  24.113  25.452  1.00  0.00     0.022 A 
ATOM     20  C   UNL A   1      36.026  22.769  23.450  1.00  0.00     0.022 A 
ENDBRANCH  11  14
ENDBRANCH  10  11
BRANCH  10  21
ATOM     21  C   UNL A   1      32.715  22.280  24.497  1.00  0.00     0.053 A 
ATOM     22  C   UNL A   1      32.374  21.422  23.444  1.00  0.00     0.027 A 
ATOM     23  C   UNL A   1      33.225  21.758  25.682  1.00  0.00     0.027 A 
ATOM     24  C   UNL A   1      32.571  20.048  23.560  1.00  0.00     0.002 A 
ATOM     25  C   UNL A   1      33.395  20.375  25.808  1.00  0.00     0.002 A 
ATOM     26  C   UNL A   1      33.074  19.524  24.747  1.00  0.00     0.000 A 
ENDBRANCH  10  21
ENDBRANCH   8  10
ENDBRANCH   5   8
ENDBRANCH   3   4
ENDBRANCH   2   3
ENDBRANCH   1   2
BRANCH   1  27
ATOM     27  C   UNL A   1      32.454  30.840  26.938  1.00  0.00     0.002 C 
BRANCH  27  28
ATOM     28  C   UNL A   1      33.552  31.657  27.619  1.00  0.00     0.021 C 
BRANCH  28  29
ATOM     29  C   UNL A   1      34.777  30.878  28.072  1.00  0.00     0.116 C 
BRANCH  29  30
ATOM     30  N   UNL A   1      35.664  31.627  28.961  1.00  0.00    -0.352 N 
ATOM     31  C   UNL A   1      36.886  31.223  29.480  1.00  0.00     0.251 C 
ATOM     32  H   UNL A   1      35.357  32.525  29.223  1.00  0.00     0.163 HD
ATOM     33  O   UNL A   1      37.572  31.971  30.154  1.00  0.00    -0.269 OA
BRANCH  31  34
ATOM     34  C   UNL A   1      37.392  29.891  29.078  1.00  0.00     0.039 A 
ATOM     35  C   UNL A   1      37.585  28.950  30.092  1.00  0.00     0.014 A 
ATOM     36  C   UNL A   1      37.966  29.724  27.819  1.00  0.00     0.014 A 
ATOM     37  C   UNL A   1      38.581  27.995  29.935  1.00  0.00     0.010 A 
ATOM     38  C   UNL A   1      39.011  28.828  27.693  1.00  0.00     0.010 A 
ATOM     39  C   UNL A   1      39.374  28.034  28.787  1.00  0.00    -0.014 A 
BRANCH  39  40
ATOM     40  C   UNL A   1      40.693  27.411  28.739  1.00  0.00     0.031 A 
ATOM     41  C   UNL A   1      40.833  25.969  28.468  1.00  0.00     0.074 A 
ATOM     42  C   UNL A   1      41.792  28.171  28.955  1.00  0.00     0.049 A 
ATOM     43  N   UNL A   1      41.850  25.258  28.823  1.00  0.00    -0.248 NA
ATOM     44  C   UNL A   1      39.771  25.185  27.851  1.00  0.00     0.031 C 
ATOM     45  C   UNL A   1      43.187  27.795  28.752  1.00  0.00     0.029 A 
ATOM     46  N   UNL A   1      41.853  29.391  29.644  1.00  0.00    -0.354 N 
ATOM     47  C   UNL A   1      41.712  24.012  28.255  1.00  0.00     0.074 A 
ATOM     48  C   UNL A   1      40.350  23.983  27.788  1.00  0.00     0.031 C 
ATOM     49  C   UNL A   1      43.961  28.576  29.523  1.00  0.00     0.029 A 
ATOM     50  C   UNL A   1      43.078  29.384  30.347  1.00  0.00     0.049 A 
ATOM     51  H   UNL A   1      41.179  30.108  29.638  1.00  0.00     0.167 HD
ATOM     52  C   UNL A   1      42.819  23.221  28.132  1.00  0.00     0.037 A 
ATOM     53  C   UNL A   1      43.117  29.448  31.708  1.00  0.00     0.037 A 
ATOM     54  C   UNL A   1      43.923  23.751  28.944  1.00  0.00     0.049 A 
ATOM     55  C   UNL A   1      43.776  28.256  32.365  1.00  0.00     0.074 A 
ATOM     56  C   UNL A   1      45.073  24.458  28.637  1.00  0.00     0.029 A 
ATOM     57  N   UNL A   1      43.784  23.811  30.329  1.00  0.00    -0.354 N 
ATOM     58  N   UNL A   1      44.029  27.134  31.752  1.00  0.00    -0.248 NA
ATOM     59  C   UNL A   1      44.145  28.215  33.778  1.00  0.00     0.031 C 
ATOM     60  C   UNL A   1      45.571  25.027  29.840  1.00  0.00     0.029 A 
ATOM     61  C   UNL A   1      44.745  24.637  30.880  1.00  0.00     0.049 A 
ATOM     62  H   UNL A   1      43.097  23.331  30.845  1.00  0.00     0.167 HD
ATOM     63  C   UNL A   1      44.507  26.221  32.653  1.00  0.00     0.074 A 
ATOM     64  C   UNL A   1      44.601  26.957  33.900  1.00  0.00     0.031 C 
ATOM     65  C   UNL A   1      44.752  24.923  32.309  1.00  0.00     0.037 A 
BRANCH  52  66
ATOM     66  C   UNL A   1      43.009  22.126  27.086  1.00  0.00     0.057 A 
ATOM     67  C   UNL A   1      42.253  20.933  27.162  1.00  0.00     0.134 A 
ATOM     68  C   UNL A   1      43.980  22.101  26.064  1.00  0.00     0.134 A 
ATOM     69  F   UNL A   1      41.246  20.794  28.034  1.00  0.00    -0.206 F 
ATOM     70  C   UNL A   1      42.499  19.808  26.358  1.00  0.00     0.040 A 
ATOM     71  C   UNL A   1      44.231  20.987  25.248  1.00  0.00     0.040 A 
ATOM     72  F   UNL A   1      44.761  23.143  25.778  1.00  0.00    -0.206 F 
ATOM     73  C   UNL A   1      43.503  19.825  25.405  1.00  0.00     0.006 A 
ENDBRANCH  52  66
BRANCH  53  74
ATOM     74  C   UNL A   1      42.001  30.229  32.300  1.00  0.00     0.057 A 
ATOM     75  C   UNL A   1      42.082  31.633  32.296  1.00  0.00     0.134 A 
ATOM     76  C   UNL A   1      40.747  29.664  32.542  1.00  0.00     0.134 A 
ATOM     77  F   UNL A   1      43.257  32.240  32.069  1.00  0.00    -0.206 F 
ATOM     78  C   UNL A   1      40.948  32.439  32.420  1.00  0.00     0.040 A 
ATOM     79  C   UNL A   1      39.604  30.461  32.679  1.00  0.00     0.040 A 
ATOM     80  F   UNL A   1      40.585  28.333  32.538  1.00  0.00    -0.206 F 
ATOM     81  C   UNL A   1      39.697  31.850  32.581  1.00  0.00     0.006 A 
ENDBRANCH  53  74
BRANCH  65  82
ATOM     82  C   UNL A   1      45.078  23.825  33.285  1.00  0.00     0.057 A 
ATOM     83  C   UNL A   1      46.333  23.657  33.887  1.00  0.00     0.134 A 
ATOM     84  C   UNL A   1      44.062  22.968  33.758  1.00  0.00     0.134 A 
ATOM     85  F   UNL A   1      47.358  24.477  33.608  1.00  0.00    -0.206 F 
ATOM     86  C   UNL A   1      46.580  22.666  34.847  1.00  0.00     0.040 A 
ATOM     87  C   UNL A   1      44.284  22.007  34.748  1.00  0.00     0.040 A 
ATOM     88  F   UNL A   1      42.809  23.043  33.285  1.00  0.00    -0.206 F 
ATOM     89  C   UNL A   1      45.551  21.843  35.288  1.00  0.00     0.006 A 
ENDBRANCH  65  82
ENDBRANCH  39  40
ENDBRANCH  31  34
ENDBRANCH  29  30
ENDBRANCH  28  29
ENDBRANCH  27  28
ENDBRANCH   1  27
TORSDOF 17
ENDMDL
MODEL 3
REMARK VINA RESULT:     -12.3      1.148      2.542
REMARK SMILES Cc1ccc(S(=O)(=O)N(c2ccccc2)[C@H](C)C(=O)NCCCCCCNC(=O)c2ccc(-c3c4nc(c(-c5c(F)cccc5F)c5ccc([nH]5)c(-c5c(F)cccc5F)c5nc(c(-c6c(F)cccc6F)c6ccc3[nH]6)C=C5)C=C4)cc2)cc1
REMARK SMILES IDX 23 1 22 2 21 3 20 4 18 5 19 6 16 8 17 9 9 10 6 11 7 12 8 13
REMARK SMILES IDX 5 14 1 15 2 16 3 17 85 18 4 19 84 20 10 21 11 22 15 23 12 24
REMARK SMILES IDX 14 25 13 26 24 27 25 28 26 29 27 30 28 31 29 33 30 34 31 35
REMARK SMILES IDX 83 36 32 37 82 38 33 39 34 40 35 41 76 42 36 43 81 44 75 45
REMARK SMILES IDX 77 46 37 47 80 48 74 49 73 50 38 52 64 53 47 54 63 55 48 56
REMARK SMILES IDX 51 57 62 58 78 59 49 60 50 61 61 63 79 64 52 65 39 66 40 67
REMARK SMILES IDX 45 68 41 69 42 70 44 71 46 72 43 73 65 74 66 75 71 76 67 77
REMARK SMILES IDX 68 78 70 79 72 80 69 81 53 82 54 83 59 84 55 85 56 86 58 87
REMARK SMILES IDX 60 88 57 89
REMARK H PARENT 20 7 27 32 77 51 51 62
REMARK Flexibility Score: inf
ROOT
ATOM      1  C   UNL A   1      31.448  28.448  27.060  1.00  0.00     0.002 C 
ENDROOT
BRANCH   1   2
ATOM      2  C   UNL A   1      31.993  27.107  26.542  1.00  0.00     0.021 C 
BRANCH   2   3
ATOM      3  C   UNL A   1      30.966  26.098  26.031  1.00  0.00     0.116 C 
BRANCH   3   4
ATOM      4  N   UNL A   1      31.059  24.772  26.592  1.00  0.00    -0.354 N 
ATOM      5  C   UNL A   1      32.118  23.907  26.592  1.00  0.00     0.243 C 
ATOM      6  O   UNL A   1      32.071  23.010  27.444  1.00  0.00    -0.273 OA
ATOM      7  H   UNL A   1      30.244  24.444  27.036  1.00  0.00     0.163 HD
BRANCH   5   8
ATOM      8  C   UNL A   1      33.290  23.960  25.595  1.00  0.00     0.185 C 
ATOM      9  C   UNL A   1      34.662  24.011  26.268  1.00  0.00     0.043 C 
BRANCH   8  10
ATOM     10  N   UNL A   1      33.205  23.035  24.404  1.00  0.00    -0.254 N 
BRANCH  10  11
ATOM     11  S   UNL A   1      33.652  23.782  22.920  1.00  0.00     0.265 S 
ATOM     12  O   UNL A   1      33.062  22.969  21.869  1.00  0.00    -0.201 OA
ATOM     13  O   UNL A   1      35.084  23.993  22.957  1.00  0.00    -0.201 OA
BRANCH  11  14
ATOM     14  C   UNL A   1      32.904  25.396  22.757  1.00  0.00     0.088 A 
ATOM     15  C   UNL A   1      30.787  29.149  22.848  1.00  0.00     0.044 C 
ATOM     16  C   UNL A   1      31.528  27.845  22.777  1.00  0.00    -0.051 A 
ATOM     17  C   UNL A   1      30.867  26.670  22.407  1.00  0.00     0.005 A 
ATOM     18  C   UNL A   1      32.903  27.797  23.039  1.00  0.00     0.005 A 
ATOM     19  C   UNL A   1      31.545  25.449  22.418  1.00  0.00     0.022 A 
ATOM     20  C   UNL A   1      33.597  26.583  22.985  1.00  0.00     0.022 A 
ENDBRANCH  11  14
ENDBRANCH  10  11
BRANCH  10  21
ATOM     21  C   UNL A   1      33.432  21.638  24.565  1.00  0.00     0.053 A 
ATOM     22  C   UNL A   1      32.305  20.810  24.497  1.00  0.00     0.027 A 
ATOM     23  C   UNL A   1      34.696  21.080  24.733  1.00  0.00     0.027 A 
ATOM     24  C   UNL A   1      32.440  19.425  24.565  1.00  0.00     0.002 A 
ATOM     25  C   UNL A   1      34.827  19.690  24.830  1.00  0.00     0.002 A 
ATOM     26  C   UNL A   1      33.702  18.866  24.741  1.00  0.00     0.000 A 
ENDBRANCH  10  21
ENDBRANCH   8  10
ENDBRANCH   5   8
ENDBRANCH   3   4
ENDBRANCH   2   3
ENDBRANCH   1   2
BRANCH   1  27
ATOM     27  C   UNL A   1      31.765  29.725  26.261  1.00  0.00     0.002 C 
BRANCH  27  28
ATOM     28  C   UNL A   1      32.537  30.832  26.980  1.00  0.00     0.021 C 
BRANCH  28  29
ATOM     29  C   UNL A   1      33.898  30.443  27.533  1.00  0.00     0.116 C 
BRANCH  29  30
ATOM     30  N   UNL A   1      34.424  31.372  28.530  1.00  0.00    -0.352 N 
ATOM     31  C   UNL A   1      35.608  31.270  29.246  1.00  0.00     0.251 C 
ATOM     32  H   UNL A   1      33.872  32.166  28.717  1.00  0.00     0.163 HD
ATOM     33  O   UNL A   1      35.977  32.154  30.001  1.00  0.00    -0.269 OA
BRANCH  31  34
ATOM     34  C   UNL A   1      36.479  30.105  28.965  1.00  0.00     0.039 A 
ATOM     35  C   UNL A   1      36.762  29.250  30.031  1.00  0.00     0.014 A 
ATOM     36  C   UNL A   1      37.239  30.082  27.797  1.00  0.00     0.014 A 
ATOM     37  C   UNL A   1      37.976  28.575  30.041  1.00  0.00     0.010 A 
ATOM     38  C   UNL A   1      38.481  29.477  27.841  1.00  0.00     0.010 A 
ATOM     39  C   UNL A   1      38.880  28.806  29.003  1.00  0.00    -0.014 A 
BRANCH  39  40
ATOM     40  C   UNL A   1      40.307  28.534  29.148  1.00  0.00     0.031 A 
ATOM     41  C   UNL A   1      40.887  27.273  28.650  1.00  0.00     0.074 A 
ATOM     42  C   UNL A   1      41.097  29.451  29.755  1.00  0.00     0.049 A 
ATOM     43  N   UNL A   1      41.981  26.752  29.093  1.00  0.00    -0.248 NA
ATOM     44  C   UNL A   1      40.209  26.440  27.666  1.00  0.00     0.031 C 
ATOM     45  C   UNL A   1      42.555  29.468  29.817  1.00  0.00     0.029 A 
ATOM     46  N   UNL A   1      40.695  30.448  30.656  1.00  0.00    -0.354 N 
ATOM     47  C   UNL A   1      42.296  25.684  28.284  1.00  0.00     0.074 A 
ATOM     48  C   UNL A   1      41.100  25.456  27.515  1.00  0.00     0.031 C 
ATOM     49  C   UNL A   1      42.932  30.195  30.880  1.00  0.00     0.029 A 
ATOM     50  C   UNL A   1      41.729  30.553  31.612  1.00  0.00     0.049 A 
ATOM     51  H   UNL A   1      39.861  30.969  30.628  1.00  0.00     0.167 HD
ATOM     52  C   UNL A   1      43.582  25.223  28.277  1.00  0.00     0.037 A 
ATOM     53  C   UNL A   1      41.507  30.292  32.931  1.00  0.00     0.037 A 
ATOM     54  C   UNL A   1      44.334  25.780  29.410  1.00  0.00     0.049 A 
ATOM     55  C   UNL A   1      42.343  29.161  33.488  1.00  0.00     0.074 A 
ATOM     56  C   UNL A   1      45.279  26.786  29.520  1.00  0.00     0.029 A 
ATOM     57  N   UNL A   1      43.941  25.468  30.710  1.00  0.00    -0.354 N 
ATOM     58  N   UNL A   1      43.001  28.310  32.750  1.00  0.00    -0.248 NA
ATOM     59  C   UNL A   1      42.453  28.864  34.914  1.00  0.00     0.031 C 
ATOM     60  C   UNL A   1      45.379  27.144  30.890  1.00  0.00     0.029 A 
ATOM     61  C   UNL A   1      44.523  26.335  31.616  1.00  0.00     0.049 A 
ATOM     62  H   UNL A   1      43.333  24.732  30.950  1.00  0.00     0.167 HD
ATOM     63  C   UNL A   1      43.546  27.342  33.550  1.00  0.00     0.074 A 
ATOM     64  C   UNL A   1      43.210  27.754  34.900  1.00  0.00     0.031 C 
ATOM     65  C   UNL A   1      44.197  26.258  33.034  1.00  0.00     0.037 A 
BRANCH  52  66
ATOM     66  C   UNL A   1      44.250  24.489  27.117  1.00  0.00     0.057 A 
ATOM     67  C   UNL A   1      45.009  23.322  27.360  1.00  0.00     0.134 A 
ATOM     68  C   UNL A   1      44.306  24.918  25.775  1.00  0.00     0.134 A 
ATOM     69  F   UNL A   1      45.030  22.734  28.564  1.00  0.00    -0.206 F 
ATOM     70  C   UNL A   1      45.805  22.699  26.384  1.00  0.00     0.040 A 
ATOM     71  C   UNL A   1      45.091  24.300  24.788  1.00  0.00     0.040 A 
ATOM     72  F   UNL A   1      43.617  25.961  25.315  1.00  0.00    -0.206 F 
ATOM     73  C   UNL A   1      45.861  23.196  25.094  1.00  0.00     0.006 A 
ENDBRANCH  52  66
BRANCH  53  74
ATOM     74  C   UNL A   1      40.132  30.626  33.382  1.00  0.00     0.057 A 
ATOM     75  C   UNL A   1      39.795  31.977  33.576  1.00  0.00     0.134 A 
ATOM     76  C   UNL A   1      39.079  29.713  33.291  1.00  0.00     0.134 A 
ATOM     77  F   UNL A   1      40.759  32.907  33.671  1.00  0.00    -0.206 F 
ATOM     78  C   UNL A   1      38.468  32.416  33.572  1.00  0.00     0.040 A 
ATOM     79  C   UNL A   1      37.745  30.140  33.296  1.00  0.00     0.040 A 
ATOM     80  F   UNL A   1      39.320  28.411  33.083  1.00  0.00    -0.206 F 
ATOM     81  C   UNL A   1      37.439  31.497  33.399  1.00  0.00     0.006 A 
ENDBRANCH  53  74
BRANCH  65  82
ATOM     82  C   UNL A   1      44.635  25.062  33.835  1.00  0.00     0.057 A 
ATOM     83  C   UNL A   1      43.754  24.200  34.504  1.00  0.00     0.134 A 
ATOM     84  C   UNL A   1      45.988  24.663  33.835  1.00  0.00     0.134 A 
ATOM     85  F   UNL A   1      42.429  24.405  34.489  1.00  0.00    -0.206 F 
ATOM     86  C   UNL A   1      44.193  23.054  35.181  1.00  0.00     0.040 A 
ATOM     87  C   UNL A   1      46.431  23.497  34.466  1.00  0.00     0.040 A 
ATOM     88  F   UNL A   1      46.929  25.383  33.208  1.00  0.00    -0.206 F 
ATOM     89  C   UNL A   1      45.535  22.693  35.156  1.00  0.00     0.006 A 
ENDBRANCH  65  82
ENDBRANCH  39  40
ENDBRANCH  31  34
ENDBRANCH  29  30
ENDBRANCH  28  29
ENDBRANCH  27  28
ENDBRANCH   1  27
TORSDOF 17
ENDMDL
