MODEL 1
REMARK VINA RESULT:     -10.9      0.000      0.000
REMARK SMILES CC(C)n1ncnc1C[C@@H](C(=O)NCCCCCCNC(=O)c1ccc(-c2c3nc(c(-c4c(F)cccc4F)c4ccc([nH]4)c(-c4c(F)cccc4F)c4nc(c(-c5c(F)cccc5F)c5ccc2[nH]5)C=C4)C=C3)cc1)c1cccc(Br)c1
REMARK SMILES IDX 16 1 15 2 14 3 13 4 11 5 12 6 10 8 9 9 8 10 4 11 5 12 6 13
REMARK SMILES IDX 7 14 2 15 1 16 3 17 77 18 78 19 83 20 79 21 81 22 80 23
REMARK SMILES IDX 82 24 17 25 18 26 19 27 20 28 21 29 22 31 23 32 24 33 76 34
REMARK SMILES IDX 25 35 75 36 26 37 27 38 28 39 69 40 29 41 74 42 68 43 70 44
REMARK SMILES IDX 30 45 73 46 67 47 66 48 31 50 57 51 40 52 56 53 41 54 44 55
REMARK SMILES IDX 55 56 71 57 42 58 43 59 54 61 72 62 45 63 32 64 33 65 38 66
REMARK SMILES IDX 34 67 35 68 37 69 39 70 36 71 58 72 59 73 64 74 60 75 61 76
REMARK SMILES IDX 63 77 65 78 62 79 46 80 47 81 52 82 48 83 49 84 51 85 53 86
REMARK SMILES IDX 50 87
REMARK H PARENT 13 7 20 30 70 49 44 60
REMARK Flexibility Score: inf
ROOT
ATOM      1  C   UNL A   1      39.726  22.203  26.369  1.00  0.00     0.002 C 
ENDROOT
BRANCH   1   2
ATOM      2  C   UNL A   1      38.755  23.364  26.578  1.00  0.00     0.021 C 
BRANCH   2   3
ATOM      3  C   UNL A   1      37.507  23.373  25.690  1.00  0.00     0.116 C 
BRANCH   3   4
ATOM      4  N   UNL A   1      36.416  22.721  26.387  1.00  0.00    -0.356 N 
ATOM      5  C   UNL A   1      35.117  23.151  26.461  1.00  0.00     0.228 C 
ATOM      6  O   UNL A   1      34.542  22.992  27.541  1.00  0.00    -0.274 OA
ATOM      7  H   UNL A   1      36.630  21.882  26.855  1.00  0.00     0.163 HD
BRANCH   5   8
ATOM      8  C   UNL A   1      34.391  23.689  25.199  1.00  0.00     0.116 C 
BRANCH   8   9
ATOM      9  C   UNL A   1      33.297  24.709  25.621  1.00  0.00     0.095 C 
BRANCH   9  10
ATOM     10  C   UNL A   1      33.521  26.139  25.248  1.00  0.00     0.128 A 
ATOM     11  N   UNL A   1      33.240  26.753  24.039  1.00  0.00    -0.248 N 
ATOM     12  N   UNL A   1      33.616  28.053  24.091  1.00  0.00    -0.159 NA
ATOM     13  C   UNL A   1      33.889  28.215  25.381  1.00  0.00     0.246 A 
ATOM     14  N   UNL A   1      33.870  27.072  26.113  1.00  0.00    -0.220 NA
BRANCH  11  15
ATOM     15  C   UNL A   1      32.354  26.323  22.955  1.00  0.00     0.103 C 
ATOM     16  C   UNL A   1      31.137  27.251  22.771  1.00  0.00     0.033 C 
ATOM     17  C   UNL A   1      33.042  26.165  21.601  1.00  0.00     0.033 C 
ENDBRANCH  11  15
ENDBRANCH   9  10
ENDBRANCH   8   9
BRANCH   8  18
ATOM     18  C   UNL A   1      33.737  22.528  24.384  1.00  0.00    -0.034 A 
ATOM     19  C   UNL A   1      33.109  22.771  23.146  1.00  0.00     0.004 A 
ATOM     20  C   UNL A   1      33.704  21.199  24.858  1.00  0.00     0.020 A 
ATOM     21  C   UNL A   1      32.349  21.787  22.502  1.00  0.00     0.001 A 
ATOM     22  C   UNL A   1      32.945  20.217  24.211  1.00  0.00     0.018 A 
ATOM     23  C   UNL A   1      32.242  20.514  23.050  1.00  0.00     0.016 A 
ATOM     24  Br  UNL A   1      32.832  18.478  24.945  1.00  0.00    -0.051 Br
ENDBRANCH   8  18
ENDBRANCH   5   8
ENDBRANCH   3   4
ENDBRANCH   2   3
ENDBRANCH   1   2
BRANCH   1  25
ATOM     25  C   UNL A   1      40.636  21.881  27.559  1.00  0.00     0.002 C 
BRANCH  25  26
ATOM     26  C   UNL A   1      41.634  20.730  27.365  1.00  0.00     0.021 C 
BRANCH  26  27
ATOM     27  C   UNL A   1      41.701  20.204  25.940  1.00  0.00     0.116 C 
BRANCH  27  28
ATOM     28  N   UNL A   1      43.066  19.934  25.497  1.00  0.00    -0.352 N 
ATOM     29  C   UNL A   1      44.066  20.840  25.190  1.00  0.00     0.251 C 
ATOM     30  H   UNL A   1      43.307  18.984  25.408  1.00  0.00     0.163 HD
ATOM     31  O   UNL A   1      45.033  20.506  24.527  1.00  0.00    -0.269 OA
BRANCH  29  32
ATOM     32  C   UNL A   1      43.952  22.222  25.694  1.00  0.00     0.039 A 
ATOM     33  C   UNL A   1      43.135  23.163  25.059  1.00  0.00     0.014 A 
ATOM     34  C   UNL A   1      44.699  22.575  26.813  1.00  0.00     0.014 A 
ATOM     35  C   UNL A   1      43.045  24.445  25.595  1.00  0.00     0.010 A 
ATOM     36  C   UNL A   1      44.479  23.772  27.436  1.00  0.00     0.010 A 
ATOM     37  C   UNL A   1      43.721  24.737  26.789  1.00  0.00    -0.014 A 
BRANCH  37  38
ATOM     38  C   UNL A   1      43.575  26.024  27.455  1.00  0.00     0.031 A 
ATOM     39  C   UNL A   1      44.618  27.012  27.082  1.00  0.00     0.074 A 
ATOM     40  C   UNL A   1      42.456  26.358  28.136  1.00  0.00     0.049 A 
ATOM     41  N   UNL A   1      45.539  27.508  27.839  1.00  0.00    -0.248 NA
ATOM     42  C   UNL A   1      44.755  27.378  25.661  1.00  0.00     0.031 C 
ATOM     43  C   UNL A   1      41.218  25.581  28.292  1.00  0.00     0.029 A 
ATOM     44  N   UNL A   1      42.143  27.529  28.753  1.00  0.00    -0.354 N 
ATOM     45  C   UNL A   1      46.229  28.422  27.047  1.00  0.00     0.074 A 
ATOM     46  C   UNL A   1      45.846  28.145  25.688  1.00  0.00     0.031 C 
ATOM     47  C   UNL A   1      40.228  26.383  28.743  1.00  0.00     0.029 A 
ATOM     48  C   UNL A   1      40.797  27.676  29.075  1.00  0.00     0.049 A 
ATOM     49  H   UNL A   1      42.817  28.218  28.956  1.00  0.00     0.167 HD
ATOM     50  C   UNL A   1      46.841  29.503  27.605  1.00  0.00     0.037 A 
ATOM     51  C   UNL A   1      40.197  28.795  29.555  1.00  0.00     0.037 A 
ATOM     52  C   UNL A   1      46.988  29.328  29.030  1.00  0.00     0.049 A 
ATOM     53  C   UNL A   1      41.267  29.668  30.094  1.00  0.00     0.074 A 
ATOM     54  C   UNL A   1      47.622  28.405  29.840  1.00  0.00     0.029 A 
ATOM     55  N   UNL A   1      46.088  29.978  29.839  1.00  0.00    -0.354 N 
ATOM     56  N   UNL A   1      41.969  29.380  31.153  1.00  0.00    -0.248 NA
ATOM     57  C   UNL A   1      41.872  30.627  29.184  1.00  0.00     0.031 C 
ATOM     58  C   UNL A   1      46.741  28.219  30.946  1.00  0.00     0.029 A 
ATOM     59  C   UNL A   1      45.663  29.092  30.794  1.00  0.00     0.049 A 
ATOM     60  H   UNL A   1      45.801  30.915  29.749  1.00  0.00     0.167 HD
ATOM     61  C   UNL A   1      43.264  29.757  30.827  1.00  0.00     0.074 A 
ATOM     62  C   UNL A   1      43.126  30.600  29.641  1.00  0.00     0.031 C 
ATOM     63  C   UNL A   1      44.338  29.109  31.368  1.00  0.00     0.037 A 
BRANCH  50  64
ATOM     64  C   UNL A   1      46.918  30.870  26.961  1.00  0.00     0.057 A 
ATOM     65  C   UNL A   1      48.152  31.547  26.958  1.00  0.00     0.134 A 
ATOM     66  C   UNL A   1      45.804  31.668  26.631  1.00  0.00     0.134 A 
ATOM     67  F   UNL A   1      49.292  30.904  27.256  1.00  0.00    -0.206 F 
ATOM     68  C   UNL A   1      48.254  32.927  26.742  1.00  0.00     0.040 A 
ATOM     69  C   UNL A   1      45.902  33.036  26.362  1.00  0.00     0.040 A 
ATOM     70  F   UNL A   1      44.550  31.204  26.646  1.00  0.00    -0.206 F 
ATOM     71  C   UNL A   1      47.124  33.678  26.454  1.00  0.00     0.006 A 
ENDBRANCH  50  64
BRANCH  51  72
ATOM     72  C   UNL A   1      38.822  29.298  29.326  1.00  0.00     0.057 A 
ATOM     73  C   UNL A   1      38.349  29.549  28.030  1.00  0.00     0.134 A 
ATOM     74  C   UNL A   1      37.850  29.259  30.341  1.00  0.00     0.134 A 
ATOM     75  F   UNL A   1      39.193  29.568  26.989  1.00  0.00    -0.206 F 
ATOM     76  C   UNL A   1      36.985  29.720  27.753  1.00  0.00     0.040 A 
ATOM     77  C   UNL A   1      36.487  29.432  30.079  1.00  0.00     0.040 A 
ATOM     78  F   UNL A   1      38.183  28.957  31.604  1.00  0.00    -0.206 F 
ATOM     79  C   UNL A   1      36.047  29.648  28.778  1.00  0.00     0.006 A 
ENDBRANCH  51  72
BRANCH  63  80
ATOM     80  C   UNL A   1      44.083  28.168  32.516  1.00  0.00     0.057 A 
ATOM     81  C   UNL A   1      43.878  28.571  33.845  1.00  0.00     0.134 A 
ATOM     82  C   UNL A   1      43.900  26.811  32.236  1.00  0.00     0.134 A 
ATOM     83  F   UNL A   1      43.935  29.861  34.197  1.00  0.00    -0.206 F 
ATOM     84  C   UNL A   1      43.550  27.659  34.854  1.00  0.00     0.040 A 
ATOM     85  C   UNL A   1      43.539  25.895  33.226  1.00  0.00     0.040 A 
ATOM     86  F   UNL A   1      44.024  26.358  30.979  1.00  0.00    -0.206 F 
ATOM     87  C   UNL A   1      43.374  26.315  34.543  1.00  0.00     0.006 A 
ENDBRANCH  63  80
ENDBRANCH  37  38
ENDBRANCH  29  32
ENDBRANCH  27  28
ENDBRANCH  26  27
ENDBRANCH  25  26
ENDBRANCH   1  25
TORSDOF 17
ENDMDL
MODEL 2
REMARK VINA RESULT:     -10.6      2.113      3.544
REMARK SMILES CC(C)n1ncnc1C[C@@H](C(=O)NCCCCCCNC(=O)c1ccc(-c2c3nc(c(-c4c(F)cccc4F)c4ccc([nH]4)c(-c4c(F)cccc4F)c4nc(c(-c5c(F)cccc5F)c5ccc2[nH]5)C=C4)C=C3)cc1)c1cccc(Br)c1
REMARK SMILES IDX 16 1 15 2 14 3 13 4 11 5 12 6 10 8 9 9 8 10 4 11 5 12 6 13
REMARK SMILES IDX 7 14 2 15 1 16 3 17 77 18 78 19 83 20 79 21 81 22 80 23
REMARK SMILES IDX 82 24 17 25 18 26 19 27 20 28 21 29 22 31 23 32 24 33 76 34
REMARK SMILES IDX 25 35 75 36 26 37 27 38 28 39 69 40 29 41 74 42 68 43 70 44
REMARK SMILES IDX 30 45 73 46 67 47 66 48 31 50 57 51 40 52 56 53 41 54 44 55
REMARK SMILES IDX 55 56 71 57 42 58 43 59 54 61 72 62 45 63 32 64 33 65 38 66
REMARK SMILES IDX 34 67 35 68 37 69 39 70 36 71 58 72 59 73 64 74 60 75 61 76
REMARK SMILES IDX 63 77 65 78 62 79 46 80 47 81 52 82 48 83 49 84 51 85 53 86
REMARK SMILES IDX 50 87
REMARK H PARENT 13 7 20 30 70 49 44 60
REMARK Flexibility Score: inf
ROOT
ATOM      1  C   UNL A   1      41.287  21.813  27.482  1.00  0.00     0.002 C 
ENDROOT
BRANCH   1   2
ATOM      2  C   UNL A   1      39.977  22.434  26.999  1.00  0.00     0.021 C 
BRANCH   2   3
ATOM      3  C   UNL A   1      39.075  21.537  26.147  1.00  0.00     0.116 C 
BRANCH   3   4
ATOM      4  N   UNL A   1      38.247  22.361  25.288  1.00  0.00    -0.356 N 
ATOM      5  C   UNL A   1      37.118  21.971  24.617  1.00  0.00     0.228 C 
ATOM      6  O   UNL A   1      36.961  22.434  23.484  1.00  0.00    -0.274 OA
ATOM      7  H   UNL A   1      38.525  23.299  25.176  1.00  0.00     0.163 HD
BRANCH   5   8
ATOM      8  C   UNL A   1      36.046  21.096  25.319  1.00  0.00     0.116 C 
BRANCH   8   9
ATOM      9  C   UNL A   1      35.303  20.234  24.261  1.00  0.00     0.095 C 
BRANCH   9  10
ATOM     10  C   UNL A   1      34.930  18.842  24.660  1.00  0.00     0.128 A 
ATOM     11  N   UNL A   1      33.660  18.299  24.751  1.00  0.00    -0.248 N 
ATOM     12  N   UNL A   1      33.744  17.014  25.174  1.00  0.00    -0.159 NA
ATOM     13  C   UNL A   1      35.050  16.778  25.098  1.00  0.00     0.246 A 
ATOM     14  N   UNL A   1      35.807  17.869  24.815  1.00  0.00    -0.220 NA
BRANCH  11  15
ATOM     15  C   UNL A   1      32.400  18.762  24.167  1.00  0.00     0.103 C 
ATOM     16  C   UNL A   1      32.146  20.265  24.401  1.00  0.00     0.033 C 
ATOM     17  C   UNL A   1      32.256  18.483  22.672  1.00  0.00     0.033 C 
ENDBRANCH  11  15
ENDBRANCH   9  10
ENDBRANCH   8   9
BRANCH   8  18
ATOM     18  C   UNL A   1      35.014  21.977  26.094  1.00  0.00    -0.034 A 
ATOM     19  C   UNL A   1      34.320  21.473  27.212  1.00  0.00     0.004 A 
ATOM     20  C   UNL A   1      34.697  23.293  25.695  1.00  0.00     0.020 A 
ATOM     21  C   UNL A   1      33.255  22.172  27.791  1.00  0.00     0.001 A 
ATOM     22  C   UNL A   1      33.633  23.990  26.279  1.00  0.00     0.018 A 
ATOM     23  C   UNL A   1      32.890  23.423  27.306  1.00  0.00     0.016 A 
ATOM     24  Br  UNL A   1      33.164  25.706  25.634  1.00  0.00    -0.051 Br
ENDBRANCH   8  18
ENDBRANCH   5   8
ENDBRANCH   3   4
ENDBRANCH   2   3
ENDBRANCH   1   2
BRANCH   1  25
ATOM     25  C   UNL A   1      41.238  20.308  27.765  1.00  0.00     0.002 C 
BRANCH  25  26
ATOM     26  C   UNL A   1      42.229  19.433  26.982  1.00  0.00     0.021 C 
BRANCH  26  27
ATOM     27  C   UNL A   1      42.436  19.871  25.541  1.00  0.00     0.116 C 
BRANCH  27  28
ATOM     28  N   UNL A   1      43.818  19.720  25.094  1.00  0.00    -0.352 N 
ATOM     29  C   UNL A   1      44.746  20.708  24.817  1.00  0.00     0.251 C 
ATOM     30  H   UNL A   1      44.130  18.794  24.975  1.00  0.00     0.163 HD
ATOM     31  O   UNL A   1      45.736  20.470  24.147  1.00  0.00    -0.269 OA
BRANCH  29  32
ATOM     32  C   UNL A   1      44.526  22.061  25.364  1.00  0.00     0.039 A 
ATOM     33  C   UNL A   1      43.635  22.955  24.759  1.00  0.00     0.014 A 
ATOM     34  C   UNL A   1      45.249  22.438  26.492  1.00  0.00     0.014 A 
ATOM     35  C   UNL A   1      43.449  24.209  25.335  1.00  0.00     0.010 A 
ATOM     36  C   UNL A   1      44.940  23.595  27.151  1.00  0.00     0.010 A 
ATOM     37  C   UNL A   1      44.105  24.516  26.536  1.00  0.00    -0.014 A 
BRANCH  37  38
ATOM     38  C   UNL A   1      43.862  25.767  27.241  1.00  0.00     0.031 A 
ATOM     39  C   UNL A   1      44.823  26.845  26.895  1.00  0.00     0.074 A 
ATOM     40  C   UNL A   1      42.725  25.991  27.936  1.00  0.00     0.049 A 
ATOM     41  N   UNL A   1      45.706  27.389  27.663  1.00  0.00    -0.248 NA
ATOM     42  C   UNL A   1      44.921  27.263  25.486  1.00  0.00     0.031 C 
ATOM     43  C   UNL A   1      41.552  25.115  28.072  1.00  0.00     0.029 A 
ATOM     44  N   UNL A   1      42.324  27.115  28.590  1.00  0.00    -0.354 N 
ATOM     45  C   UNL A   1      46.318  28.378  26.897  1.00  0.00     0.074 A 
ATOM     46  C   UNL A   1      45.950  28.113  25.532  1.00  0.00     0.031 C 
ATOM     47  C   UNL A   1      40.505  25.823  28.552  1.00  0.00     0.029 A 
ATOM     48  C   UNL A   1      40.972  27.146  28.920  1.00  0.00     0.049 A 
ATOM     49  H   UNL A   1      42.943  27.849  28.811  1.00  0.00     0.167 HD
ATOM     50  C   UNL A   1      46.845  29.487  27.486  1.00  0.00     0.037 A 
ATOM     51  C   UNL A   1      40.289  28.199  29.436  1.00  0.00     0.037 A 
ATOM     52  C   UNL A   1      47.014  29.280  28.905  1.00  0.00     0.049 A 
ATOM     53  C   UNL A   1      41.291  29.137  29.998  1.00  0.00     0.074 A 
ATOM     54  C   UNL A   1      47.724  28.386  29.684  1.00  0.00     0.029 A 
ATOM     55  N   UNL A   1      46.071  29.833  29.736  1.00  0.00    -0.354 N 
ATOM     56  N   UNL A   1      42.020  28.874  31.045  1.00  0.00    -0.248 NA
ATOM     57  C   UNL A   1      41.813  30.168  29.116  1.00  0.00     0.031 C 
ATOM     58  C   UNL A   1      46.867  28.099  30.787  1.00  0.00     0.029 A 
ATOM     59  C   UNL A   1      45.722  28.888  30.665  1.00  0.00     0.049 A 
ATOM     60  H   UNL A   1      45.710  30.747  29.676  1.00  0.00     0.167 HD
ATOM     61  C   UNL A   1      43.279  29.361  30.727  1.00  0.00     0.074 A 
ATOM     62  C   UNL A   1      43.068  30.226  29.568  1.00  0.00     0.031 C 
ATOM     63  C   UNL A   1      44.403  28.784  31.244  1.00  0.00     0.037 A 
BRANCH  50  64
ATOM     64  C   UNL A   1      46.811  30.874  26.884  1.00  0.00     0.057 A 
ATOM     65  C   UNL A   1      47.989  31.645  26.896  1.00  0.00     0.134 A 
ATOM     66  C   UNL A   1      45.636  31.591  26.583  1.00  0.00     0.134 A 
ATOM     67  F   UNL A   1      49.177  31.085  27.169  1.00  0.00    -0.206 F 
ATOM     68  C   UNL A   1      47.981  33.035  26.722  1.00  0.00     0.040 A 
ATOM     69  C   UNL A   1      45.624  32.971  26.356  1.00  0.00     0.040 A 
ATOM     70  F   UNL A   1      44.422  31.030  26.589  1.00  0.00    -0.206 F 
ATOM     71  C   UNL A   1      46.793  33.704  26.462  1.00  0.00     0.006 A 
ENDBRANCH  50  64
BRANCH  51  72
ATOM     72  C   UNL A   1      38.878  28.599  29.228  1.00  0.00     0.057 A 
ATOM     73  C   UNL A   1      37.973  28.647  30.298  1.00  0.00     0.134 A 
ATOM     74  C   UNL A   1      38.463  29.226  28.041  1.00  0.00     0.134 A 
ATOM     75  F   UNL A   1      38.293  28.110  31.484  1.00  0.00    -0.206 F 
ATOM     76  C   UNL A   1      36.739  29.308  30.205  1.00  0.00     0.040 A 
ATOM     77  C   UNL A   1      37.233  29.886  27.932  1.00  0.00     0.040 A 
ATOM     78  F   UNL A   1      39.277  29.301  26.978  1.00  0.00    -0.206 F 
ATOM     79  C   UNL A   1      36.373  29.942  29.022  1.00  0.00     0.006 A 
ENDBRANCH  51  72
BRANCH  63  80
ATOM     80  C   UNL A   1      44.230  27.791  32.363  1.00  0.00     0.057 A 
ATOM     81  C   UNL A   1      44.142  26.401  32.188  1.00  0.00     0.134 A 
ATOM     82  C   UNL A   1      44.294  28.255  33.681  1.00  0.00     0.134 A 
ATOM     83  F   UNL A   1      44.172  25.851  30.968  1.00  0.00    -0.206 F 
ATOM     84  C   UNL A   1      44.078  25.520  33.273  1.00  0.00     0.040 A 
ATOM     85  C   UNL A   1      44.265  27.385  34.772  1.00  0.00     0.040 A 
ATOM     86  F   UNL A   1      44.434  29.567  33.928  1.00  0.00    -0.206 F 
ATOM     87  C   UNL A   1      44.145  26.013  34.572  1.00  0.00     0.006 A 
ENDBRANCH  63  80
ENDBRANCH  37  38
ENDBRANCH  29  32
ENDBRANCH  27  28
ENDBRANCH  26  27
ENDBRANCH  25  26
ENDBRANCH   1  25
TORSDOF 17
ENDMDL
MODEL 3
REMARK VINA RESULT:     -10.5      2.322      3.519
REMARK SMILES CC(C)n1ncnc1C[C@@H](C(=O)NCCCCCCNC(=O)c1ccc(-c2c3nc(c(-c4c(F)cccc4F)c4ccc([nH]4)c(-c4c(F)cccc4F)c4nc(c(-c5c(F)cccc5F)c5ccc2[nH]5)C=C4)C=C3)cc1)c1cccc(Br)c1
REMARK SMILES IDX 16 1 15 2 14 3 13 4 11 5 12 6 10 8 9 9 8 10 4 11 5 12 6 13
REMARK SMILES IDX 7 14 2 15 1 16 3 17 77 18 78 19 83 20 79 21 81 22 80 23
REMARK SMILES IDX 82 24 17 25 18 26 19 27 20 28 21 29 22 31 23 32 24 33 76 34
REMARK SMILES IDX 25 35 75 36 26 37 27 38 28 39 69 40 29 41 74 42 68 43 70 44
REMARK SMILES IDX 30 45 73 46 67 47 66 48 31 50 57 51 40 52 56 53 41 54 44 55
REMARK SMILES IDX 55 56 71 57 42 58 43 59 54 61 72 62 45 63 32 64 33 65 38 66
REMARK SMILES IDX 34 67 35 68 37 69 39 70 36 71 58 72 59 73 64 74 60 75 61 76
REMARK SMILES IDX 63 77 65 78 62 79 46 80 47 81 52 82 48 83 49 84 51 85 53 86
REMARK SMILES IDX 50 87
REMARK H PARENT 13 7 20 30 70 49 44 60
REMARK Flexibility Score: inf
ROOT
ATOM      1  C   UNL A   1      35.601  22.396  25.580  1.00  0.00     0.002 C 
ENDROOT
BRANCH   1   2
ATOM      2  C   UNL A   1      34.787  22.036  26.822  1.00  0.00     0.021 C 
BRANCH   2   3
ATOM      3  C   UNL A   1      33.552  22.898  27.096  1.00  0.00     0.116 C 
BRANCH   3   4
ATOM      4  N   UNL A   1      32.355  22.113  26.867  1.00  0.00    -0.356 N 
ATOM      5  C   UNL A   1      31.559  22.136  25.752  1.00  0.00     0.228 C 
ATOM      6  O   UNL A   1      30.343  22.045  25.939  1.00  0.00    -0.274 OA
ATOM      7  H   UNL A   1      32.086  21.498  27.588  1.00  0.00     0.163 HD
BRANCH   5   8
ATOM      8  C   UNL A   1      32.189  22.147  24.334  1.00  0.00     0.116 C 
BRANCH   8   9
ATOM      9  C   UNL A   1      31.262  22.924  23.357  1.00  0.00     0.095 C 
BRANCH   9  10
ATOM     10  C   UNL A   1      31.718  24.279  22.922  1.00  0.00     0.128 A 
ATOM     11  N   UNL A   1      31.154  25.504  23.236  1.00  0.00    -0.248 N 
ATOM     12  N   UNL A   1      31.846  26.494  22.623  1.00  0.00    -0.159 NA
ATOM     13  C   UNL A   1      32.913  25.848  22.162  1.00  0.00     0.246 A 
ATOM     14  N   UNL A   1      32.860  24.498  22.300  1.00  0.00    -0.220 NA
BRANCH  11  15
ATOM     15  C   UNL A   1      30.233  25.860  24.317  1.00  0.00     0.103 C 
ATOM     16  C   UNL A   1      30.908  26.678  25.436  1.00  0.00     0.033 C 
ATOM     17  C   UNL A   1      28.985  26.614  23.862  1.00  0.00     0.033 C 
ENDBRANCH  11  15
ENDBRANCH   9  10
ENDBRANCH   8   9
BRANCH   8  18
ATOM     18  C   UNL A   1      32.410  20.695  23.801  1.00  0.00    -0.034 A 
ATOM     19  C   UNL A   1      32.192  20.375  22.446  1.00  0.00     0.004 A 
ATOM     20  C   UNL A   1      32.794  19.633  24.646  1.00  0.00     0.020 A 
ATOM     21  C   UNL A   1      32.191  19.050  21.995  1.00  0.00     0.001 A 
ATOM     22  C   UNL A   1      32.794  18.309  24.192  1.00  0.00     0.018 A 
ATOM     23  C   UNL A   1      32.464  18.010  22.876  1.00  0.00     0.016 A 
ATOM     24  Br  UNL A   1      33.200  16.902  25.389  1.00  0.00    -0.051 Br
ENDBRANCH   8  18
ENDBRANCH   5   8
ENDBRANCH   3   4
ENDBRANCH   2   3
ENDBRANCH   1   2
BRANCH   1  25
ATOM     25  C   UNL A   1      36.926  23.118  25.846  1.00  0.00     0.002 C 
BRANCH  25  26
ATOM     26  C   UNL A   1      38.208  22.329  25.540  1.00  0.00     0.021 C 
BRANCH  26  27
ATOM     27  C   UNL A   1      39.304  22.503  26.580  1.00  0.00     0.116 C 
BRANCH  27  28
ATOM     28  N   UNL A   1      40.633  22.191  26.062  1.00  0.00    -0.352 N 
ATOM     29  C   UNL A   1      41.683  23.055  25.807  1.00  0.00     0.251 C 
ATOM     30  H   UNL A   1      40.805  21.240  25.870  1.00  0.00     0.163 HD
ATOM     31  O   UNL A   1      42.603  22.727  25.079  1.00  0.00    -0.269 OA
BRANCH  29  32
ATOM     32  C   UNL A   1      41.680  24.384  26.449  1.00  0.00     0.039 A 
ATOM     33  C   UNL A   1      41.101  25.493  25.823  1.00  0.00     0.014 A 
ATOM     34  C   UNL A   1      42.290  24.513  27.693  1.00  0.00     0.014 A 
ATOM     35  C   UNL A   1      41.104  26.717  26.488  1.00  0.00     0.010 A 
ATOM     36  C   UNL A   1      42.141  25.664  28.415  1.00  0.00     0.010 A 
ATOM     37  C   UNL A   1      41.625  26.788  27.788  1.00  0.00    -0.014 A 
BRANCH  37  38
ATOM     38  C   UNL A   1      41.553  28.012  28.573  1.00  0.00     0.031 A 
ATOM     39  C   UNL A   1      42.654  28.969  28.293  1.00  0.00     0.074 A 
ATOM     40  C   UNL A   1      40.455  28.346  29.287  1.00  0.00     0.049 A 
ATOM     41  N   UNL A   1      43.601  29.336  29.089  1.00  0.00    -0.248 NA
ATOM     42  C   UNL A   1      42.814  29.459  26.912  1.00  0.00     0.031 C 
ATOM     43  C   UNL A   1      39.173  27.632  29.373  1.00  0.00     0.029 A 
ATOM     44  N   UNL A   1      40.210  29.469  30.014  1.00  0.00    -0.354 N 
ATOM     45  C   UNL A   1      44.345  30.278  28.385  1.00  0.00     0.074 A 
ATOM     46  C   UNL A   1      43.949  30.155  27.007  1.00  0.00     0.031 C 
ATOM     47  C   UNL A   1      38.231  28.445  29.903  1.00  0.00     0.029 A 
ATOM     48  C   UNL A   1      38.874  29.664  30.353  1.00  0.00     0.049 A 
ATOM     49  H   UNL A   1      40.922  30.096  30.279  1.00  0.00     0.167 HD
ATOM     50  C   UNL A   1      45.018  31.265  29.041  1.00  0.00     0.037 A 
ATOM     51  C   UNL A   1      38.340  30.766  30.939  1.00  0.00     0.037 A 
ATOM     52  C   UNL A   1      45.152  30.946  30.442  1.00  0.00     0.049 A 
ATOM     53  C   UNL A   1      39.459  31.519  31.554  1.00  0.00     0.074 A 
ATOM     54  C   UNL A   1      45.729  29.915  31.158  1.00  0.00     0.029 A 
ATOM     55  N   UNL A   1      44.290  31.569  31.312  1.00  0.00    -0.354 N 
ATOM     56  N   UNL A   1      40.141  31.092  32.578  1.00  0.00    -0.248 NA
ATOM     57  C   UNL A   1      40.120  32.524  30.737  1.00  0.00     0.031 C 
ATOM     58  C   UNL A   1      44.837  29.678  32.246  1.00  0.00     0.029 A 
ATOM     59  C   UNL A   1      43.812  30.623  32.180  1.00  0.00     0.049 A 
ATOM     60  H   UNL A   1      44.058  32.526  31.312  1.00  0.00     0.167 HD
ATOM     61  C   UNL A   1      41.456  31.421  32.286  1.00  0.00     0.074 A 
ATOM     62  C   UNL A   1      41.370  32.380  31.185  1.00  0.00     0.031 C 
ATOM     63  C   UNL A   1      42.489  30.663  32.759  1.00  0.00     0.037 A 
BRANCH  50  64
ATOM     64  C   UNL A   1      45.177  32.679  28.529  1.00  0.00     0.057 A 
ATOM     65  C   UNL A   1      44.025  33.470  28.359  1.00  0.00     0.134 A 
ATOM     66  C   UNL A   1      46.339  33.185  27.913  1.00  0.00     0.134 A 
ATOM     67  F   UNL A   1      42.851  33.102  28.893  1.00  0.00    -0.206 F 
ATOM     68  C   UNL A   1      44.011  34.619  27.558  1.00  0.00     0.040 A 
ATOM     69  C   UNL A   1      46.348  34.359  27.153  1.00  0.00     0.040 A 
ATOM     70  F   UNL A   1      47.507  32.532  27.920  1.00  0.00    -0.206 F 
ATOM     71  C   UNL A   1      45.174  35.060  26.942  1.00  0.00     0.006 A 
ENDBRANCH  50  64
BRANCH  51  72
ATOM     72  C   UNL A   1      36.998  31.368  30.764  1.00  0.00     0.057 A 
ATOM     73  C   UNL A   1      36.124  31.518  31.851  1.00  0.00     0.134 A 
ATOM     74  C   UNL A   1      36.660  32.078  29.599  1.00  0.00     0.134 A 
ATOM     75  F   UNL A   1      36.380  30.912  33.019  1.00  0.00    -0.206 F 
ATOM     76  C   UNL A   1      34.996  32.351  31.794  1.00  0.00     0.040 A 
ATOM     77  C   UNL A   1      35.536  32.908  29.527  1.00  0.00     0.040 A 
ATOM     78  F   UNL A   1      37.462  32.062  28.524  1.00  0.00    -0.206 F 
ATOM     79  C   UNL A   1      34.708  33.060  30.632  1.00  0.00     0.006 A 
ENDBRANCH  51  72
BRANCH  63  80
ATOM     80  C   UNL A   1      42.177  29.634  33.813  1.00  0.00     0.057 A 
ATOM     81  C   UNL A   1      41.842  28.298  33.546  1.00  0.00     0.134 A 
ATOM     82  C   UNL A   1      42.360  29.980  35.156  1.00  0.00     0.134 A 
ATOM     83  F   UNL A   1      41.739  27.843  32.291  1.00  0.00    -0.206 F 
ATOM     84  C   UNL A   1      41.656  27.362  34.569  1.00  0.00     0.040 A 
ATOM     85  C   UNL A   1      42.210  29.048  36.185  1.00  0.00     0.040 A 
ATOM     86  F   UNL A   1      42.734  31.225  35.487  1.00  0.00    -0.206 F 
ATOM     87  C   UNL A   1      41.846  27.736  35.895  1.00  0.00     0.006 A 
ENDBRANCH  63  80
ENDBRANCH  37  38
ENDBRANCH  29  32
ENDBRANCH  27  28
ENDBRANCH  26  27
ENDBRANCH  25  26
ENDBRANCH   1  25
TORSDOF 17
ENDMDL
