MODEL 1
REMARK VINA RESULT:      -9.7      0.000      0.000
REMARK SMILES O=C(COc1cccc(/C=C2/SC(=S)N(NC(=O)c3ccccc3F)C2=O)c1)NCCCCCCNC(=O)c1ccc(-c2c3nc(c(-c4c(F)cccc4F)c4ccc([nH]4)c(-c4c(F)cccc4F)c4nc(c(-c5c(F)cccc5F)c5ccc2[nH]5)C=C4)C=C3)cc1
REMARK SMILES IDX 31 1 30 2 29 3 1 4 2 5 3 7 4 8 5 9 6 10 28 11 7 12 9 13 8 14
REMARK SMILES IDX 10 15 11 16 12 17 26 18 13 19 15 20 27 21 14 22 16 23 17 24
REMARK SMILES IDX 18 26 19 27 20 28 24 29 21 30 23 31 25 32 22 33 32 34 33 35
REMARK SMILES IDX 34 36 35 37 36 38 37 39 38 41 39 42 40 43 92 44 41 45 91 46
REMARK SMILES IDX 42 47 43 48 44 49 85 50 45 51 90 52 84 53 86 54 46 55 89 56
REMARK SMILES IDX 83 57 82 58 47 60 73 61 56 62 72 63 57 64 60 65 71 66 87 67
REMARK SMILES IDX 58 68 59 69 70 71 88 72 61 73 48 74 49 75 54 76 50 77 51 78
REMARK SMILES IDX 53 79 55 80 52 81 74 82 75 83 80 84 76 85 77 86 79 87 81 88
REMARK SMILES IDX 78 89 62 90 63 91 68 92 64 93 65 94 67 95 69 96 66 97
REMARK H PARENT 29 6 16 25 36 40 86 59 60 70
REMARK Flexibility Score: inf
ROOT
ATOM      1  C   UNL A   1      45.687  21.869  25.359  1.00  0.00     0.021 C 
ENDROOT
BRANCH   1   2
ATOM      2  C   UNL A   1      45.485  22.951  24.302  1.00  0.00     0.116 C 
BRANCH   2   3
ATOM      3  N   UNL A   1      45.387  24.295  24.842  1.00  0.00    -0.353 N 
ATOM      4  O   UNL A   1      47.529  24.895  24.292  1.00  0.00    -0.271 OA
ATOM      5  C   UNL A   1      46.419  25.201  24.726  1.00  0.00     0.257 C 
ATOM      6  H   UNL A   1      44.561  24.565  25.303  1.00  0.00     0.163 HD
BRANCH   5   7
ATOM      7  C   UNL A   1      46.117  26.636  25.197  1.00  0.00     0.329 C 
BRANCH   7   8
ATOM      8  O   UNL A   1      44.795  27.030  25.525  1.00  0.00    -0.484 OA
BRANCH   8   9
ATOM      9  C   UNL A   1      44.673  28.161  26.287  1.00  0.00     0.120 A 
ATOM     10  C   UNL A   1      43.376  28.569  26.604  1.00  0.00     0.046 A 
ATOM     11  C   UNL A   1      45.745  29.006  26.566  1.00  0.00     0.054 A 
ATOM     12  C   UNL A   1      43.153  29.822  27.177  1.00  0.00     0.004 A 
ATOM     13  C   UNL A   1      45.518  30.313  27.008  1.00  0.00    -0.021 A 
ATOM     14  C   UNL A   1      44.221  30.703  27.358  1.00  0.00     0.008 A 
BRANCH  13  15
ATOM     15  C   UNL A   1      46.588  31.320  26.998  1.00  0.00     0.029 C 
ATOM     16  C   UNL A   1      46.422  32.607  26.642  1.00  0.00     0.082 C 
ATOM     17  S   UNL A   1      47.624  33.819  26.937  1.00  0.00    -0.052 SA
ATOM     18  C   UNL A   1      45.205  33.267  26.078  1.00  0.00     0.285 C 
ATOM     19  C   UNL A   1      46.492  35.143  26.668  1.00  0.00     0.168 C 
ATOM     20  N   UNL A   1      45.264  34.626  26.307  1.00  0.00    -0.198 N 
ATOM     21  O   UNL A   1      44.335  32.699  25.425  1.00  0.00    -0.266 OA
ATOM     22  S   UNL A   1      46.916  36.752  26.787  1.00  0.00    -0.050 S 
BRANCH  20  23
ATOM     23  N   UNL A   1      44.209  35.481  25.933  1.00  0.00    -0.254 N 
ATOM     24  C   UNL A   1      43.337  36.165  26.760  1.00  0.00     0.273 C 
ATOM     25  H   UNL A   1      44.076  35.608  24.966  1.00  0.00     0.192 HD
ATOM     26  O   UNL A   1      42.437  36.836  26.255  1.00  0.00    -0.267 OA
BRANCH  24  27
ATOM     27  C   UNL A   1      43.384  36.063  28.230  1.00  0.00     0.077 A 
ATOM     28  C   UNL A   1      43.789  37.195  28.956  1.00  0.00     0.017 A 
ATOM     29  C   UNL A   1      43.026  34.903  28.908  1.00  0.00     0.136 A 
ATOM     30  C   UNL A   1      43.776  37.171  30.351  1.00  0.00     0.001 A 
ATOM     31  C   UNL A   1      43.023  34.874  30.302  1.00  0.00     0.040 A 
ATOM     32  F   UNL A   1      42.645  33.804  28.240  1.00  0.00    -0.206 F 
ATOM     33  C   UNL A   1      43.391  36.011  31.023  1.00  0.00     0.003 A 
ENDBRANCH  24  27
ENDBRANCH  20  23
ENDBRANCH  13  15
ENDBRANCH   8   9
ENDBRANCH   7   8
ENDBRANCH   5   7
ENDBRANCH   2   3
ENDBRANCH   1   2
BRANCH   1  34
ATOM     34  C   UNL A   1      45.883  20.448  24.819  1.00  0.00     0.002 C 
BRANCH  34  35
ATOM     35  C   UNL A   1      44.610  19.633  24.575  1.00  0.00     0.002 C 
BRANCH  35  36
ATOM     36  C   UNL A   1      44.415  18.383  25.436  1.00  0.00     0.021 C 
BRANCH  36  37
ATOM     37  C   UNL A   1      43.377  18.488  26.550  1.00  0.00     0.116 C 
BRANCH  37  38
ATOM     38  N   UNL A   1      42.009  18.504  26.063  1.00  0.00    -0.352 N 
ATOM     39  C   UNL A   1      41.072  19.508  26.074  1.00  0.00     0.251 C 
ATOM     40  H   UNL A   1      41.703  17.659  25.659  1.00  0.00     0.163 HD
ATOM     41  O   UNL A   1      39.932  19.278  25.679  1.00  0.00    -0.269 OA
BRANCH  39  42
ATOM     42  C   UNL A   1      41.399  20.861  26.587  1.00  0.00     0.039 A 
ATOM     43  C   UNL A   1      41.200  21.118  27.949  1.00  0.00     0.014 A 
ATOM     44  C   UNL A   1      41.861  21.883  25.754  1.00  0.00     0.014 A 
ATOM     45  C   UNL A   1      41.522  22.369  28.482  1.00  0.00     0.010 A 
ATOM     46  C   UNL A   1      42.241  23.113  26.296  1.00  0.00     0.010 A 
ATOM     47  C   UNL A   1      42.077  23.367  27.666  1.00  0.00    -0.014 A 
BRANCH  47  48
ATOM     48  C   UNL A   1      42.515  24.664  28.248  1.00  0.00     0.031 A 
ATOM     49  C   UNL A   1      41.523  25.754  28.540  1.00  0.00     0.074 A 
ATOM     50  C   UNL A   1      43.826  24.876  28.473  1.00  0.00     0.049 A 
ATOM     51  N   UNL A   1      41.729  26.943  29.050  1.00  0.00    -0.248 NA
ATOM     52  C   UNL A   1      40.120  25.485  28.194  1.00  0.00     0.031 C 
ATOM     53  C   UNL A   1      44.899  23.924  28.184  1.00  0.00     0.029 A 
ATOM     54  N   UNL A   1      44.479  25.963  29.000  1.00  0.00    -0.354 N 
ATOM     55  C   UNL A   1      40.489  27.568  29.072  1.00  0.00     0.074 A 
ATOM     56  C   UNL A   1      39.542  26.642  28.485  1.00  0.00     0.031 C 
ATOM     57  C   UNL A   1      46.072  24.453  28.568  1.00  0.00     0.029 A 
ATOM     58  C   UNL A   1      45.837  25.790  29.105  1.00  0.00     0.049 A 
ATOM     59  H   UNL A   1      44.018  26.788  29.275  1.00  0.00     0.167 HD
ATOM     60  C   UNL A   1      40.163  28.793  29.552  1.00  0.00     0.037 A 
ATOM     61  C   UNL A   1      46.788  26.610  29.590  1.00  0.00     0.037 A 
ATOM     62  C   UNL A   1      41.096  29.704  30.164  1.00  0.00     0.049 A 
ATOM     63  C   UNL A   1      46.399  27.955  30.134  1.00  0.00     0.074 A 
ATOM     64  C   UNL A   1      40.843  30.929  30.759  1.00  0.00     0.029 A 
ATOM     65  N   UNL A   1      42.463  29.491  30.257  1.00  0.00    -0.354 N 
ATOM     66  N   UNL A   1      45.210  28.498  30.224  1.00  0.00    -0.248 NA
ATOM     67  C   UNL A   1      47.487  28.798  30.650  1.00  0.00     0.031 C 
ATOM     68  C   UNL A   1      42.063  31.474  31.176  1.00  0.00     0.029 A 
ATOM     69  C   UNL A   1      43.070  30.573  30.874  1.00  0.00     0.049 A 
ATOM     70  H   UNL A   1      42.933  28.690  29.930  1.00  0.00     0.167 HD
ATOM     71  C   UNL A   1      45.402  29.735  30.825  1.00  0.00     0.074 A 
ATOM     72  C   UNL A   1      46.821  29.855  31.091  1.00  0.00     0.031 C 
ATOM     73  C   UNL A   1      44.484  30.685  31.127  1.00  0.00     0.037 A 
BRANCH  60  74
ATOM     74  C   UNL A   1      38.729  29.219  29.434  1.00  0.00     0.057 A 
ATOM     75  C   UNL A   1      37.859  29.195  30.531  1.00  0.00     0.134 A 
ATOM     76  C   UNL A   1      38.220  29.684  28.215  1.00  0.00     0.134 A 
ATOM     77  F   UNL A   1      38.282  28.751  31.725  1.00  0.00    -0.206 F 
ATOM     78  C   UNL A   1      36.525  29.590  30.414  1.00  0.00     0.040 A 
ATOM     79  C   UNL A   1      36.895  30.105  28.091  1.00  0.00     0.040 A 
ATOM     80  F   UNL A   1      39.002  29.739  27.126  1.00  0.00    -0.206 F 
ATOM     81  C   UNL A   1      36.042  30.052  29.192  1.00  0.00     0.006 A 
ENDBRANCH  60  74
BRANCH  61  82
ATOM     82  C   UNL A   1      48.200  26.162  29.628  1.00  0.00     0.057 A 
ATOM     83  C   UNL A   1      49.023  26.291  28.503  1.00  0.00     0.134 A 
ATOM     84  C   UNL A   1      48.762  25.601  30.780  1.00  0.00     0.134 A 
ATOM     85  F   UNL A   1      48.532  26.803  27.364  1.00  0.00    -0.206 F 
ATOM     86  C   UNL A   1      50.351  25.866  28.517  1.00  0.00     0.040 A 
ATOM     87  C   UNL A   1      50.095  25.190  30.814  1.00  0.00     0.040 A 
ATOM     88  F   UNL A   1      48.025  25.456  31.891  1.00  0.00    -0.206 F 
ATOM     89  C   UNL A   1      50.893  25.318  29.678  1.00  0.00     0.006 A 
ENDBRANCH  61  82
BRANCH  73  90
ATOM     90  C   UNL A   1      44.991  31.928  31.795  1.00  0.00     0.057 A 
ATOM     91  C   UNL A   1      45.638  32.940  31.074  1.00  0.00     0.134 A 
ATOM     92  C   UNL A   1      44.822  32.121  33.172  1.00  0.00     0.134 A 
ATOM     93  F   UNL A   1      45.846  32.807  29.755  1.00  0.00    -0.206 F 
ATOM     94  C   UNL A   1      46.124  34.087  31.703  1.00  0.00     0.040 A 
ATOM     95  C   UNL A   1      45.283  33.275  33.809  1.00  0.00     0.040 A 
ATOM     96  F   UNL A   1      44.203  31.194  33.920  1.00  0.00    -0.206 F 
ATOM     97  C   UNL A   1      45.944  34.257  33.075  1.00  0.00     0.006 A 
ENDBRANCH  73  90
ENDBRANCH  47  48
ENDBRANCH  39  42
ENDBRANCH  37  38
ENDBRANCH  36  37
ENDBRANCH  35  36
ENDBRANCH  34  35
ENDBRANCH   1  34
TORSDOF 18
ENDMDL
MODEL 2
REMARK VINA RESULT:      -9.3      5.959     10.859
REMARK SMILES O=C(COc1cccc(/C=C2/SC(=S)N(NC(=O)c3ccccc3F)C2=O)c1)NCCCCCCNC(=O)c1ccc(-c2c3nc(c(-c4c(F)cccc4F)c4ccc([nH]4)c(-c4c(F)cccc4F)c4nc(c(-c5c(F)cccc5F)c5ccc2[nH]5)C=C4)C=C3)cc1
REMARK SMILES IDX 31 1 30 2 29 3 1 4 2 5 3 7 4 8 5 9 6 10 28 11 7 12 9 13 8 14
REMARK SMILES IDX 10 15 11 16 12 17 26 18 13 19 15 20 27 21 14 22 16 23 17 24
REMARK SMILES IDX 18 26 19 27 20 28 24 29 21 30 23 31 25 32 22 33 32 34 33 35
REMARK SMILES IDX 34 36 35 37 36 38 37 39 38 41 39 42 40 43 92 44 41 45 91 46
REMARK SMILES IDX 42 47 43 48 44 49 85 50 45 51 90 52 84 53 86 54 46 55 89 56
REMARK SMILES IDX 83 57 82 58 47 60 73 61 56 62 72 63 57 64 60 65 71 66 87 67
REMARK SMILES IDX 58 68 59 69 70 71 88 72 61 73 48 74 49 75 54 76 50 77 51 78
REMARK SMILES IDX 53 79 55 80 52 81 74 82 75 83 80 84 76 85 77 86 79 87 81 88
REMARK SMILES IDX 78 89 62 90 63 91 68 92 64 93 65 94 67 95 69 96 66 97
REMARK H PARENT 29 6 16 25 36 40 86 59 60 70
REMARK Flexibility Score: inf
ROOT
ATOM      1  C   UNL A   1      40.792  22.599  27.971  1.00  0.00     0.021 C 
ENDROOT
BRANCH   1   2
ATOM      2  C   UNL A   1      39.693  23.131  27.055  1.00  0.00     0.116 C 
BRANCH   2   3
ATOM      3  N   UNL A   1      38.961  22.097  26.347  1.00  0.00    -0.353 N 
ATOM      4  O   UNL A   1      37.160  23.423  25.847  1.00  0.00    -0.271 OA
ATOM      5  C   UNL A   1      37.758  22.355  25.725  1.00  0.00     0.257 C 
ATOM      6  H   UNL A   1      39.334  21.187  26.310  1.00  0.00     0.163 HD
BRANCH   5   7
ATOM      7  C   UNL A   1      37.176  21.210  24.875  1.00  0.00     0.329 C 
BRANCH   7   8
ATOM      8  O   UNL A   1      36.078  20.444  25.342  1.00  0.00    -0.484 OA
BRANCH   8   9
ATOM      9  C   UNL A   1      34.848  20.787  24.849  1.00  0.00     0.120 A 
ATOM     10  C   UNL A   1      33.860  19.801  24.882  1.00  0.00     0.046 A 
ATOM     11  C   UNL A   1      34.615  21.967  24.146  1.00  0.00     0.054 A 
ATOM     12  C   UNL A   1      32.656  19.988  24.201  1.00  0.00     0.004 A 
ATOM     13  C   UNL A   1      33.475  22.102  23.348  1.00  0.00    -0.021 A 
ATOM     14  C   UNL A   1      32.473  21.127  23.415  1.00  0.00     0.008 A 
BRANCH  13  15
ATOM     15  C   UNL A   1      33.359  23.177  22.353  1.00  0.00     0.029 C 
ATOM     16  C   UNL A   1      33.093  24.463  22.646  1.00  0.00     0.082 C 
ATOM     17  S   UNL A   1      33.270  25.739  21.488  1.00  0.00    -0.052 SA
ATOM     18  C   UNL A   1      32.744  25.063  23.970  1.00  0.00     0.285 C 
ATOM     19  C   UNL A   1      33.232  26.995  22.724  1.00  0.00     0.168 C 
ATOM     20  N   UNL A   1      33.028  26.412  23.959  1.00  0.00    -0.198 N 
ATOM     21  O   UNL A   1      32.197  24.464  24.892  1.00  0.00    -0.266 OA
ATOM     22  S   UNL A   1      33.366  28.623  22.384  1.00  0.00    -0.050 S 
BRANCH  20  23
ATOM     23  N   UNL A   1      32.852  27.211  25.108  1.00  0.00    -0.254 N 
ATOM     24  C   UNL A   1      31.729  27.924  25.481  1.00  0.00     0.273 C 
ATOM     25  H   UNL A   1      33.622  27.266  25.718  1.00  0.00     0.192 HD
ATOM     26  O   UNL A   1      31.770  28.612  26.502  1.00  0.00    -0.267 OA
BRANCH  24  27
ATOM     27  C   UNL A   1      30.501  27.967  24.666  1.00  0.00     0.077 A 
ATOM     28  C   UNL A   1      30.272  29.107  23.878  1.00  0.00     0.017 A 
ATOM     29  C   UNL A   1      29.586  26.920  24.641  1.00  0.00     0.136 A 
ATOM     30  C   UNL A   1      29.164  29.161  23.032  1.00  0.00     0.001 A 
ATOM     31  C   UNL A   1      28.472  26.976  23.806  1.00  0.00     0.040 A 
ATOM     32  F   UNL A   1      29.774  25.824  25.391  1.00  0.00    -0.206 F 
ATOM     33  C   UNL A   1      28.265  28.094  22.996  1.00  0.00     0.003 A 
ENDBRANCH  24  27
ENDBRANCH  20  23
ENDBRANCH  13  15
ENDBRANCH   8   9
ENDBRANCH   7   8
ENDBRANCH   5   7
ENDBRANCH   2   3
ENDBRANCH   1   2
BRANCH   1  34
ATOM     34  C   UNL A   1      41.489  21.321  27.490  1.00  0.00     0.002 C 
BRANCH  34  35
ATOM     35  C   UNL A   1      42.944  21.472  27.038  1.00  0.00     0.002 C 
BRANCH  35  36
ATOM     36  C   UNL A   1      43.181  21.702  25.543  1.00  0.00     0.021 C 
BRANCH  36  37
ATOM     37  C   UNL A   1      42.991  23.131  25.043  1.00  0.00     0.116 C 
BRANCH  37  38
ATOM     38  N   UNL A   1      44.239  23.796  24.708  1.00  0.00    -0.352 N 
ATOM     39  C   UNL A   1      44.777  24.969  25.179  1.00  0.00     0.251 C 
ATOM     40  H   UNL A   1      44.787  23.330  24.035  1.00  0.00     0.163 HD
ATOM     41  O   UNL A   1      45.820  25.395  24.691  1.00  0.00    -0.269 OA
BRANCH  39  42
ATOM     42  C   UNL A   1      44.104  25.753  26.243  1.00  0.00     0.039 A 
ATOM     43  C   UNL A   1      43.403  25.057  27.235  1.00  0.00     0.014 A 
ATOM     44  C   UNL A   1      44.120  27.150  26.263  1.00  0.00     0.014 A 
ATOM     45  C   UNL A   1      42.778  25.753  28.273  1.00  0.00     0.010 A 
ATOM     46  C   UNL A   1      43.550  27.843  27.333  1.00  0.00     0.010 A 
ATOM     47  C   UNL A   1      42.875  27.151  28.350  1.00  0.00    -0.014 A 
BRANCH  47  48
ATOM     48  C   UNL A   1      42.299  27.888  29.505  1.00  0.00     0.031 A 
ATOM     49  C   UNL A   1      42.951  27.838  30.858  1.00  0.00     0.074 A 
ATOM     50  C   UNL A   1      41.150  28.574  29.344  1.00  0.00     0.049 A 
ATOM     51  N   UNL A   1      42.588  28.422  31.973  1.00  0.00    -0.248 NA
ATOM     52  C   UNL A   1      44.156  27.005  30.982  1.00  0.00     0.031 C 
ATOM     53  C   UNL A   1      40.384  28.660  28.100  1.00  0.00     0.029 A 
ATOM     54  N   UNL A   1      40.427  29.331  30.232  1.00  0.00    -0.354 N 
ATOM     55  C   UNL A   1      43.507  28.017  32.932  1.00  0.00     0.074 A 
ATOM     56  C   UNL A   1      44.421  27.104  32.277  1.00  0.00     0.031 C 
ATOM     57  C   UNL A   1      39.319  29.454  28.293  1.00  0.00     0.029 A 
ATOM     58  C   UNL A   1      39.312  29.911  29.679  1.00  0.00     0.049 A 
ATOM     59  H   UNL A   1      40.683  29.447  31.175  1.00  0.00     0.167 HD
ATOM     60  C   UNL A   1      43.595  28.384  34.233  1.00  0.00     0.037 A 
ATOM     61  C   UNL A   1      38.390  30.727  30.224  1.00  0.00     0.037 A 
ATOM     62  C   UNL A   1      42.706  29.316  34.880  1.00  0.00     0.049 A 
ATOM     63  C   UNL A   1      38.520  31.135  31.663  1.00  0.00     0.074 A 
ATOM     64  C   UNL A   1      42.769  29.816  36.169  1.00  0.00     0.029 A 
ATOM     65  N   UNL A   1      41.591  29.885  34.286  1.00  0.00    -0.354 N 
ATOM     66  N   UNL A   1      39.442  30.809  32.535  1.00  0.00    -0.248 NA
ATOM     67  C   UNL A   1      37.481  32.031  32.191  1.00  0.00     0.031 C 
ATOM     68  C   UNL A   1      41.669  30.658  36.368  1.00  0.00     0.029 A 
ATOM     69  C   UNL A   1      40.941  30.711  35.190  1.00  0.00     0.049 A 
ATOM     70  H   UNL A   1      41.301  29.726  33.358  1.00  0.00     0.167 HD
ATOM     71  C   UNL A   1      39.109  31.474  33.707  1.00  0.00     0.074 A 
ATOM     72  C   UNL A   1      37.907  32.235  33.430  1.00  0.00     0.031 C 
ATOM     73  C   UNL A   1      39.742  31.456  34.906  1.00  0.00     0.037 A 
BRANCH  60  74
ATOM     74  C   UNL A   1      44.697  27.773  35.048  1.00  0.00     0.057 A 
ATOM     75  C   UNL A   1      45.992  28.306  35.056  1.00  0.00     0.134 A 
ATOM     76  C   UNL A   1      44.453  26.656  35.855  1.00  0.00     0.134 A 
ATOM     77  F   UNL A   1      46.295  29.371  34.296  1.00  0.00    -0.206 F 
ATOM     78  C   UNL A   1      47.014  27.731  35.814  1.00  0.00     0.040 A 
ATOM     79  C   UNL A   1      45.460  26.086  36.637  1.00  0.00     0.040 A 
ATOM     80  F   UNL A   1      43.233  26.100  35.901  1.00  0.00    -0.206 F 
ATOM     81  C   UNL A   1      46.747  26.621  36.612  1.00  0.00     0.006 A 
ENDBRANCH  60  74
BRANCH  61  82
ATOM     82  C   UNL A   1      37.286  31.255  29.388  1.00  0.00     0.057 A 
ATOM     83  C   UNL A   1      36.149  30.481  29.132  1.00  0.00     0.134 A 
ATOM     84  C   UNL A   1      37.336  32.537  28.830  1.00  0.00     0.134 A 
ATOM     85  F   UNL A   1      36.056  29.237  29.624  1.00  0.00    -0.206 F 
ATOM     86  C   UNL A   1      35.104  30.957  28.340  1.00  0.00     0.040 A 
ATOM     87  C   UNL A   1      36.289  33.034  28.052  1.00  0.00     0.040 A 
ATOM     88  F   UNL A   1      38.397  33.328  29.044  1.00  0.00    -0.206 F 
ATOM     89  C   UNL A   1      35.170  32.240  27.801  1.00  0.00     0.006 A 
ENDBRANCH  61  82
BRANCH  73  90
ATOM     90  C   UNL A   1      39.151  32.297  35.997  1.00  0.00     0.057 A 
ATOM     91  C   UNL A   1      39.504  33.643  36.162  1.00  0.00     0.134 A 
ATOM     92  C   UNL A   1      38.212  31.761  36.886  1.00  0.00     0.134 A 
ATOM     93  F   UNL A   1      40.411  34.212  35.353  1.00  0.00    -0.206 F 
ATOM     94  C   UNL A   1      38.965  34.417  37.191  1.00  0.00     0.040 A 
ATOM     95  C   UNL A   1      37.648  32.531  37.905  1.00  0.00     0.040 A 
ATOM     96  F   UNL A   1      37.826  30.480  36.779  1.00  0.00    -0.206 F 
ATOM     97  C   UNL A   1      38.031  33.861  38.064  1.00  0.00     0.006 A 
ENDBRANCH  73  90
ENDBRANCH  47  48
ENDBRANCH  39  42
ENDBRANCH  37  38
ENDBRANCH  36  37
ENDBRANCH  35  36
ENDBRANCH  34  35
ENDBRANCH   1  34
TORSDOF 18
ENDMDL
MODEL 3
REMARK VINA RESULT:      -9.0      5.887      9.598
REMARK SMILES O=C(COc1cccc(/C=C2/SC(=S)N(NC(=O)c3ccccc3F)C2=O)c1)NCCCCCCNC(=O)c1ccc(-c2c3nc(c(-c4c(F)cccc4F)c4ccc([nH]4)c(-c4c(F)cccc4F)c4nc(c(-c5c(F)cccc5F)c5ccc2[nH]5)C=C4)C=C3)cc1
REMARK SMILES IDX 31 1 30 2 29 3 1 4 2 5 3 7 4 8 5 9 6 10 28 11 7 12 9 13 8 14
REMARK SMILES IDX 10 15 11 16 12 17 26 18 13 19 15 20 27 21 14 22 16 23 17 24
REMARK SMILES IDX 18 26 19 27 20 28 24 29 21 30 23 31 25 32 22 33 32 34 33 35
REMARK SMILES IDX 34 36 35 37 36 38 37 39 38 41 39 42 40 43 92 44 41 45 91 46
REMARK SMILES IDX 42 47 43 48 44 49 85 50 45 51 90 52 84 53 86 54 46 55 89 56
REMARK SMILES IDX 83 57 82 58 47 60 73 61 56 62 72 63 57 64 60 65 71 66 87 67
REMARK SMILES IDX 58 68 59 69 70 71 88 72 61 73 48 74 49 75 54 76 50 77 51 78
REMARK SMILES IDX 53 79 55 80 52 81 74 82 75 83 80 84 76 85 77 86 79 87 81 88
REMARK SMILES IDX 78 89 62 90 63 91 68 92 64 93 65 94 67 95 69 96 66 97
REMARK H PARENT 29 6 16 25 36 40 86 59 60 70
REMARK Flexibility Score: inf
ROOT
ATOM      1  C   UNL A   1      40.782  22.341  28.004  1.00  0.00     0.021 C 
ENDROOT
BRANCH   1   2
ATOM      2  C   UNL A   1      39.852  22.919  26.941  1.00  0.00     0.116 C 
BRANCH   2   3
ATOM      3  N   UNL A   1      39.023  21.928  26.278  1.00  0.00    -0.353 N 
ATOM      4  O   UNL A   1      37.412  23.416  25.614  1.00  0.00    -0.271 OA
ATOM      5  C   UNL A   1      37.881  22.279  25.592  1.00  0.00     0.257 C 
ATOM      6  H   UNL A   1      39.286  20.981  26.319  1.00  0.00     0.163 HD
BRANCH   5   7
ATOM      7  C   UNL A   1      37.193  21.151  24.800  1.00  0.00     0.329 C 
BRANCH   7   8
ATOM      8  O   UNL A   1      36.084  20.454  25.343  1.00  0.00    -0.484 OA
BRANCH   8   9
ATOM      9  C   UNL A   1      34.852  20.812  24.866  1.00  0.00     0.120 A 
ATOM     10  C   UNL A   1      33.855  19.835  24.903  1.00  0.00     0.046 A 
ATOM     11  C   UNL A   1      34.623  21.999  24.174  1.00  0.00     0.054 A 
ATOM     12  C   UNL A   1      32.645  20.039  24.235  1.00  0.00     0.004 A 
ATOM     13  C   UNL A   1      33.476  22.151  23.390  1.00  0.00    -0.021 A 
ATOM     14  C   UNL A   1      32.465  21.186  23.460  1.00  0.00     0.008 A 
BRANCH  13  15
ATOM     15  C   UNL A   1      33.360  23.235  22.404  1.00  0.00     0.029 C 
ATOM     16  C   UNL A   1      33.103  24.520  22.709  1.00  0.00     0.082 C 
ATOM     17  S   UNL A   1      33.279  25.804  21.560  1.00  0.00    -0.052 SA
ATOM     18  C   UNL A   1      32.765  25.111  24.040  1.00  0.00     0.285 C 
ATOM     19  C   UNL A   1      33.256  27.051  22.806  1.00  0.00     0.168 C 
ATOM     20  N   UNL A   1      33.056  26.459  24.038  1.00  0.00    -0.198 N 
ATOM     21  O   UNL A   1      32.220  24.508  24.961  1.00  0.00    -0.266 OA
ATOM     22  S   UNL A   1      33.396  28.680  22.479  1.00  0.00    -0.050 S 
BRANCH  20  23
ATOM     23  N   UNL A   1      32.892  27.249  25.194  1.00  0.00    -0.254 N 
ATOM     24  C   UNL A   1      31.814  28.046  25.530  1.00  0.00     0.273 C 
ATOM     25  H   UNL A   1      33.635  27.231  25.840  1.00  0.00     0.192 HD
ATOM     26  O   UNL A   1      31.862  28.709  26.567  1.00  0.00    -0.267 OA
BRANCH  24  27
ATOM     27  C   UNL A   1      30.633  28.203  24.662  1.00  0.00     0.077 A 
ATOM     28  C   UNL A   1      30.459  29.429  24.001  1.00  0.00     0.017 A 
ATOM     29  C   UNL A   1      29.710  27.180  24.467  1.00  0.00     0.136 A 
ATOM     30  C   UNL A   1      29.399  29.599  23.110  1.00  0.00     0.001 A 
ATOM     31  C   UNL A   1      28.644  27.351  23.586  1.00  0.00     0.040 A 
ATOM     32  F   UNL A   1      29.845  26.002  25.094  1.00  0.00    -0.206 F 
ATOM     33  C   UNL A   1      28.493  28.558  22.901  1.00  0.00     0.003 A 
ENDBRANCH  24  27
ENDBRANCH  20  23
ENDBRANCH  13  15
ENDBRANCH   8   9
ENDBRANCH   7   8
ENDBRANCH   5   7
ENDBRANCH   2   3
ENDBRANCH   1   2
BRANCH   1  34
ATOM     34  C   UNL A   1      41.781  21.291  27.504  1.00  0.00     0.002 C 
BRANCH  34  35
ATOM     35  C   UNL A   1      43.102  21.825  26.944  1.00  0.00     0.002 C 
BRANCH  35  36
ATOM     36  C   UNL A   1      43.144  22.127  25.445  1.00  0.00     0.021 C 
BRANCH  36  37
ATOM     37  C   UNL A   1      42.992  23.594  25.049  1.00  0.00     0.116 C 
BRANCH  37  38
ATOM     38  N   UNL A   1      44.255  24.241  24.740  1.00  0.00    -0.352 N 
ATOM     39  C   UNL A   1      44.807  25.397  25.234  1.00  0.00     0.251 C 
ATOM     40  H   UNL A   1      44.804  23.775  24.067  1.00  0.00     0.163 HD
ATOM     41  O   UNL A   1      45.864  25.813  24.766  1.00  0.00    -0.269 OA
BRANCH  39  42
ATOM     42  C   UNL A   1      44.134  26.178  26.301  1.00  0.00     0.039 A 
ATOM     43  C   UNL A   1      43.446  25.478  27.299  1.00  0.00     0.014 A 
ATOM     44  C   UNL A   1      44.138  27.575  26.317  1.00  0.00     0.014 A 
ATOM     45  C   UNL A   1      42.823  26.170  28.340  1.00  0.00     0.010 A 
ATOM     46  C   UNL A   1      43.568  28.265  27.389  1.00  0.00     0.010 A 
ATOM     47  C   UNL A   1      42.906  27.570  28.413  1.00  0.00    -0.014 A 
BRANCH  47  48
ATOM     48  C   UNL A   1      42.331  28.304  29.571  1.00  0.00     0.031 A 
ATOM     49  C   UNL A   1      41.008  29.008  29.460  1.00  0.00     0.074 A 
ATOM     50  C   UNL A   1      43.030  28.373  30.720  1.00  0.00     0.049 A 
ATOM     51  N   UNL A   1      40.357  29.691  30.369  1.00  0.00    -0.248 NA
ATOM     52  C   UNL A   1      40.339  28.960  28.153  1.00  0.00     0.031 C 
ATOM     53  C   UNL A   1      44.350  27.782  30.945  1.00  0.00     0.029 A 
ATOM     54  N   UNL A   1      42.726  28.972  31.918  1.00  0.00    -0.354 N 
ATOM     55  C   UNL A   1      39.213  30.165  29.742  1.00  0.00     0.074 A 
ATOM     56  C   UNL A   1      39.278  29.727  28.363  1.00  0.00     0.031 C 
ATOM     57  C   UNL A   1      44.727  28.017  32.212  1.00  0.00     0.029 A 
ATOM     58  C   UNL A   1      43.689  28.796  32.881  1.00  0.00     0.049 A 
ATOM     59  H   UNL A   1      41.896  29.479  32.072  1.00  0.00     0.167 HD
ATOM     60  C   UNL A   1      38.192  30.884  30.268  1.00  0.00     0.037 A 
ATOM     61  C   UNL A   1      43.730  29.206  34.162  1.00  0.00     0.037 A 
ATOM     62  C   UNL A   1      38.108  31.295  31.646  1.00  0.00     0.049 A 
ATOM     63  C   UNL A   1      42.577  29.985  34.727  1.00  0.00     0.074 A 
ATOM     64  C   UNL A   1      37.072  31.949  32.291  1.00  0.00     0.029 A 
ATOM     65  N   UNL A   1      39.102  31.094  32.592  1.00  0.00    -0.354 N 
ATOM     66  N   UNL A   1      41.463  30.354  34.144  1.00  0.00    -0.248 NA
ATOM     67  C   UNL A   1      42.686  30.398  36.134  1.00  0.00     0.031 C 
ATOM     68  C   UNL A   1      37.455  32.179  33.618  1.00  0.00     0.029 A 
ATOM     69  C   UNL A   1      38.715  31.635  33.808  1.00  0.00     0.049 A 
ATOM     70  H   UNL A   1      39.957  30.636  32.424  1.00  0.00     0.167 HD
ATOM     71  C   UNL A   1      40.730  31.024  35.114  1.00  0.00     0.074 A 
ATOM     72  C   UNL A   1      41.519  30.996  36.329  1.00  0.00     0.031 C 
ATOM     73  C   UNL A   1      39.512  31.609  35.007  1.00  0.00     0.037 A 
BRANCH  60  74
ATOM     74  C   UNL A   1      37.075  31.272  29.343  1.00  0.00     0.057 A 
ATOM     75  C   UNL A   1      36.067  30.370  28.982  1.00  0.00     0.134 A 
ATOM     76  C   UNL A   1      36.994  32.572  28.829  1.00  0.00     0.134 A 
ATOM     77  F   UNL A   1      36.093  29.105  29.433  1.00  0.00    -0.206 F 
ATOM     78  C   UNL A   1      35.033  30.737  28.120  1.00  0.00     0.040 A 
ATOM     79  C   UNL A   1      35.951  32.959  27.985  1.00  0.00     0.040 A 
ATOM     80  F   UNL A   1      37.922  33.489  29.141  1.00  0.00    -0.206 F 
ATOM     81  C   UNL A   1      34.970  32.037  27.623  1.00  0.00     0.006 A 
ENDBRANCH  60  74
BRANCH  61  82
ATOM     82  C   UNL A   1      44.886  28.846  35.016  1.00  0.00     0.057 A 
ATOM     83  C   UNL A   1      44.895  27.649  35.742  1.00  0.00     0.134 A 
ATOM     84  C   UNL A   1      46.005  29.678  35.127  1.00  0.00     0.134 A 
ATOM     85  F   UNL A   1      43.840  26.822  35.691  1.00  0.00    -0.206 F 
ATOM     86  C   UNL A   1      45.969  27.299  36.559  1.00  0.00     0.040 A 
ATOM     87  C   UNL A   1      47.096  29.330  35.925  1.00  0.00     0.040 A 
ATOM     88  F   UNL A   1      46.057  30.836  34.452  1.00  0.00    -0.206 F 
ATOM     89  C   UNL A   1      47.078  28.139  36.648  1.00  0.00     0.006 A 
ENDBRANCH  61  82
BRANCH  73  90
ATOM     90  C   UNL A   1      38.958  32.251  36.244  1.00  0.00     0.057 A 
ATOM     91  C   UNL A   1      38.114  31.555  37.119  1.00  0.00     0.134 A 
ATOM     92  C   UNL A   1      39.279  33.574  36.570  1.00  0.00     0.134 A 
ATOM     93  F   UNL A   1      37.755  30.289  36.855  1.00  0.00    -0.206 F 
ATOM     94  C   UNL A   1      37.586  32.162  38.260  1.00  0.00     0.040 A 
ATOM     95  C   UNL A   1      38.776  34.185  37.720  1.00  0.00     0.040 A 
ATOM     96  F   UNL A   1      40.088  34.294  35.777  1.00  0.00    -0.206 F 
ATOM     97  C   UNL A   1      37.921  33.481  38.564  1.00  0.00     0.006 A 
ENDBRANCH  73  90
ENDBRANCH  47  48
ENDBRANCH  39  42
ENDBRANCH  37  38
ENDBRANCH  36  37
ENDBRANCH  35  36
ENDBRANCH  34  35
ENDBRANCH   1  34
TORSDOF 18
ENDMDL
