MODEL 1
REMARK VINA RESULT:     -12.5      0.000      0.000
REMARK SMILES Cc1ccc(-c2nn(-c3ccccc3)cc2[C@@H]2[NH2+][C@H](C(=O)NCCCCCCNC(=O)c3ccc(-c4c5nc(c(-c6c(F)cccc6F)c6ccc([nH]6)c(-c6c(F)cccc6F)c6nc(c(-c7c(F)cccc7F)c7ccc4[nH]7)C=C6)C=C5)cc3)CS2)cc1
REMARK SMILES IDX 25 1 24 2 23 3 22 4 20 5 21 6 19 8 17 9 18 10 87 11 86 14
REMARK SMILES IDX 16 15 6 16 7 17 8 18 15 19 5 20 1 21 2 22 3 23 89 24 4 25
REMARK SMILES IDX 88 26 9 27 10 28 14 29 11 30 13 31 12 32 26 33 27 34 28 35
REMARK SMILES IDX 29 36 30 37 31 39 32 40 33 41 85 42 34 43 84 44 35 45 36 46
REMARK SMILES IDX 37 47 78 48 38 49 83 50 77 51 79 52 39 53 82 54 76 55 75 56
REMARK SMILES IDX 40 58 66 59 49 60 65 61 50 62 53 63 64 64 80 65 51 66 52 67
REMARK SMILES IDX 63 69 81 70 54 71 41 72 42 73 47 74 43 75 44 76 46 77 48 78
REMARK SMILES IDX 45 79 67 80 68 81 73 82 69 83 70 84 72 85 74 86 71 87 55 88
REMARK SMILES IDX 56 89 61 90 57 91 58 92 60 93 62 94 59 95
REMARK H PARENT 22 7 18 12 18 13 29 38 79 57 53 68
REMARK Flexibility Score: inf
ROOT
ATOM      1  C   UNL A   1      32.196  27.841  27.228  1.00  0.00     0.002 C 
ENDROOT
BRANCH   1   2
ATOM      2  C   UNL A   1      30.952  27.320  26.454  1.00  0.00     0.021 C 
BRANCH   2   3
ATOM      3  C   UNL A   1      30.764  25.859  26.036  1.00  0.00     0.116 C 
BRANCH   3   4
ATOM      4  N   UNL A   1      31.340  24.845  26.909  1.00  0.00    -0.351 N 
ATOM      5  C   UNL A   1      31.715  23.548  26.693  1.00  0.00     0.279 C 
ATOM      6  O   UNL A   1      32.437  23.062  27.580  1.00  0.00    -0.268 OA
ATOM      7  H   UNL A   1      31.486  25.154  27.833  1.00  0.00     0.163 HD
BRANCH   5   8
ATOM      8  C   UNL A   1      31.313  22.612  25.518  1.00  0.00     0.283 C 
ATOM      9  C   UNL A   1      32.436  22.308  23.390  1.00  0.00     0.278 C 
ATOM     10  N   UNL A   1      31.483  23.134  24.140  1.00  0.00    -0.320 N 
ATOM     11  S   UNL A   1      32.228  20.628  24.004  1.00  0.00    -0.087 SA
ATOM     12  H   UNL A   1      30.582  23.121  23.664  1.00  0.00     0.348 HD
ATOM     13  H   UNL A   1      31.842  24.087  24.192  1.00  0.00     0.348 HD
ATOM     14  C   UNL A   1      31.905  21.206  25.688  1.00  0.00     0.151 C 
BRANCH   9  15
ATOM     15  C   UNL A   1      33.806  22.874  23.588  1.00  0.00     0.067 A 
ATOM     16  C   UNL A   1      34.233  24.251  23.505  1.00  0.00     0.103 A 
ATOM     17  N   UNL A   1      35.563  24.347  23.747  1.00  0.00    -0.167 NA
ATOM     18  N   UNL A   1      35.925  23.109  24.176  1.00  0.00    -0.240 N 
ATOM     19  C   UNL A   1      34.946  22.191  23.960  1.00  0.00     0.126 A 
BRANCH  16  20
ATOM     20  C   UNL A   1      33.398  25.452  23.247  1.00  0.00     0.003 A 
ATOM     21  C   UNL A   1      31.048  28.997  22.331  1.00  0.00     0.044 C 
ATOM     22  C   UNL A   1      31.850  27.778  22.680  1.00  0.00    -0.051 A 
ATOM     23  C   UNL A   1      31.550  26.564  22.069  1.00  0.00     0.004 A 
ATOM     24  C   UNL A   1      32.895  27.813  23.611  1.00  0.00     0.004 A 
ATOM     25  C   UNL A   1      32.316  25.427  22.350  1.00  0.00     0.011 A 
ATOM     26  C   UNL A   1      33.655  26.663  23.896  1.00  0.00     0.011 A 
ENDBRANCH  16  20
BRANCH  18  27
ATOM     27  C   UNL A   1      37.063  22.865  24.982  1.00  0.00     0.065 A 
ATOM     28  C   UNL A   1      37.521  23.878  25.847  1.00  0.00     0.028 A 
ATOM     29  C   UNL A   1      37.718  21.639  24.928  1.00  0.00     0.028 A 
ATOM     30  C   UNL A   1      38.687  23.693  26.588  1.00  0.00     0.002 A 
ATOM     31  C   UNL A   1      38.836  21.431  25.745  1.00  0.00     0.002 A 
ATOM     32  C   UNL A   1      39.337  22.462  26.547  1.00  0.00     0.000 A 
ENDBRANCH  18  27
ENDBRANCH   9  15
ENDBRANCH   5   8
ENDBRANCH   3   4
ENDBRANCH   2   3
ENDBRANCH   1   2
BRANCH   1  33
ATOM     33  C   UNL A   1      32.926  29.161  26.936  1.00  0.00     0.002 C 
BRANCH  33  34
ATOM     34  C   UNL A   1      34.198  29.464  27.731  1.00  0.00     0.021 C 
BRANCH  34  35
ATOM     35  C   UNL A   1      34.905  30.800  27.492  1.00  0.00     0.116 C 
BRANCH  35  36
ATOM     36  N   UNL A   1      35.527  31.414  28.677  1.00  0.00    -0.352 N 
ATOM     37  C   UNL A   1      36.624  30.958  29.408  1.00  0.00     0.251 C 
ATOM     38  H   UNL A   1      35.117  32.251  28.993  1.00  0.00     0.163 HD
ATOM     39  O   UNL A   1      37.068  31.570  30.363  1.00  0.00    -0.269 OA
BRANCH  37  40
ATOM     40  C   UNL A   1      37.324  29.753  28.904  1.00  0.00     0.039 A 
ATOM     41  C   UNL A   1      37.502  28.715  29.823  1.00  0.00     0.014 A 
ATOM     42  C   UNL A   1      38.143  29.885  27.788  1.00  0.00     0.014 A 
ATOM     43  C   UNL A   1      38.709  28.031  29.817  1.00  0.00     0.010 A 
ATOM     44  C   UNL A   1      39.378  29.269  27.835  1.00  0.00     0.010 A 
ATOM     45  C   UNL A   1      39.692  28.429  28.913  1.00  0.00    -0.014 A 
BRANCH  45  46
ATOM     46  C   UNL A   1      41.105  28.127  29.107  1.00  0.00     0.031 A 
ATOM     47  C   UNL A   1      41.677  26.910  28.505  1.00  0.00     0.074 A 
ATOM     48  C   UNL A   1      41.897  28.948  29.833  1.00  0.00     0.049 A 
ATOM     49  N   UNL A   1      42.773  26.356  28.896  1.00  0.00    -0.248 NA
ATOM     50  C   UNL A   1      40.978  26.150  27.478  1.00  0.00     0.031 C 
ATOM     51  C   UNL A   1      43.355  28.929  29.913  1.00  0.00     0.029 A 
ATOM     52  N   UNL A   1      41.507  29.832  30.846  1.00  0.00    -0.354 N 
ATOM     53  C   UNL A   1      43.064  25.339  28.021  1.00  0.00     0.074 A 
ATOM     54  C   UNL A   1      41.853  25.166  27.259  1.00  0.00     0.031 C 
ATOM     55  C   UNL A   1      43.736  29.514  31.059  1.00  0.00     0.029 A 
ATOM     56  C   UNL A   1      42.536  29.816  31.815  1.00  0.00     0.049 A 
ATOM     57  H   UNL A   1      40.677  30.362  30.877  1.00  0.00     0.167 HD
ATOM     58  C   UNL A   1      44.339  24.862  27.978  1.00  0.00     0.037 A 
ATOM     59  C   UNL A   1      42.289  29.420  33.097  1.00  0.00     0.037 A 
ATOM     60  C   UNL A   1      45.107  25.319  29.145  1.00  0.00     0.049 A 
ATOM     61  C   UNL A   1      43.040  28.179  33.532  1.00  0.00     0.074 A 
ATOM     62  C   UNL A   1      46.085  26.274  29.367  1.00  0.00     0.029 A 
ATOM     63  N   UNL A   1      44.694  24.903  30.401  1.00  0.00    -0.354 N 
ATOM     64  N   UNL A   1      43.849  27.502  32.765  1.00  0.00    -0.248 NA
ATOM     65  C   UNL A   1      42.860  27.547  34.841  1.00  0.00     0.031 C 
ATOM     66  C   UNL A   1      46.215  26.455  30.778  1.00  0.00     0.029 A 
ATOM     67  C   UNL A   1      45.331  25.599  31.408  1.00  0.00     0.049 A 
ATOM     68  H   UNL A   1      44.025  24.197  30.556  1.00  0.00     0.167 HD
ATOM     69  C   UNL A   1      44.206  26.342  33.397  1.00  0.00     0.074 A 
ATOM     70  C   UNL A   1      43.586  26.423  34.705  1.00  0.00     0.031 C 
ATOM     71  C   UNL A   1      44.933  25.364  32.788  1.00  0.00     0.037 A 
BRANCH  58  72
ATOM     72  C   UNL A   1      44.968  24.133  26.802  1.00  0.00     0.057 A 
ATOM     73  C   UNL A   1      44.625  22.789  26.543  1.00  0.00     0.134 A 
ATOM     74  C   UNL A   1      45.983  24.624  25.955  1.00  0.00     0.134 A 
ATOM     75  F   UNL A   1      43.653  22.166  27.225  1.00  0.00    -0.206 F 
ATOM     76  C   UNL A   1      45.274  21.998  25.582  1.00  0.00     0.040 A 
ATOM     77  C   UNL A   1      46.630  23.850  24.982  1.00  0.00     0.040 A 
ATOM     78  F   UNL A   1      46.439  25.875  26.011  1.00  0.00    -0.206 F 
ATOM     79  C   UNL A   1      46.290  22.525  24.802  1.00  0.00     0.006 A 
ENDBRANCH  58  72
BRANCH  59  80
ATOM     80  C   UNL A   1      40.928  29.799  33.555  1.00  0.00     0.057 A 
ATOM     81  C   UNL A   1      40.704  31.128  33.956  1.00  0.00     0.134 A 
ATOM     82  C   UNL A   1      39.809  29.029  33.230  1.00  0.00     0.134 A 
ATOM     83  F   UNL A   1      41.740  31.919  34.280  1.00  0.00    -0.206 F 
ATOM     84  C   UNL A   1      39.434  31.704  33.913  1.00  0.00     0.040 A 
ATOM     85  C   UNL A   1      38.530  29.594  33.196  1.00  0.00     0.040 A 
ATOM     86  F   UNL A   1      39.947  27.760  32.821  1.00  0.00    -0.206 F 
ATOM     87  C   UNL A   1      38.346  30.943  33.496  1.00  0.00     0.006 A 
ENDBRANCH  59  80
BRANCH  71  88
ATOM     88  C   UNL A   1      45.312  24.087  33.472  1.00  0.00     0.057 A 
ATOM     89  C   UNL A   1      44.425  23.010  33.584  1.00  0.00     0.134 A 
ATOM     90  C   UNL A   1      46.536  23.957  34.154  1.00  0.00     0.134 A 
ATOM     91  F   UNL A   1      43.224  23.044  32.986  1.00  0.00    -0.206 F 
ATOM     92  C   UNL A   1      44.736  21.868  34.331  1.00  0.00     0.040 A 
ATOM     93  C   UNL A   1      46.841  22.841  34.937  1.00  0.00     0.040 A 
ATOM     94  F   UNL A   1      47.487  24.899  34.067  1.00  0.00    -0.206 F 
ATOM     95  C   UNL A   1      45.939  21.790  35.028  1.00  0.00     0.006 A 
ENDBRANCH  71  88
ENDBRANCH  45  46
ENDBRANCH  37  40
ENDBRANCH  35  36
ENDBRANCH  34  35
ENDBRANCH  33  34
ENDBRANCH   1  33
TORSDOF 16
ENDMDL
MODEL 2
REMARK VINA RESULT:     -12.4      1.814      2.624
REMARK SMILES Cc1ccc(-c2nn(-c3ccccc3)cc2[C@@H]2[NH2+][C@H](C(=O)NCCCCCCNC(=O)c3ccc(-c4c5nc(c(-c6c(F)cccc6F)c6ccc([nH]6)c(-c6c(F)cccc6F)c6nc(c(-c7c(F)cccc7F)c7ccc4[nH]7)C=C6)C=C5)cc3)CS2)cc1
REMARK SMILES IDX 25 1 24 2 23 3 22 4 20 5 21 6 19 8 17 9 18 10 87 11 86 14
REMARK SMILES IDX 16 15 6 16 7 17 8 18 15 19 5 20 1 21 2 22 3 23 89 24 4 25
REMARK SMILES IDX 88 26 9 27 10 28 14 29 11 30 13 31 12 32 26 33 27 34 28 35
REMARK SMILES IDX 29 36 30 37 31 39 32 40 33 41 85 42 34 43 84 44 35 45 36 46
REMARK SMILES IDX 37 47 78 48 38 49 83 50 77 51 79 52 39 53 82 54 76 55 75 56
REMARK SMILES IDX 40 58 66 59 49 60 65 61 50 62 53 63 64 64 80 65 51 66 52 67
REMARK SMILES IDX 63 69 81 70 54 71 41 72 42 73 47 74 43 75 44 76 46 77 48 78
REMARK SMILES IDX 45 79 67 80 68 81 73 82 69 83 70 84 72 85 74 86 71 87 55 88
REMARK SMILES IDX 56 89 61 90 57 91 58 92 60 93 62 94 59 95
REMARK H PARENT 22 7 18 12 18 13 29 38 79 57 53 68
REMARK Flexibility Score: inf
ROOT
ATOM      1  C   UNL A   1      32.152  27.550  27.292  1.00  0.00     0.002 C 
ENDROOT
BRANCH   1   2
ATOM      2  C   UNL A   1      30.994  26.991  26.420  1.00  0.00     0.021 C 
BRANCH   2   3
ATOM      3  C   UNL A   1      30.866  25.518  26.022  1.00  0.00     0.116 C 
BRANCH   3   4
ATOM      4  N   UNL A   1      31.462  24.540  26.922  1.00  0.00    -0.351 N 
ATOM      5  C   UNL A   1      31.878  23.250  26.736  1.00  0.00     0.279 C 
ATOM      6  O   UNL A   1      32.605  22.804  27.640  1.00  0.00    -0.268 OA
ATOM      7  H   UNL A   1      31.590  24.871  27.840  1.00  0.00     0.163 HD
BRANCH   5   8
ATOM      8  C   UNL A   1      31.517  22.279  25.576  1.00  0.00     0.283 C 
ATOM      9  C   UNL A   1      32.642  22.002  23.446  1.00  0.00     0.278 C 
ATOM     10  N   UNL A   1      31.652  22.790  24.191  1.00  0.00    -0.320 N 
ATOM     11  S   UNL A   1      32.522  20.323  24.083  1.00  0.00    -0.087 SA
ATOM     12  H   UNL A   1      30.750  22.725  23.721  1.00  0.00     0.348 HD
ATOM     13  H   UNL A   1      31.963  23.760  24.227  1.00  0.00     0.348 HD
ATOM     14  C   UNL A   1      32.179  20.907  25.761  1.00  0.00     0.151 C 
BRANCH   9  15
ATOM     15  C   UNL A   1      33.982  22.639  23.626  1.00  0.00     0.067 A 
ATOM     16  C   UNL A   1      34.355  24.022  23.447  1.00  0.00     0.103 A 
ATOM     17  N   UNL A   1      35.674  24.192  23.708  1.00  0.00    -0.167 NA
ATOM     18  N   UNL A   1      36.076  23.007  24.238  1.00  0.00    -0.240 N 
ATOM     19  C   UNL A   1      35.140  22.035  24.073  1.00  0.00     0.126 A 
BRANCH  16  20
ATOM     20  C   UNL A   1      33.478  25.164  23.081  1.00  0.00     0.003 A 
ATOM     21  C   UNL A   1      30.803  28.468  22.156  1.00  0.00     0.044 C 
ATOM     22  C   UNL A   1      31.736  27.328  22.441  1.00  0.00    -0.051 A 
ATOM     23  C   UNL A   1      32.706  27.471  23.429  1.00  0.00     0.004 A 
ATOM     24  C   UNL A   1      31.672  26.117  21.742  1.00  0.00     0.004 A 
ATOM     25  C   UNL A   1      33.556  26.403  23.739  1.00  0.00     0.011 A 
ATOM     26  C   UNL A   1      32.537  25.050  22.053  1.00  0.00     0.011 A 
ENDBRANCH  16  20
BRANCH  18  27
ATOM     27  C   UNL A   1      37.204  22.873  25.082  1.00  0.00     0.065 A 
ATOM     28  C   UNL A   1      37.594  23.963  25.885  1.00  0.00     0.028 A 
ATOM     29  C   UNL A   1      37.916  21.678  25.128  1.00  0.00     0.028 A 
ATOM     30  C   UNL A   1      38.748  23.885  26.661  1.00  0.00     0.002 A 
ATOM     31  C   UNL A   1      39.021  21.580  25.981  1.00  0.00     0.002 A 
ATOM     32  C   UNL A   1      39.455  22.687  26.720  1.00  0.00     0.000 A 
ENDBRANCH  18  27
ENDBRANCH   9  15
ENDBRANCH   5   8
ENDBRANCH   3   4
ENDBRANCH   2   3
ENDBRANCH   1   2
BRANCH   1  33
ATOM     33  C   UNL A   1      33.449  28.169  26.746  1.00  0.00     0.002 C 
BRANCH  33  34
ATOM     34  C   UNL A   1      33.438  29.659  26.397  1.00  0.00     0.021 C 
BRANCH  34  35
ATOM     35  C   UNL A   1      33.041  30.657  27.486  1.00  0.00     0.116 C 
BRANCH  35  36
ATOM     36  N   UNL A   1      33.875  31.867  27.577  1.00  0.00    -0.352 N 
ATOM     37  C   UNL A   1      35.217  31.964  27.948  1.00  0.00     0.251 C 
ATOM     38  H   UNL A   1      33.430  32.715  27.349  1.00  0.00     0.163 HD
ATOM     39  O   UNL A   1      35.813  33.025  27.961  1.00  0.00    -0.269 OA
BRANCH  37  40
ATOM     40  C   UNL A   1      35.943  30.698  28.206  1.00  0.00     0.039 A 
ATOM     41  C   UNL A   1      36.019  30.293  29.542  1.00  0.00     0.014 A 
ATOM     42  C   UNL A   1      36.865  30.262  27.261  1.00  0.00     0.014 A 
ATOM     43  C   UNL A   1      37.211  29.750  29.998  1.00  0.00     0.010 A 
ATOM     44  C   UNL A   1      38.081  29.805  27.729  1.00  0.00     0.010 A 
ATOM     45  C   UNL A   1      38.281  29.658  29.110  1.00  0.00    -0.014 A 
BRANCH  45  46
ATOM     46  C   UNL A   1      39.665  29.551  29.556  1.00  0.00     0.031 A 
ATOM     47  C   UNL A   1      40.405  28.297  29.332  1.00  0.00     0.074 A 
ATOM     48  C   UNL A   1      40.277  30.587  30.171  1.00  0.00     0.049 A 
ATOM     49  N   UNL A   1      41.464  27.957  29.984  1.00  0.00    -0.248 NA
ATOM     50  C   UNL A   1      39.927  27.264  28.424  1.00  0.00     0.031 C 
ATOM     51  C   UNL A   1      41.703  30.736  30.448  1.00  0.00     0.029 A 
ATOM     52  N   UNL A   1      39.676  31.627  30.891  1.00  0.00    -0.354 N 
ATOM     53  C   UNL A   1      41.956  26.809  29.414  1.00  0.00     0.074 A 
ATOM     54  C   UNL A   1      40.892  26.351  28.557  1.00  0.00     0.031 C 
ATOM     55  C   UNL A   1      41.862  31.592  31.468  1.00  0.00     0.029 A 
ATOM     56  C   UNL A   1      40.542  31.928  31.967  1.00  0.00     0.049 A 
ATOM     57  H   UNL A   1      38.816  32.063  30.688  1.00  0.00     0.167 HD
ATOM     58  C   UNL A   1      43.253  26.467  29.654  1.00  0.00     0.037 A 
ATOM     59  C   UNL A   1      40.129  31.798  33.261  1.00  0.00     0.037 A 
ATOM     60  C   UNL A   1      43.799  27.244  30.775  1.00  0.00     0.049 A 
ATOM     61  C   UNL A   1      40.889  30.765  34.067  1.00  0.00     0.074 A 
ATOM     62  C   UNL A   1      44.662  28.320  30.900  1.00  0.00     0.029 A 
ATOM     63  N   UNL A   1      43.227  27.072  32.027  1.00  0.00    -0.354 N 
ATOM     64  N   UNL A   1      41.851  30.023  33.592  1.00  0.00    -0.248 NA
ATOM     65  C   UNL A   1      40.554  30.419  35.450  1.00  0.00     0.031 C 
ATOM     66  C   UNL A   1      44.561  28.816  32.235  1.00  0.00     0.029 A 
ATOM     67  C   UNL A   1      43.653  28.032  32.922  1.00  0.00     0.049 A 
ATOM     68  H   UNL A   1      42.593  26.352  32.250  1.00  0.00     0.167 HD
ATOM     69  C   UNL A   1      42.186  29.072  34.517  1.00  0.00     0.074 A 
ATOM     70  C   UNL A   1      41.368  29.373  35.676  1.00  0.00     0.031 C 
ATOM     71  C   UNL A   1      43.064  28.064  34.253  1.00  0.00     0.037 A 
BRANCH  58  72
ATOM     72  C   UNL A   1      44.103  25.567  28.772  1.00  0.00     0.057 A 
ATOM     73  C   UNL A   1      44.155  24.180  29.025  1.00  0.00     0.134 A 
ATOM     74  C   UNL A   1      44.977  25.981  27.746  1.00  0.00     0.134 A 
ATOM     75  F   UNL A   1      43.366  23.602  29.942  1.00  0.00    -0.206 F 
ATOM     76  C   UNL A   1      45.034  23.307  28.365  1.00  0.00     0.040 A 
ATOM     77  C   UNL A   1      45.850  25.118  27.069  1.00  0.00     0.040 A 
ATOM     78  F   UNL A   1      45.068  27.243  27.329  1.00  0.00    -0.206 F 
ATOM     79  C   UNL A   1      45.895  23.777  27.388  1.00  0.00     0.006 A 
ENDBRANCH  58  72
BRANCH  59  80
ATOM     80  C   UNL A   1      38.691  32.126  33.432  1.00  0.00     0.057 A 
ATOM     81  C   UNL A   1      38.300  33.475  33.352  1.00  0.00     0.134 A 
ATOM     82  C   UNL A   1      37.697  31.159  33.268  1.00  0.00     0.134 A 
ATOM     83  F   UNL A   1      39.209  34.451  33.501  1.00  0.00    -0.206 F 
ATOM     84  C   UNL A   1      37.001  33.843  32.998  1.00  0.00     0.040 A 
ATOM     85  C   UNL A   1      36.390  31.518  32.924  1.00  0.00     0.040 A 
ATOM     86  F   UNL A   1      38.000  29.854  33.312  1.00  0.00    -0.206 F 
ATOM     87  C   UNL A   1      36.050  32.858  32.746  1.00  0.00     0.006 A 
ENDBRANCH  59  80
BRANCH  71  88
ATOM     88  C   UNL A   1      43.422  27.013  35.257  1.00  0.00     0.057 A 
ATOM     89  C   UNL A   1      44.668  26.987  35.896  1.00  0.00     0.134 A 
ATOM     90  C   UNL A   1      42.572  25.921  35.509  1.00  0.00     0.134 A 
ATOM     91  F   UNL A   1      45.558  27.972  35.707  1.00  0.00    -0.206 F 
ATOM     92  C   UNL A   1      45.046  25.935  36.739  1.00  0.00     0.040 A 
ATOM     93  C   UNL A   1      42.955  24.845  36.313  1.00  0.00     0.040 A 
ATOM     94  F   UNL A   1      41.332  25.870  34.999  1.00  0.00    -0.206 F 
ATOM     95  C   UNL A   1      44.197  24.850  36.933  1.00  0.00     0.006 A 
ENDBRANCH  71  88
ENDBRANCH  45  46
ENDBRANCH  37  40
ENDBRANCH  35  36
ENDBRANCH  34  35
ENDBRANCH  33  34
ENDBRANCH   1  33
TORSDOF 16
ENDMDL
MODEL 3
REMARK VINA RESULT:     -11.8      2.468      4.683
REMARK SMILES Cc1ccc(-c2nn(-c3ccccc3)cc2[C@@H]2[NH2+][C@H](C(=O)NCCCCCCNC(=O)c3ccc(-c4c5nc(c(-c6c(F)cccc6F)c6ccc([nH]6)c(-c6c(F)cccc6F)c6nc(c(-c7c(F)cccc7F)c7ccc4[nH]7)C=C6)C=C5)cc3)CS2)cc1
REMARK SMILES IDX 25 1 24 2 23 3 22 4 20 5 21 6 19 8 17 9 18 10 87 11 86 14
REMARK SMILES IDX 16 15 6 16 7 17 8 18 15 19 5 20 1 21 2 22 3 23 89 24 4 25
REMARK SMILES IDX 88 26 9 27 10 28 14 29 11 30 13 31 12 32 26 33 27 34 28 35
REMARK SMILES IDX 29 36 30 37 31 39 32 40 33 41 85 42 34 43 84 44 35 45 36 46
REMARK SMILES IDX 37 47 78 48 38 49 83 50 77 51 79 52 39 53 82 54 76 55 75 56
REMARK SMILES IDX 40 58 66 59 49 60 65 61 50 62 53 63 64 64 80 65 51 66 52 67
REMARK SMILES IDX 63 69 81 70 54 71 41 72 42 73 47 74 43 75 44 76 46 77 48 78
REMARK SMILES IDX 45 79 67 80 68 81 73 82 69 83 70 84 72 85 74 86 71 87 55 88
REMARK SMILES IDX 56 89 61 90 57 91 58 92 60 93 62 94 59 95
REMARK H PARENT 22 7 18 12 18 13 29 38 79 57 53 68
REMARK Flexibility Score: inf
ROOT
ATOM      1  C   UNL A   1      30.478  27.793  24.421  1.00  0.00     0.002 C 
ENDROOT
BRANCH   1   2
ATOM      2  C   UNL A   1      30.039  26.308  24.557  1.00  0.00     0.021 C 
BRANCH   2   3
ATOM      3  C   UNL A   1      30.377  25.226  23.528  1.00  0.00     0.116 C 
BRANCH   3   4
ATOM      4  N   UNL A   1      30.667  23.895  24.044  1.00  0.00    -0.351 N 
ATOM      5  C   UNL A   1      31.412  23.460  25.106  1.00  0.00     0.279 C 
ATOM      6  O   UNL A   1      31.210  22.278  25.431  1.00  0.00    -0.268 OA
ATOM      7  H   UNL A   1      30.247  23.169  23.528  1.00  0.00     0.163 HD
BRANCH   5   8
ATOM      8  C   UNL A   1      32.493  24.239  25.907  1.00  0.00     0.283 C 
ATOM      9  C   UNL A   1      34.680  23.468  26.618  1.00  0.00     0.278 C 
ATOM     10  N   UNL A   1      33.249  23.491  26.941  1.00  0.00    -0.320 N 
ATOM     11  S   UNL A   1      35.028  25.032  25.795  1.00  0.00    -0.087 SA
ATOM     12  H   UNL A   1      33.117  23.943  27.845  1.00  0.00     0.348 HD
ATOM     13  H   UNL A   1      32.903  22.532  26.971  1.00  0.00     0.348 HD
ATOM     14  C   UNL A   1      33.413  25.045  24.979  1.00  0.00     0.151 C 
BRANCH   9  15
ATOM     15  C   UNL A   1      34.956  22.257  25.787  1.00  0.00     0.067 A 
ATOM     16  C   UNL A   1      36.232  21.691  25.414  1.00  0.00     0.103 A 
ATOM     17  N   UNL A   1      36.051  20.589  24.647  1.00  0.00    -0.167 NA
ATOM     18  N   UNL A   1      34.717  20.341  24.707  1.00  0.00    -0.240 N 
ATOM     19  C   UNL A   1      34.032  21.382  25.253  1.00  0.00     0.126 A 
BRANCH  16  20
ATOM     20  C   UNL A   1      37.586  22.154  25.809  1.00  0.00     0.003 A 
ATOM     21  C   UNL A   1      41.528  23.433  27.134  1.00  0.00     0.044 C 
ATOM     22  C   UNL A   1      40.169  23.017  26.653  1.00  0.00    -0.051 A 
ATOM     23  C   UNL A   1      39.966  21.707  26.230  1.00  0.00     0.004 A 
ATOM     24  C   UNL A   1      39.088  23.906  26.607  1.00  0.00     0.004 A 
ATOM     25  C   UNL A   1      38.695  21.290  25.819  1.00  0.00     0.011 A 
ATOM     26  C   UNL A   1      37.814  23.482  26.184  1.00  0.00     0.011 A 
ENDBRANCH  16  20
BRANCH  18  27
ATOM     27  C   UNL A   1      34.149  19.065  24.478  1.00  0.00     0.065 A 
ATOM     28  C   UNL A   1      34.971  17.924  24.555  1.00  0.00     0.028 A 
ATOM     29  C   UNL A   1      32.793  18.936  24.188  1.00  0.00     0.028 A 
ATOM     30  C   UNL A   1      34.454  16.666  24.251  1.00  0.00     0.002 A 
ATOM     31  C   UNL A   1      32.266  17.657  23.975  1.00  0.00     0.002 A 
ATOM     32  C   UNL A   1      33.097  16.531  23.974  1.00  0.00     0.000 A 
ENDBRANCH  18  27
ENDBRANCH   9  15
ENDBRANCH   5   8
ENDBRANCH   3   4
ENDBRANCH   2   3
ENDBRANCH   1   2
BRANCH   1  33
ATOM     33  C   UNL A   1      31.830  28.360  24.884  1.00  0.00     0.002 C 
BRANCH  33  34
ATOM     34  C   UNL A   1      31.833  29.730  25.567  1.00  0.00     0.021 C 
BRANCH  34  35
ATOM     35  C   UNL A   1      32.461  29.847  26.958  1.00  0.00     0.116 C 
BRANCH  35  36
ATOM     36  N   UNL A   1      33.074  31.148  27.274  1.00  0.00    -0.352 N 
ATOM     37  C   UNL A   1      34.351  31.400  27.775  1.00  0.00     0.251 C 
ATOM     38  H   UNL A   1      32.511  31.939  27.112  1.00  0.00     0.163 HD
ATOM     39  O   UNL A   1      34.760  32.529  27.974  1.00  0.00    -0.269 OA
BRANCH  37  40
ATOM     40  C   UNL A   1      35.258  30.239  27.940  1.00  0.00     0.039 A 
ATOM     41  C   UNL A   1      35.380  29.734  29.238  1.00  0.00     0.014 A 
ATOM     42  C   UNL A   1      36.245  30.032  26.983  1.00  0.00     0.014 A 
ATOM     43  C   UNL A   1      36.636  29.337  29.674  1.00  0.00     0.010 A 
ATOM     44  C   UNL A   1      37.511  29.721  27.439  1.00  0.00     0.010 A 
ATOM     45  C   UNL A   1      37.716  29.484  28.805  1.00  0.00    -0.014 A 
BRANCH  45  46
ATOM     46  C   UNL A   1      39.096  29.547  29.273  1.00  0.00     0.031 A 
ATOM     47  C   UNL A   1      39.941  28.342  29.204  1.00  0.00     0.074 A 
ATOM     48  C   UNL A   1      39.609  30.695  29.769  1.00  0.00     0.049 A 
ATOM     49  N   UNL A   1      41.012  28.170  29.900  1.00  0.00    -0.248 NA
ATOM     50  C   UNL A   1      39.566  27.174  28.419  1.00  0.00     0.031 C 
ATOM     51  C   UNL A   1      41.013  30.994  30.039  1.00  0.00     0.029 A 
ATOM     52  N   UNL A   1      38.910  31.756  30.357  1.00  0.00    -0.354 N 
ATOM     53  C   UNL A   1      41.607  27.009  29.473  1.00  0.00     0.074 A 
ATOM     54  C   UNL A   1      40.600  26.367  28.666  1.00  0.00     0.031 C 
ATOM     55  C   UNL A   1      41.081  31.973  30.953  1.00  0.00     0.029 A 
ATOM     56  C   UNL A   1      39.729  32.251  31.398  1.00  0.00     0.049 A 
ATOM     57  H   UNL A   1      38.022  32.092  30.097  1.00  0.00     0.167 HD
ATOM     58  C   UNL A   1      42.923  26.807  29.762  1.00  0.00     0.037 A 
ATOM     59  C   UNL A   1      39.305  32.238  32.694  1.00  0.00     0.037 A 
ATOM     60  C   UNL A   1      43.382  27.751  30.790  1.00  0.00     0.049 A 
ATOM     61  C   UNL A   1      40.132  31.373  33.622  1.00  0.00     0.074 A 
ATOM     62  C   UNL A   1      44.152  28.903  30.796  1.00  0.00     0.029 A 
ATOM     63  N   UNL A   1      42.804  27.678  32.048  1.00  0.00    -0.354 N 
ATOM     64  N   UNL A   1      41.161  30.665  33.245  1.00  0.00    -0.248 NA
ATOM     65  C   UNL A   1      39.801  31.162  35.034  1.00  0.00     0.031 C 
ATOM     66  C   UNL A   1      43.986  29.541  32.063  1.00  0.00     0.029 A 
ATOM     67  C   UNL A   1      43.132  28.768  32.829  1.00  0.00     0.049 A 
ATOM     68  H   UNL A   1      42.228  26.938  32.348  1.00  0.00     0.167 HD
ATOM     69  C   UNL A   1      41.556  29.859  34.278  1.00  0.00     0.074 A 
ATOM     70  C   UNL A   1      40.695  30.221  35.387  1.00  0.00     0.031 C 
ATOM     71  C   UNL A   1      42.519  28.904  34.141  1.00  0.00     0.037 A 
BRANCH  58  72
ATOM     72  C   UNL A   1      43.861  25.886  28.999  1.00  0.00     0.057 A 
ATOM     73  C   UNL A   1      44.176  26.162  27.652  1.00  0.00     0.134 A 
ATOM     74  C   UNL A   1      44.401  24.668  29.461  1.00  0.00     0.134 A 
ATOM     75  F   UNL A   1      43.778  27.295  27.054  1.00  0.00    -0.206 F 
ATOM     76  C   UNL A   1      44.900  25.282  26.832  1.00  0.00     0.040 A 
ATOM     77  C   UNL A   1      45.138  23.787  28.658  1.00  0.00     0.040 A 
ATOM     78  F   UNL A   1      44.248  24.228  30.709  1.00  0.00    -0.206 F 
ATOM     79  C   UNL A   1      45.377  24.082  27.332  1.00  0.00     0.006 A 
ENDBRANCH  58  72
BRANCH  59  80
ATOM     80  C   UNL A   1      37.841  32.462  32.813  1.00  0.00     0.057 A 
ATOM     81  C   UNL A   1      37.350  33.770  32.650  1.00  0.00     0.134 A 
ATOM     82  C   UNL A   1      36.929  31.412  32.679  1.00  0.00     0.134 A 
ATOM     83  F   UNL A   1      38.178  34.820  32.766  1.00  0.00    -0.206 F 
ATOM     84  C   UNL A   1      36.037  34.016  32.246  1.00  0.00     0.040 A 
ATOM     85  C   UNL A   1      35.609  31.649  32.286  1.00  0.00     0.040 A 
ATOM     86  F   UNL A   1      37.330  30.139  32.803  1.00  0.00    -0.206 F 
ATOM     87  C   UNL A   1      35.172  32.948  32.027  1.00  0.00     0.006 A 
ENDBRANCH  59  80
BRANCH  71  88
ATOM     88  C   UNL A   1      42.943  28.010  35.265  1.00  0.00     0.057 A 
ATOM     89  C   UNL A   1      42.254  26.833  35.581  1.00  0.00     0.134 A 
ATOM     90  C   UNL A   1      43.977  28.379  36.144  1.00  0.00     0.134 A 
ATOM     91  F   UNL A   1      41.239  26.405  34.816  1.00  0.00    -0.206 F 
ATOM     92  C   UNL A   1      42.575  26.066  36.707  1.00  0.00     0.040 A 
ATOM     93  C   UNL A   1      44.279  27.646  37.294  1.00  0.00     0.040 A 
ATOM     94  F   UNL A   1      44.745  29.454  35.906  1.00  0.00    -0.206 F 
ATOM     95  C   UNL A   1      43.577  26.483  37.579  1.00  0.00     0.006 A 
ENDBRANCH  71  88
ENDBRANCH  45  46
ENDBRANCH  37  40
ENDBRANCH  35  36
ENDBRANCH  34  35
ENDBRANCH  33  34
ENDBRANCH   1  33
TORSDOF 16
ENDMDL
