MODEL 1
REMARK VINA RESULT:     -12.5      0.000      0.000
REMARK SMILES CC(=O)N[C@H]1[C@@H](Oc2ccc(C)c(C)c2)O[C@H]2CO[C@H](c3ccco3)O[C@@H]2[C@H]1OCC(=O)NCCCCCCNC(=O)c1ccc(-c2c3nc(c(-c4c(F)cccc4F)c4ccc([nH]4)c(-c4c(F)cccc4F)c4nc(c(-c5c(F)cccc5F)c5ccc2[nH]5)C=C4)C=C3)cc1
REMARK SMILES IDX 35 1 34 2 33 3 31 4 32 5 30 7 29 8 28 9 5 10 6 11 16 12
REMARK SMILES IDX 27 13 17 14 26 15 18 16 20 17 19 18 4 19 1 20 2 21 3 22 7 24
REMARK SMILES IDX 8 25 9 26 15 27 10 28 13 29 11 30 14 31 12 32 21 33 22 34
REMARK SMILES IDX 25 35 23 36 24 37 36 38 37 39 38 40 39 41 40 42 41 43 42 45
REMARK SMILES IDX 43 46 44 47 96 48 45 49 95 50 46 51 47 52 48 53 89 54 49 55
REMARK SMILES IDX 94 56 88 57 90 58 50 59 93 60 87 61 86 62 51 64 77 65 60 66
REMARK SMILES IDX 76 67 61 68 64 69 75 70 91 71 62 72 63 73 74 75 92 76 65 77
REMARK SMILES IDX 52 78 53 79 58 80 54 81 55 82 57 83 59 84 56 85 78 86 79 87
REMARK SMILES IDX 84 88 80 89 81 90 83 91 85 92 82 93 66 94 67 95 72 96 68 97
REMARK SMILES IDX 69 98 71 99 73 100 70 101
REMARK H PARENT 33 6 4 23 40 44 90 63 64 74
REMARK Flexibility Score: inf
ROOT
ATOM      1  C   UNL A   1      34.660  32.674  29.267  1.00  0.00     0.021 C 
ENDROOT
BRANCH   1   2
ATOM      2  C   UNL A   1      34.749  31.788  28.024  1.00  0.00     0.116 C 
BRANCH   2   3
ATOM      3  N   UNL A   1      33.430  31.525  27.494  1.00  0.00    -0.354 N 
ATOM      4  C   UNL A   1      32.928  30.404  26.907  1.00  0.00     0.246 C 
ATOM      5  O   UNL A   1      31.752  30.431  26.540  1.00  0.00    -0.272 OA
ATOM      6  H   UNL A   1      32.794  32.273  27.571  1.00  0.00     0.163 HD
BRANCH   4   7
ATOM      7  C   UNL A   1      33.761  29.113  26.856  1.00  0.00     0.260 C 
BRANCH   7   8
ATOM      8  O   UNL A   1      33.219  27.837  26.612  1.00  0.00    -0.363 OA
BRANCH   8   9
ATOM      9  C   UNL A   1      33.425  27.204  25.341  1.00  0.00     0.179 C 
ATOM     10  C   UNL A   1      33.583  25.688  25.722  1.00  0.00     0.182 C 
ATOM     11  C   UNL A   1      34.127  24.906  24.524  1.00  0.00     0.333 C 
ATOM     12  O   UNL A   1      33.192  25.020  23.406  1.00  0.00    -0.332 OA
ATOM     13  C   UNL A   1      32.268  27.202  24.344  1.00  0.00     0.184 C 
ATOM     14  C   UNL A   1      32.647  26.344  23.116  1.00  0.00     0.180 C 
ATOM     15  O   UNL A   1      31.685  28.442  23.949  1.00  0.00    -0.337 OA
ATOM     16  C   UNL A   1      31.349  26.224  22.272  1.00  0.00     0.199 C 
ATOM     17  C   UNL A   1      30.417  28.078  23.365  1.00  0.00     0.319 C 
ATOM     18  O   UNL A   1      30.657  27.474  22.094  1.00  0.00    -0.343 OA
BRANCH  10  19
ATOM     19  N   UNL A   1      32.221  25.273  26.239  1.00  0.00    -0.345 N 
ATOM     20  C   UNL A   1      32.414  22.974  27.341  1.00  0.00     0.114 C 
ATOM     21  C   UNL A   1      31.653  24.102  26.676  1.00  0.00     0.217 C 
ATOM     22  O   UNL A   1      30.429  24.009  26.552  1.00  0.00    -0.275 OA
ATOM     23  H   UNL A   1      31.588  26.028  26.270  1.00  0.00     0.164 HD
ENDBRANCH  10  19
BRANCH  11  24
ATOM     24  O   UNL A   1      34.681  23.554  24.788  1.00  0.00    -0.463 OA
BRANCH  24  25
ATOM     25  C   UNL A   1      35.960  23.128  25.064  1.00  0.00     0.123 A 
ATOM     26  C   UNL A   1      36.981  23.847  25.651  1.00  0.00     0.047 A 
ATOM     27  C   UNL A   1      36.302  21.791  24.800  1.00  0.00     0.050 A 
ATOM     28  C   UNL A   1      38.196  23.325  26.092  1.00  0.00     0.007 A 
ATOM     29  C   UNL A   1      37.577  21.229  25.169  1.00  0.00    -0.045 A 
ATOM     30  C   UNL A   1      38.522  22.010  25.856  1.00  0.00    -0.048 A 
ATOM     31  C   UNL A   1      37.878  19.794  24.835  1.00  0.00     0.045 C 
ATOM     32  C   UNL A   1      39.857  21.535  26.358  1.00  0.00     0.044 C 
ENDBRANCH  24  25
ENDBRANCH  11  24
BRANCH  17  33
ATOM     33  C   UNL A   1      29.461  29.213  23.259  1.00  0.00     0.159 A 
ATOM     34  C   UNL A   1      28.126  29.229  22.891  1.00  0.00     0.051 A 
ATOM     35  O   UNL A   1      29.814  30.437  23.747  1.00  0.00    -0.464 OA
ATOM     36  C   UNL A   1      27.645  30.532  23.154  1.00  0.00     0.042 A 
ATOM     37  C   UNL A   1      28.710  31.228  23.674  1.00  0.00     0.195 A 
ENDBRANCH  17  33
ENDBRANCH   8   9
ENDBRANCH   7   8
ENDBRANCH   4   7
ENDBRANCH   2   3
ENDBRANCH   1   2
BRANCH   1  38
ATOM     38  C   UNL A   1      35.372  34.026  29.124  1.00  0.00     0.002 C 
BRANCH  38  39
ATOM     39  C   UNL A   1      34.667  35.029  28.209  1.00  0.00     0.002 C 
BRANCH  39  40
ATOM     40  C   UNL A   1      33.722  35.994  28.929  1.00  0.00     0.021 C 
BRANCH  40  41
ATOM     41  C   UNL A   1      32.665  35.313  29.792  1.00  0.00     0.116 C 
BRANCH  41  42
ATOM     42  N   UNL A   1      32.323  36.107  30.959  1.00  0.00    -0.352 N 
ATOM     43  C   UNL A   1      32.816  36.041  32.238  1.00  0.00     0.251 C 
ATOM     44  H   UNL A   1      31.636  36.797  30.810  1.00  0.00     0.163 HD
ATOM     45  O   UNL A   1      32.256  36.645  33.143  1.00  0.00    -0.269 OA
BRANCH  43  46
ATOM     46  C   UNL A   1      34.017  35.228  32.526  1.00  0.00     0.039 A 
ATOM     47  C   UNL A   1      35.276  35.789  32.300  1.00  0.00     0.014 A 
ATOM     48  C   UNL A   1      33.909  33.912  32.985  1.00  0.00     0.014 A 
ATOM     49  C   UNL A   1      36.424  35.047  32.574  1.00  0.00     0.010 A 
ATOM     50  C   UNL A   1      35.055  33.200  33.333  1.00  0.00     0.010 A 
ATOM     51  C   UNL A   1      36.325  33.755  33.118  1.00  0.00    -0.014 A 
BRANCH  51  52
ATOM     52  C   UNL A   1      37.542  32.973  33.450  1.00  0.00     0.031 A 
ATOM     53  C   UNL A   1      38.298  33.248  34.721  1.00  0.00     0.074 A 
ATOM     54  C   UNL A   1      37.983  32.034  32.590  1.00  0.00     0.049 A 
ATOM     55  N   UNL A   1      39.391  32.684  35.170  1.00  0.00    -0.248 NA
ATOM     56  C   UNL A   1      37.772  34.310  35.591  1.00  0.00     0.031 C 
ATOM     57  C   UNL A   1      37.361  31.701  31.307  1.00  0.00     0.029 A 
ATOM     58  N   UNL A   1      39.059  31.186  32.667  1.00  0.00    -0.354 N 
ATOM     59  C   UNL A   1      39.681  33.322  36.369  1.00  0.00     0.074 A 
ATOM     60  C   UNL A   1      38.689  34.359  36.547  1.00  0.00     0.031 C 
ATOM     61  C   UNL A   1      38.044  30.697  30.734  1.00  0.00     0.029 A 
ATOM     62  C   UNL A   1      39.175  30.344  31.586  1.00  0.00     0.049 A 
ATOM     63  H   UNL A   1      39.689  31.180  33.424  1.00  0.00     0.167 HD
ATOM     64  C   UNL A   1      40.667  33.051  37.258  1.00  0.00     0.037 A 
ATOM     65  C   UNL A   1      40.092  29.397  31.313  1.00  0.00     0.037 A 
ATOM     66  C   UNL A   1      41.645  32.009  37.087  1.00  0.00     0.049 A 
ATOM     67  C   UNL A   1      41.196  29.140  32.301  1.00  0.00     0.074 A 
ATOM     68  C   UNL A   1      42.658  31.628  37.948  1.00  0.00     0.029 A 
ATOM     69  N   UNL A   1      41.733  31.183  35.976  1.00  0.00    -0.354 N 
ATOM     70  N   UNL A   1      41.419  29.708  33.461  1.00  0.00    -0.248 NA
ATOM     71  C   UNL A   1      42.176  28.103  31.943  1.00  0.00     0.031 C 
ATOM     72  C   UNL A   1      43.391  30.607  37.337  1.00  0.00     0.029 A 
ATOM     73  C   UNL A   1      42.799  30.311  36.119  1.00  0.00     0.049 A 
ATOM     74  H   UNL A   1      41.127  31.213  35.200  1.00  0.00     0.167 HD
ATOM     75  C   UNL A   1      42.540  29.076  33.986  1.00  0.00     0.074 A 
ATOM     76  C   UNL A   1      42.941  28.070  33.023  1.00  0.00     0.031 C 
ATOM     77  C   UNL A   1      43.180  29.307  35.158  1.00  0.00     0.037 A 
BRANCH  64  78
ATOM     78  C   UNL A   1      40.730  33.890  38.503  1.00  0.00     0.057 A 
ATOM     79  C   UNL A   1      39.977  33.579  39.643  1.00  0.00     0.134 A 
ATOM     80  C   UNL A   1      41.583  34.998  38.578  1.00  0.00     0.134 A 
ATOM     81  F   UNL A   1      39.130  32.538  39.634  1.00  0.00    -0.206 F 
ATOM     82  C   UNL A   1      40.049  34.352  40.803  1.00  0.00     0.040 A 
ATOM     83  C   UNL A   1      41.688  35.762  39.743  1.00  0.00     0.040 A 
ATOM     84  F   UNL A   1      42.339  35.350  37.527  1.00  0.00    -0.206 F 
ATOM     85  C   UNL A   1      40.914  35.443  40.857  1.00  0.00     0.006 A 
ENDBRANCH  64  78
BRANCH  65  86
ATOM     86  C   UNL A   1      40.000  28.605  30.059  1.00  0.00     0.057 A 
ATOM     87  C   UNL A   1      40.639  29.030  28.887  1.00  0.00     0.134 A 
ATOM     88  C   UNL A   1      39.252  27.424  29.991  1.00  0.00     0.134 A 
ATOM     89  F   UNL A   1      41.355  30.163  28.882  1.00  0.00    -0.206 F 
ATOM     90  C   UNL A   1      40.512  28.327  27.688  1.00  0.00     0.040 A 
ATOM     91  C   UNL A   1      39.143  26.694  28.807  1.00  0.00     0.040 A 
ATOM     92  F   UNL A   1      38.624  26.957  31.080  1.00  0.00    -0.206 F 
ATOM     93  C   UNL A   1      39.766  27.151  27.647  1.00  0.00     0.006 A 
ENDBRANCH  65  86
BRANCH  77  94
ATOM     94  C   UNL A   1      44.355  28.431  35.485  1.00  0.00     0.057 A 
ATOM     95  C   UNL A   1      45.665  28.786  35.138  1.00  0.00     0.134 A 
ATOM     96  C   UNL A   1      44.174  27.233  36.186  1.00  0.00     0.134 A 
ATOM     97  F   UNL A   1      45.906  29.914  34.454  1.00  0.00    -0.206 F 
ATOM     98  C   UNL A   1      46.750  27.965  35.452  1.00  0.00     0.040 A 
ATOM     99  C   UNL A   1      45.254  26.419  36.534  1.00  0.00     0.040 A 
ATOM    100  F   UNL A   1      42.947  26.838  36.558  1.00  0.00    -0.206 F 
ATOM    101  C   UNL A   1      46.546  26.782  36.160  1.00  0.00     0.006 A 
ENDBRANCH  77  94
ENDBRANCH  51  52
ENDBRANCH  43  46
ENDBRANCH  41  42
ENDBRANCH  40  41
ENDBRANCH  39  40
ENDBRANCH  38  39
ENDBRANCH   1  38
TORSDOF 19
ENDMDL
MODEL 2
REMARK VINA RESULT:     -12.1      0.356      5.800
REMARK SMILES CC(=O)N[C@H]1[C@@H](Oc2ccc(C)c(C)c2)O[C@H]2CO[C@H](c3ccco3)O[C@@H]2[C@H]1OCC(=O)NCCCCCCNC(=O)c1ccc(-c2c3nc(c(-c4c(F)cccc4F)c4ccc([nH]4)c(-c4c(F)cccc4F)c4nc(c(-c5c(F)cccc5F)c5ccc2[nH]5)C=C4)C=C3)cc1
REMARK SMILES IDX 35 1 34 2 33 3 31 4 32 5 30 7 29 8 28 9 5 10 6 11 16 12
REMARK SMILES IDX 27 13 17 14 26 15 18 16 20 17 19 18 4 19 1 20 2 21 3 22 7 24
REMARK SMILES IDX 8 25 9 26 15 27 10 28 13 29 11 30 14 31 12 32 21 33 22 34
REMARK SMILES IDX 25 35 23 36 24 37 36 38 37 39 38 40 39 41 40 42 41 43 42 45
REMARK SMILES IDX 43 46 44 47 96 48 45 49 95 50 46 51 47 52 48 53 89 54 49 55
REMARK SMILES IDX 94 56 88 57 90 58 50 59 93 60 87 61 86 62 51 64 77 65 60 66
REMARK SMILES IDX 76 67 61 68 64 69 75 70 91 71 62 72 63 73 74 75 92 76 65 77
REMARK SMILES IDX 52 78 53 79 58 80 54 81 55 82 57 83 59 84 56 85 78 86 79 87
REMARK SMILES IDX 84 88 80 89 81 90 83 91 85 92 82 93 66 94 67 95 72 96 68 97
REMARK SMILES IDX 69 98 71 99 73 100 70 101
REMARK H PARENT 33 6 4 23 40 44 90 63 64 74
REMARK Flexibility Score: inf
ROOT
ATOM      1  C   UNL A   1      35.196  32.502  29.306  1.00  0.00     0.021 C 
ENDROOT
BRANCH   1   2
ATOM      2  C   UNL A   1      35.033  31.547  28.123  1.00  0.00     0.116 C 
BRANCH   2   3
ATOM      3  N   UNL A   1      33.633  31.291  27.868  1.00  0.00    -0.354 N 
ATOM      4  C   UNL A   1      33.042  30.347  27.084  1.00  0.00     0.246 C 
ATOM      5  O   UNL A   1      31.812  30.333  27.040  1.00  0.00    -0.272 OA
ATOM      6  H   UNL A   1      33.009  31.892  28.336  1.00  0.00     0.163 HD
BRANCH   4   7
ATOM      7  C   UNL A   1      33.888  29.252  26.416  1.00  0.00     0.260 C 
BRANCH   7   8
ATOM      8  O   UNL A   1      33.485  27.908  26.302  1.00  0.00    -0.363 OA
BRANCH   8   9
ATOM      9  C   UNL A   1      33.579  27.238  25.037  1.00  0.00     0.179 C 
ATOM     10  C   UNL A   1      33.729  25.727  25.446  1.00  0.00     0.182 C 
ATOM     11  C   UNL A   1      34.162  24.902  24.233  1.00  0.00     0.333 C 
ATOM     12  O   UNL A   1      33.148  25.012  23.185  1.00  0.00    -0.332 OA
ATOM     13  C   UNL A   1      32.350  27.240  24.131  1.00  0.00     0.184 C 
ATOM     14  C   UNL A   1      32.614  26.342  22.901  1.00  0.00     0.180 C 
ATOM     15  O   UNL A   1      31.769  28.484  23.747  1.00  0.00    -0.337 OA
ATOM     16  C   UNL A   1      31.253  26.234  22.161  1.00  0.00     0.199 C 
ATOM     17  C   UNL A   1      30.452  28.138  23.270  1.00  0.00     0.319 C 
ATOM     18  O   UNL A   1      30.579  27.496  22.002  1.00  0.00    -0.343 OA
BRANCH  10  19
ATOM     19  N   UNL A   1      32.401  25.361  26.075  1.00  0.00    -0.345 N 
ATOM     20  C   UNL A   1      32.613  23.072  27.192  1.00  0.00     0.114 C 
ATOM     21  C   UNL A   1      31.835  24.214  26.573  1.00  0.00     0.217 C 
ATOM     22  O   UNL A   1      30.602  24.156  26.547  1.00  0.00    -0.275 OA
ATOM     23  H   UNL A   1      31.795  26.136  26.145  1.00  0.00     0.164 HD
ENDBRANCH  10  19
BRANCH  11  24
ATOM     24  O   UNL A   1      34.703  23.544  24.491  1.00  0.00    -0.463 OA
BRANCH  24  25
ATOM     25  C   UNL A   1      35.958  23.112  24.853  1.00  0.00     0.123 A 
ATOM     26  C   UNL A   1      36.957  23.842  25.464  1.00  0.00     0.047 A 
ATOM     27  C   UNL A   1      36.292  21.760  24.664  1.00  0.00     0.050 A 
ATOM     28  C   UNL A   1      38.139  23.323  25.991  1.00  0.00     0.007 A 
ATOM     29  C   UNL A   1      37.536  21.198  25.125  1.00  0.00    -0.045 A 
ATOM     30  C   UNL A   1      38.456  21.995  25.829  1.00  0.00    -0.048 A 
ATOM     31  C   UNL A   1      37.833  19.746  24.869  1.00  0.00     0.045 C 
ATOM     32  C   UNL A   1      39.754  21.524  26.423  1.00  0.00     0.044 C 
ENDBRANCH  24  25
ENDBRANCH  11  24
BRANCH  17  33
ATOM     33  C   UNL A   1      29.518  29.294  23.205  1.00  0.00     0.159 A 
ATOM     34  C   UNL A   1      28.224  29.376  22.715  1.00  0.00     0.051 A 
ATOM     35  O   UNL A   1      29.829  30.448  23.864  1.00  0.00    -0.464 OA
ATOM     36  C   UNL A   1      27.729  30.648  23.081  1.00  0.00     0.042 A 
ATOM     37  C   UNL A   1      28.742  31.261  23.778  1.00  0.00     0.195 A 
ENDBRANCH  17  33
ENDBRANCH   8   9
ENDBRANCH   7   8
ENDBRANCH   4   7
ENDBRANCH   2   3
ENDBRANCH   1   2
BRANCH   1  38
ATOM     38  C   UNL A   1      35.750  33.881  28.924  1.00  0.00     0.002 C 
BRANCH  38  39
ATOM     39  C   UNL A   1      34.790  34.758  28.118  1.00  0.00     0.002 C 
BRANCH  39  40
ATOM     40  C   UNL A   1      33.951  35.724  28.958  1.00  0.00     0.021 C 
BRANCH  40  41
ATOM     41  C   UNL A   1      32.906  35.047  29.839  1.00  0.00     0.116 C 
BRANCH  41  42
ATOM     42  N   UNL A   1      32.532  35.877  30.972  1.00  0.00    -0.352 N 
ATOM     43  C   UNL A   1      32.999  35.861  32.261  1.00  0.00     0.251 C 
ATOM     44  H   UNL A   1      31.840  36.553  30.785  1.00  0.00     0.163 HD
ATOM     45  O   UNL A   1      32.415  36.489  33.134  1.00  0.00    -0.269 OA
BRANCH  43  46
ATOM     46  C   UNL A   1      34.204  35.073  32.601  1.00  0.00     0.039 A 
ATOM     47  C   UNL A   1      35.460  35.621  32.335  1.00  0.00     0.014 A 
ATOM     48  C   UNL A   1      34.100  33.790  33.148  1.00  0.00     0.014 A 
ATOM     49  C   UNL A   1      36.611  34.902  32.655  1.00  0.00     0.010 A 
ATOM     50  C   UNL A   1      35.249  33.107  33.541  1.00  0.00     0.010 A 
ATOM     51  C   UNL A   1      36.517  33.650  33.286  1.00  0.00    -0.014 A 
BRANCH  51  52
ATOM     52  C   UNL A   1      37.738  32.895  33.667  1.00  0.00     0.031 A 
ATOM     53  C   UNL A   1      38.262  31.801  32.777  1.00  0.00     0.074 A 
ATOM     54  C   UNL A   1      38.357  33.177  34.829  1.00  0.00     0.049 A 
ATOM     55  N   UNL A   1      39.299  31.020  32.953  1.00  0.00    -0.248 NA
ATOM     56  C   UNL A   1      37.512  31.532  31.541  1.00  0.00     0.031 C 
ATOM     57  C   UNL A   1      37.924  34.188  35.796  1.00  0.00     0.029 A 
ATOM     58  N   UNL A   1      39.485  32.639  35.396  1.00  0.00    -0.354 N 
ATOM     59  C   UNL A   1      39.323  30.171  31.853  1.00  0.00     0.074 A 
ATOM     60  C   UNL A   1      38.162  30.486  31.051  1.00  0.00     0.031 C 
ATOM     61  C   UNL A   1      38.795  34.221  36.818  1.00  0.00     0.029 A 
ATOM     62  C   UNL A   1      39.822  33.208  36.601  1.00  0.00     0.049 A 
ATOM     63  H   UNL A   1      40.004  31.913  34.979  1.00  0.00     0.167 HD
ATOM     64  C   UNL A   1      40.244  29.233  31.526  1.00  0.00     0.037 A 
ATOM     65  C   UNL A   1      40.842  32.939  37.437  1.00  0.00     0.037 A 
ATOM     66  C   UNL A   1      41.406  28.931  32.319  1.00  0.00     0.049 A 
ATOM     67  C   UNL A   1      41.832  31.869  37.065  1.00  0.00     0.074 A 
ATOM     68  C   UNL A   1      42.419  28.027  32.054  1.00  0.00     0.029 A 
ATOM     69  N   UNL A   1      41.709  29.524  33.536  1.00  0.00    -0.354 N 
ATOM     70  N   UNL A   1      41.877  31.119  35.991  1.00  0.00    -0.248 NA
ATOM     71  C   UNL A   1      42.917  31.611  38.023  1.00  0.00     0.031 C 
ATOM     72  C   UNL A   1      43.308  28.036  33.133  1.00  0.00     0.029 A 
ATOM     73  C   UNL A   1      42.879  28.987  34.045  1.00  0.00     0.049 A 
ATOM     74  H   UNL A   1      41.170  30.223  33.973  1.00  0.00     0.167 HD
ATOM     75  C   UNL A   1      43.010  30.328  36.127  1.00  0.00     0.074 A 
ATOM     76  C   UNL A   1      43.633  30.700  37.380  1.00  0.00     0.031 C 
ATOM     77  C   UNL A   1      43.493  29.377  35.289  1.00  0.00     0.037 A 
BRANCH  64  78
ATOM     78  C   UNL A   1      40.035  28.472  30.248  1.00  0.00     0.057 A 
ATOM     79  C   UNL A   1      40.640  28.864  29.047  1.00  0.00     0.134 A 
ATOM     80  C   UNL A   1      39.254  27.309  30.225  1.00  0.00     0.134 A 
ATOM     81  F   UNL A   1      41.392  29.975  28.996  1.00  0.00    -0.206 F 
ATOM     82  C   UNL A   1      40.457  28.145  27.865  1.00  0.00     0.040 A 
ATOM     83  C   UNL A   1      39.087  26.564  29.056  1.00  0.00     0.040 A 
ATOM     84  F   UNL A   1      38.650  26.871  31.340  1.00  0.00    -0.206 F 
ATOM     85  C   UNL A   1      39.684  26.986  27.870  1.00  0.00     0.006 A 
ENDBRANCH  64  78
BRANCH  65  86
ATOM     86  C   UNL A   1      40.997  33.706  38.700  1.00  0.00     0.057 A 
ATOM     87  C   UNL A   1      40.269  33.364  39.847  1.00  0.00     0.134 A 
ATOM     88  C   UNL A   1      41.850  34.812  38.787  1.00  0.00     0.134 A 
ATOM     89  F   UNL A   1      39.422  32.326  39.823  1.00  0.00    -0.206 F 
ATOM     90  C   UNL A   1      40.362  34.111  41.022  1.00  0.00     0.040 A 
ATOM     91  C   UNL A   1      41.975  35.550  39.964  1.00  0.00     0.040 A 
ATOM     92  F   UNL A   1      42.583  35.187  37.727  1.00  0.00    -0.206 F 
ATOM     93  C   UNL A   1      41.221  35.206  41.084  1.00  0.00     0.006 A 
ENDBRANCH  65  86
BRANCH  77  94
ATOM     94  C   UNL A   1      44.777  28.703  35.681  1.00  0.00     0.057 A 
ATOM     95  C   UNL A   1      44.797  27.529  36.443  1.00  0.00     0.134 A 
ATOM     96  C   UNL A   1      46.008  29.220  35.258  1.00  0.00     0.134 A 
ATOM     97  F   UNL A   1      43.653  26.989  36.892  1.00  0.00    -0.206 F 
ATOM     98  C   UNL A   1      45.997  26.908  36.796  1.00  0.00     0.040 A 
ATOM     99  C   UNL A   1      47.213  28.591  35.577  1.00  0.00     0.040 A 
ATOM    100  F   UNL A   1      46.061  30.336  34.516  1.00  0.00    -0.206 F 
ATOM    101  C   UNL A   1      47.209  27.435  36.356  1.00  0.00     0.006 A 
ENDBRANCH  77  94
ENDBRANCH  51  52
ENDBRANCH  43  46
ENDBRANCH  41  42
ENDBRANCH  40  41
ENDBRANCH  39  40
ENDBRANCH  38  39
ENDBRANCH   1  38
TORSDOF 19
ENDMDL
MODEL 3
REMARK VINA RESULT:     -11.5      4.971      7.444
REMARK SMILES CC(=O)N[C@H]1[C@@H](Oc2ccc(C)c(C)c2)O[C@H]2CO[C@H](c3ccco3)O[C@@H]2[C@H]1OCC(=O)NCCCCCCNC(=O)c1ccc(-c2c3nc(c(-c4c(F)cccc4F)c4ccc([nH]4)c(-c4c(F)cccc4F)c4nc(c(-c5c(F)cccc5F)c5ccc2[nH]5)C=C4)C=C3)cc1
REMARK SMILES IDX 35 1 34 2 33 3 31 4 32 5 30 7 29 8 28 9 5 10 6 11 16 12
REMARK SMILES IDX 27 13 17 14 26 15 18 16 20 17 19 18 4 19 1 20 2 21 3 22 7 24
REMARK SMILES IDX 8 25 9 26 15 27 10 28 13 29 11 30 14 31 12 32 21 33 22 34
REMARK SMILES IDX 25 35 23 36 24 37 36 38 37 39 38 40 39 41 40 42 41 43 42 45
REMARK SMILES IDX 43 46 44 47 96 48 45 49 95 50 46 51 47 52 48 53 89 54 49 55
REMARK SMILES IDX 94 56 88 57 90 58 50 59 93 60 87 61 86 62 51 64 77 65 60 66
REMARK SMILES IDX 76 67 61 68 64 69 75 70 91 71 62 72 63 73 74 75 92 76 65 77
REMARK SMILES IDX 52 78 53 79 58 80 54 81 55 82 57 83 59 84 56 85 78 86 79 87
REMARK SMILES IDX 84 88 80 89 81 90 83 91 85 92 82 93 66 94 67 95 72 96 68 97
REMARK SMILES IDX 69 98 71 99 73 100 70 101
REMARK H PARENT 33 6 4 23 40 44 90 63 64 74
REMARK Flexibility Score: inf
ROOT
ATOM      1  C   UNL A   1      35.332  32.869  28.004  1.00  0.00     0.021 C 
ENDROOT
BRANCH   1   2
ATOM      2  C   UNL A   1      34.981  31.382  28.033  1.00  0.00     0.116 C 
BRANCH   2   3
ATOM      3  N   UNL A   1      33.585  31.184  27.712  1.00  0.00    -0.354 N 
ATOM      4  C   UNL A   1      32.990  30.247  26.923  1.00  0.00     0.246 C 
ATOM      5  O   UNL A   1      31.764  30.290  26.814  1.00  0.00    -0.272 OA
ATOM      6  H   UNL A   1      32.967  31.827  28.130  1.00  0.00     0.163 HD
BRANCH   4   7
ATOM      7  C   UNL A   1      33.815  29.095  26.328  1.00  0.00     0.260 C 
BRANCH   7   8
ATOM      8  O   UNL A   1      33.327  27.785  26.160  1.00  0.00    -0.363 OA
BRANCH   8   9
ATOM      9  C   UNL A   1      33.458  27.131  24.890  1.00  0.00     0.179 C 
ATOM     10  C   UNL A   1      33.483  25.608  25.276  1.00  0.00     0.182 C 
ATOM     11  C   UNL A   1      33.937  24.775  24.076  1.00  0.00     0.333 C 
ATOM     12  O   UNL A   1      33.001  24.970  22.969  1.00  0.00    -0.332 OA
ATOM     13  C   UNL A   1      32.292  27.230  23.909  1.00  0.00     0.184 C 
ATOM     14  C   UNL A   1      32.575  26.336  22.680  1.00  0.00     0.180 C 
ATOM     15  O   UNL A   1      31.818  28.516  23.515  1.00  0.00    -0.337 OA
ATOM     16  C   UNL A   1      31.259  26.331  21.854  1.00  0.00     0.199 C 
ATOM     17  C   UNL A   1      30.514  28.266  22.950  1.00  0.00     0.319 C 
ATOM     18  O   UNL A   1      30.681  27.638  21.679  1.00  0.00    -0.343 OA
BRANCH  10  19
ATOM     19  N   UNL A   1      32.096  25.320  25.814  1.00  0.00    -0.345 N 
ATOM     20  C   UNL A   1      32.152  23.129  27.130  1.00  0.00     0.114 C 
ATOM     21  C   UNL A   1      31.460  24.229  26.353  1.00  0.00     0.217 C 
ATOM     22  O   UNL A   1      30.233  24.192  26.223  1.00  0.00    -0.275 OA
ATOM     23  H   UNL A   1      31.507  26.109  25.766  1.00  0.00     0.164 HD
ENDBRANCH  10  19
BRANCH  11  24
ATOM     24  O   UNL A   1      34.370  23.380  24.339  1.00  0.00    -0.463 OA
BRANCH  24  25
ATOM     25  C   UNL A   1      35.543  22.866  24.843  1.00  0.00     0.123 A 
ATOM     26  C   UNL A   1      36.047  21.592  24.674  1.00  0.00     0.047 A 
ATOM     27  C   UNL A   1      36.402  23.712  25.564  1.00  0.00     0.050 A 
ATOM     28  C   UNL A   1      37.325  21.167  25.032  1.00  0.00     0.007 A 
ATOM     29  C   UNL A   1      37.701  23.291  26.022  1.00  0.00    -0.045 A 
ATOM     30  C   UNL A   1      38.176  22.003  25.718  1.00  0.00    -0.048 A 
ATOM     31  C   UNL A   1      38.556  24.248  26.807  1.00  0.00     0.045 C 
ATOM     32  C   UNL A   1      39.532  21.459  26.072  1.00  0.00     0.044 C 
ENDBRANCH  24  25
ENDBRANCH  11  24
BRANCH  17  33
ATOM     33  C   UNL A   1      29.664  29.482  22.851  1.00  0.00     0.159 A 
ATOM     34  C   UNL A   1      29.480  30.523  23.747  1.00  0.00     0.051 A 
ATOM     35  O   UNL A   1      29.075  29.796  21.661  1.00  0.00    -0.464 OA
ATOM     36  C   UNL A   1      28.729  31.513  23.074  1.00  0.00     0.042 A 
ATOM     37  C   UNL A   1      28.508  31.023  21.808  1.00  0.00     0.195 A 
ENDBRANCH  17  33
ENDBRANCH   8   9
ENDBRANCH   7   8
ENDBRANCH   4   7
ENDBRANCH   2   3
ENDBRANCH   1   2
BRANCH   1  38
ATOM     38  C   UNL A   1      34.591  33.708  29.054  1.00  0.00     0.002 C 
BRANCH  38  39
ATOM     39  C   UNL A   1      35.381  33.972  30.338  1.00  0.00     0.002 C 
BRANCH  39  40
ATOM     40  C   UNL A   1      36.860  33.590  30.266  1.00  0.00     0.021 C 
BRANCH  40  41
ATOM     41  C   UNL A   1      37.337  32.697  31.407  1.00  0.00     0.116 C 
BRANCH  41  42
ATOM     42  N   UNL A   1      36.541  31.486  31.516  1.00  0.00    -0.352 N 
ATOM     43  C   UNL A   1      36.794  30.226  31.036  1.00  0.00     0.251 C 
ATOM     44  H   UNL A   1      35.694  31.584  32.010  1.00  0.00     0.163 HD
ATOM     45  O   UNL A   1      35.910  29.380  31.037  1.00  0.00    -0.269 OA
BRANCH  43  46
ATOM     46  C   UNL A   1      38.133  29.894  30.503  1.00  0.00     0.039 A 
ATOM     47  C   UNL A   1      39.108  29.423  31.385  1.00  0.00     0.014 A 
ATOM     48  C   UNL A   1      38.440  30.073  29.150  1.00  0.00     0.014 A 
ATOM     49  C   UNL A   1      40.375  29.093  30.905  1.00  0.00     0.010 A 
ATOM     50  C   UNL A   1      39.679  29.668  28.658  1.00  0.00     0.010 A 
ATOM     51  C   UNL A   1      40.664  29.187  29.534  1.00  0.00    -0.014 A 
BRANCH  51  52
ATOM     52  C   UNL A   1      41.998  28.799  29.008  1.00  0.00     0.031 A 
ATOM     53  C   UNL A   1      43.111  29.809  28.946  1.00  0.00     0.074 A 
ATOM     54  C   UNL A   1      42.196  27.544  28.560  1.00  0.00     0.049 A 
ATOM     55  N   UNL A   1      44.334  29.663  28.501  1.00  0.00    -0.248 NA
ATOM     56  C   UNL A   1      42.806  31.166  29.424  1.00  0.00     0.031 C 
ATOM     57  C   UNL A   1      41.185  26.485  28.532  1.00  0.00     0.029 A 
ATOM     58  N   UNL A   1      43.318  26.946  28.044  1.00  0.00    -0.354 N 
ATOM     59  C   UNL A   1      44.940  30.905  28.644  1.00  0.00     0.074 A 
ATOM     60  C   UNL A   1      43.933  31.809  29.155  1.00  0.00     0.031 C 
ATOM     61  C   UNL A   1      41.741  25.359  28.057  1.00  0.00     0.029 A 
ATOM     62  C   UNL A   1      43.133  25.625  27.709  1.00  0.00     0.049 A 
ATOM     63  H   UNL A   1      44.174  27.417  27.923  1.00  0.00     0.167 HD
ATOM     64  C   UNL A   1      46.226  31.255  28.400  1.00  0.00     0.037 A 
ATOM     65  C   UNL A   1      43.989  24.733  27.178  1.00  0.00     0.037 A 
ATOM     66  C   UNL A   1      47.229  30.349  27.905  1.00  0.00     0.049 A 
ATOM     67  C   UNL A   1      45.402  25.157  26.885  1.00  0.00     0.074 A 
ATOM     68  C   UNL A   1      48.569  30.596  27.664  1.00  0.00     0.029 A 
ATOM     69  N   UNL A   1      47.001  29.022  27.573  1.00  0.00    -0.354 N 
ATOM     70  N   UNL A   1      45.978  26.318  27.087  1.00  0.00    -0.248 NA
ATOM     71  C   UNL A   1      46.288  24.143  26.295  1.00  0.00     0.031 C 
ATOM     72  C   UNL A   1      49.140  29.434  27.138  1.00  0.00     0.029 A 
ATOM     73  C   UNL A   1      48.170  28.446  27.104  1.00  0.00     0.049 A 
ATOM     74  H   UNL A   1      46.136  28.559  27.656  1.00  0.00     0.167 HD
ATOM     75  C   UNL A   1      47.297  26.164  26.682  1.00  0.00     0.074 A 
ATOM     76  C   UNL A   1      47.441  24.793  26.238  1.00  0.00     0.031 C 
ATOM     77  C   UNL A   1      48.301  27.075  26.677  1.00  0.00     0.037 A 
BRANCH  64  78
ATOM     78  C   UNL A   1      46.622  32.678  28.676  1.00  0.00     0.057 A 
ATOM     79  C   UNL A   1      46.500  33.679  27.704  1.00  0.00     0.134 A 
ATOM     80  C   UNL A   1      47.091  33.059  29.939  1.00  0.00     0.134 A 
ATOM     81  F   UNL A   1      46.067  33.380  26.469  1.00  0.00    -0.206 F 
ATOM     82  C   UNL A   1      46.854  35.003  27.969  1.00  0.00     0.040 A 
ATOM     83  C   UNL A   1      47.421  34.386  30.225  1.00  0.00     0.040 A 
ATOM     84  F   UNL A   1      47.227  32.154  30.919  1.00  0.00    -0.206 F 
ATOM     85  C   UNL A   1      47.309  35.361  29.236  1.00  0.00     0.006 A 
ENDBRANCH  64  78
BRANCH  65  86
ATOM     86  C   UNL A   1      43.546  23.341  26.905  1.00  0.00     0.057 A 
ATOM     87  C   UNL A   1      43.307  22.440  27.950  1.00  0.00     0.134 A 
ATOM     88  C   UNL A   1      43.379  22.868  25.598  1.00  0.00     0.134 A 
ATOM     89  F   UNL A   1      43.468  22.827  29.224  1.00  0.00    -0.206 F 
ATOM     90  C   UNL A   1      42.947  21.114  27.706  1.00  0.00     0.040 A 
ATOM     91  C   UNL A   1      42.990  21.553  25.340  1.00  0.00     0.040 A 
ATOM     92  F   UNL A   1      43.583  23.683  24.552  1.00  0.00    -0.206 F 
ATOM     93  C   UNL A   1      42.783  20.668  26.396  1.00  0.00     0.006 A 
ENDBRANCH  65  86
BRANCH  77  94
ATOM     94  C   UNL A   1      49.651  26.609  26.215  1.00  0.00     0.057 A 
ATOM     95  C   UNL A   1      50.112  26.840  24.913  1.00  0.00     0.134 A 
ATOM     96  C   UNL A   1      50.515  25.950  27.099  1.00  0.00     0.134 A 
ATOM     97  F   UNL A   1      49.330  27.455  24.013  1.00  0.00    -0.206 F 
ATOM     98  C   UNL A   1      51.373  26.407  24.498  1.00  0.00     0.040 A 
ATOM     99  C   UNL A   1      51.790  25.539  26.705  1.00  0.00     0.040 A 
ATOM    100  F   UNL A   1      50.141  25.705  28.364  1.00  0.00    -0.206 F 
ATOM    101  C   UNL A   1      52.219  25.761  25.398  1.00  0.00     0.006 A 
ENDBRANCH  77  94
ENDBRANCH  51  52
ENDBRANCH  43  46
ENDBRANCH  41  42
ENDBRANCH  40  41
ENDBRANCH  39  40
ENDBRANCH  38  39
ENDBRANCH   1  38
TORSDOF 19
ENDMDL
