MODEL 1
REMARK VINA RESULT:     -11.9      0.000      0.000
REMARK SMILES O=C(NCCCCCCNC(=O)c1cccc(Nc2ccc([N+](=O)[O-])cc2)c1)c1ccc(-c2c3nc(c(-c4c(F)cccc4F)c4ccc([nH]4)c(-c4c(F)cccc4F)c4nc(c(-c5c(F)cccc5F)c5ccc2[nH]5)C=C4)C=C3)cc1
REMARK SMILES IDX 7 1 6 2 5 3 4 4 3 5 1 6 2 7 29 9 30 10 82 11 31 12 81 13
REMARK SMILES IDX 32 14 33 15 34 16 75 17 35 18 80 19 74 20 76 21 36 22 79 23
REMARK SMILES IDX 73 24 72 25 37 27 63 28 46 29 62 30 47 31 50 32 61 33 77 34
REMARK SMILES IDX 48 35 49 36 60 38 78 39 51 40 38 41 39 42 44 43 40 44 41 45
REMARK SMILES IDX 43 46 45 47 42 48 64 49 65 50 70 51 66 52 67 53 69 54 71 55
REMARK SMILES IDX 68 56 52 57 53 58 58 59 54 60 55 61 57 62 59 63 56 64 8 65
REMARK SMILES IDX 9 66 10 67 11 68 12 70 13 71 14 72 28 73 15 74 17 75 16 76
REMARK SMILES IDX 18 77 19 79 20 80 27 81 21 82 26 83 22 84 23 85 24 86 25 87
REMARK H PARENT 3 8 76 26 50 37 10 69 18 78
REMARK Flexibility Score: inf
ROOT
ATOM      1  C   UNL A   1      36.275  21.865  24.852  1.00  0.00     0.002 C 
ENDROOT
BRANCH   1   2
ATOM      2  C   UNL A   1      36.165  20.342  24.961  1.00  0.00     0.002 C 
BRANCH   2   3
ATOM      3  C   UNL A   1      37.480  19.581  24.801  1.00  0.00     0.021 C 
BRANCH   3   4
ATOM      4  C   UNL A   1      38.666  20.200  25.529  1.00  0.00     0.116 C 
BRANCH   4   5
ATOM      5  N   UNL A   1      39.771  19.269  25.689  1.00  0.00    -0.352 N 
ATOM      6  O   UNL A   1      41.918  18.644  26.004  1.00  0.00    -0.269 OA
ATOM      7  C   UNL A   1      41.063  19.521  26.079  1.00  0.00     0.251 C 
ATOM      8  H   UNL A   1      39.563  18.328  25.490  1.00  0.00     0.163 HD
BRANCH   7   9
ATOM      9  C   UNL A   1      41.426  20.867  26.570  1.00  0.00     0.039 A 
ATOM     10  C   UNL A   1      41.838  21.860  25.679  1.00  0.00     0.014 A 
ATOM     11  C   UNL A   1      41.351  21.138  27.940  1.00  0.00     0.014 A 
ATOM     12  C   UNL A   1      42.308  23.072  26.165  1.00  0.00     0.010 A 
ATOM     13  C   UNL A   1      41.737  22.393  28.419  1.00  0.00     0.010 A 
ATOM     14  C   UNL A   1      42.242  23.362  27.538  1.00  0.00    -0.014 A 
BRANCH  14  15
ATOM     15  C   UNL A   1      42.626  24.715  28.012  1.00  0.00     0.031 A 
ATOM     16  C   UNL A   1      44.065  25.087  28.235  1.00  0.00     0.074 A 
ATOM     17  C   UNL A   1      41.650  25.620  28.226  1.00  0.00     0.049 A 
ATOM     18  N   UNL A   1      44.564  26.226  28.645  1.00  0.00    -0.248 NA
ATOM     19  C   UNL A   1      45.074  24.050  27.970  1.00  0.00     0.031 C 
ATOM     20  C   UNL A   1      40.216  25.367  28.056  1.00  0.00     0.029 A 
ATOM     21  N   UNL A   1      41.710  26.931  28.620  1.00  0.00    -0.354 N 
ATOM     22  C   UNL A   1      45.940  26.040  28.704  1.00  0.00     0.074 A 
ATOM     23  C   UNL A   1      46.196  24.670  28.310  1.00  0.00     0.031 C 
ATOM     24  C   UNL A   1      39.537  26.494  28.302  1.00  0.00     0.029 A 
ATOM     25  C   UNL A   1      40.477  27.529  28.715  1.00  0.00     0.049 A 
ATOM     26  H   UNL A   1      42.554  27.398  28.815  1.00  0.00     0.167 HD
ATOM     27  C   UNL A   1      46.898  26.935  29.048  1.00  0.00     0.037 A 
ATOM     28  C   UNL A   1      40.135  28.766  29.116  1.00  0.00     0.037 A 
ATOM     29  C   UNL A   1      46.633  28.300  29.431  1.00  0.00     0.049 A 
ATOM     30  C   UNL A   1      41.216  29.722  29.527  1.00  0.00     0.074 A 
ATOM     31  C   UNL A   1      47.540  29.292  29.763  1.00  0.00     0.029 A 
ATOM     32  N   UNL A   1      45.370  28.861  29.542  1.00  0.00    -0.354 N 
ATOM     33  N   UNL A   1      42.514  29.544  29.537  1.00  0.00    -0.248 NA
ATOM     34  C   UNL A   1      40.785  31.050  29.983  1.00  0.00     0.031 C 
ATOM     35  C   UNL A   1      46.823  30.438  30.126  1.00  0.00     0.029 A 
ATOM     36  C   UNL A   1      45.471  30.178  29.962  1.00  0.00     0.049 A 
ATOM     37  H   UNL A   1      44.525  28.394  29.350  1.00  0.00     0.167 HD
ATOM     38  C   UNL A   1      43.056  30.743  29.978  1.00  0.00     0.074 A 
ATOM     39  C   UNL A   1      41.947  31.646  30.205  1.00  0.00     0.031 C 
ATOM     40  C   UNL A   1      44.358  31.066  30.178  1.00  0.00     0.037 A 
BRANCH  27  41
ATOM     41  C   UNL A   1      48.327  26.469  29.046  1.00  0.00     0.057 A 
ATOM     42  C   UNL A   1      48.895  25.816  30.148  1.00  0.00     0.134 A 
ATOM     43  C   UNL A   1      49.123  26.615  27.903  1.00  0.00     0.134 A 
ATOM     44  F   UNL A   1      48.191  25.651  31.278  1.00  0.00    -0.206 F 
ATOM     45  C   UNL A   1      50.209  25.342  30.117  1.00  0.00     0.040 A 
ATOM     46  C   UNL A   1      50.428  26.123  27.851  1.00  0.00     0.040 A 
ATOM     47  F   UNL A   1      48.638  27.222  26.808  1.00  0.00    -0.206 F 
ATOM     48  C   UNL A   1      50.976  25.487  28.963  1.00  0.00     0.006 A 
ENDBRANCH  27  41
BRANCH  28  49
ATOM     49  C   UNL A   1      38.705  29.162  29.161  1.00  0.00     0.057 A 
ATOM     50  C   UNL A   1      37.956  29.044  30.337  1.00  0.00     0.134 A 
ATOM     51  C   UNL A   1      38.053  29.666  28.029  1.00  0.00     0.134 A 
ATOM     52  F   UNL A   1      38.520  28.554  31.451  1.00  0.00    -0.206 F 
ATOM     53  C   UNL A   1      36.605  29.391  30.381  1.00  0.00     0.040 A 
ATOM     54  C   UNL A   1      36.711  30.047  28.066  1.00  0.00     0.040 A 
ATOM     55  F   UNL A   1      38.717  29.814  26.874  1.00  0.00    -0.206 F 
ATOM     56  C   UNL A   1      35.981  29.901  29.243  1.00  0.00     0.006 A 
ENDBRANCH  28  49
BRANCH  40  57
ATOM     57  C   UNL A   1      44.650  32.468  30.630  1.00  0.00     0.057 A 
ATOM     58  C   UNL A   1      44.823  33.519  29.720  1.00  0.00     0.134 A 
ATOM     59  C   UNL A   1      44.732  32.772  31.995  1.00  0.00     0.134 A 
ATOM     60  F   UNL A   1      44.771  33.291  28.399  1.00  0.00    -0.206 F 
ATOM     61  C   UNL A   1      45.095  34.818  30.152  1.00  0.00     0.040 A 
ATOM     62  C   UNL A   1      44.975  34.072  32.439  1.00  0.00     0.040 A 
ATOM     63  F   UNL A   1      44.569  31.812  32.917  1.00  0.00    -0.206 F 
ATOM     64  C   UNL A   1      45.165  35.098  31.516  1.00  0.00     0.006 A 
ENDBRANCH  40  57
ENDBRANCH  14  15
ENDBRANCH   7   9
ENDBRANCH   4   5
ENDBRANCH   3   4
ENDBRANCH   2   3
ENDBRANCH   1   2
BRANCH   1  65
ATOM     65  C   UNL A   1      35.778  22.652  26.069  1.00  0.00     0.021 C 
BRANCH  65  66
ATOM     66  C   UNL A   1      34.786  21.905  26.956  1.00  0.00     0.116 C 
BRANCH  66  67
ATOM     67  N   UNL A   1      33.630  22.722  27.280  1.00  0.00    -0.352 N 
ATOM     68  C   UNL A   1      32.719  23.303  26.437  1.00  0.00     0.251 C 
ATOM     69  H   UNL A   1      33.480  22.882  28.240  1.00  0.00     0.163 HD
ATOM     70  O   UNL A   1      31.925  24.135  26.863  1.00  0.00    -0.269 OA
BRANCH  68  71
ATOM     71  C   UNL A   1      32.694  22.927  25.011  1.00  0.00     0.041 A 
ATOM     72  C   UNL A   1      32.967  23.904  24.054  1.00  0.00     0.014 A 
ATOM     73  C   UNL A   1      32.353  21.624  24.622  1.00  0.00     0.039 A 
ATOM     74  C   UNL A   1      32.947  23.561  22.706  1.00  0.00     0.003 A 
ATOM     75  C   UNL A   1      32.329  21.266  23.271  1.00  0.00     0.039 A 
ATOM     76  C   UNL A   1      32.643  22.250  22.323  1.00  0.00     0.026 A 
BRANCH  75  77
ATOM     77  N   UNL A   1      32.025  19.936  22.927  1.00  0.00    -0.356 N 
ATOM     78  H   UNL A   1      31.409  19.833  22.165  1.00  0.00     0.167 HD
BRANCH  77  79
ATOM     79  C   UNL A   1      32.463  18.733  23.503  1.00  0.00     0.039 A 
ATOM     80  C   UNL A   1      33.011  17.746  22.672  1.00  0.00     0.033 A 
ATOM     81  C   UNL A   1      32.476  18.532  24.890  1.00  0.00     0.033 A 
ATOM     82  C   UNL A   1      33.596  16.597  23.212  1.00  0.00     0.088 A 
ATOM     83  C   UNL A   1      33.048  17.385  25.445  1.00  0.00     0.088 A 
ATOM     84  C   UNL A   1      33.624  16.428  24.601  1.00  0.00     0.269 A 
BRANCH  84  85
ATOM     85  N   UNL A   1      34.289  15.254  25.176  1.00  0.00     0.062 N 
ATOM     86  O   UNL A   1      33.589  14.264  25.437  1.00  0.00    -0.258 OA
ATOM     87  O   UNL A   1      35.513  15.317  25.360  1.00  0.00    -0.258 OA
ENDBRANCH  84  85
ENDBRANCH  77  79
ENDBRANCH  75  77
ENDBRANCH  68  71
ENDBRANCH  66  67
ENDBRANCH  65  66
ENDBRANCH   1  65
TORSDOF 16
ENDMDL
MODEL 2
REMARK VINA RESULT:     -11.8      0.354      6.145
REMARK SMILES O=C(NCCCCCCNC(=O)c1cccc(Nc2ccc([N+](=O)[O-])cc2)c1)c1ccc(-c2c3nc(c(-c4c(F)cccc4F)c4ccc([nH]4)c(-c4c(F)cccc4F)c4nc(c(-c5c(F)cccc5F)c5ccc2[nH]5)C=C4)C=C3)cc1
REMARK SMILES IDX 7 1 6 2 5 3 4 4 3 5 1 6 2 7 29 9 30 10 82 11 31 12 81 13
REMARK SMILES IDX 32 14 33 15 34 16 75 17 35 18 80 19 74 20 76 21 36 22 79 23
REMARK SMILES IDX 73 24 72 25 37 27 63 28 46 29 62 30 47 31 50 32 61 33 77 34
REMARK SMILES IDX 48 35 49 36 60 38 78 39 51 40 38 41 39 42 44 43 40 44 41 45
REMARK SMILES IDX 43 46 45 47 42 48 64 49 65 50 70 51 66 52 67 53 69 54 71 55
REMARK SMILES IDX 68 56 52 57 53 58 58 59 54 60 55 61 57 62 59 63 56 64 8 65
REMARK SMILES IDX 9 66 10 67 11 68 12 70 13 71 14 72 28 73 15 74 17 75 16 76
REMARK SMILES IDX 18 77 19 79 20 80 27 81 21 82 26 83 22 84 23 85 24 86 25 87
REMARK H PARENT 3 8 76 26 50 37 10 69 18 78
REMARK Flexibility Score: inf
ROOT
ATOM      1  C   UNL A   1      36.169  21.887  24.772  1.00  0.00     0.002 C 
ENDROOT
BRANCH   1   2
ATOM      2  C   UNL A   1      36.108  20.377  25.014  1.00  0.00     0.002 C 
BRANCH   2   3
ATOM      3  C   UNL A   1      37.422  19.628  24.795  1.00  0.00     0.021 C 
BRANCH   3   4
ATOM      4  C   UNL A   1      38.633  20.261  25.468  1.00  0.00     0.116 C 
BRANCH   4   5
ATOM      5  N   UNL A   1      39.728  19.321  25.643  1.00  0.00    -0.352 N 
ATOM      6  O   UNL A   1      41.864  18.679  26.002  1.00  0.00    -0.269 OA
ATOM      7  C   UNL A   1      41.013  19.560  26.067  1.00  0.00     0.251 C 
ATOM      8  H   UNL A   1      39.520  18.384  25.427  1.00  0.00     0.163 HD
BRANCH   7   9
ATOM      9  C   UNL A   1      41.371  20.897  26.585  1.00  0.00     0.039 A 
ATOM     10  C   UNL A   1      41.818  21.896  25.718  1.00  0.00     0.014 A 
ATOM     11  C   UNL A   1      41.256  21.153  27.955  1.00  0.00     0.014 A 
ATOM     12  C   UNL A   1      42.283  23.099  26.233  1.00  0.00     0.010 A 
ATOM     13  C   UNL A   1      41.637  22.399  28.460  1.00  0.00     0.010 A 
ATOM     14  C   UNL A   1      42.177  23.374  27.607  1.00  0.00    -0.014 A 
BRANCH  14  15
ATOM     15  C   UNL A   1      42.557  24.717  28.108  1.00  0.00     0.031 A 
ATOM     16  C   UNL A   1      41.531  25.793  28.327  1.00  0.00     0.074 A 
ATOM     17  C   UNL A   1      43.856  24.954  28.383  1.00  0.00     0.049 A 
ATOM     18  N   UNL A   1      41.702  27.016  28.761  1.00  0.00    -0.248 NA
ATOM     19  C   UNL A   1      40.132  25.457  28.016  1.00  0.00     0.031 C 
ATOM     20  C   UNL A   1      44.944  23.989  28.197  1.00  0.00     0.029 A 
ATOM     21  N   UNL A   1      44.481  26.064  28.885  1.00  0.00    -0.354 N 
ATOM     22  C   UNL A   1      40.442  27.601  28.759  1.00  0.00     0.074 A 
ATOM     23  C   UNL A   1      39.517  26.607  28.257  1.00  0.00     0.031 C 
ATOM     24  C   UNL A   1      46.094  24.534  28.616  1.00  0.00     0.029 A 
ATOM     25  C   UNL A   1      45.838  25.907  29.035  1.00  0.00     0.049 A 
ATOM     26  H   UNL A   1      44.005  26.895  29.115  1.00  0.00     0.167 HD
ATOM     27  C   UNL A   1      40.093  28.852  29.148  1.00  0.00     0.037 A 
ATOM     28  C   UNL A   1      46.779  26.777  29.440  1.00  0.00     0.037 A 
ATOM     29  C   UNL A   1      41.020  29.833  29.654  1.00  0.00     0.049 A 
ATOM     30  C   UNL A   1      46.366  28.167  29.828  1.00  0.00     0.074 A 
ATOM     31  C   UNL A   1      40.756  31.115  30.105  1.00  0.00     0.029 A 
ATOM     32  N   UNL A   1      42.390  29.645  29.766  1.00  0.00    -0.354 N 
ATOM     33  N   UNL A   1      45.165  28.691  29.861  1.00  0.00    -0.248 NA
ATOM     34  C   UNL A   1      47.437  29.085  30.235  1.00  0.00     0.031 C 
ATOM     35  C   UNL A   1      41.972  31.721  30.441  1.00  0.00     0.029 A 
ATOM     36  C   UNL A   1      42.988  30.796  30.255  1.00  0.00     0.049 A 
ATOM     37  H   UNL A   1      42.868  28.816  29.533  1.00  0.00     0.167 HD
ATOM     38  C   UNL A   1      45.333  29.993  30.312  1.00  0.00     0.074 A 
ATOM     39  C   UNL A   1      46.749  30.170  30.560  1.00  0.00     0.031 C 
ATOM     40  C   UNL A   1      44.398  30.956  30.502  1.00  0.00     0.037 A 
BRANCH  27  41
ATOM     41  C   UNL A   1      38.647  29.246  29.028  1.00  0.00     0.057 A 
ATOM     42  C   UNL A   1      38.091  29.664  27.812  1.00  0.00     0.134 A 
ATOM     43  C   UNL A   1      37.786  29.140  30.128  1.00  0.00     0.134 A 
ATOM     44  F   UNL A   1      38.861  29.795  26.721  1.00  0.00    -0.206 F 
ATOM     45  C   UNL A   1      36.735  29.979  27.700  1.00  0.00     0.040 A 
ATOM     46  C   UNL A   1      36.424  29.429  30.022  1.00  0.00     0.040 A 
ATOM     47  F   UNL A   1      38.250  28.737  31.320  1.00  0.00    -0.206 F 
ATOM     48  C   UNL A   1      35.896  29.853  28.805  1.00  0.00     0.006 A 
ENDBRANCH  27  41
BRANCH  28  49
ATOM     49  C   UNL A   1      48.204  26.362  29.483  1.00  0.00     0.057 A 
ATOM     50  C   UNL A   1      48.751  25.761  30.621  1.00  0.00     0.134 A 
ATOM     51  C   UNL A   1      49.052  26.559  28.386  1.00  0.00     0.134 A 
ATOM     52  F   UNL A   1      47.993  25.560  31.709  1.00  0.00    -0.206 F 
ATOM     53  C   UNL A   1      50.095  25.390  30.676  1.00  0.00     0.040 A 
ATOM     54  C   UNL A   1      50.390  26.164  28.415  1.00  0.00     0.040 A 
ATOM     55  F   UNL A   1      48.586  27.120  27.261  1.00  0.00    -0.206 F 
ATOM     56  C   UNL A   1      50.917  25.586  29.567  1.00  0.00     0.006 A 
ENDBRANCH  28  49
BRANCH  40  57
ATOM     57  C   UNL A   1      44.876  32.273  31.041  1.00  0.00     0.057 A 
ATOM     58  C   UNL A   1      45.254  33.326  30.198  1.00  0.00     0.134 A 
ATOM     59  C   UNL A   1      44.935  32.495  32.423  1.00  0.00     0.134 A 
ATOM     60  F   UNL A   1      45.235  33.171  28.866  1.00  0.00    -0.206 F 
ATOM     61  C   UNL A   1      45.698  34.545  30.712  1.00  0.00     0.040 A 
ATOM     62  C   UNL A   1      45.350  33.720  32.947  1.00  0.00     0.040 A 
ATOM     63  F   UNL A   1      44.581  31.530  33.284  1.00  0.00    -0.206 F 
ATOM     64  C   UNL A   1      45.740  34.747  32.090  1.00  0.00     0.006 A 
ENDBRANCH  40  57
ENDBRANCH  14  15
ENDBRANCH   7   9
ENDBRANCH   4   5
ENDBRANCH   3   4
ENDBRANCH   2   3
ENDBRANCH   1   2
BRANCH   1  65
ATOM     65  C   UNL A   1      35.700  22.762  25.939  1.00  0.00     0.021 C 
BRANCH  65  66
ATOM     66  C   UNL A   1      34.736  22.081  26.906  1.00  0.00     0.116 C 
BRANCH  66  67
ATOM     67  N   UNL A   1      33.587  22.918  27.202  1.00  0.00    -0.352 N 
ATOM     68  C   UNL A   1      32.691  23.494  26.340  1.00  0.00     0.251 C 
ATOM     69  H   UNL A   1      33.429  23.097  28.157  1.00  0.00     0.163 HD
ATOM     70  O   UNL A   1      31.903  24.344  26.741  1.00  0.00    -0.269 OA
BRANCH  68  71
ATOM     71  C   UNL A   1      32.677  23.091  24.920  1.00  0.00     0.041 A 
ATOM     72  C   UNL A   1      32.916  24.059  23.945  1.00  0.00     0.014 A 
ATOM     73  C   UNL A   1      32.379  21.771  24.556  1.00  0.00     0.039 A 
ATOM     74  C   UNL A   1      32.905  23.691  22.604  1.00  0.00     0.003 A 
ATOM     75  C   UNL A   1      32.365  21.388  23.211  1.00  0.00     0.039 A 
ATOM     76  C   UNL A   1      32.644  22.364  22.245  1.00  0.00     0.026 A 
BRANCH  75  77
ATOM     77  N   UNL A   1      32.104  20.042  22.893  1.00  0.00    -0.356 N 
ATOM     78  H   UNL A   1      31.502  19.905  22.125  1.00  0.00     0.167 HD
BRANCH  77  79
ATOM     79  C   UNL A   1      32.569  18.865  23.501  1.00  0.00     0.039 A 
ATOM     80  C   UNL A   1      33.120  17.860  22.694  1.00  0.00     0.033 A 
ATOM     81  C   UNL A   1      32.603  18.710  24.893  1.00  0.00     0.033 A 
ATOM     82  C   UNL A   1      33.730  16.739  23.263  1.00  0.00     0.088 A 
ATOM     83  C   UNL A   1      33.200  17.589  25.477  1.00  0.00     0.088 A 
ATOM     84  C   UNL A   1      33.779  16.615  24.656  1.00  0.00     0.269 A 
BRANCH  84  85
ATOM     85  N   UNL A   1      34.470  15.470  25.259  1.00  0.00     0.062 N 
ATOM     86  O   UNL A   1      35.663  15.613  25.565  1.00  0.00    -0.258 OA
ATOM     87  O   UNL A   1      33.819  14.430  25.435  1.00  0.00    -0.258 OA
ENDBRANCH  84  85
ENDBRANCH  77  79
ENDBRANCH  75  77
ENDBRANCH  68  71
ENDBRANCH  66  67
ENDBRANCH  65  66
ENDBRANCH   1  65
TORSDOF 16
ENDMDL
MODEL 3
REMARK VINA RESULT:     -11.6      4.780      9.273
REMARK SMILES O=C(NCCCCCCNC(=O)c1cccc(Nc2ccc([N+](=O)[O-])cc2)c1)c1ccc(-c2c3nc(c(-c4c(F)cccc4F)c4ccc([nH]4)c(-c4c(F)cccc4F)c4nc(c(-c5c(F)cccc5F)c5ccc2[nH]5)C=C4)C=C3)cc1
REMARK SMILES IDX 7 1 6 2 5 3 4 4 3 5 1 6 2 7 29 9 30 10 82 11 31 12 81 13
REMARK SMILES IDX 32 14 33 15 34 16 75 17 35 18 80 19 74 20 76 21 36 22 79 23
REMARK SMILES IDX 73 24 72 25 37 27 63 28 46 29 62 30 47 31 50 32 61 33 77 34
REMARK SMILES IDX 48 35 49 36 60 38 78 39 51 40 38 41 39 42 44 43 40 44 41 45
REMARK SMILES IDX 43 46 45 47 42 48 64 49 65 50 70 51 66 52 67 53 69 54 71 55
REMARK SMILES IDX 68 56 52 57 53 58 58 59 54 60 55 61 57 62 59 63 56 64 8 65
REMARK SMILES IDX 9 66 10 67 11 68 12 70 13 71 14 72 28 73 15 74 17 75 16 76
REMARK SMILES IDX 18 77 19 79 20 80 27 81 21 82 26 83 22 84 23 85 24 86 25 87
REMARK H PARENT 3 8 76 26 50 37 10 69 18 78
REMARK Flexibility Score: inf
ROOT
ATOM      1  C   UNL A   1      31.663  29.935  25.432  1.00  0.00     0.002 C 
ENDROOT
BRANCH   1   2
ATOM      2  C   UNL A   1      31.778  30.562  26.824  1.00  0.00     0.002 C 
BRANCH   2   3
ATOM      3  C   UNL A   1      31.517  32.066  26.885  1.00  0.00     0.021 C 
BRANCH   3   4
ATOM      4  C   UNL A   1      32.771  32.926  26.974  1.00  0.00     0.116 C 
BRANCH   4   5
ATOM      5  N   UNL A   1      32.527  34.203  27.622  1.00  0.00    -0.352 N 
ATOM      6  O   UNL A   1      32.677  35.754  29.258  1.00  0.00    -0.269 OA
ATOM      7  C   UNL A   1      33.117  34.730  28.745  1.00  0.00     0.251 C 
ATOM      8  H   UNL A   1      31.844  34.770  27.197  1.00  0.00     0.163 HD
BRANCH   7   9
ATOM      9  C   UNL A   1      34.275  34.039  29.350  1.00  0.00     0.039 A 
ATOM     10  C   UNL A   1      35.578  34.397  28.997  1.00  0.00     0.014 A 
ATOM     11  C   UNL A   1      34.054  33.021  30.283  1.00  0.00     0.014 A 
ATOM     12  C   UNL A   1      36.650  33.650  29.464  1.00  0.00     0.010 A 
ATOM     13  C   UNL A   1      35.142  32.330  30.824  1.00  0.00     0.010 A 
ATOM     14  C   UNL A   1      36.448  32.623  30.402  1.00  0.00    -0.014 A 
BRANCH  14  15
ATOM     15  C   UNL A   1      37.624  31.931  30.984  1.00  0.00     0.031 A 
ATOM     16  C   UNL A   1      38.110  32.243  32.371  1.00  0.00     0.074 A 
ATOM     17  C   UNL A   1      38.246  30.992  30.243  1.00  0.00     0.049 A 
ATOM     18  N   UNL A   1      39.121  31.726  33.023  1.00  0.00    -0.248 NA
ATOM     19  C   UNL A   1      37.373  33.271  33.123  1.00  0.00     0.031 C 
ATOM     20  C   UNL A   1      37.870  30.613  28.877  1.00  0.00     0.029 A 
ATOM     21  N   UNL A   1      39.311  30.180  30.529  1.00  0.00    -0.354 N 
ATOM     22  C   UNL A   1      39.153  32.374  34.252  1.00  0.00     0.074 A 
ATOM     23  C   UNL A   1      38.075  33.340  34.246  1.00  0.00     0.031 C 
ATOM     24  C   UNL A   1      38.664  29.618  28.461  1.00  0.00     0.029 A 
ATOM     25  C   UNL A   1      39.647  29.335  29.500  1.00  0.00     0.049 A 
ATOM     26  H   UNL A   1      39.790  30.201  31.389  1.00  0.00     0.167 HD
ATOM     27  C   UNL A   1      40.002  32.172  35.289  1.00  0.00     0.037 A 
ATOM     28  C   UNL A   1      40.651  28.447  29.390  1.00  0.00     0.037 A 
ATOM     29  C   UNL A   1      41.068  31.202  35.288  1.00  0.00     0.049 A 
ATOM     30  C   UNL A   1      41.597  28.274  30.542  1.00  0.00     0.074 A 
ATOM     31  C   UNL A   1      41.959  30.900  36.304  1.00  0.00     0.029 A 
ATOM     32  N   UNL A   1      41.394  30.383  34.217  1.00  0.00    -0.354 N 
ATOM     33  N   UNL A   1      41.589  28.863  31.712  1.00  0.00    -0.248 NA
ATOM     34  C   UNL A   1      42.692  27.313  30.358  1.00  0.00     0.031 C 
ATOM     35  C   UNL A   1      42.856  29.936  35.829  1.00  0.00     0.029 A 
ATOM     36  C   UNL A   1      42.488  29.594  34.538  1.00  0.00     0.049 A 
ATOM     37  H   UNL A   1      40.918  30.364  33.355  1.00  0.00     0.167 HD
ATOM     38  C   UNL A   1      42.662  28.330  32.412  1.00  0.00     0.074 A 
ATOM     39  C   UNL A   1      43.285  27.354  31.542  1.00  0.00     0.031 C 
ATOM     40  C   UNL A   1      43.093  28.623  33.663  1.00  0.00     0.037 A 
BRANCH  27  41
ATOM     41  C   UNL A   1      39.831  33.028  36.512  1.00  0.00     0.057 A 
ATOM     42  C   UNL A   1      40.551  34.217  36.693  1.00  0.00     0.134 A 
ATOM     43  C   UNL A   1      38.884  32.694  37.490  1.00  0.00     0.134 A 
ATOM     44  F   UNL A   1      41.479  34.592  35.800  1.00  0.00    -0.206 F 
ATOM     45  C   UNL A   1      40.347  35.031  37.809  1.00  0.00     0.040 A 
ATOM     46  C   UNL A   1      38.654  33.512  38.597  1.00  0.00     0.040 A 
ATOM     47  F   UNL A   1      38.153  31.575  37.375  1.00  0.00    -0.206 F 
ATOM     48  C   UNL A   1      39.390  34.684  38.761  1.00  0.00     0.006 A 
ENDBRANCH  27  41
BRANCH  28  49
ATOM     49  C   UNL A   1      40.818  27.669  28.137  1.00  0.00     0.057 A 
ATOM     50  C   UNL A   1      40.212  26.419  27.972  1.00  0.00     0.134 A 
ATOM     51  C   UNL A   1      41.591  28.156  27.076  1.00  0.00     0.134 A 
ATOM     52  F   UNL A   1      39.472  25.892  28.959  1.00  0.00    -0.206 F 
ATOM     53  C   UNL A   1      40.385  25.671  26.807  1.00  0.00     0.040 A 
ATOM     54  C   UNL A   1      41.746  27.434  25.892  1.00  0.00     0.040 A 
ATOM     55  F   UNL A   1      42.190  29.352  27.166  1.00  0.00    -0.206 F 
ATOM     56  C   UNL A   1      41.149  26.183  25.759  1.00  0.00     0.006 A 
ENDBRANCH  28  49
BRANCH  40  57
ATOM     57  C   UNL A   1      44.272  27.849  34.176  1.00  0.00     0.057 A 
ATOM     58  C   UNL A   1      44.125  26.611  34.816  1.00  0.00     0.134 A 
ATOM     59  C   UNL A   1      45.573  28.338  34.003  1.00  0.00     0.134 A 
ATOM     60  F   UNL A   1      42.905  26.095  35.026  1.00  0.00    -0.206 F 
ATOM     61  C   UNL A   1      45.230  25.901  35.289  1.00  0.00     0.040 A 
ATOM     62  C   UNL A   1      46.687  27.623  34.447  1.00  0.00     0.040 A 
ATOM     63  F   UNL A   1      45.783  29.514  33.393  1.00  0.00    -0.206 F 
ATOM     64  C   UNL A   1      46.515  26.404  35.099  1.00  0.00     0.006 A 
ENDBRANCH  40  57
ENDBRANCH  14  15
ENDBRANCH   7   9
ENDBRANCH   4   5
ENDBRANCH   3   4
ENDBRANCH   2   3
ENDBRANCH   1   2
BRANCH   1  65
ATOM     65  C   UNL A   1      32.882  29.131  24.968  1.00  0.00     0.021 C 
BRANCH  65  66
ATOM     66  C   UNL A   1      33.051  29.035  23.454  1.00  0.00     0.116 C 
BRANCH  66  67
ATOM     67  N   UNL A   1      31.813  29.327  22.754  1.00  0.00    -0.352 N 
ATOM     68  C   UNL A   1      30.787  28.482  22.422  1.00  0.00     0.251 C 
ATOM     69  H   UNL A   1      31.694  30.265  22.478  1.00  0.00     0.163 HD
ATOM     70  O   UNL A   1      29.910  28.847  21.646  1.00  0.00    -0.269 OA
BRANCH  68  71
ATOM     71  C   UNL A   1      30.738  27.125  23.000  1.00  0.00     0.041 A 
ATOM     72  C   UNL A   1      29.965  26.907  24.140  1.00  0.00     0.014 A 
ATOM     73  C   UNL A   1      31.495  26.085  22.443  1.00  0.00     0.039 A 
ATOM     74  C   UNL A   1      29.912  25.632  24.693  1.00  0.00     0.003 A 
ATOM     75  C   UNL A   1      31.450  24.799  22.988  1.00  0.00     0.039 A 
ATOM     76  C   UNL A   1      30.639  24.587  24.112  1.00  0.00     0.026 A 
BRANCH  75  77
ATOM     77  N   UNL A   1      32.191  23.774  22.370  1.00  0.00    -0.356 N 
ATOM     78  H   UNL A   1      32.560  24.002  21.486  1.00  0.00     0.167 HD
BRANCH  77  79
ATOM     79  C   UNL A   1      32.486  22.478  22.820  1.00  0.00     0.039 A 
ATOM     80  C   UNL A   1      33.236  22.324  23.995  1.00  0.00     0.033 A 
ATOM     81  C   UNL A   1      31.961  21.337  22.200  1.00  0.00     0.033 A 
ATOM     82  C   UNL A   1      33.428  21.062  24.562  1.00  0.00     0.088 A 
ATOM     83  C   UNL A   1      32.153  20.066  22.749  1.00  0.00     0.088 A 
ATOM     84  C   UNL A   1      32.873  19.937  23.943  1.00  0.00     0.269 A 
BRANCH  84  85
ATOM     85  N   UNL A   1      33.020  18.617  24.566  1.00  0.00     0.062 N 
ATOM     86  O   UNL A   1      34.007  17.936  24.248  1.00  0.00    -0.258 OA
ATOM     87  O   UNL A   1      32.154  18.263  25.379  1.00  0.00    -0.258 OA
ENDBRANCH  84  85
ENDBRANCH  77  79
ENDBRANCH  75  77
ENDBRANCH  68  71
ENDBRANCH  66  67
ENDBRANCH  65  66
ENDBRANCH   1  65
TORSDOF 16
ENDMDL
