MODEL 1
REMARK VINA RESULT:      -9.6      0.000      0.000
REMARK SMILES O=C(COc1nc(NCc2cccc(Cl)c2)nc2c1CCC2)NCCCCCCNC(=O)c1ccc(-c2c3nc(c(-c4c(F)cccc4F)c4ccc([nH]4)c(-c4c(F)cccc4F)c4nc(c(-c5c(F)cccc5F)c5ccc2[nH]5)C=C4)C=C3)cc1
REMARK SMILES IDX 25 1 24 2 23 3 1 4 2 5 3 7 4 8 5 9 6 10 19 11 7 12 18 13
REMARK SMILES IDX 20 14 17 15 22 16 21 17 8 18 9 20 10 21 11 22 16 23 12 24
REMARK SMILES IDX 14 25 13 26 15 27 26 28 27 29 28 30 29 31 30 32 31 33 32 35
REMARK SMILES IDX 33 36 34 37 86 38 35 39 85 40 36 41 37 42 38 43 79 44 39 45
REMARK SMILES IDX 84 46 78 47 80 48 40 49 83 50 77 51 76 52 41 54 67 55 50 56
REMARK SMILES IDX 66 57 51 58 54 59 65 60 81 61 52 62 53 63 64 65 82 66 55 67
REMARK SMILES IDX 42 68 43 69 48 70 44 71 45 72 47 73 49 74 46 75 68 76 69 77
REMARK SMILES IDX 74 78 70 79 71 80 73 81 75 82 72 83 56 84 57 85 62 86 58 87
REMARK SMILES IDX 59 88 61 89 63 90 60 91
REMARK H PARENT 23 6 8 19 30 34 80 53 54 64
REMARK Flexibility Score: inf
ROOT
ATOM      1  C   UNL A   1      34.806  35.677  32.823  1.00  0.00     0.021 C 
ENDROOT
BRANCH   1   2
ATOM      2  C   UNL A   1      34.595  34.293  33.433  1.00  0.00     0.116 C 
BRANCH   2   3
ATOM      3  N   UNL A   1      35.844  33.663  33.794  1.00  0.00    -0.353 N 
ATOM      4  O   UNL A   1      35.656  34.012  36.058  1.00  0.00    -0.271 OA
ATOM      5  C   UNL A   1      36.263  33.538  35.101  1.00  0.00     0.258 C 
ATOM      6  H   UNL A   1      36.419  33.308  33.078  1.00  0.00     0.163 HD
BRANCH   5   7
ATOM      7  C   UNL A   1      37.622  32.847  35.263  1.00  0.00     0.331 C 
BRANCH   7   8
ATOM      8  O   UNL A   1      37.644  31.568  35.884  1.00  0.00    -0.467 OA
BRANCH   8   9
ATOM      9  C   UNL A   1      38.677  30.807  35.395  1.00  0.00     0.222 A 
ATOM     10  N   UNL A   1      39.773  30.664  36.160  1.00  0.00    -0.177 NA
ATOM     11  C   UNL A   1      38.520  30.161  34.210  1.00  0.00     0.036 A 
ATOM     12  C   UNL A   1      40.757  29.876  35.689  1.00  0.00     0.226 A 
ATOM     13  C   UNL A   1      39.579  29.386  33.813  1.00  0.00     0.053 A 
ATOM     14  C   UNL A   1      37.438  30.191  33.194  1.00  0.00     0.043 C 
ATOM     15  N   UNL A   1      40.702  29.223  34.517  1.00  0.00    -0.218 NA
ATOM     16  C   UNL A   1      39.337  28.801  32.452  1.00  0.00     0.057 C 
ATOM     17  C   UNL A   1      37.816  28.976  32.330  1.00  0.00     0.011 C 
BRANCH  12  18
ATOM     18  N   UNL A   1      41.865  29.776  36.478  1.00  0.00    -0.350 N 
ATOM     19  H   UNL A   1      41.803  30.075  37.414  1.00  0.00     0.164 HD
BRANCH  18  20
ATOM     20  C   UNL A   1      43.117  29.252  36.007  1.00  0.00     0.152 C 
BRANCH  20  21
ATOM     21  C   UNL A   1      43.324  27.806  36.411  1.00  0.00    -0.027 A 
ATOM     22  C   UNL A   1      44.367  27.490  37.299  1.00  0.00     0.005 A 
ATOM     23  C   UNL A   1      42.458  26.778  36.002  1.00  0.00     0.026 A 
ATOM     24  C   UNL A   1      44.556  26.180  37.747  1.00  0.00     0.002 A 
ATOM     25  C   UNL A   1      42.656  25.470  36.446  1.00  0.00     0.041 A 
ATOM     26  C   UNL A   1      43.701  25.166  37.316  1.00  0.00     0.020 A 
ATOM     27  Cl  UNL A   1      41.593  24.220  35.926  1.00  0.00    -0.084 Cl
ENDBRANCH  20  21
ENDBRANCH  18  20
ENDBRANCH  12  18
ENDBRANCH   8   9
ENDBRANCH   7   8
ENDBRANCH   5   7
ENDBRANCH   2   3
ENDBRANCH   1   2
BRANCH   1  28
ATOM     28  C   UNL A   1      33.526  36.510  32.676  1.00  0.00     0.002 C 
BRANCH  28  29
ATOM     29  C   UNL A   1      32.797  36.369  31.336  1.00  0.00     0.002 C 
BRANCH  29  30
ATOM     30  C   UNL A   1      33.209  37.375  30.259  1.00  0.00     0.021 C 
BRANCH  30  31
ATOM     31  C   UNL A   1      33.684  36.753  28.951  1.00  0.00     0.116 C 
BRANCH  31  32
ATOM     32  N   UNL A   1      32.805  35.688  28.491  1.00  0.00    -0.352 N 
ATOM     33  C   UNL A   1      33.078  34.360  28.285  1.00  0.00     0.251 C 
ATOM     34  H   UNL A   1      31.878  35.962  28.300  1.00  0.00     0.163 HD
ATOM     35  O   UNL A   1      32.257  33.638  27.723  1.00  0.00    -0.269 OA
BRANCH  33  36
ATOM     36  C   UNL A   1      34.372  33.796  28.721  1.00  0.00     0.039 A 
ATOM     37  C   UNL A   1      34.431  33.082  29.922  1.00  0.00     0.014 A 
ATOM     38  C   UNL A   1      35.527  33.981  27.955  1.00  0.00     0.014 A 
ATOM     39  C   UNL A   1      35.638  32.508  30.325  1.00  0.00     0.010 A 
ATOM     40  C   UNL A   1      36.708  33.345  28.320  1.00  0.00     0.010 A 
ATOM     41  C   UNL A   1      36.778  32.612  29.514  1.00  0.00    -0.014 A 
BRANCH  41  42
ATOM     42  C   UNL A   1      38.067  31.995  29.910  1.00  0.00     0.031 A 
ATOM     43  C   UNL A   1      38.969  32.704  30.880  1.00  0.00     0.074 A 
ATOM     44  C   UNL A   1      38.448  30.825  29.366  1.00  0.00     0.049 A 
ATOM     45  N   UNL A   1      40.163  32.368  31.300  1.00  0.00    -0.248 NA
ATOM     46  C   UNL A   1      38.471  33.973  31.433  1.00  0.00     0.031 C 
ATOM     47  C   UNL A   1      37.668  30.046  28.405  1.00  0.00     0.029 A 
ATOM     48  N   UNL A   1      39.592  30.088  29.545  1.00  0.00    -0.354 N 
ATOM     49  C   UNL A   1      40.554  33.380  32.166  1.00  0.00     0.074 A 
ATOM     50  C   UNL A   1      39.505  34.377  32.153  1.00  0.00     0.031 C 
ATOM     51  C   UNL A   1      38.339  28.923  28.105  1.00  0.00     0.029 A 
ATOM     52  C   UNL A   1      39.615  28.924  28.817  1.00  0.00     0.049 A 
ATOM     53  H   UNL A   1      40.325  30.367  30.138  1.00  0.00     0.167 HD
ATOM     54  C   UNL A   1      41.671  33.458  32.928  1.00  0.00     0.037 A 
ATOM     55  C   UNL A   1      40.556  27.966  28.732  1.00  0.00     0.037 A 
ATOM     56  C   UNL A   1      42.714  32.467  32.935  1.00  0.00     0.049 A 
ATOM     57  C   UNL A   1      41.822  28.105  29.532  1.00  0.00     0.074 A 
ATOM     58  C   UNL A   1      43.879  32.445  33.681  1.00  0.00     0.029 A 
ATOM     59  N   UNL A   1      42.719  31.321  32.152  1.00  0.00    -0.354 N 
ATOM     60  N   UNL A   1      42.170  29.051  30.370  1.00  0.00    -0.248 NA
ATOM     61  C   UNL A   1      42.826  27.045  29.371  1.00  0.00     0.031 C 
ATOM     62  C   UNL A   1      44.611  31.312  33.312  1.00  0.00     0.029 A 
ATOM     63  C   UNL A   1      43.879  30.598  32.378  1.00  0.00     0.049 A 
ATOM     64  H   UNL A   1      42.003  31.060  31.529  1.00  0.00     0.167 HD
ATOM     65  C   UNL A   1      43.422  28.693  30.853  1.00  0.00     0.074 A 
ATOM     66  C   UNL A   1      43.764  27.433  30.224  1.00  0.00     0.031 C 
ATOM     67  C   UNL A   1      44.214  29.349  31.737  1.00  0.00     0.037 A 
BRANCH  54  68
ATOM     68  C   UNL A   1      41.810  34.664  33.814  1.00  0.00     0.057 A 
ATOM     69  C   UNL A   1      42.458  35.829  33.379  1.00  0.00     0.134 A 
ATOM     70  C   UNL A   1      41.292  34.666  35.115  1.00  0.00     0.134 A 
ATOM     71  F   UNL A   1      42.991  35.890  32.148  1.00  0.00    -0.206 F 
ATOM     72  C   UNL A   1      42.619  36.935  34.215  1.00  0.00     0.040 A 
ATOM     73  C   UNL A   1      41.417  35.778  35.951  1.00  0.00     0.040 A 
ATOM     74  F   UNL A   1      40.654  33.588  35.597  1.00  0.00    -0.206 F 
ATOM     75  C   UNL A   1      42.092  36.912  35.504  1.00  0.00     0.006 A 
ENDBRANCH  54  68
BRANCH  55  76
ATOM     76  C   UNL A   1      40.305  26.769  27.893  1.00  0.00     0.057 A 
ATOM     77  C   UNL A   1      40.876  26.658  26.620  1.00  0.00     0.134 A 
ATOM     78  C   UNL A   1      39.543  25.689  28.355  1.00  0.00     0.134 A 
ATOM     79  F   UNL A   1      41.601  27.667  26.116  1.00  0.00    -0.206 F 
ATOM     80  C   UNL A   1      40.704  25.514  25.838  1.00  0.00     0.040 A 
ATOM     81  C   UNL A   1      39.381  24.531  27.594  1.00  0.00     0.040 A 
ATOM     82  F   UNL A   1      38.974  25.731  29.569  1.00  0.00    -0.206 F 
ATOM     83  C   UNL A   1      39.963  24.442  26.331  1.00  0.00     0.006 A 
ENDBRANCH  55  76
BRANCH  67  84
ATOM     84  C   UNL A   1      45.531  28.717  32.087  1.00  0.00     0.057 A 
ATOM     85  C   UNL A   1      45.621  27.652  32.993  1.00  0.00     0.134 A 
ATOM     86  C   UNL A   1      46.715  29.137  31.466  1.00  0.00     0.134 A 
ATOM     87  F   UNL A   1      44.527  27.208  33.631  1.00  0.00    -0.206 F 
ATOM     88  C   UNL A   1      46.842  27.039  33.280  1.00  0.00     0.040 A 
ATOM     89  C   UNL A   1      47.937  28.513  31.723  1.00  0.00     0.040 A 
ATOM     90  F   UNL A   1      46.700  30.144  30.580  1.00  0.00    -0.206 F 
ATOM     91  C   UNL A   1      48.003  27.464  32.638  1.00  0.00     0.006 A 
ENDBRANCH  67  84
ENDBRANCH  41  42
ENDBRANCH  33  36
ENDBRANCH  31  32
ENDBRANCH  30  31
ENDBRANCH  29  30
ENDBRANCH  28  29
ENDBRANCH   1  28
TORSDOF 18
ENDMDL
MODEL 2
REMARK VINA RESULT:      -9.6      6.901     12.899
REMARK SMILES O=C(COc1nc(NCc2cccc(Cl)c2)nc2c1CCC2)NCCCCCCNC(=O)c1ccc(-c2c3nc(c(-c4c(F)cccc4F)c4ccc([nH]4)c(-c4c(F)cccc4F)c4nc(c(-c5c(F)cccc5F)c5ccc2[nH]5)C=C4)C=C3)cc1
REMARK SMILES IDX 25 1 24 2 23 3 1 4 2 5 3 7 4 8 5 9 6 10 19 11 7 12 18 13
REMARK SMILES IDX 20 14 17 15 22 16 21 17 8 18 9 20 10 21 11 22 16 23 12 24
REMARK SMILES IDX 14 25 13 26 15 27 26 28 27 29 28 30 29 31 30 32 31 33 32 35
REMARK SMILES IDX 33 36 34 37 86 38 35 39 85 40 36 41 37 42 38 43 79 44 39 45
REMARK SMILES IDX 84 46 78 47 80 48 40 49 83 50 77 51 76 52 41 54 67 55 50 56
REMARK SMILES IDX 66 57 51 58 54 59 65 60 81 61 52 62 53 63 64 65 82 66 55 67
REMARK SMILES IDX 42 68 43 69 48 70 44 71 45 72 47 73 49 74 46 75 68 76 69 77
REMARK SMILES IDX 74 78 70 79 71 80 73 81 75 82 72 83 56 84 57 85 62 86 58 87
REMARK SMILES IDX 59 88 61 89 63 90 60 91
REMARK H PARENT 23 6 8 19 30 34 80 53 54 64
REMARK Flexibility Score: inf
ROOT
ATOM      1  C   UNL A   1      40.419  22.574  27.323  1.00  0.00     0.021 C 
ENDROOT
BRANCH   1   2
ATOM      2  C   UNL A   1      39.129  23.203  26.801  1.00  0.00     0.116 C 
BRANCH   2   3
ATOM      3  N   UNL A   1      38.334  22.264  26.044  1.00  0.00    -0.353 N 
ATOM      4  O   UNL A   1      36.859  23.810  25.196  1.00  0.00    -0.271 OA
ATOM      5  C   UNL A   1      37.269  22.654  25.260  1.00  0.00     0.258 C 
ATOM      6  H   UNL A   1      38.562  21.307  26.090  1.00  0.00     0.163 HD
BRANCH   5   7
ATOM      7  C   UNL A   1      36.556  21.498  24.549  1.00  0.00     0.331 C 
BRANCH   7   8
ATOM      8  O   UNL A   1      36.141  20.391  25.339  1.00  0.00    -0.467 OA
BRANCH   8   9
ATOM      9  C   UNL A   1      34.787  20.189  25.221  1.00  0.00     0.222 A 
ATOM     10  N   UNL A   1      33.966  21.190  25.584  1.00  0.00    -0.177 NA
ATOM     11  C   UNL A   1      34.336  19.034  24.666  1.00  0.00     0.036 A 
ATOM     12  C   UNL A   1      32.645  20.996  25.418  1.00  0.00     0.226 A 
ATOM     13  C   UNL A   1      32.975  18.929  24.543  1.00  0.00     0.053 A 
ATOM     14  C   UNL A   1      35.033  17.799  24.229  1.00  0.00     0.043 C 
ATOM     15  N   UNL A   1      32.107  19.878  24.906  1.00  0.00    -0.218 NA
ATOM     16  C   UNL A   1      32.585  17.581  24.010  1.00  0.00     0.057 C 
ATOM     17  C   UNL A   1      33.923  17.107  23.421  1.00  0.00     0.011 C 
BRANCH  12  18
ATOM     18  N   UNL A   1      31.841  22.021  25.822  1.00  0.00    -0.350 N 
ATOM     19  H   UNL A   1      30.941  22.093  25.429  1.00  0.00     0.164 HD
BRANCH  18  20
ATOM     20  C   UNL A   1      32.247  22.999  26.794  1.00  0.00     0.152 C 
BRANCH  20  21
ATOM     21  C   UNL A   1      32.446  24.370  26.181  1.00  0.00    -0.027 A 
ATOM     22  C   UNL A   1      33.755  24.852  26.002  1.00  0.00     0.005 A 
ATOM     23  C   UNL A   1      31.377  25.144  25.701  1.00  0.00     0.026 A 
ATOM     24  C   UNL A   1      33.988  26.083  25.385  1.00  0.00     0.002 A 
ATOM     25  C   UNL A   1      31.614  26.377  25.092  1.00  0.00     0.041 A 
ATOM     26  C   UNL A   1      32.914  26.850  24.932  1.00  0.00     0.020 A 
ATOM     27  Cl  UNL A   1      30.291  27.318  24.521  1.00  0.00    -0.084 Cl
ENDBRANCH  20  21
ENDBRANCH  18  20
ENDBRANCH  12  18
ENDBRANCH   8   9
ENDBRANCH   7   8
ENDBRANCH   5   7
ENDBRANCH   2   3
ENDBRANCH   1   2
BRANCH   1  28
ATOM     28  C   UNL A   1      41.103  21.615  26.341  1.00  0.00     0.002 C 
BRANCH  28  29
ATOM     29  C   UNL A   1      41.857  20.444  26.979  1.00  0.00     0.002 C 
BRANCH  29  30
ATOM     30  C   UNL A   1      42.129  19.259  26.050  1.00  0.00     0.021 C 
BRANCH  30  31
ATOM     31  C   UNL A   1      43.532  18.673  26.156  1.00  0.00     0.116 C 
BRANCH  31  32
ATOM     32  N   UNL A   1      44.150  18.475  24.853  1.00  0.00    -0.352 N 
ATOM     33  C   UNL A   1      44.711  19.396  24.006  1.00  0.00     0.251 C 
ATOM     34  H   UNL A   1      44.168  17.543  24.534  1.00  0.00     0.163 HD
ATOM     35  O   UNL A   1      45.029  19.074  22.863  1.00  0.00    -0.269 OA
BRANCH  33  36
ATOM     36  C   UNL A   1      44.918  20.787  24.460  1.00  0.00     0.039 A 
ATOM     37  C   UNL A   1      44.456  21.837  23.660  1.00  0.00     0.014 A 
ATOM     38  C   UNL A   1      45.577  21.056  25.663  1.00  0.00     0.014 A 
ATOM     39  C   UNL A   1      44.606  23.154  24.096  1.00  0.00     0.010 A 
ATOM     40  C   UNL A   1      45.658  22.363  26.129  1.00  0.00     0.010 A 
ATOM     41  C   UNL A   1      45.184  23.426  25.345  1.00  0.00    -0.014 A 
BRANCH  41  42
ATOM     42  C   UNL A   1      45.339  24.815  25.840  1.00  0.00     0.031 A 
ATOM     43  C   UNL A   1      46.688  25.474  25.810  1.00  0.00     0.074 A 
ATOM     44  C   UNL A   1      44.281  25.468  26.356  1.00  0.00     0.049 A 
ATOM     45  N   UNL A   1      47.047  26.651  26.256  1.00  0.00    -0.248 NA
ATOM     46  C   UNL A   1      47.787  24.693  25.220  1.00  0.00     0.031 C 
ATOM     47  C   UNL A   1      42.923  24.932  26.453  1.00  0.00     0.029 A 
ATOM     48  N   UNL A   1      44.185  26.724  26.899  1.00  0.00    -0.354 N 
ATOM     49  C   UNL A   1      48.407  26.752  25.998  1.00  0.00     0.074 A 
ATOM     50  C   UNL A   1      48.824  25.489  25.427  1.00  0.00     0.031 C 
ATOM     51  C   UNL A   1      42.122  25.867  26.988  1.00  0.00     0.029 A 
ATOM     52  C   UNL A   1      42.917  27.048  27.313  1.00  0.00     0.049 A 
ATOM     53  H   UNL A   1      44.952  27.334  26.984  1.00  0.00     0.167 HD
ATOM     54  C   UNL A   1      49.229  27.810  26.191  1.00  0.00     0.037 A 
ATOM     55  C   UNL A   1      42.448  28.170  27.890  1.00  0.00     0.037 A 
ATOM     56  C   UNL A   1      48.812  29.063  26.763  1.00  0.00     0.049 A 
ATOM     57  C   UNL A   1      43.391  29.309  28.161  1.00  0.00     0.074 A 
ATOM     58  C   UNL A   1      49.564  30.202  26.988  1.00  0.00     0.029 A 
ATOM     59  N   UNL A   1      47.527  29.339  27.208  1.00  0.00    -0.354 N 
ATOM     60  N   UNL A   1      44.669  29.406  27.887  1.00  0.00    -0.248 NA
ATOM     61  C   UNL A   1      42.826  30.492  28.823  1.00  0.00     0.031 C 
ATOM     62  C   UNL A   1      48.746  31.149  27.614  1.00  0.00     0.029 A 
ATOM     63  C   UNL A   1      47.470  30.621  27.729  1.00  0.00     0.049 A 
ATOM     64  H   UNL A   1      46.767  28.714  27.159  1.00  0.00     0.167 HD
ATOM     65  C   UNL A   1      45.060  30.665  28.323  1.00  0.00     0.074 A 
ATOM     66  C   UNL A   1      43.876  31.302  28.865  1.00  0.00     0.031 C 
ATOM     67  C   UNL A   1      46.288  31.241  28.277  1.00  0.00     0.037 A 
BRANCH  54  68
ATOM     68  C   UNL A   1      50.664  27.646  25.773  1.00  0.00     0.057 A 
ATOM     69  C   UNL A   1      51.070  27.828  24.443  1.00  0.00     0.134 A 
ATOM     70  C   UNL A   1      51.651  27.302  26.704  1.00  0.00     0.134 A 
ATOM     71  F   UNL A   1      50.172  28.144  23.496  1.00  0.00    -0.206 F 
ATOM     72  C   UNL A   1      52.395  27.639  24.048  1.00  0.00     0.040 A 
ATOM     73  C   UNL A   1      52.987  27.142  26.328  1.00  0.00     0.040 A 
ATOM     74  F   UNL A   1      51.337  27.117  27.995  1.00  0.00    -0.206 F 
ATOM     75  C   UNL A   1      53.359  27.300  24.995  1.00  0.00     0.006 A 
ENDBRANCH  54  68
BRANCH  55  76
ATOM     76  C   UNL A   1      41.001  28.280  28.199  1.00  0.00     0.057 A 
ATOM     77  C   UNL A   1      40.499  27.836  29.428  1.00  0.00     0.134 A 
ATOM     78  C   UNL A   1      40.099  28.877  27.311  1.00  0.00     0.134 A 
ATOM     79  F   UNL A   1      41.311  27.240  30.313  1.00  0.00    -0.206 F 
ATOM     80  C   UNL A   1      39.152  27.986  29.765  1.00  0.00     0.040 A 
ATOM     81  C   UNL A   1      38.755  29.054  27.644  1.00  0.00     0.040 A 
ATOM     82  F   UNL A   1      40.519  29.329  26.120  1.00  0.00    -0.206 F 
ATOM     83  C   UNL A   1      38.279  28.607  28.875  1.00  0.00     0.006 A 
ENDBRANCH  55  76
BRANCH  67  84
ATOM     84  C   UNL A   1      46.419  32.634  28.822  1.00  0.00     0.057 A 
ATOM     85  C   UNL A   1      46.233  33.763  28.014  1.00  0.00     0.134 A 
ATOM     86  C   UNL A   1      46.674  32.850  30.183  1.00  0.00     0.134 A 
ATOM     87  F   UNL A   1      45.997  33.628  26.700  1.00  0.00    -0.206 F 
ATOM     88  C   UNL A   1      46.312  35.055  28.536  1.00  0.00     0.040 A 
ATOM     89  C   UNL A   1      46.727  34.136  30.722  1.00  0.00     0.040 A 
ATOM     90  F   UNL A   1      46.852  31.814  31.017  1.00  0.00    -0.206 F 
ATOM     91  C   UNL A   1      46.551  35.244  29.896  1.00  0.00     0.006 A 
ENDBRANCH  67  84
ENDBRANCH  41  42
ENDBRANCH  33  36
ENDBRANCH  31  32
ENDBRANCH  30  31
ENDBRANCH  29  30
ENDBRANCH  28  29
ENDBRANCH   1  28
TORSDOF 18
ENDMDL
MODEL 3
REMARK VINA RESULT:      -9.6      4.446      8.196
REMARK SMILES O=C(COc1nc(NCc2cccc(Cl)c2)nc2c1CCC2)NCCCCCCNC(=O)c1ccc(-c2c3nc(c(-c4c(F)cccc4F)c4ccc([nH]4)c(-c4c(F)cccc4F)c4nc(c(-c5c(F)cccc5F)c5ccc2[nH]5)C=C4)C=C3)cc1
REMARK SMILES IDX 25 1 24 2 23 3 1 4 2 5 3 7 4 8 5 9 6 10 19 11 7 12 18 13
REMARK SMILES IDX 20 14 17 15 22 16 21 17 8 18 9 20 10 21 11 22 16 23 12 24
REMARK SMILES IDX 14 25 13 26 15 27 26 28 27 29 28 30 29 31 30 32 31 33 32 35
REMARK SMILES IDX 33 36 34 37 86 38 35 39 85 40 36 41 37 42 38 43 79 44 39 45
REMARK SMILES IDX 84 46 78 47 80 48 40 49 83 50 77 51 76 52 41 54 67 55 50 56
REMARK SMILES IDX 66 57 51 58 54 59 65 60 81 61 52 62 53 63 64 65 82 66 55 67
REMARK SMILES IDX 42 68 43 69 48 70 44 71 45 72 47 73 49 74 46 75 68 76 69 77
REMARK SMILES IDX 74 78 70 79 71 80 73 81 75 82 72 83 56 84 57 85 62 86 58 87
REMARK SMILES IDX 59 88 61 89 63 90 60 91
REMARK H PARENT 23 6 8 19 30 34 80 53 54 64
REMARK Flexibility Score: inf
ROOT
ATOM      1  C   UNL A   1      35.393  32.340  27.656  1.00  0.00     0.021 C 
ENDROOT
BRANCH   1   2
ATOM      2  C   UNL A   1      34.775  31.095  28.290  1.00  0.00     0.116 C 
BRANCH   2   3
ATOM      3  N   UNL A   1      33.504  30.755  27.693  1.00  0.00    -0.353 N 
ATOM      4  O   UNL A   1      34.190  28.772  26.755  1.00  0.00    -0.271 OA
ATOM      5  C   UNL A   1      33.300  29.585  26.995  1.00  0.00     0.258 C 
ATOM      6  H   UNL A   1      32.754  31.385  27.790  1.00  0.00     0.163 HD
BRANCH   5   7
ATOM      7  C   UNL A   1      31.882  29.425  26.436  1.00  0.00     0.331 C 
BRANCH   7   8
ATOM      8  O   UNL A   1      31.479  30.305  25.394  1.00  0.00    -0.467 OA
BRANCH   8   9
ATOM      9  C   UNL A   1      30.987  29.599  24.323  1.00  0.00     0.222 A 
ATOM     10  N   UNL A   1      31.601  28.450  23.989  1.00  0.00    -0.177 NA
ATOM     11  C   UNL A   1      29.859  30.035  23.705  1.00  0.00     0.036 A 
ATOM     12  C   UNL A   1      31.079  27.745  22.969  1.00  0.00     0.226 A 
ATOM     13  C   UNL A   1      29.407  29.250  22.675  1.00  0.00     0.053 A 
ATOM     14  C   UNL A   1      29.042  31.262  23.870  1.00  0.00     0.043 C 
ATOM     15  N   UNL A   1      29.986  28.112  22.281  1.00  0.00    -0.218 NA
ATOM     16  C   UNL A   1      28.218  29.874  22.004  1.00  0.00     0.057 C 
ATOM     17  C   UNL A   1      27.780  30.883  23.077  1.00  0.00     0.011 C 
BRANCH  12  18
ATOM     18  N   UNL A   1      31.743  26.600  22.640  1.00  0.00    -0.350 N 
ATOM     19  H   UNL A   1      31.216  25.800  22.416  1.00  0.00     0.164 HD
BRANCH  18  20
ATOM     20  C   UNL A   1      33.177  26.509  22.605  1.00  0.00     0.152 C 
BRANCH  20  21
ATOM     21  C   UNL A   1      33.720  25.572  23.665  1.00  0.00    -0.027 A 
ATOM     22  C   UNL A   1      33.368  25.786  25.009  1.00  0.00     0.005 A 
ATOM     23  C   UNL A   1      34.491  24.441  23.348  1.00  0.00     0.026 A 
ATOM     24  C   UNL A   1      33.794  24.913  26.011  1.00  0.00     0.002 A 
ATOM     25  C   UNL A   1      34.921  23.575  24.354  1.00  0.00     0.041 A 
ATOM     26  C   UNL A   1      34.577  23.806  25.684  1.00  0.00     0.020 A 
ATOM     27  Cl  UNL A   1      35.875  22.200  23.950  1.00  0.00    -0.084 Cl
ENDBRANCH  20  21
ENDBRANCH  18  20
ENDBRANCH  12  18
ENDBRANCH   8   9
ENDBRANCH   7   8
ENDBRANCH   5   7
ENDBRANCH   2   3
ENDBRANCH   1   2
BRANCH   1  28
ATOM     28  C   UNL A   1      35.352  33.593  28.539  1.00  0.00     0.002 C 
BRANCH  28  29
ATOM     29  C   UNL A   1      34.093  33.755  29.396  1.00  0.00     0.002 C 
BRANCH  29  30
ATOM     30  C   UNL A   1      33.158  34.890  28.975  1.00  0.00     0.021 C 
BRANCH  30  31
ATOM     31  C   UNL A   1      33.363  36.200  29.727  1.00  0.00     0.116 C 
BRANCH  31  32
ATOM     32  N   UNL A   1      32.467  36.333  30.865  1.00  0.00    -0.352 N 
ATOM     33  C   UNL A   1      32.555  35.772  32.113  1.00  0.00     0.251 C 
ATOM     34  H   UNL A   1      31.683  36.911  30.717  1.00  0.00     0.163 HD
ATOM     35  O   UNL A   1      31.610  35.852  32.897  1.00  0.00    -0.269 OA
BRANCH  33  36
ATOM     36  C   UNL A   1      33.780  35.050  32.514  1.00  0.00     0.039 A 
ATOM     37  C   UNL A   1      33.669  33.744  33.000  1.00  0.00     0.014 A 
ATOM     38  C   UNL A   1      35.032  35.663  32.423  1.00  0.00     0.014 A 
ATOM     39  C   UNL A   1      34.822  33.035  33.343  1.00  0.00     0.010 A 
ATOM     40  C   UNL A   1      36.183  34.930  32.693  1.00  0.00     0.010 A 
ATOM     41  C   UNL A   1      36.088  33.613  33.167  1.00  0.00    -0.014 A 
BRANCH  41  42
ATOM     42  C   UNL A   1      37.329  32.875  33.505  1.00  0.00     0.031 A 
ATOM     43  C   UNL A   1      38.046  33.168  34.792  1.00  0.00     0.074 A 
ATOM     44  C   UNL A   1      37.835  31.977  32.640  1.00  0.00     0.049 A 
ATOM     45  N   UNL A   1      39.177  32.684  35.240  1.00  0.00    -0.248 NA
ATOM     46  C   UNL A   1      37.419  34.156  35.683  1.00  0.00     0.031 C 
ATOM     47  C   UNL A   1      37.239  31.614  31.354  1.00  0.00     0.029 A 
ATOM     48  N   UNL A   1      38.969  31.208  32.713  1.00  0.00    -0.354 N 
ATOM     49  C   UNL A   1      39.392  33.305  36.462  1.00  0.00     0.074 A 
ATOM     50  C   UNL A   1      38.317  34.254  36.650  1.00  0.00     0.031 C 
ATOM     51  C   UNL A   1      37.994  30.667  30.775  1.00  0.00     0.029 A 
ATOM     52  C   UNL A   1      39.148  30.389  31.626  1.00  0.00     0.049 A 
ATOM     53  H   UNL A   1      39.594  31.240  33.472  1.00  0.00     0.167 HD
ATOM     54  C   UNL A   1      40.380  33.083  37.362  1.00  0.00     0.037 A 
ATOM     55  C   UNL A   1      40.131  29.513  31.346  1.00  0.00     0.037 A 
ATOM     56  C   UNL A   1      41.451  32.141  37.170  1.00  0.00     0.049 A 
ATOM     57  C   UNL A   1      41.257  29.333  32.325  1.00  0.00     0.074 A 
ATOM     58  C   UNL A   1      42.492  31.832  38.027  1.00  0.00     0.029 A 
ATOM     59  N   UNL A   1      41.620  31.359  36.037  1.00  0.00    -0.354 N 
ATOM     60  N   UNL A   1      41.437  29.903  33.492  1.00  0.00    -0.248 NA
ATOM     61  C   UNL A   1      42.317  28.388  31.947  1.00  0.00     0.031 C 
ATOM     62  C   UNL A   1      43.318  30.900  37.390  1.00  0.00     0.029 A 
ATOM     63  C   UNL A   1      42.763  30.586  36.160  1.00  0.00     0.049 A 
ATOM     64  H   UNL A   1      41.016  31.354  35.259  1.00  0.00     0.167 HD
ATOM     65  C   UNL A   1      42.618  29.374  33.998  1.00  0.00     0.074 A 
ATOM     66  C   UNL A   1      43.102  28.425  33.016  1.00  0.00     0.031 C 
ATOM     67  C   UNL A   1      43.242  29.651  35.170  1.00  0.00     0.037 A 
BRANCH  54  68
ATOM     68  C   UNL A   1      40.335  33.881  38.635  1.00  0.00     0.057 A 
ATOM     69  C   UNL A   1      41.062  35.071  38.786  1.00  0.00     0.134 A 
ATOM     70  C   UNL A   1      39.560  33.460  39.723  1.00  0.00     0.134 A 
ATOM     71  F   UNL A   1      41.837  35.524  37.788  1.00  0.00    -0.206 F 
ATOM     72  C   UNL A   1      41.049  35.792  39.981  1.00  0.00     0.040 A 
ATOM     73  C   UNL A   1      39.512  34.190  40.912  1.00  0.00     0.040 A 
ATOM     74  F   UNL A   1      38.834  32.335  39.648  1.00  0.00    -0.206 F 
ATOM     75  C   UNL A   1      40.267  35.354  41.047  1.00  0.00     0.006 A 
ENDBRANCH  54  68
BRANCH  55  76
ATOM     76  C   UNL A   1      40.057  28.708  30.102  1.00  0.00     0.057 A 
ATOM     77  C   UNL A   1      39.313  27.523  30.063  1.00  0.00     0.134 A 
ATOM     78  C   UNL A   1      40.673  29.122  28.915  1.00  0.00     0.134 A 
ATOM     79  F   UNL A   1      38.715  27.065  31.173  1.00  0.00    -0.206 F 
ATOM     80  C   UNL A   1      39.179  26.782  28.887  1.00  0.00     0.040 A 
ATOM     81  C   UNL A   1      40.529  28.404  27.727  1.00  0.00     0.040 A 
ATOM     82  F   UNL A   1      41.396  30.252  28.885  1.00  0.00    -0.206 F 
ATOM     83  C   UNL A   1      39.780  27.229  27.713  1.00  0.00     0.006 A 
ENDBRANCH  55  76
BRANCH  67  84
ATOM     84  C   UNL A   1      44.517  28.915  35.465  1.00  0.00     0.057 A 
ATOM     85  C   UNL A   1      44.518  27.665  36.097  1.00  0.00     0.134 A 
ATOM     86  C   UNL A   1      45.754  29.433  35.058  1.00  0.00     0.134 A 
ATOM     87  F   UNL A   1      43.370  27.117  36.522  1.00  0.00    -0.206 F 
ATOM     88  C   UNL A   1      45.704  26.965  36.328  1.00  0.00     0.040 A 
ATOM     89  C   UNL A   1      46.943  28.730  35.258  1.00  0.00     0.040 A 
ATOM     90  F   UNL A   1      45.825  30.621  34.438  1.00  0.00    -0.206 F 
ATOM     91  C   UNL A   1      46.920  27.493  35.900  1.00  0.00     0.006 A 
ENDBRANCH  67  84
ENDBRANCH  41  42
ENDBRANCH  33  36
ENDBRANCH  31  32
ENDBRANCH  30  31
ENDBRANCH  29  30
ENDBRANCH  28  29
ENDBRANCH   1  28
TORSDOF 18
ENDMDL
