MODEL 1
REMARK VINA RESULT:     -12.9      0.000      0.000
REMARK SMILES Cc1c(Cl)cccc1NC(=O)NCc1cn([C@@H]2C[NH2+][C@H](C(=O)NCCCCCCNC(=O)c3ccc(-c4c5nc(c(-c6c(F)cccc6F)c6ccc([nH]6)c(-c6c(F)cccc6F)c6nc(c(-c7c(F)cccc7F)c7ccc4[nH]7)C=C6)C=C5)cc3)C2)nn1
REMARK SMILES IDX 25 1 24 2 23 3 21 4 22 5 20 7 17 8 18 9 87 10 19 11 16 14
REMARK SMILES IDX 14 15 15 16 89 17 88 18 13 19 12 20 9 21 10 22 11 24 8 26
REMARK SMILES IDX 1 27 2 28 3 29 4 30 5 31 7 32 6 33 26 34 27 35 28 36 29 37
REMARK SMILES IDX 30 38 31 39 32 41 33 42 34 43 86 44 35 45 85 46 36 47 37 48
REMARK SMILES IDX 38 49 79 50 39 51 84 52 78 53 80 54 40 55 83 56 77 57 76 58
REMARK SMILES IDX 41 60 67 61 50 62 66 63 51 64 54 65 65 66 81 67 52 68 53 69
REMARK SMILES IDX 64 71 82 72 55 73 42 74 43 75 48 76 44 77 45 78 47 79 49 80
REMARK SMILES IDX 46 81 68 82 69 83 74 84 70 85 71 86 73 87 75 88 72 89 56 90
REMARK SMILES IDX 57 91 62 92 58 93 59 94 61 95 63 96 60 97
REMARK H PARENT 23 6 19 12 19 13 9 23 12 25 30 40 80 59 54 70
REMARK Flexibility Score: inf
ROOT
ATOM      1  C   UNL A   1      40.265  21.465  26.077  1.00  0.00     0.021 C 
ENDROOT
BRANCH   1   2
ATOM      2  C   UNL A   1      38.845  21.969  26.328  1.00  0.00     0.116 C 
BRANCH   2   3
ATOM      3  N   UNL A   1      38.159  22.296  25.094  1.00  0.00    -0.351 N 
ATOM      4  C   UNL A   1      36.950  21.945  24.587  1.00  0.00     0.278 C 
ATOM      5  O   UNL A   1      36.702  22.377  23.452  1.00  0.00    -0.268 OA
ATOM      6  H   UNL A   1      38.673  22.893  24.505  1.00  0.00     0.163 HD
BRANCH   4   7
ATOM      7  C   UNL A   1      35.842  21.174  25.333  1.00  0.00     0.274 C 
ATOM      8  C   UNL A   1      33.472  21.572  25.683  1.00  0.00     0.170 C 
ATOM      9  C   UNL A   1      34.296  22.231  26.778  1.00  0.00     0.288 C 
ATOM     10  C   UNL A   1      34.513  21.324  24.593  1.00  0.00     0.109 C 
ATOM     11  N   UNL A   1      35.604  21.554  26.745  1.00  0.00    -0.334 N 
ATOM     12  H   UNL A   1      35.587  20.722  27.335  1.00  0.00     0.347 HD
ATOM     13  H   UNL A   1      36.345  22.162  27.093  1.00  0.00     0.347 HD
BRANCH   8  14
ATOM     14  N   UNL A   1      32.355  22.380  25.256  1.00  0.00    -0.243 N 
ATOM     15  C   UNL A   1      31.088  23.756  24.175  1.00  0.00     0.102 A 
ATOM     16  C   UNL A   1      32.140  22.880  24.016  1.00  0.00     0.137 A 
ATOM     17  N   UNL A   1      30.665  23.717  25.470  1.00  0.00    -0.134 NA
ATOM     18  N   UNL A   1      31.446  22.857  26.127  1.00  0.00    -0.067 NA
BRANCH  15  19
ATOM     19  C   UNL A   1      30.752  24.755  23.149  1.00  0.00     0.178 C 
BRANCH  19  20
ATOM     20  N   UNL A   1      31.572  24.902  21.996  1.00  0.00    -0.332 N 
ATOM     21  N   UNL A   1      32.780  26.960  22.350  1.00  0.00    -0.308 N 
ATOM     22  C   UNL A   1      32.545  25.785  21.725  1.00  0.00     0.319 C 
ATOM     23  H   UNL A   1      33.508  27.447  21.901  1.00  0.00     0.171 HD
ATOM     24  O   UNL A   1      33.250  25.543  20.737  1.00  0.00    -0.248 OA
ATOM     25  H   UNL A   1      31.397  24.248  21.280  1.00  0.00     0.165 HD
BRANCH  21  26
ATOM     26  C   UNL A   1      32.297  27.707  23.453  1.00  0.00     0.047 A 
ATOM     27  C   UNL A   1      33.766  26.350  25.071  1.00  0.00     0.048 C 
ATOM     28  C   UNL A   1      32.866  27.515  24.736  1.00  0.00    -0.009 A 
ATOM     29  C   UNL A   1      32.532  28.426  25.768  1.00  0.00     0.046 A 
ATOM     30  Cl  UNL A   1      33.195  28.294  27.363  1.00  0.00    -0.084 Cl
ATOM     31  C   UNL A   1      31.641  29.477  25.551  1.00  0.00     0.021 A 
ATOM     32  C   UNL A   1      31.238  28.614  23.345  1.00  0.00     0.026 A 
ATOM     33  C   UNL A   1      30.962  29.547  24.347  1.00  0.00     0.004 A 
ENDBRANCH  21  26
ENDBRANCH  19  20
ENDBRANCH  15  19
ENDBRANCH   8  14
ENDBRANCH   4   7
ENDBRANCH   2   3
ENDBRANCH   1   2
BRANCH   1  34
ATOM     34  C   UNL A   1      41.082  21.172  27.337  1.00  0.00     0.002 C 
BRANCH  34  35
ATOM     35  C   UNL A   1      41.846  19.838  27.359  1.00  0.00     0.002 C 
BRANCH  35  36
ATOM     36  C   UNL A   1      42.331  19.289  26.009  1.00  0.00     0.021 C 
BRANCH  36  37
ATOM     37  C   UNL A   1      43.710  18.654  26.054  1.00  0.00     0.116 C 
BRANCH  37  38
ATOM     38  N   UNL A   1      44.415  18.730  24.774  1.00  0.00    -0.352 N 
ATOM     39  C   UNL A   1      44.630  19.844  23.979  1.00  0.00     0.251 C 
ATOM     40  H   UNL A   1      44.781  17.882  24.434  1.00  0.00     0.163 HD
ATOM     41  O   UNL A   1      44.895  19.738  22.795  1.00  0.00    -0.269 OA
BRANCH  39  42
ATOM     42  C   UNL A   1      44.551  21.173  24.612  1.00  0.00     0.039 A 
ATOM     43  C   UNL A   1      43.562  22.103  24.277  1.00  0.00     0.014 A 
ATOM     44  C   UNL A   1      45.495  21.458  25.590  1.00  0.00     0.014 A 
ATOM     45  C   UNL A   1      43.504  23.299  24.989  1.00  0.00     0.010 A 
ATOM     46  C   UNL A   1      45.298  22.514  26.429  1.00  0.00     0.010 A 
ATOM     47  C   UNL A   1      44.375  23.486  26.073  1.00  0.00    -0.014 A 
BRANCH  47  48
ATOM     48  C   UNL A   1      44.300  24.654  26.937  1.00  0.00     0.031 A 
ATOM     49  C   UNL A   1      45.415  25.619  26.753  1.00  0.00     0.074 A 
ATOM     50  C   UNL A   1      43.180  24.950  27.633  1.00  0.00     0.049 A 
ATOM     51  N   UNL A   1      46.323  25.943  27.609  1.00  0.00    -0.248 NA
ATOM     52  C   UNL A   1      45.636  26.181  25.408  1.00  0.00     0.031 C 
ATOM     53  C   UNL A   1      41.891  24.242  27.646  1.00  0.00     0.029 A 
ATOM     54  N   UNL A   1      42.918  26.040  28.402  1.00  0.00    -0.354 N 
ATOM     55  C   UNL A   1      47.099  26.917  26.989  1.00  0.00     0.074 A 
ATOM     56  C   UNL A   1      46.761  26.875  25.591  1.00  0.00     0.031 C 
ATOM     57  C   UNL A   1      40.937  25.039  28.174  1.00  0.00     0.029 A 
ATOM     58  C   UNL A   1      41.570  26.235  28.692  1.00  0.00     0.049 A 
ATOM     59  H   UNL A   1      43.625  26.644  28.726  1.00  0.00     0.167 HD
ATOM     60  C   UNL A   1      47.761  27.855  27.720  1.00  0.00     0.037 A 
ATOM     61  C   UNL A   1      41.030  27.332  29.282  1.00  0.00     0.037 A 
ATOM     62  C   UNL A   1      47.867  27.460  29.103  1.00  0.00     0.049 A 
ATOM     63  C   UNL A   1      42.141  28.040  29.972  1.00  0.00     0.074 A 
ATOM     64  C   UNL A   1      48.398  26.359  29.749  1.00  0.00     0.029 A 
ATOM     65  N   UNL A   1      47.004  28.036  30.005  1.00  0.00    -0.354 N 
ATOM     66  N   UNL A   1      42.771  27.552  31.006  1.00  0.00    -0.248 NA
ATOM     67  C   UNL A   1      42.876  29.034  29.203  1.00  0.00     0.031 C 
ATOM     68  C   UNL A   1      47.447  26.039  30.763  1.00  0.00     0.029 A 
ATOM     69  C   UNL A   1      46.452  27.017  30.743  1.00  0.00     0.049 A 
ATOM     70  H   UNL A   1      46.817  28.998  30.104  1.00  0.00     0.167 HD
ATOM     71  C   UNL A   1      44.108  27.837  30.772  1.00  0.00     0.074 A 
ATOM     72  C   UNL A   1      44.105  28.807  29.676  1.00  0.00     0.031 C 
ATOM     73  C   UNL A   1      45.104  27.042  31.265  1.00  0.00     0.037 A 
BRANCH  60  74
ATOM     74  C   UNL A   1      47.979  29.273  27.263  1.00  0.00     0.057 A 
ATOM     75  C   UNL A   1      49.266  29.833  27.335  1.00  0.00     0.134 A 
ATOM     76  C   UNL A   1      46.937  30.192  27.016  1.00  0.00     0.134 A 
ATOM     77  F   UNL A   1      50.336  29.066  27.596  1.00  0.00    -0.206 F 
ATOM     78  C   UNL A   1      49.491  31.211  27.222  1.00  0.00     0.040 A 
ATOM     79  C   UNL A   1      47.158  31.561  26.846  1.00  0.00     0.040 A 
ATOM     80  F   UNL A   1      45.647  29.837  27.029  1.00  0.00    -0.206 F 
ATOM     81  C   UNL A   1      48.434  32.080  26.977  1.00  0.00     0.006 A 
ENDBRANCH  60  74
BRANCH  61  82
ATOM     82  C   UNL A   1      39.716  27.971  29.027  1.00  0.00     0.057 A 
ATOM     83  C   UNL A   1      38.746  28.065  30.036  1.00  0.00     0.134 A 
ATOM     84  C   UNL A   1      39.483  28.751  27.880  1.00  0.00     0.134 A 
ATOM     85  F   UNL A   1      38.894  27.391  31.186  1.00  0.00    -0.206 F 
ATOM     86  C   UNL A   1      37.629  28.905  29.924  1.00  0.00     0.040 A 
ATOM     87  C   UNL A   1      38.368  29.589  27.753  1.00  0.00     0.040 A 
ATOM     88  F   UNL A   1      40.374  28.796  26.878  1.00  0.00    -0.206 F 
ATOM     89  C   UNL A   1      37.444  29.680  28.784  1.00  0.00     0.006 A 
ENDBRANCH  61  82
BRANCH  73  90
ATOM     90  C   UNL A   1      44.737  25.956  32.244  1.00  0.00     0.057 A 
ATOM     91  C   UNL A   1      44.481  24.622  31.890  1.00  0.00     0.134 A 
ATOM     92  C   UNL A   1      44.817  26.233  33.613  1.00  0.00     0.134 A 
ATOM     93  F   UNL A   1      44.485  24.229  30.611  1.00  0.00    -0.206 F 
ATOM     94  C   UNL A   1      44.276  23.623  32.849  1.00  0.00     0.040 A 
ATOM     95  C   UNL A   1      44.649  25.239  34.582  1.00  0.00     0.040 A 
ATOM     96  F   UNL A   1      45.115  27.472  34.034  1.00  0.00    -0.206 F 
ATOM     97  C   UNL A   1      44.368  23.930  34.201  1.00  0.00     0.006 A 
ENDBRANCH  73  90
ENDBRANCH  47  48
ENDBRANCH  39  42
ENDBRANCH  37  38
ENDBRANCH  36  37
ENDBRANCH  35  36
ENDBRANCH  34  35
ENDBRANCH   1  34
TORSDOF 17
ENDMDL
MODEL 2
REMARK VINA RESULT:     -12.2      5.150     10.402
REMARK SMILES Cc1c(Cl)cccc1NC(=O)NCc1cn([C@@H]2C[NH2+][C@H](C(=O)NCCCCCCNC(=O)c3ccc(-c4c5nc(c(-c6c(F)cccc6F)c6ccc([nH]6)c(-c6c(F)cccc6F)c6nc(c(-c7c(F)cccc7F)c7ccc4[nH]7)C=C6)C=C5)cc3)C2)nn1
REMARK SMILES IDX 25 1 24 2 23 3 21 4 22 5 20 7 17 8 18 9 87 10 19 11 16 14
REMARK SMILES IDX 14 15 15 16 89 17 88 18 13 19 12 20 9 21 10 22 11 24 8 26
REMARK SMILES IDX 1 27 2 28 3 29 4 30 5 31 7 32 6 33 26 34 27 35 28 36 29 37
REMARK SMILES IDX 30 38 31 39 32 41 33 42 34 43 86 44 35 45 85 46 36 47 37 48
REMARK SMILES IDX 38 49 79 50 39 51 84 52 78 53 80 54 40 55 83 56 77 57 76 58
REMARK SMILES IDX 41 60 67 61 50 62 66 63 51 64 54 65 65 66 81 67 52 68 53 69
REMARK SMILES IDX 64 71 82 72 55 73 42 74 43 75 48 76 44 77 45 78 47 79 49 80
REMARK SMILES IDX 46 81 68 82 69 83 74 84 70 85 71 86 73 87 75 88 72 89 56 90
REMARK SMILES IDX 57 91 62 92 58 93 59 94 61 95 63 96 60 97
REMARK H PARENT 23 6 19 12 19 13 9 23 12 25 30 40 80 59 54 70
REMARK Flexibility Score: inf
ROOT
ATOM      1  C   UNL A   1      34.466  32.222  28.468  1.00  0.00     0.021 C 
ENDROOT
BRANCH   1   2
ATOM      2  C   UNL A   1      34.614  30.958  27.623  1.00  0.00     0.116 C 
BRANCH   2   3
ATOM      3  N   UNL A   1      33.547  30.011  27.874  1.00  0.00    -0.351 N 
ATOM      4  C   UNL A   1      32.532  29.538  27.108  1.00  0.00     0.278 C 
ATOM      5  O   UNL A   1      31.754  28.757  27.675  1.00  0.00    -0.268 OA
ATOM      6  H   UNL A   1      33.561  29.634  28.782  1.00  0.00     0.163 HD
BRANCH   4   7
ATOM      7  C   UNL A   1      32.339  29.792  25.598  1.00  0.00     0.274 C 
ATOM      8  C   UNL A   1      31.945  28.336  23.694  1.00  0.00     0.170 C 
ATOM      9  C   UNL A   1      33.437  28.517  23.935  1.00  0.00     0.288 C 
ATOM     10  C   UNL A   1      31.342  28.786  25.023  1.00  0.00     0.109 C 
ATOM     11  N   UNL A   1      33.555  29.735  24.755  1.00  0.00    -0.334 N 
ATOM     12  H   UNL A   1      33.608  30.559  24.158  1.00  0.00     0.347 HD
ATOM     13  H   UNL A   1      34.400  29.715  25.327  1.00  0.00     0.347 HD
BRANCH   8  14
ATOM     14  N   UNL A   1      31.597  26.988  23.316  1.00  0.00    -0.243 N 
ATOM     15  C   UNL A   1      31.133  24.878  23.363  1.00  0.00     0.102 A 
ATOM     16  C   UNL A   1      31.065  26.031  24.114  1.00  0.00     0.137 A 
ATOM     17  N   UNL A   1      31.639  25.175  22.132  1.00  0.00    -0.134 NA
ATOM     18  N   UNL A   1      31.911  26.481  22.109  1.00  0.00    -0.067 NA
BRANCH  15  19
ATOM     19  C   UNL A   1      30.969  23.548  23.970  1.00  0.00     0.178 C 
BRANCH  19  20
ATOM     20  N   UNL A   1      30.321  23.410  25.228  1.00  0.00    -0.332 N 
ATOM     21  N   UNL A   1      31.942  22.323  26.646  1.00  0.00    -0.308 N 
ATOM     22  C   UNL A   1      30.799  23.006  26.415  1.00  0.00     0.319 C 
ATOM     23  H   UNL A   1      32.013  22.086  27.599  1.00  0.00     0.171 HD
ATOM     24  O   UNL A   1      30.070  23.196  27.397  1.00  0.00    -0.248 OA
ATOM     25  H   UNL A   1      29.366  23.652  25.228  1.00  0.00     0.165 HD
BRANCH  21  26
ATOM     26  C   UNL A   1      33.070  21.841  25.936  1.00  0.00     0.047 A 
ATOM     27  C   UNL A   1      34.175  24.162  26.032  1.00  0.00     0.048 C 
ATOM     28  C   UNL A   1      34.200  22.677  25.761  1.00  0.00    -0.009 A 
ATOM     29  C   UNL A   1      35.393  22.105  25.255  1.00  0.00     0.046 A 
ATOM     30  Cl  UNL A   1      36.837  23.035  25.029  1.00  0.00    -0.084 Cl
ATOM     31  C   UNL A   1      35.461  20.757  24.904  1.00  0.00     0.021 A 
ATOM     32  C   UNL A   1      33.108  20.570  25.353  1.00  0.00     0.026 A 
ATOM     33  C   UNL A   1      34.305  19.997  24.917  1.00  0.00     0.004 A 
ENDBRANCH  21  26
ENDBRANCH  19  20
ENDBRANCH  15  19
ENDBRANCH   8  14
ENDBRANCH   4   7
ENDBRANCH   2   3
ENDBRANCH   1   2
BRANCH   1  34
ATOM     34  C   UNL A   1      35.019  33.499  27.829  1.00  0.00     0.002 C 
BRANCH  34  35
ATOM     35  C   UNL A   1      35.262  34.684  28.777  1.00  0.00     0.002 C 
BRANCH  35  36
ATOM     36  C   UNL A   1      34.087  35.648  29.005  1.00  0.00     0.021 C 
BRANCH  36  37
ATOM     37  C   UNL A   1      32.881  35.013  29.675  1.00  0.00     0.116 C 
BRANCH  37  38
ATOM     38  N   UNL A   1      32.564  35.619  30.968  1.00  0.00    -0.352 N 
ATOM     39  C   UNL A   1      33.065  35.287  32.217  1.00  0.00     0.251 C 
ATOM     40  H   UNL A   1      31.911  36.355  30.949  1.00  0.00     0.163 HD
ATOM     41  O   UNL A   1      32.479  35.593  33.239  1.00  0.00    -0.269 OA
BRANCH  39  42
ATOM     42  C   UNL A   1      34.349  34.564  32.279  1.00  0.00     0.039 A 
ATOM     43  C   UNL A   1      34.438  33.181  32.094  1.00  0.00     0.014 A 
ATOM     44  C   UNL A   1      35.487  35.328  32.502  1.00  0.00     0.014 A 
ATOM     45  C   UNL A   1      35.700  32.592  32.076  1.00  0.00     0.010 A 
ATOM     46  C   UNL A   1      36.716  34.792  32.259  1.00  0.00     0.010 A 
ATOM     47  C   UNL A   1      36.835  33.415  32.150  1.00  0.00    -0.014 A 
BRANCH  47  48
ATOM     48  C   UNL A   1      38.184  32.889  32.022  1.00  0.00     0.031 A 
ATOM     49  C   UNL A   1      38.956  32.881  33.291  1.00  0.00     0.074 A 
ATOM     50  C   UNL A   1      38.585  32.226  30.915  1.00  0.00     0.049 A 
ATOM     51  N   UNL A   1      40.022  33.554  33.567  1.00  0.00    -0.248 NA
ATOM     52  C   UNL A   1      38.396  32.154  34.445  1.00  0.00     0.031 C 
ATOM     53  C   UNL A   1      37.806  31.886  29.715  1.00  0.00     0.029 A 
ATOM     54  N   UNL A   1      39.768  31.599  30.679  1.00  0.00    -0.354 N 
ATOM     55  C   UNL A   1      40.395  33.165  34.849  1.00  0.00     0.074 A 
ATOM     56  C   UNL A   1      39.265  32.469  35.406  1.00  0.00     0.031 C 
ATOM     57  C   UNL A   1      38.446  30.928  29.010  1.00  0.00     0.029 A 
ATOM     58  C   UNL A   1      39.749  30.710  29.606  1.00  0.00     0.049 A 
ATOM     59  H   UNL A   1      40.572  31.759  31.223  1.00  0.00     0.167 HD
ATOM     60  C   UNL A   1      41.695  33.218  35.247  1.00  0.00     0.037 A 
ATOM     61  C   UNL A   1      40.733  29.836  29.276  1.00  0.00     0.037 A 
ATOM     62  C   UNL A   1      42.476  34.056  34.370  1.00  0.00     0.049 A 
ATOM     63  C   UNL A   1      41.976  30.318  29.937  1.00  0.00     0.074 A 
ATOM     64  C   UNL A   1      42.382  35.376  33.970  1.00  0.00     0.029 A 
ATOM     65  N   UNL A   1      43.271  33.442  33.432  1.00  0.00    -0.354 N 
ATOM     66  N   UNL A   1      42.581  31.426  29.608  1.00  0.00    -0.248 NA
ATOM     67  C   UNL A   1      42.243  29.834  31.285  1.00  0.00     0.031 C 
ATOM     68  C   UNL A   1      42.666  35.353  32.572  1.00  0.00     0.029 A 
ATOM     69  C   UNL A   1      43.013  34.048  32.226  1.00  0.00     0.049 A 
ATOM     70  H   UNL A   1      43.906  32.706  33.594  1.00  0.00     0.167 HD
ATOM     71  C   UNL A   1      42.942  32.003  30.817  1.00  0.00     0.074 A 
ATOM     72  C   UNL A   1      42.763  30.946  31.813  1.00  0.00     0.031 C 
ATOM     73  C   UNL A   1      43.055  33.357  30.956  1.00  0.00     0.037 A 
BRANCH  60  74
ATOM     74  C   UNL A   1      42.323  32.230  36.195  1.00  0.00     0.057 A 
ATOM     75  C   UNL A   1      43.056  32.700  37.298  1.00  0.00     0.134 A 
ATOM     76  C   UNL A   1      42.468  30.855  35.919  1.00  0.00     0.134 A 
ATOM     77  F   UNL A   1      43.025  33.997  37.642  1.00  0.00    -0.206 F 
ATOM     78  C   UNL A   1      43.909  31.872  38.038  1.00  0.00     0.040 A 
ATOM     79  C   UNL A   1      43.274  30.008  36.686  1.00  0.00     0.040 A 
ATOM     80  F   UNL A   1      41.928  30.277  34.841  1.00  0.00    -0.206 F 
ATOM     81  C   UNL A   1      44.021  30.521  37.732  1.00  0.00     0.006 A 
ENDBRANCH  60  74
BRANCH  61  82
ATOM     82  C   UNL A   1      40.611  28.470  28.711  1.00  0.00     0.057 A 
ATOM     83  C   UNL A   1      39.955  27.449  29.413  1.00  0.00     0.134 A 
ATOM     84  C   UNL A   1      40.885  28.203  27.357  1.00  0.00     0.134 A 
ATOM     85  F   UNL A   1      39.613  27.619  30.700  1.00  0.00    -0.206 F 
ATOM     86  C   UNL A   1      39.568  26.248  28.801  1.00  0.00     0.040 A 
ATOM     87  C   UNL A   1      40.509  27.006  26.735  1.00  0.00     0.040 A 
ATOM     88  F   UNL A   1      41.446  29.129  26.566  1.00  0.00    -0.206 F 
ATOM     89  C   UNL A   1      39.834  26.029  27.453  1.00  0.00     0.006 A 
ENDBRANCH  61  82
BRANCH  73  90
ATOM     90  C   UNL A   1      42.979  34.215  29.718  1.00  0.00     0.057 A 
ATOM     91  C   UNL A   1      44.029  34.379  28.800  1.00  0.00     0.134 A 
ATOM     92  C   UNL A   1      41.741  34.754  29.351  1.00  0.00     0.134 A 
ATOM     93  F   UNL A   1      45.225  33.817  29.005  1.00  0.00    -0.206 F 
ATOM     94  C   UNL A   1      43.865  35.078  27.598  1.00  0.00     0.040 A 
ATOM     95  C   UNL A   1      41.554  35.424  28.139  1.00  0.00     0.040 A 
ATOM     96  F   UNL A   1      40.672  34.591  30.147  1.00  0.00    -0.206 F 
ATOM     97  C   UNL A   1      42.620  35.596  27.262  1.00  0.00     0.006 A 
ENDBRANCH  73  90
ENDBRANCH  47  48
ENDBRANCH  39  42
ENDBRANCH  37  38
ENDBRANCH  36  37
ENDBRANCH  35  36
ENDBRANCH  34  35
ENDBRANCH   1  34
TORSDOF 17
ENDMDL
MODEL 3
REMARK VINA RESULT:     -11.8      4.109      9.490
REMARK SMILES Cc1c(Cl)cccc1NC(=O)NCc1cn([C@@H]2C[NH2+][C@H](C(=O)NCCCCCCNC(=O)c3ccc(-c4c5nc(c(-c6c(F)cccc6F)c6ccc([nH]6)c(-c6c(F)cccc6F)c6nc(c(-c7c(F)cccc7F)c7ccc4[nH]7)C=C6)C=C5)cc3)C2)nn1
REMARK SMILES IDX 25 1 24 2 23 3 21 4 22 5 20 7 17 8 18 9 87 10 19 11 16 14
REMARK SMILES IDX 14 15 15 16 89 17 88 18 13 19 12 20 9 21 10 22 11 24 8 26
REMARK SMILES IDX 1 27 2 28 3 29 4 30 5 31 7 32 6 33 26 34 27 35 28 36 29 37
REMARK SMILES IDX 30 38 31 39 32 41 33 42 34 43 86 44 35 45 85 46 36 47 37 48
REMARK SMILES IDX 38 49 79 50 39 51 84 52 78 53 80 54 40 55 83 56 77 57 76 58
REMARK SMILES IDX 41 60 67 61 50 62 66 63 51 64 54 65 65 66 81 67 52 68 53 69
REMARK SMILES IDX 64 71 82 72 55 73 42 74 43 75 48 76 44 77 45 78 47 79 49 80
REMARK SMILES IDX 46 81 68 82 69 83 74 84 70 85 71 86 73 87 75 88 72 89 56 90
REMARK SMILES IDX 57 91 62 92 58 93 59 94 61 95 63 96 60 97
REMARK H PARENT 23 6 19 12 19 13 9 23 12 25 30 40 80 59 54 70
REMARK Flexibility Score: inf
ROOT
ATOM      1  C   UNL A   1      34.583  31.781  27.943  1.00  0.00     0.021 C 
ENDROOT
BRANCH   1   2
ATOM      2  C   UNL A   1      34.779  30.314  27.563  1.00  0.00     0.116 C 
BRANCH   2   3
ATOM      3  N   UNL A   1      33.608  29.516  27.860  1.00  0.00    -0.351 N 
ATOM      4  C   UNL A   1      32.471  29.247  27.169  1.00  0.00     0.278 C 
ATOM      5  O   UNL A   1      31.637  28.550  27.763  1.00  0.00    -0.268 OA
ATOM      6  H   UNL A   1      33.643  29.080  28.741  1.00  0.00     0.163 HD
BRANCH   4   7
ATOM      7  C   UNL A   1      32.192  29.629  25.700  1.00  0.00     0.274 C 
ATOM      8  C   UNL A   1      31.954  28.341  23.654  1.00  0.00     0.170 C 
ATOM      9  C   UNL A   1      33.409  28.720  23.887  1.00  0.00     0.288 C 
ATOM     10  C   UNL A   1      31.336  28.550  25.035  1.00  0.00     0.109 C 
ATOM     11  N   UNL A   1      33.373  29.847  24.834  1.00  0.00    -0.334 N 
ATOM     12  H   UNL A   1      33.282  30.729  24.331  1.00  0.00     0.347 HD
ATOM     13  H   UNL A   1      34.230  29.895  25.385  1.00  0.00     0.347 HD
BRANCH   8  14
ATOM     14  N   UNL A   1      31.797  27.005  23.135  1.00  0.00    -0.243 N 
ATOM     15  C   UNL A   1      31.518  24.869  22.965  1.00  0.00     0.102 A 
ATOM     16  C   UNL A   1      31.217  25.953  23.761  1.00  0.00     0.137 A 
ATOM     17  N   UNL A   1      32.207  25.296  21.869  1.00  0.00    -0.134 NA
ATOM     18  N   UNL A   1      32.363  26.617  21.977  1.00  0.00    -0.067 NA
BRANCH  15  19
ATOM     19  C   UNL A   1      31.365  23.488  23.448  1.00  0.00     0.178 C 
BRANCH  19  20
ATOM     20  N   UNL A   1      31.511  22.395  22.552  1.00  0.00    -0.332 N 
ATOM     21  N   UNL A   1      33.002  20.865  23.674  1.00  0.00    -0.308 N 
ATOM     22  C   UNL A   1      32.109  21.205  22.717  1.00  0.00     0.319 C 
ATOM     23  H   UNL A   1      33.341  19.954  23.518  1.00  0.00     0.171 HD
ATOM     24  O   UNL A   1      31.893  20.352  21.847  1.00  0.00    -0.248 OA
ATOM     25  H   UNL A   1      31.107  22.533  21.664  1.00  0.00     0.165 HD
BRANCH  21  26
ATOM     26  C   UNL A   1      33.601  21.420  24.832  1.00  0.00     0.047 A 
ATOM     27  C   UNL A   1      35.305  22.699  23.391  1.00  0.00     0.048 C 
ATOM     28  C   UNL A   1      34.611  22.405  24.698  1.00  0.00    -0.009 A 
ATOM     29  C   UNL A   1      35.029  23.107  25.856  1.00  0.00     0.046 A 
ATOM     30  Cl  UNL A   1      36.238  24.346  25.793  1.00  0.00    -0.084 Cl
ATOM     31  C   UNL A   1      34.490  22.827  27.110  1.00  0.00     0.021 A 
ATOM     32  C   UNL A   1      33.266  21.008  26.126  1.00  0.00     0.026 A 
ATOM     33  C   UNL A   1      33.635  21.748  27.252  1.00  0.00     0.004 A 
ENDBRANCH  21  26
ENDBRANCH  19  20
ENDBRANCH  15  19
ENDBRANCH   8  14
ENDBRANCH   4   7
ENDBRANCH   2   3
ENDBRANCH   1   2
BRANCH   1  34
ATOM     34  C   UNL A   1      35.853  32.636  27.907  1.00  0.00     0.002 C 
BRANCH  34  35
ATOM     35  C   UNL A   1      36.012  33.665  29.038  1.00  0.00     0.002 C 
BRANCH  35  36
ATOM     36  C   UNL A   1      34.859  34.659  29.246  1.00  0.00     0.021 C 
BRANCH  36  37
ATOM     37  C   UNL A   1      34.010  34.380  30.474  1.00  0.00     0.116 C 
BRANCH  37  38
ATOM     38  N   UNL A   1      34.246  35.334  31.558  1.00  0.00    -0.352 N 
ATOM     39  C   UNL A   1      35.043  35.177  32.680  1.00  0.00     0.251 C 
ATOM     40  H   UNL A   1      33.778  36.196  31.481  1.00  0.00     0.163 HD
ATOM     41  O   UNL A   1      34.884  35.862  33.674  1.00  0.00    -0.269 OA
BRANCH  39  42
ATOM     42  C   UNL A   1      36.112  34.163  32.634  1.00  0.00     0.039 A 
ATOM     43  C   UNL A   1      35.847  32.792  32.706  1.00  0.00     0.014 A 
ATOM     44  C   UNL A   1      37.412  34.630  32.484  1.00  0.00     0.014 A 
ATOM     45  C   UNL A   1      36.907  31.900  32.562  1.00  0.00     0.010 A 
ATOM     46  C   UNL A   1      38.400  33.766  32.119  1.00  0.00     0.010 A 
ATOM     47  C   UNL A   1      38.181  32.403  32.257  1.00  0.00    -0.014 A 
BRANCH  47  48
ATOM     48  C   UNL A   1      39.313  31.534  31.979  1.00  0.00     0.031 A 
ATOM     49  C   UNL A   1      40.056  31.096  33.188  1.00  0.00     0.074 A 
ATOM     50  C   UNL A   1      39.491  30.970  30.763  1.00  0.00     0.049 A 
ATOM     51  N   UNL A   1      41.275  31.373  33.505  1.00  0.00    -0.248 NA
ATOM     52  C   UNL A   1      39.312  30.387  34.245  1.00  0.00     0.031 C 
ATOM     53  C   UNL A   1      38.639  31.071  29.569  1.00  0.00     0.029 A 
ATOM     54  N   UNL A   1      40.432  30.071  30.370  1.00  0.00    -0.354 N 
ATOM     55  C   UNL A   1      41.524  30.690  34.691  1.00  0.00     0.074 A 
ATOM     56  C   UNL A   1      40.242  30.275  35.196  1.00  0.00     0.031 C 
ATOM     57  C   UNL A   1      38.961  30.095  28.693  1.00  0.00     0.029 A 
ATOM     58  C   UNL A   1      40.143  29.412  29.177  1.00  0.00     0.049 A 
ATOM     59  H   UNL A   1      41.251  29.900  30.888  1.00  0.00     0.167 HD
ATOM     60  C   UNL A   1      42.784  30.297  35.021  1.00  0.00     0.037 A 
ATOM     61  C   UNL A   1      40.821  28.354  28.665  1.00  0.00     0.037 A 
ATOM     62  C   UNL A   1      43.772  31.000  34.241  1.00  0.00     0.049 A 
ATOM     63  C   UNL A   1      42.155  28.338  29.324  1.00  0.00     0.074 A 
ATOM     64  C   UNL A   1      44.073  32.336  34.052  1.00  0.00     0.029 A 
ATOM     65  N   UNL A   1      44.343  30.340  33.179  1.00  0.00    -0.354 N 
ATOM     66  N   UNL A   1      43.060  29.260  29.136  1.00  0.00    -0.248 NA
ATOM     67  C   UNL A   1      42.276  27.587  30.566  1.00  0.00     0.031 C 
ATOM     68  C   UNL A   1      44.328  32.457  32.654  1.00  0.00     0.029 A 
ATOM     69  C   UNL A   1      44.269  31.181  32.094  1.00  0.00     0.049 A 
ATOM     70  H   UNL A   1      44.731  29.435  33.192  1.00  0.00     0.167 HD
ATOM     71  C   UNL A   1      43.584  29.503  30.397  1.00  0.00     0.074 A 
ATOM     72  C   UNL A   1      43.106  28.398  31.228  1.00  0.00     0.031 C 
ATOM     73  C   UNL A   1      44.096  30.724  30.734  1.00  0.00     0.037 A 
BRANCH  60  74
ATOM     74  C   UNL A   1      43.096  29.029  35.772  1.00  0.00     0.057 A 
ATOM     75  C   UNL A   1      43.999  29.067  36.848  1.00  0.00     0.134 A 
ATOM     76  C   UNL A   1      42.762  27.737  35.314  1.00  0.00     0.134 A 
ATOM     77  F   UNL A   1      44.417  30.238  37.353  1.00  0.00    -0.206 F 
ATOM     78  C   UNL A   1      44.566  27.908  37.392  1.00  0.00     0.040 A 
ATOM     79  C   UNL A   1      43.279  26.572  35.886  1.00  0.00     0.040 A 
ATOM     80  F   UNL A   1      42.005  27.533  34.229  1.00  0.00    -0.206 F 
ATOM     81  C   UNL A   1      44.206  26.654  36.910  1.00  0.00     0.006 A 
ENDBRANCH  60  74
BRANCH  61  82
ATOM     82  C   UNL A   1      40.295  27.194  27.906  1.00  0.00     0.057 A 
ATOM     83  C   UNL A   1      40.783  26.879  26.629  1.00  0.00     0.134 A 
ATOM     84  C   UNL A   1      39.507  26.204  28.520  1.00  0.00     0.134 A 
ATOM     85  F   UNL A   1      41.576  27.740  25.973  1.00  0.00    -0.206 F 
ATOM     86  C   UNL A   1      40.527  25.646  26.013  1.00  0.00     0.040 A 
ATOM     87  C   UNL A   1      39.240  24.970  27.914  1.00  0.00     0.040 A 
ATOM     88  F   UNL A   1      39.042  26.362  29.768  1.00  0.00    -0.206 F 
ATOM     89  C   UNL A   1      39.763  24.681  26.662  1.00  0.00     0.006 A 
ENDBRANCH  61  82
BRANCH  73  90
ATOM     90  C   UNL A   1      44.270  31.755  29.647  1.00  0.00     0.057 A 
ATOM     91  C   UNL A   1      43.309  32.722  29.310  1.00  0.00     0.134 A 
ATOM     92  C   UNL A   1      45.523  31.882  29.038  1.00  0.00     0.134 A 
ATOM     93  F   UNL A   1      42.114  32.753  29.909  1.00  0.00    -0.206 F 
ATOM     94  C   UNL A   1      43.571  33.740  28.386  1.00  0.00     0.040 A 
ATOM     95  C   UNL A   1      45.810  32.913  28.139  1.00  0.00     0.040 A 
ATOM     96  F   UNL A   1      46.514  31.031  29.350  1.00  0.00    -0.206 F 
ATOM     97  C   UNL A   1      44.829  33.841  27.803  1.00  0.00     0.006 A 
ENDBRANCH  73  90
ENDBRANCH  47  48
ENDBRANCH  39  42
ENDBRANCH  37  38
ENDBRANCH  36  37
ENDBRANCH  35  36
ENDBRANCH  34  35
ENDBRANCH   1  34
TORSDOF 17
ENDMDL
