MODEL 1
REMARK VINA RESULT:     -11.8      0.000      0.000
REMARK SMILES CCc1cccc(C)c1Nc1ccccc1CC(=O)NCCCCCCNC(=O)c1ccc(-c2c3nc(c(-c4c(F)cccc4F)c4ccc([nH]4)c(-c4c(F)cccc4F)c4nc(c(-c5c(F)cccc5F)c5ccc2[nH]5)C=C4)C=C3)cc1
REMARK SMILES IDX 22 1 21 2 20 3 18 4 19 5 17 7 16 8 11 9 12 10 13 11 15 12
REMARK SMILES IDX 14 13 10 14 9 16 3 17 4 18 5 19 7 20 6 21 8 22 2 23 1 24
REMARK SMILES IDX 23 25 24 26 25 27 26 28 27 29 28 30 29 32 30 33 31 34 83 35
REMARK SMILES IDX 32 36 82 37 33 38 34 39 35 40 76 41 36 42 81 43 75 44 77 45
REMARK SMILES IDX 37 46 80 47 74 48 73 49 38 51 64 52 47 53 63 54 48 55 51 56
REMARK SMILES IDX 62 57 78 58 49 59 50 60 61 62 79 63 52 64 39 65 40 66 45 67
REMARK SMILES IDX 41 68 42 69 44 70 46 71 43 72 65 73 66 74 71 75 67 76 68 77
REMARK SMILES IDX 70 78 72 79 69 80 53 81 54 82 59 83 55 84 56 85 58 86 60 87
REMARK SMILES IDX 57 88
REMARK H PARENT 20 6 10 15 27 31 77 50 51 61
REMARK Flexibility Score: inf
ROOT
ATOM      1  C   UNL A   1      31.849  27.127  26.580  1.00  0.00     0.021 C 
ENDROOT
BRANCH   1   2
ATOM      2  C   UNL A   1      30.680  26.382  25.931  1.00  0.00     0.116 C 
BRANCH   2   3
ATOM      3  N   UNL A   1      30.253  25.214  26.674  1.00  0.00    -0.356 N 
ATOM      4  C   UNL A   1      30.519  23.888  26.517  1.00  0.00     0.224 C 
ATOM      5  O   UNL A   1      30.227  23.151  27.465  1.00  0.00    -0.275 OA
ATOM      6  H   UNL A   1      29.662  25.417  27.435  1.00  0.00     0.163 HD
BRANCH   4   7
ATOM      7  C   UNL A   1      31.285  23.351  25.329  1.00  0.00     0.137 C 
BRANCH   7   8
ATOM      8  C   UNL A   1      32.738  22.964  25.519  1.00  0.00    -0.015 A 
ATOM      9  C   UNL A   1      33.193  21.632  25.618  1.00  0.00     0.042 A 
ATOM     10  C   UNL A   1      34.546  21.399  25.940  1.00  0.00     0.026 A 
ATOM     11  C   UNL A   1      35.443  22.447  26.143  1.00  0.00     0.002 A 
ATOM     12  C   UNL A   1      33.659  24.010  25.759  1.00  0.00     0.006 A 
ATOM     13  C   UNL A   1      34.998  23.756  26.052  1.00  0.00     0.000 A 
BRANCH   9  14
ATOM     14  N   UNL A   1      32.390  20.493  25.401  1.00  0.00    -0.355 N 
ATOM     15  H   UNL A   1      31.643  20.402  26.036  1.00  0.00     0.167 HD
BRANCH  14  16
ATOM     16  C   UNL A   1      32.458  19.458  24.437  1.00  0.00     0.045 A 
ATOM     17  C   UNL A   1      32.293  19.743  23.058  1.00  0.00    -0.024 A 
ATOM     18  C   UNL A   1      32.643  18.747  22.112  1.00  0.00     0.006 A 
ATOM     19  C   UNL A   1      33.079  17.486  22.493  1.00  0.00     0.001 A 
ATOM     20  C   UNL A   1      32.739  18.114  24.808  1.00  0.00    -0.027 A 
ATOM     21  C   UNL A   1      33.088  17.160  23.836  1.00  0.00     0.005 A 
ATOM     22  C   UNL A   1      32.562  17.617  26.216  1.00  0.00     0.046 C 
BRANCH  17  23
ATOM     23  C   UNL A   1      31.738  21.002  22.411  1.00  0.00     0.034 C 
ATOM     24  C   UNL A   1      32.605  22.208  22.094  1.00  0.00     0.009 C 
ENDBRANCH  17  23
ENDBRANCH  14  16
ENDBRANCH   9  14
ENDBRANCH   7   8
ENDBRANCH   4   7
ENDBRANCH   2   3
ENDBRANCH   1   2
BRANCH   1  25
ATOM     25  C   UNL A   1      31.547  28.564  27.031  1.00  0.00     0.002 C 
BRANCH  25  26
ATOM     26  C   UNL A   1      32.589  29.631  26.667  1.00  0.00     0.002 C 
BRANCH  26  27
ATOM     27  C   UNL A   1      33.555  30.018  27.785  1.00  0.00     0.021 C 
BRANCH  27  28
ATOM     28  C   UNL A   1      34.669  30.964  27.350  1.00  0.00     0.116 C 
BRANCH  28  29
ATOM     29  N   UNL A   1      35.336  31.652  28.444  1.00  0.00    -0.352 N 
ATOM     30  C   UNL A   1      36.340  31.222  29.297  1.00  0.00     0.251 C 
ATOM     31  H   UNL A   1      35.024  32.572  28.604  1.00  0.00     0.163 HD
ATOM     32  O   UNL A   1      36.670  31.929  30.234  1.00  0.00    -0.269 OA
BRANCH  30  33
ATOM     33  C   UNL A   1      37.128  29.995  28.984  1.00  0.00     0.039 A 
ATOM     34  C   UNL A   1      37.247  29.039  30.004  1.00  0.00     0.014 A 
ATOM     35  C   UNL A   1      37.917  29.882  27.845  1.00  0.00     0.014 A 
ATOM     36  C   UNL A   1      38.339  28.176  30.014  1.00  0.00     0.010 A 
ATOM     37  C   UNL A   1      39.052  29.101  27.896  1.00  0.00     0.010 A 
ATOM     38  C   UNL A   1      39.304  28.318  29.023  1.00  0.00    -0.014 A 
BRANCH  38  39
ATOM     39  C   UNL A   1      40.653  27.781  29.126  1.00  0.00     0.031 A 
ATOM     40  C   UNL A   1      40.935  26.402  28.698  1.00  0.00     0.074 A 
ATOM     41  C   UNL A   1      41.657  28.600  29.511  1.00  0.00     0.049 A 
ATOM     42  N   UNL A   1      42.028  25.771  28.962  1.00  0.00    -0.248 NA
ATOM     43  C   UNL A   1      39.952  25.582  27.999  1.00  0.00     0.031 C 
ATOM     44  C   UNL A   1      43.094  28.375  29.386  1.00  0.00     0.029 A 
ATOM     45  N   UNL A   1      41.554  29.731  30.333  1.00  0.00    -0.354 N 
ATOM     46  C   UNL A   1      42.018  24.596  28.252  1.00  0.00     0.074 A 
ATOM     47  C   UNL A   1      40.659  24.468  27.788  1.00  0.00     0.031 C 
ATOM     48  C   UNL A   1      43.726  29.109  30.314  1.00  0.00     0.029 A 
ATOM     49  C   UNL A   1      42.705  29.702  31.158  1.00  0.00     0.049 A 
ATOM     50  H   UNL A   1      40.834  30.403  30.337  1.00  0.00     0.167 HD
ATOM     51  C   UNL A   1      43.204  23.954  28.049  1.00  0.00     0.037 A 
ATOM     52  C   UNL A   1      42.586  29.502  32.504  1.00  0.00     0.037 A 
ATOM     53  C   UNL A   1      44.234  24.473  28.959  1.00  0.00     0.049 A 
ATOM     54  C   UNL A   1      43.256  28.244  33.022  1.00  0.00     0.074 A 
ATOM     55  C   UNL A   1      45.337  25.302  28.836  1.00  0.00     0.029 A 
ATOM     56  N   UNL A   1      44.023  24.329  30.321  1.00  0.00    -0.354 N 
ATOM     57  N   UNL A   1      43.835  27.349  32.268  1.00  0.00    -0.248 NA
ATOM     58  C   UNL A   1      43.239  27.851  34.432  1.00  0.00     0.031 C 
ATOM     59  C   UNL A   1      45.744  25.695  30.149  1.00  0.00     0.029 A 
ATOM     60  C   UNL A   1      44.902  25.089  31.064  1.00  0.00     0.049 A 
ATOM     61  H   UNL A   1      43.328  23.751  30.712  1.00  0.00     0.167 HD
ATOM     62  C   UNL A   1      44.194  26.274  33.034  1.00  0.00     0.074 A 
ATOM     63  C   UNL A   1      43.812  26.637  34.386  1.00  0.00     0.031 C 
ATOM     64  C   UNL A   1      44.733  25.137  32.509  1.00  0.00     0.037 A 
BRANCH  51  65
ATOM     65  C   UNL A   1      43.499  22.976  26.923  1.00  0.00     0.057 A 
ATOM     66  C   UNL A   1      42.933  21.684  26.945  1.00  0.00     0.134 A 
ATOM     67  C   UNL A   1      44.402  23.174  25.857  1.00  0.00     0.134 A 
ATOM     68  F   UNL A   1      42.034  21.325  27.871  1.00  0.00    -0.206 F 
ATOM     69  C   UNL A   1      43.274  20.675  26.028  1.00  0.00     0.040 A 
ATOM     70  C   UNL A   1      44.737  22.181  24.924  1.00  0.00     0.040 A 
ATOM     71  F   UNL A   1      45.042  24.323  25.647  1.00  0.00    -0.206 F 
ATOM     72  C   UNL A   1      44.185  20.919  25.015  1.00  0.00     0.006 A 
ENDBRANCH  51  65
BRANCH  52  73
ATOM     73  C   UNL A   1      41.342  30.096  33.063  1.00  0.00     0.057 A 
ATOM     74  C   UNL A   1      41.288  31.490  33.255  1.00  0.00     0.134 A 
ATOM     75  C   UNL A   1      40.126  29.408  33.046  1.00  0.00     0.134 A 
ATOM     76  F   UNL A   1      42.420  32.211  33.282  1.00  0.00    -0.206 F 
ATOM     77  C   UNL A   1      40.076  32.181  33.303  1.00  0.00     0.040 A 
ATOM     78  C   UNL A   1      38.905  30.089  33.113  1.00  0.00     0.040 A 
ATOM     79  F   UNL A   1      40.093  28.084  32.845  1.00  0.00    -0.206 F 
ATOM     80  C   UNL A   1      38.878  31.481  33.196  1.00  0.00     0.006 A 
ENDBRANCH  52  73
BRANCH  64  81
ATOM     81  C   UNL A   1      45.125  23.959  33.348  1.00  0.00     0.057 A 
ATOM     82  C   UNL A   1      44.246  22.896  33.601  1.00  0.00     0.134 A 
ATOM     83  C   UNL A   1      46.356  23.916  34.030  1.00  0.00     0.134 A 
ATOM     84  F   UNL A   1      43.034  22.855  33.028  1.00  0.00    -0.206 F 
ATOM     85  C   UNL A   1      44.579  21.848  34.467  1.00  0.00     0.040 A 
ATOM     86  C   UNL A   1      46.680  22.901  34.932  1.00  0.00     0.040 A 
ATOM     87  F   UNL A   1      47.299  24.849  33.829  1.00  0.00    -0.206 F 
ATOM     88  C   UNL A   1      45.792  21.857  35.149  1.00  0.00     0.006 A 
ENDBRANCH  64  81
ENDBRANCH  38  39
ENDBRANCH  30  33
ENDBRANCH  28  29
ENDBRANCH  27  28
ENDBRANCH  26  27
ENDBRANCH  25  26
ENDBRANCH   1  25
TORSDOF 17
ENDMDL
MODEL 2
REMARK VINA RESULT:     -11.7      3.906      9.245
REMARK SMILES CCc1cccc(C)c1Nc1ccccc1CC(=O)NCCCCCCNC(=O)c1ccc(-c2c3nc(c(-c4c(F)cccc4F)c4ccc([nH]4)c(-c4c(F)cccc4F)c4nc(c(-c5c(F)cccc5F)c5ccc2[nH]5)C=C4)C=C3)cc1
REMARK SMILES IDX 22 1 21 2 20 3 18 4 19 5 17 7 16 8 11 9 12 10 13 11 15 12
REMARK SMILES IDX 14 13 10 14 9 16 3 17 4 18 5 19 7 20 6 21 8 22 2 23 1 24
REMARK SMILES IDX 23 25 24 26 25 27 26 28 27 29 28 30 29 32 30 33 31 34 83 35
REMARK SMILES IDX 32 36 82 37 33 38 34 39 35 40 76 41 36 42 81 43 75 44 77 45
REMARK SMILES IDX 37 46 80 47 74 48 73 49 38 51 64 52 47 53 63 54 48 55 51 56
REMARK SMILES IDX 62 57 78 58 49 59 50 60 61 62 79 63 52 64 39 65 40 66 45 67
REMARK SMILES IDX 41 68 42 69 44 70 46 71 43 72 65 73 66 74 71 75 67 76 68 77
REMARK SMILES IDX 70 78 72 79 69 80 53 81 54 82 59 83 55 84 56 85 58 86 60 87
REMARK SMILES IDX 57 88
REMARK H PARENT 20 6 10 15 27 31 77 50 51 61
REMARK Flexibility Score: inf
ROOT
ATOM      1  C   UNL A   1      34.181  24.512  25.626  1.00  0.00     0.021 C 
ENDROOT
BRANCH   1   2
ATOM      2  C   UNL A   1      34.757  24.850  24.249  1.00  0.00     0.116 C 
BRANCH   2   3
ATOM      3  N   UNL A   1      33.744  25.118  23.248  1.00  0.00    -0.356 N 
ATOM      4  C   UNL A   1      33.336  26.272  22.653  1.00  0.00     0.224 C 
ATOM      5  O   UNL A   1      32.633  26.153  21.644  1.00  0.00    -0.275 OA
ATOM      6  H   UNL A   1      33.261  24.317  22.941  1.00  0.00     0.163 HD
BRANCH   4   7
ATOM      7  C   UNL A   1      33.845  27.629  23.084  1.00  0.00     0.137 C 
BRANCH   7   8
ATOM      8  C   UNL A   1      33.231  28.280  24.307  1.00  0.00    -0.015 A 
ATOM      9  C   UNL A   1      31.989  28.950  24.304  1.00  0.00     0.042 A 
ATOM     10  C   UNL A   1      31.588  29.642  25.465  1.00  0.00     0.026 A 
ATOM     11  C   UNL A   1      32.377  29.665  26.615  1.00  0.00     0.002 A 
ATOM     12  C   UNL A   1      34.027  28.342  25.473  1.00  0.00     0.006 A 
ATOM     13  C   UNL A   1      33.599  29.012  26.619  1.00  0.00     0.000 A 
BRANCH   9  14
ATOM     14  N   UNL A   1      31.092  28.969  23.215  1.00  0.00    -0.355 N 
ATOM     15  H   UNL A   1      31.504  29.230  22.360  1.00  0.00     0.167 HD
BRANCH  14  16
ATOM     16  C   UNL A   1      29.709  28.682  23.124  1.00  0.00     0.045 A 
ATOM     17  C   UNL A   1      29.202  27.427  23.550  1.00  0.00    -0.024 A 
ATOM     18  C   UNL A   1      27.801  27.278  23.708  1.00  0.00     0.006 A 
ATOM     19  C   UNL A   1      26.911  28.297  23.400  1.00  0.00     0.001 A 
ATOM     20  C   UNL A   1      28.778  29.647  22.653  1.00  0.00    -0.027 A 
ATOM     21  C   UNL A   1      27.396  29.462  22.836  1.00  0.00     0.005 A 
ATOM     22  C   UNL A   1      29.201  30.838  21.837  1.00  0.00     0.046 C 
BRANCH  17  23
ATOM     23  C   UNL A   1      29.969  26.147  23.842  1.00  0.00     0.034 C 
ATOM     24  C   UNL A   1      30.454  25.785  25.235  1.00  0.00     0.009 C 
ENDBRANCH  17  23
ENDBRANCH  14  16
ENDBRANCH   9  14
ENDBRANCH   7   8
ENDBRANCH   4   7
ENDBRANCH   2   3
ENDBRANCH   1   2
BRANCH   1  25
ATOM     25  C   UNL A   1      34.749  23.246  26.286  1.00  0.00     0.002 C 
BRANCH  25  26
ATOM     26  C   UNL A   1      35.567  22.311  25.385  1.00  0.00     0.002 C 
BRANCH  26  27
ATOM     27  C   UNL A   1      36.912  21.858  25.952  1.00  0.00     0.021 C 
BRANCH  27  28
ATOM     28  C   UNL A   1      38.122  22.396  25.198  1.00  0.00     0.116 C 
BRANCH  28  29
ATOM     29  N   UNL A   1      39.396  22.172  25.865  1.00  0.00    -0.352 N 
ATOM     30  C   UNL A   1      40.260  23.067  26.475  1.00  0.00     0.251 C 
ATOM     31  H   UNL A   1      39.690  21.233  25.887  1.00  0.00     0.163 HD
ATOM     32  O   UNL A   1      41.345  22.674  26.869  1.00  0.00    -0.269 OA
BRANCH  30  33
ATOM     33  C   UNL A   1      39.813  24.451  26.805  1.00  0.00     0.039 A 
ATOM     34  C   UNL A   1      40.476  25.504  26.157  1.00  0.00     0.014 A 
ATOM     35  C   UNL A   1      38.960  24.730  27.866  1.00  0.00     0.014 A 
ATOM     36  C   UNL A   1      40.519  26.761  26.754  1.00  0.00     0.010 A 
ATOM     37  C   UNL A   1      39.077  25.941  28.515  1.00  0.00     0.010 A 
ATOM     38  C   UNL A   1      39.929  26.921  28.003  1.00  0.00    -0.014 A 
BRANCH  38  39
ATOM     39  C   UNL A   1      40.229  28.025  28.903  1.00  0.00     0.031 A 
ATOM     40  C   UNL A   1      39.319  29.178  28.988  1.00  0.00     0.074 A 
ATOM     41  C   UNL A   1      41.288  27.922  29.736  1.00  0.00     0.049 A 
ATOM     42  N   UNL A   1      39.612  30.290  29.571  1.00  0.00    -0.248 NA
ATOM     43  C   UNL A   1      38.015  29.197  28.334  1.00  0.00     0.031 C 
ATOM     44  C   UNL A   1      41.588  28.739  30.908  1.00  0.00     0.029 A 
ATOM     45  N   UNL A   1      42.457  27.177  29.525  1.00  0.00    -0.354 N 
ATOM     46  C   UNL A   1      38.471  31.053  29.620  1.00  0.00     0.074 A 
ATOM     47  C   UNL A   1      37.558  30.390  28.723  1.00  0.00     0.031 C 
ATOM     48  C   UNL A   1      42.909  28.697  31.135  1.00  0.00     0.029 A 
ATOM     49  C   UNL A   1      43.510  27.981  30.024  1.00  0.00     0.049 A 
ATOM     50  H   UNL A   1      42.530  26.284  29.117  1.00  0.00     0.167 HD
ATOM     51  C   UNL A   1      38.418  32.078  30.518  1.00  0.00     0.037 A 
ATOM     52  C   UNL A   1      44.450  28.495  29.176  1.00  0.00     0.037 A 
ATOM     53  C   UNL A   1      39.762  32.394  31.020  1.00  0.00     0.049 A 
ATOM     54  C   UNL A   1      44.493  30.010  29.116  1.00  0.00     0.074 A 
ATOM     55  C   UNL A   1      40.455  32.178  32.200  1.00  0.00     0.029 A 
ATOM     56  N   UNL A   1      40.709  32.824  30.103  1.00  0.00    -0.354 N 
ATOM     57  N   UNL A   1      43.661  30.799  29.741  1.00  0.00    -0.248 NA
ATOM     58  C   UNL A   1      45.426  30.751  28.266  1.00  0.00     0.031 C 
ATOM     59  C   UNL A   1      41.840  32.431  31.953  1.00  0.00     0.029 A 
ATOM     60  C   UNL A   1      41.982  32.819  30.633  1.00  0.00     0.049 A 
ATOM     61  H   UNL A   1      40.496  33.100  29.182  1.00  0.00     0.167 HD
ATOM     62  C   UNL A   1      43.882  32.092  29.349  1.00  0.00     0.074 A 
ATOM     63  C   UNL A   1      45.004  32.016  28.433  1.00  0.00     0.031 C 
ATOM     64  C   UNL A   1      43.102  33.133  29.758  1.00  0.00     0.037 A 
BRANCH  51  65
ATOM     65  C   UNL A   1      37.149  32.694  31.083  1.00  0.00     0.057 A 
ATOM     66  C   UNL A   1      36.633  32.241  32.316  1.00  0.00     0.134 A 
ATOM     67  C   UNL A   1      36.319  33.638  30.442  1.00  0.00     0.134 A 
ATOM     68  F   UNL A   1      37.299  31.362  33.076  1.00  0.00    -0.206 F 
ATOM     69  C   UNL A   1      35.391  32.649  32.831  1.00  0.00     0.040 A 
ATOM     70  C   UNL A   1      35.086  34.068  30.954  1.00  0.00     0.040 A 
ATOM     71  F   UNL A   1      36.621  34.200  29.272  1.00  0.00    -0.206 F 
ATOM     72  C   UNL A   1      34.607  33.561  32.146  1.00  0.00     0.006 A 
ENDBRANCH  51  65
BRANCH  52  73
ATOM     73  C   UNL A   1      44.745  27.590  28.032  1.00  0.00     0.057 A 
ATOM     74  C   UNL A   1      44.161  27.872  26.782  1.00  0.00     0.134 A 
ATOM     75  C   UNL A   1      45.842  26.725  28.042  1.00  0.00     0.134 A 
ATOM     76  F   UNL A   1      43.104  28.695  26.701  1.00  0.00    -0.206 F 
ATOM     77  C   UNL A   1      44.721  27.413  25.588  1.00  0.00     0.040 A 
ATOM     78  C   UNL A   1      46.399  26.244  26.852  1.00  0.00     0.040 A 
ATOM     79  F   UNL A   1      46.466  26.427  29.190  1.00  0.00    -0.206 F 
ATOM     80  C   UNL A   1      45.866  26.624  25.620  1.00  0.00     0.006 A 
ENDBRANCH  52  73
BRANCH  64  81
ATOM     81  C   UNL A   1      43.343  34.548  29.328  1.00  0.00     0.057 A 
ATOM     82  C   UNL A   1      43.599  35.575  30.247  1.00  0.00     0.134 A 
ATOM     83  C   UNL A   1      43.201  34.945  27.985  1.00  0.00     0.134 A 
ATOM     84  F   UNL A   1      43.720  35.311  31.557  1.00  0.00    -0.206 F 
ATOM     85  C   UNL A   1      43.723  36.912  29.851  1.00  0.00     0.040 A 
ATOM     86  C   UNL A   1      43.274  36.281  27.585  1.00  0.00     0.040 A 
ATOM     87  F   UNL A   1      43.005  34.047  27.008  1.00  0.00    -0.206 F 
ATOM     88  C   UNL A   1      43.543  37.271  28.519  1.00  0.00     0.006 A 
ENDBRANCH  64  81
ENDBRANCH  38  39
ENDBRANCH  30  33
ENDBRANCH  28  29
ENDBRANCH  27  28
ENDBRANCH  26  27
ENDBRANCH  25  26
ENDBRANCH   1  25
TORSDOF 17
ENDMDL
MODEL 3
REMARK VINA RESULT:     -11.5      1.584      2.418
REMARK SMILES CCc1cccc(C)c1Nc1ccccc1CC(=O)NCCCCCCNC(=O)c1ccc(-c2c3nc(c(-c4c(F)cccc4F)c4ccc([nH]4)c(-c4c(F)cccc4F)c4nc(c(-c5c(F)cccc5F)c5ccc2[nH]5)C=C4)C=C3)cc1
REMARK SMILES IDX 22 1 21 2 20 3 18 4 19 5 17 7 16 8 11 9 12 10 13 11 15 12
REMARK SMILES IDX 14 13 10 14 9 16 3 17 4 18 5 19 7 20 6 21 8 22 2 23 1 24
REMARK SMILES IDX 23 25 24 26 25 27 26 28 27 29 28 30 29 32 30 33 31 34 83 35
REMARK SMILES IDX 32 36 82 37 33 38 34 39 35 40 76 41 36 42 81 43 75 44 77 45
REMARK SMILES IDX 37 46 80 47 74 48 73 49 38 51 64 52 47 53 63 54 48 55 51 56
REMARK SMILES IDX 62 57 78 58 49 59 50 60 61 62 79 63 52 64 39 65 40 66 45 67
REMARK SMILES IDX 41 68 42 69 44 70 46 71 43 72 65 73 66 74 71 75 67 76 68 77
REMARK SMILES IDX 70 78 72 79 69 80 53 81 54 82 59 83 55 84 56 85 58 86 60 87
REMARK SMILES IDX 57 88
REMARK H PARENT 20 6 10 15 27 31 77 50 51 61
REMARK Flexibility Score: inf
ROOT
ATOM      1  C   UNL A   1      32.112  28.029  24.620  1.00  0.00     0.021 C 
ENDROOT
BRANCH   1   2
ATOM      2  C   UNL A   1      33.113  26.952  25.044  1.00  0.00     0.116 C 
BRANCH   2   3
ATOM      3  N   UNL A   1      33.673  26.213  23.931  1.00  0.00    -0.356 N 
ATOM      4  C   UNL A   1      34.335  25.024  23.869  1.00  0.00     0.224 C 
ATOM      5  O   UNL A   1      34.459  24.520  22.747  1.00  0.00    -0.275 OA
ATOM      6  H   UNL A   1      33.553  26.650  23.057  1.00  0.00     0.163 HD
BRANCH   4   7
ATOM      7  C   UNL A   1      34.748  24.262  25.108  1.00  0.00     0.137 C 
BRANCH   7   8
ATOM      8  C   UNL A   1      35.501  22.958  24.939  1.00  0.00    -0.015 A 
ATOM      9  C   UNL A   1      34.896  21.684  25.002  1.00  0.00     0.042 A 
ATOM     10  C   UNL A   1      35.719  20.540  24.978  1.00  0.00     0.026 A 
ATOM     11  C   UNL A   1      37.106  20.635  24.874  1.00  0.00     0.002 A 
ATOM     12  C   UNL A   1      36.911  23.031  24.865  1.00  0.00     0.006 A 
ATOM     13  C   UNL A   1      37.704  21.884  24.817  1.00  0.00     0.000 A 
BRANCH   9  14
ATOM     14  N   UNL A   1      33.504  21.461  25.075  1.00  0.00    -0.355 N 
ATOM     15  H   UNL A   1      33.258  20.543  25.329  1.00  0.00     0.167 HD
BRANCH  14  16
ATOM     16  C   UNL A   1      32.398  22.315  24.852  1.00  0.00     0.045 A 
ATOM     17  C   UNL A   1      31.857  23.089  25.910  1.00  0.00    -0.024 A 
ATOM     18  C   UNL A   1      30.946  24.129  25.595  1.00  0.00     0.006 A 
ATOM     19  C   UNL A   1      30.521  24.371  24.297  1.00  0.00     0.001 A 
ATOM     20  C   UNL A   1      31.823  22.465  23.560  1.00  0.00    -0.027 A 
ATOM     21  C   UNL A   1      30.928  23.515  23.290  1.00  0.00     0.005 A 
ATOM     22  C   UNL A   1      32.037  21.457  22.465  1.00  0.00     0.046 C 
BRANCH  17  23
ATOM     23  C   UNL A   1      32.090  22.941  27.405  1.00  0.00     0.034 C 
ATOM     24  C   UNL A   1      33.314  22.247  27.977  1.00  0.00     0.009 C 
ENDBRANCH  17  23
ENDBRANCH  14  16
ENDBRANCH   9  14
ENDBRANCH   7   8
ENDBRANCH   4   7
ENDBRANCH   2   3
ENDBRANCH   1   2
BRANCH   1  25
ATOM     25  C   UNL A   1      32.113  29.305  25.476  1.00  0.00     0.002 C 
BRANCH  25  26
ATOM     26  C   UNL A   1      32.170  29.109  26.998  1.00  0.00     0.002 C 
BRANCH  26  27
ATOM     27  C   UNL A   1      33.493  29.487  27.663  1.00  0.00     0.021 C 
BRANCH  27  28
ATOM     28  C   UNL A   1      34.026  30.857  27.262  1.00  0.00     0.116 C 
BRANCH  28  29
ATOM     29  N   UNL A   1      34.624  31.614  28.351  1.00  0.00    -0.352 N 
ATOM     30  C   UNL A   1      35.636  31.272  29.233  1.00  0.00     0.251 C 
ATOM     31  H   UNL A   1      34.247  32.514  28.483  1.00  0.00     0.163 HD
ATOM     32  O   UNL A   1      35.900  32.022  30.158  1.00  0.00    -0.269 OA
BRANCH  30  33
ATOM     33  C   UNL A   1      36.512  30.095  28.965  1.00  0.00     0.039 A 
ATOM     34  C   UNL A   1      36.731  29.211  30.032  1.00  0.00     0.014 A 
ATOM     35  C   UNL A   1      37.278  29.979  27.811  1.00  0.00     0.014 A 
ATOM     36  C   UNL A   1      37.888  28.437  30.057  1.00  0.00     0.010 A 
ATOM     37  C   UNL A   1      38.473  29.293  27.872  1.00  0.00     0.010 A 
ATOM     38  C   UNL A   1      38.814  28.597  29.033  1.00  0.00    -0.014 A 
BRANCH  38  39
ATOM     39  C   UNL A   1      40.204  28.174  29.126  1.00  0.00     0.031 A 
ATOM     40  C   UNL A   1      40.612  26.857  28.611  1.00  0.00     0.074 A 
ATOM     41  C   UNL A   1      41.126  29.048  29.586  1.00  0.00     0.049 A 
ATOM     42  N   UNL A   1      41.752  26.307  28.853  1.00  0.00    -0.248 NA
ATOM     43  C   UNL A   1      39.715  26.006  27.837  1.00  0.00     0.031 C 
ATOM     44  C   UNL A   1      42.579  28.957  29.476  1.00  0.00     0.029 A 
ATOM     45  N   UNL A   1      40.912  30.105  30.481  1.00  0.00    -0.354 N 
ATOM     46  C   UNL A   1      41.855  25.188  28.063  1.00  0.00     0.074 A 
ATOM     47  C   UNL A   1      40.520  24.976  27.565  1.00  0.00     0.031 C 
ATOM     48  C   UNL A   1      43.131  29.677  30.464  1.00  0.00     0.029 A 
ATOM     49  C   UNL A   1      42.049  30.119  31.325  1.00  0.00     0.049 A 
ATOM     50  H   UNL A   1      40.136  30.710  30.517  1.00  0.00     0.167 HD
ATOM     51  C   UNL A   1      43.097  24.667  27.841  1.00  0.00     0.037 A 
ATOM     52  C   UNL A   1      41.930  29.816  32.652  1.00  0.00     0.037 A 
ATOM     53  C   UNL A   1      44.063  25.209  28.805  1.00  0.00     0.049 A 
ATOM     54  C   UNL A   1      42.700  28.587  33.096  1.00  0.00     0.074 A 
ATOM     55  C   UNL A   1      45.091  26.137  28.762  1.00  0.00     0.029 A 
ATOM     56  N   UNL A   1      43.847  24.952  30.150  1.00  0.00    -0.354 N 
ATOM     57  N   UNL A   1      43.366  27.801  32.295  1.00  0.00    -0.248 NA
ATOM     58  C   UNL A   1      42.697  28.097  34.476  1.00  0.00     0.031 C 
ATOM     59  C   UNL A   1      45.443  26.471  30.106  1.00  0.00     0.029 A 
ATOM     60  C   UNL A   1      44.645  25.732  30.961  1.00  0.00     0.049 A 
ATOM     61  H   UNL A   1      43.200  24.290  30.486  1.00  0.00     0.167 HD
ATOM     62  C   UNL A   1      43.808  26.710  32.993  1.00  0.00     0.074 A 
ATOM     63  C   UNL A   1      43.376  26.943  34.358  1.00  0.00     0.031 C 
ATOM     64  C   UNL A   1      44.452  25.664  32.401  1.00  0.00     0.037 A 
BRANCH  51  65
ATOM     65  C   UNL A   1      43.493  23.800  26.657  1.00  0.00     0.057 A 
ATOM     66  C   UNL A   1      43.354  22.397  26.733  1.00  0.00     0.134 A 
ATOM     67  C   UNL A   1      44.114  24.238  25.469  1.00  0.00     0.134 A 
ATOM     68  F   UNL A   1      42.762  21.804  27.778  1.00  0.00    -0.206 F 
ATOM     69  C   UNL A   1      43.835  21.519  25.747  1.00  0.00     0.040 A 
ATOM     70  C   UNL A   1      44.582  23.373  24.469  1.00  0.00     0.040 A 
ATOM     71  F   UNL A   1      44.335  25.522  25.192  1.00  0.00    -0.206 F 
ATOM     72  C   UNL A   1      44.459  22.005  24.611  1.00  0.00     0.006 A 
ENDBRANCH  51  65
BRANCH  52  73
ATOM     73  C   UNL A   1      40.630  30.259  33.226  1.00  0.00     0.057 A 
ATOM     74  C   UNL A   1      40.434  31.632  33.466  1.00  0.00     0.134 A 
ATOM     75  C   UNL A   1      39.491  29.451  33.178  1.00  0.00     0.134 A 
ATOM     76  F   UNL A   1      41.485  32.464  33.524  1.00  0.00    -0.206 F 
ATOM     77  C   UNL A   1      39.156  32.193  33.532  1.00  0.00     0.040 A 
ATOM     78  C   UNL A   1      38.207  30.000  33.262  1.00  0.00     0.040 A 
ATOM     79  F   UNL A   1      39.595  28.138  32.930  1.00  0.00    -0.206 F 
ATOM     80  C   UNL A   1      38.037  31.378  33.394  1.00  0.00     0.006 A 
ENDBRANCH  52  73
BRANCH  64  81
ATOM     81  C   UNL A   1      44.934  24.468  33.166  1.00  0.00     0.057 A 
ATOM     82  C   UNL A   1      44.076  23.427  33.544  1.00  0.00     0.134 A 
ATOM     83  C   UNL A   1      46.252  24.388  33.654  1.00  0.00     0.134 A 
ATOM     84  F   UNL A   1      42.790  23.422  33.161  1.00  0.00    -0.206 F 
ATOM     85  C   UNL A   1      44.507  22.362  34.344  1.00  0.00     0.040 A 
ATOM     86  C   UNL A   1      46.681  23.356  34.491  1.00  0.00     0.040 A 
ATOM     87  F   UNL A   1      47.179  25.298  33.317  1.00  0.00    -0.206 F 
ATOM     88  C   UNL A   1      45.808  22.333  34.835  1.00  0.00     0.006 A 
ENDBRANCH  64  81
ENDBRANCH  38  39
ENDBRANCH  30  33
ENDBRANCH  28  29
ENDBRANCH  27  28
ENDBRANCH  26  27
ENDBRANCH  25  26
ENDBRANCH   1  25
TORSDOF 17
ENDMDL
