MODEL 1
REMARK VINA RESULT:     -11.1      0.000      0.000
REMARK SMILES Cc1noc(C)c1[C@H](C)NC(=O)NCC(=O)NCC(=O)NCCCCCCNC(=O)c1ccc(-c2c3nc(c(-c4c(F)cccc4F)c4ccc([nH]4)c(-c4c(F)cccc4F)c4nc(c(-c5c(F)cccc5F)c5ccc2[nH]5)C=C4)C=C3)cc1
REMARK SMILES IDX 23 1 22 2 21 3 19 4 20 5 18 7 17 8 15 9 16 10 14 12 13 13
REMARK SMILES IDX 10 14 11 15 12 17 8 19 9 20 7 21 1 22 2 23 3 24 4 25 5 26
REMARK SMILES IDX 6 27 24 28 25 29 26 30 27 31 28 32 29 33 30 35 31 36 32 37
REMARK SMILES IDX 84 38 33 39 83 40 34 41 35 42 36 43 77 44 37 45 82 46 76 47
REMARK SMILES IDX 78 48 38 49 81 50 75 51 74 52 39 54 65 55 48 56 64 57 49 58
REMARK SMILES IDX 52 59 63 60 79 61 50 62 51 63 62 65 80 66 53 67 40 68 41 69
REMARK SMILES IDX 46 70 42 71 43 72 45 73 47 74 44 75 66 76 67 77 72 78 68 79
REMARK SMILES IDX 69 80 71 81 73 82 70 83 54 84 55 85 60 86 56 87 57 88 59 89
REMARK SMILES IDX 61 90 58 91
REMARK H PARENT 21 6 17 11 10 16 13 18 28 34 78 53 52 64
REMARK Flexibility Score: inf
ROOT
ATOM      1  C   UNL A   1      34.505  32.135  28.972  1.00  0.00     0.021 C 
ENDROOT
BRANCH   1   2
ATOM      2  C   UNL A   1      34.319  31.352  27.683  1.00  0.00     0.116 C 
BRANCH   2   3
ATOM      3  N   UNL A   1      33.637  30.117  27.935  1.00  0.00    -0.355 N 
ATOM      4  C   UNL A   1      32.931  29.375  27.046  1.00  0.00     0.239 C 
ATOM      5  O   UNL A   1      32.363  28.362  27.457  1.00  0.00    -0.273 OA
ATOM      6  H   UNL A   1      33.688  29.768  28.854  1.00  0.00     0.163 HD
BRANCH   4   7
ATOM      7  C   UNL A   1      33.015  29.673  25.545  1.00  0.00     0.216 C 
BRANCH   7   8
ATOM      8  N   UNL A   1      31.842  30.020  24.755  1.00  0.00    -0.346 N 
ATOM      9  C   UNL A   1      30.815  29.291  24.249  1.00  0.00     0.239 C 
ATOM     10  O   UNL A   1      29.813  29.942  23.924  1.00  0.00    -0.273 OA
ATOM     11  H   UNL A   1      31.781  30.979  24.545  1.00  0.00     0.164 HD
BRANCH   9  12
ATOM     12  C   UNL A   1      30.761  27.749  24.116  1.00  0.00     0.217 C 
BRANCH  12  13
ATOM     13  N   UNL A   1      30.471  26.874  25.242  1.00  0.00    -0.329 N 
ATOM     14  N   UNL A   1      32.007  25.081  25.249  1.00  0.00    -0.331 N 
ATOM     15  C   UNL A   1      30.908  25.699  25.700  1.00  0.00     0.315 C 
ATOM     16  H   UNL A   1      32.006  24.103  25.359  1.00  0.00     0.165 HD
ATOM     17  O   UNL A   1      30.237  25.151  26.575  1.00  0.00    -0.249 OA
ATOM     18  H   UNL A   1      29.765  27.247  25.818  1.00  0.00     0.165 HD
BRANCH  14  19
ATOM     19  C   UNL A   1      33.200  25.622  24.622  1.00  0.00     0.116 C 
ATOM     20  C   UNL A   1      34.425  25.165  25.410  1.00  0.00     0.036 C 
BRANCH  19  21
ATOM     21  C   UNL A   1      33.189  25.270  23.163  1.00  0.00     0.040 A 
ATOM     22  C   UNL A   1      33.575  27.638  22.094  1.00  0.00     0.071 C 
ATOM     23  C   UNL A   1      33.365  26.179  22.071  1.00  0.00     0.086 A 
ATOM     24  N   UNL A   1      33.322  25.559  20.890  1.00  0.00    -0.085 NA
ATOM     25  O   UNL A   1      33.158  24.228  21.176  1.00  0.00    -0.361 OA
ATOM     26  C   UNL A   1      33.100  24.048  22.521  1.00  0.00     0.139 A 
ATOM     27  C   UNL A   1      32.992  22.641  22.943  1.00  0.00     0.091 C 
ENDBRANCH  19  21
ENDBRANCH  14  19
ENDBRANCH  12  13
ENDBRANCH   9  12
ENDBRANCH   7   8
ENDBRANCH   4   7
ENDBRANCH   2   3
ENDBRANCH   1   2
BRANCH   1  28
ATOM     28  C   UNL A   1      35.302  33.419  28.745  1.00  0.00     0.002 C 
BRANCH  28  29
ATOM     29  C   UNL A   1      34.492  34.525  28.060  1.00  0.00     0.002 C 
BRANCH  29  30
ATOM     30  C   UNL A   1      33.267  34.983  28.859  1.00  0.00     0.021 C 
BRANCH  30  31
ATOM     31  C   UNL A   1      33.543  36.191  29.741  1.00  0.00     0.116 C 
BRANCH  31  32
ATOM     32  N   UNL A   1      32.582  36.267  30.829  1.00  0.00    -0.352 N 
ATOM     33  C   UNL A   1      32.559  35.552  31.992  1.00  0.00     0.251 C 
ATOM     34  H   UNL A   1      31.852  36.918  30.712  1.00  0.00     0.163 HD
ATOM     35  O   UNL A   1      31.539  35.493  32.675  1.00  0.00    -0.269 OA
BRANCH  33  36
ATOM     36  C   UNL A   1      33.783  34.853  32.413  1.00  0.00     0.039 A 
ATOM     37  C   UNL A   1      33.724  33.487  32.687  1.00  0.00     0.014 A 
ATOM     38  C   UNL A   1      34.987  35.556  32.522  1.00  0.00     0.014 A 
ATOM     39  C   UNL A   1      34.891  32.815  33.039  1.00  0.00     0.010 A 
ATOM     40  C   UNL A   1      36.162  34.869  32.788  1.00  0.00     0.010 A 
ATOM     41  C   UNL A   1      36.121  33.495  33.065  1.00  0.00    -0.014 A 
BRANCH  41  42
ATOM     42  C   UNL A   1      37.375  32.781  33.391  1.00  0.00     0.031 A 
ATOM     43  C   UNL A   1      38.118  33.103  34.657  1.00  0.00     0.074 A 
ATOM     44  C   UNL A   1      37.865  31.878  32.520  1.00  0.00     0.049 A 
ATOM     45  N   UNL A   1      39.244  32.608  35.100  1.00  0.00    -0.248 NA
ATOM     46  C   UNL A   1      37.535  34.139  35.525  1.00  0.00     0.031 C 
ATOM     47  C   UNL A   1      37.256  31.527  31.235  1.00  0.00     0.029 A 
ATOM     48  N   UNL A   1      38.987  31.095  32.582  1.00  0.00    -0.354 N 
ATOM     49  C   UNL A   1      39.507  33.276  36.289  1.00  0.00     0.074 A 
ATOM     50  C   UNL A   1      38.457  34.254  36.468  1.00  0.00     0.031 C 
ATOM     51  C   UNL A   1      37.997  30.577  30.644  1.00  0.00     0.029 A 
ATOM     52  C   UNL A   1      39.151  30.283  31.486  1.00  0.00     0.049 A 
ATOM     53  H   UNL A   1      39.617  31.114  33.338  1.00  0.00     0.167 HD
ATOM     54  C   UNL A   1      40.519  33.073  37.164  1.00  0.00     0.037 A 
ATOM     55  C   UNL A   1      40.128  29.405  31.194  1.00  0.00     0.037 A 
ATOM     56  C   UNL A   1      41.549  32.084  36.985  1.00  0.00     0.049 A 
ATOM     57  C   UNL A   1      41.244  29.204  32.181  1.00  0.00     0.074 A 
ATOM     58  C   UNL A   1      42.583  31.752  37.843  1.00  0.00     0.029 A 
ATOM     59  N   UNL A   1      41.677  31.271  35.869  1.00  0.00    -0.354 N 
ATOM     60  N   UNL A   1      41.437  29.783  33.341  1.00  0.00    -0.248 NA
ATOM     61  C   UNL A   1      42.275  28.221  31.821  1.00  0.00     0.031 C 
ATOM     62  C   UNL A   1      43.370  30.780  37.219  1.00  0.00     0.029 A 
ATOM     63  C   UNL A   1      42.793  30.461  36.001  1.00  0.00     0.049 A 
ATOM     64  H   UNL A   1      41.067  31.271  35.097  1.00  0.00     0.167 HD
ATOM     65  C   UNL A   1      42.594  29.218  33.862  1.00  0.00     0.074 A 
ATOM     66  C   UNL A   1      43.046  28.235  32.898  1.00  0.00     0.031 C 
ATOM     67  C   UNL A   1      43.227  29.488  35.030  1.00  0.00     0.037 A 
BRANCH  54  68
ATOM     68  C   UNL A   1      40.562  33.939  38.391  1.00  0.00     0.057 A 
ATOM     69  C   UNL A   1      41.303  35.127  38.436  1.00  0.00     0.134 A 
ATOM     70  C   UNL A   1      39.820  33.599  39.530  1.00  0.00     0.134 A 
ATOM     71  F   UNL A   1      42.046  35.506  37.385  1.00  0.00    -0.206 F 
ATOM     72  C   UNL A   1      41.327  35.932  39.577  1.00  0.00     0.040 A 
ATOM     73  C   UNL A   1      39.812  34.411  40.666  1.00  0.00     0.040 A 
ATOM     74  F   UNL A   1      39.085  32.477  39.555  1.00  0.00    -0.206 F 
ATOM     75  C   UNL A   1      40.573  35.578  40.694  1.00  0.00     0.006 A 
ENDBRANCH  54  68
BRANCH  55  76
ATOM     76  C   UNL A   1      40.085  28.641  29.921  1.00  0.00     0.057 A 
ATOM     77  C   UNL A   1      40.757  29.094  28.781  1.00  0.00     0.134 A 
ATOM     78  C   UNL A   1      39.366  27.444  29.812  1.00  0.00     0.134 A 
ATOM     79  F   UNL A   1      41.451  30.242  28.818  1.00  0.00    -0.206 F 
ATOM     80  C   UNL A   1      40.695  28.402  27.571  1.00  0.00     0.040 A 
ATOM     81  C   UNL A   1      39.319  26.726  28.617  1.00  0.00     0.040 A 
ATOM     82  F   UNL A   1      38.710  26.949  30.872  1.00  0.00    -0.206 F 
ATOM     83  C   UNL A   1      39.977  27.210  27.488  1.00  0.00     0.006 A 
ENDBRANCH  55  76
BRANCH  67  84
ATOM     84  C   UNL A   1      44.459  28.688  35.341  1.00  0.00     0.057 A 
ATOM     85  C   UNL A   1      45.734  29.101  34.934  1.00  0.00     0.134 A 
ATOM     86  C   UNL A   1      44.369  27.504  36.085  1.00  0.00     0.134 A 
ATOM     87  F   UNL A   1      45.888  30.219  34.208  1.00  0.00    -0.206 F 
ATOM     88  C   UNL A   1      46.872  28.350  35.230  1.00  0.00     0.040 A 
ATOM     89  C   UNL A   1      45.504  26.762  36.414  1.00  0.00     0.040 A 
ATOM     90  F   UNL A   1      43.180  27.057  36.515  1.00  0.00    -0.206 F 
ATOM     91  C   UNL A   1      46.759  27.180  35.979  1.00  0.00     0.006 A 
ENDBRANCH  67  84
ENDBRANCH  41  42
ENDBRANCH  33  36
ENDBRANCH  31  32
ENDBRANCH  30  31
ENDBRANCH  29  30
ENDBRANCH  28  29
ENDBRANCH   1  28
TORSDOF 18
ENDMDL
MODEL 2
REMARK VINA RESULT:     -10.8      0.981      2.179
REMARK SMILES Cc1noc(C)c1[C@H](C)NC(=O)NCC(=O)NCC(=O)NCCCCCCNC(=O)c1ccc(-c2c3nc(c(-c4c(F)cccc4F)c4ccc([nH]4)c(-c4c(F)cccc4F)c4nc(c(-c5c(F)cccc5F)c5ccc2[nH]5)C=C4)C=C3)cc1
REMARK SMILES IDX 23 1 22 2 21 3 19 4 20 5 18 7 17 8 15 9 16 10 14 12 13 13
REMARK SMILES IDX 10 14 11 15 12 17 8 19 9 20 7 21 1 22 2 23 3 24 4 25 5 26
REMARK SMILES IDX 6 27 24 28 25 29 26 30 27 31 28 32 29 33 30 35 31 36 32 37
REMARK SMILES IDX 84 38 33 39 83 40 34 41 35 42 36 43 77 44 37 45 82 46 76 47
REMARK SMILES IDX 78 48 38 49 81 50 75 51 74 52 39 54 65 55 48 56 64 57 49 58
REMARK SMILES IDX 52 59 63 60 79 61 50 62 51 63 62 65 80 66 53 67 40 68 41 69
REMARK SMILES IDX 46 70 42 71 43 72 45 73 47 74 44 75 66 76 67 77 72 78 68 79
REMARK SMILES IDX 69 80 71 81 73 82 70 83 54 84 55 85 60 86 56 87 57 88 59 89
REMARK SMILES IDX 61 90 58 91
REMARK H PARENT 21 6 17 11 10 16 13 18 28 34 78 53 52 64
REMARK Flexibility Score: inf
ROOT
ATOM      1  C   UNL A   1      34.499  32.202  29.053  1.00  0.00     0.021 C 
ENDROOT
BRANCH   1   2
ATOM      2  C   UNL A   1      34.368  31.388  27.777  1.00  0.00     0.116 C 
BRANCH   2   3
ATOM      3  N   UNL A   1      33.558  30.227  27.997  1.00  0.00    -0.355 N 
ATOM      4  C   UNL A   1      33.056  29.387  27.058  1.00  0.00     0.239 C 
ATOM      5  O   UNL A   1      32.329  28.465  27.432  1.00  0.00    -0.273 OA
ATOM      6  H   UNL A   1      33.342  30.015  28.934  1.00  0.00     0.163 HD
BRANCH   4   7
ATOM      7  C   UNL A   1      33.549  29.460  25.608  1.00  0.00     0.216 C 
BRANCH   7   8
ATOM      8  N   UNL A   1      32.636  29.602  24.484  1.00  0.00    -0.346 N 
ATOM      9  C   UNL A   1      32.289  28.781  23.460  1.00  0.00     0.239 C 
ATOM     10  O   UNL A   1      31.235  29.075  22.879  1.00  0.00    -0.273 OA
ATOM     11  H   UNL A   1      32.176  30.471  24.460  1.00  0.00     0.164 HD
BRANCH   9  12
ATOM     12  C   UNL A   1      33.036  27.499  23.017  1.00  0.00     0.217 C 
BRANCH  12  13
ATOM     13  N   UNL A   1      32.860  26.903  21.701  1.00  0.00    -0.329 N 
ATOM     14  N   UNL A   1      32.680  24.560  21.926  1.00  0.00    -0.331 N 
ATOM     15  C   UNL A   1      32.800  25.672  21.190  1.00  0.00     0.315 C 
ATOM     16  H   UNL A   1      33.034  23.745  21.503  1.00  0.00     0.165 HD
ATOM     17  O   UNL A   1      32.883  25.566  19.966  1.00  0.00    -0.249 OA
ATOM     18  H   UNL A   1      32.761  27.590  21.003  1.00  0.00     0.165 HD
BRANCH  14  19
ATOM     19  C   UNL A   1      32.115  24.364  23.249  1.00  0.00     0.116 C 
ATOM     20  C   UNL A   1      30.592  24.407  23.148  1.00  0.00     0.036 C 
BRANCH  19  21
ATOM     21  C   UNL A   1      32.698  23.120  23.852  1.00  0.00     0.040 A 
ATOM     22  C   UNL A   1      33.748  24.098  26.052  1.00  0.00     0.071 C 
ATOM     23  C   UNL A   1      33.407  23.032  25.093  1.00  0.00     0.086 A 
ATOM     24  N   UNL A   1      33.786  21.781  25.366  1.00  0.00    -0.085 NA
ATOM     25  O   UNL A   1      33.305  21.015  24.337  1.00  0.00    -0.361 OA
ATOM     26  C   UNL A   1      32.642  21.798  23.448  1.00  0.00     0.139 A 
ATOM     27  C   UNL A   1      32.022  21.062  22.332  1.00  0.00     0.091 C 
ENDBRANCH  19  21
ENDBRANCH  14  19
ENDBRANCH  12  13
ENDBRANCH   9  12
ENDBRANCH   7   8
ENDBRANCH   4   7
ENDBRANCH   2   3
ENDBRANCH   1   2
BRANCH   1  28
ATOM     28  C   UNL A   1      35.258  33.508  28.817  1.00  0.00     0.002 C 
BRANCH  28  29
ATOM     29  C   UNL A   1      34.440  34.559  28.059  1.00  0.00     0.002 C 
BRANCH  29  30
ATOM     30  C   UNL A   1      33.217  35.068  28.828  1.00  0.00     0.021 C 
BRANCH  30  31
ATOM     31  C   UNL A   1      33.533  36.226  29.761  1.00  0.00     0.116 C 
BRANCH  31  32
ATOM     32  N   UNL A   1      32.570  36.296  30.846  1.00  0.00    -0.352 N 
ATOM     33  C   UNL A   1      32.547  35.578  32.008  1.00  0.00     0.251 C 
ATOM     34  H   UNL A   1      31.837  36.943  30.729  1.00  0.00     0.163 HD
ATOM     35  O   UNL A   1      31.525  35.513  32.688  1.00  0.00    -0.269 OA
BRANCH  33  36
ATOM     36  C   UNL A   1      33.772  34.884  32.431  1.00  0.00     0.039 A 
ATOM     37  C   UNL A   1      33.691  33.557  32.851  1.00  0.00     0.014 A 
ATOM     38  C   UNL A   1      35.001  35.552  32.397  1.00  0.00     0.014 A 
ATOM     39  C   UNL A   1      34.857  32.885  33.205  1.00  0.00     0.010 A 
ATOM     40  C   UNL A   1      36.170  34.856  32.667  1.00  0.00     0.010 A 
ATOM     41  C   UNL A   1      36.105  33.520  33.090  1.00  0.00    -0.014 A 
BRANCH  41  42
ATOM     42  C   UNL A   1      37.356  32.801  33.419  1.00  0.00     0.031 A 
ATOM     43  C   UNL A   1      38.098  33.119  34.686  1.00  0.00     0.074 A 
ATOM     44  C   UNL A   1      37.844  31.897  32.548  1.00  0.00     0.049 A 
ATOM     45  N   UNL A   1      39.220  32.619  35.132  1.00  0.00    -0.248 NA
ATOM     46  C   UNL A   1      37.516  34.157  35.554  1.00  0.00     0.031 C 
ATOM     47  C   UNL A   1      37.236  31.549  31.261  1.00  0.00     0.029 A 
ATOM     48  N   UNL A   1      38.963  31.109  32.612  1.00  0.00    -0.354 N 
ATOM     49  C   UNL A   1      39.483  33.285  36.321  1.00  0.00     0.074 A 
ATOM     50  C   UNL A   1      38.437  34.267  36.499  1.00  0.00     0.031 C 
ATOM     51  C   UNL A   1      37.975  30.596  30.672  1.00  0.00     0.029 A 
ATOM     52  C   UNL A   1      39.126  30.297  31.516  1.00  0.00     0.049 A 
ATOM     53  H   UNL A   1      39.590  31.124  33.370  1.00  0.00     0.167 HD
ATOM     54  C   UNL A   1      40.493  33.078  37.199  1.00  0.00     0.037 A 
ATOM     55  C   UNL A   1      40.099  29.414  31.225  1.00  0.00     0.037 A 
ATOM     56  C   UNL A   1      41.518  32.084  37.022  1.00  0.00     0.049 A 
ATOM     57  C   UNL A   1      41.212  29.208  32.215  1.00  0.00     0.074 A 
ATOM     58  C   UNL A   1      42.549  31.747  37.881  1.00  0.00     0.029 A 
ATOM     59  N   UNL A   1      41.646  31.271  35.905  1.00  0.00    -0.354 N 
ATOM     60  N   UNL A   1      41.405  29.786  33.376  1.00  0.00    -0.248 NA
ATOM     61  C   UNL A   1      42.240  28.221  31.857  1.00  0.00     0.031 C 
ATOM     62  C   UNL A   1      43.334  30.772  37.259  1.00  0.00     0.029 A 
ATOM     63  C   UNL A   1      42.757  30.456  36.039  1.00  0.00     0.049 A 
ATOM     64  H   UNL A   1      41.037  31.274  35.132  1.00  0.00     0.167 HD
ATOM     65  C   UNL A   1      42.558  29.215  33.899  1.00  0.00     0.074 A 
ATOM     66  C   UNL A   1      43.009  28.231  32.936  1.00  0.00     0.031 C 
ATOM     67  C   UNL A   1      43.190  29.482  35.069  1.00  0.00     0.037 A 
BRANCH  54  68
ATOM     68  C   UNL A   1      40.536  33.942  38.427  1.00  0.00     0.057 A 
ATOM     69  C   UNL A   1      39.831  33.612  39.592  1.00  0.00     0.134 A 
ATOM     70  C   UNL A   1      41.325  35.099  38.457  1.00  0.00     0.134 A 
ATOM     71  F   UNL A   1      39.046  32.524  39.628  1.00  0.00    -0.206 F 
ATOM     72  C   UNL A   1      39.887  34.415  40.733  1.00  0.00     0.040 A 
ATOM     73  C   UNL A   1      41.413  35.894  39.601  1.00  0.00     0.040 A 
ATOM     74  F   UNL A   1      42.029  35.473  37.378  1.00  0.00    -0.206 F 
ATOM     75  C   UNL A   1      40.687  35.555  40.742  1.00  0.00     0.006 A 
ENDBRANCH  54  68
BRANCH  55  76
ATOM     76  C   UNL A   1      40.056  28.652  29.952  1.00  0.00     0.057 A 
ATOM     77  C   UNL A   1      40.726  29.107  28.811  1.00  0.00     0.134 A 
ATOM     78  C   UNL A   1      39.339  27.454  29.843  1.00  0.00     0.134 A 
ATOM     79  F   UNL A   1      41.418  30.256  28.848  1.00  0.00    -0.206 F 
ATOM     80  C   UNL A   1      40.663  28.416  27.601  1.00  0.00     0.040 A 
ATOM     81  C   UNL A   1      39.292  26.736  28.647  1.00  0.00     0.040 A 
ATOM     82  F   UNL A   1      38.686  26.956  30.903  1.00  0.00    -0.206 F 
ATOM     83  C   UNL A   1      39.947  27.223  27.518  1.00  0.00     0.006 A 
ENDBRANCH  55  76
BRANCH  67  84
ATOM     84  C   UNL A   1      44.418  28.677  35.382  1.00  0.00     0.057 A 
ATOM     85  C   UNL A   1      44.358  27.491  36.125  1.00  0.00     0.134 A 
ATOM     86  C   UNL A   1      45.673  29.078  34.905  1.00  0.00     0.134 A 
ATOM     87  F   UNL A   1      43.189  27.057  36.621  1.00  0.00    -0.206 F 
ATOM     88  C   UNL A   1      45.505  26.750  36.409  1.00  0.00     0.040 A 
ATOM     89  C   UNL A   1      46.822  28.328  35.155  1.00  0.00     0.040 A 
ATOM     90  F   UNL A   1      45.800  30.198  34.177  1.00  0.00    -0.206 F 
ATOM     91  C   UNL A   1      46.742  27.165  35.916  1.00  0.00     0.006 A 
ENDBRANCH  67  84
ENDBRANCH  41  42
ENDBRANCH  33  36
ENDBRANCH  31  32
ENDBRANCH  30  31
ENDBRANCH  29  30
ENDBRANCH  28  29
ENDBRANCH   1  28
TORSDOF 18
ENDMDL
MODEL 3
REMARK VINA RESULT:     -10.8      1.915      6.814
REMARK SMILES Cc1noc(C)c1[C@H](C)NC(=O)NCC(=O)NCC(=O)NCCCCCCNC(=O)c1ccc(-c2c3nc(c(-c4c(F)cccc4F)c4ccc([nH]4)c(-c4c(F)cccc4F)c4nc(c(-c5c(F)cccc5F)c5ccc2[nH]5)C=C4)C=C3)cc1
REMARK SMILES IDX 23 1 22 2 21 3 19 4 20 5 18 7 17 8 15 9 16 10 14 12 13 13
REMARK SMILES IDX 10 14 11 15 12 17 8 19 9 20 7 21 1 22 2 23 3 24 4 25 5 26
REMARK SMILES IDX 6 27 24 28 25 29 26 30 27 31 28 32 29 33 30 35 31 36 32 37
REMARK SMILES IDX 84 38 33 39 83 40 34 41 35 42 36 43 77 44 37 45 82 46 76 47
REMARK SMILES IDX 78 48 38 49 81 50 75 51 74 52 39 54 65 55 48 56 64 57 49 58
REMARK SMILES IDX 52 59 63 60 79 61 50 62 51 63 62 65 80 66 53 67 40 68 41 69
REMARK SMILES IDX 46 70 42 71 43 72 45 73 47 74 44 75 66 76 67 77 72 78 68 79
REMARK SMILES IDX 69 80 71 81 73 82 70 83 54 84 55 85 60 86 56 87 57 88 59 89
REMARK SMILES IDX 61 90 58 91
REMARK H PARENT 21 6 17 11 10 16 13 18 28 34 78 53 52 64
REMARK Flexibility Score: inf
ROOT
ATOM      1  C   UNL A   1      32.741  28.636  27.023  1.00  0.00     0.021 C 
ENDROOT
BRANCH   1   2
ATOM      2  C   UNL A   1      34.032  28.220  26.338  1.00  0.00     0.116 C 
BRANCH   2   3
ATOM      3  N   UNL A   1      34.104  28.770  25.016  1.00  0.00    -0.355 N 
ATOM      4  C   UNL A   1      33.730  28.172  23.859  1.00  0.00     0.239 C 
ATOM      5  O   UNL A   1      33.917  28.780  22.803  1.00  0.00    -0.273 OA
ATOM      6  H   UNL A   1      34.465  29.683  24.941  1.00  0.00     0.163 HD
BRANCH   4   7
ATOM      7  C   UNL A   1      32.910  26.877  23.883  1.00  0.00     0.216 C 
BRANCH   7   8
ATOM      8  N   UNL A   1      31.454  26.879  23.865  1.00  0.00    -0.346 N 
ATOM      9  C   UNL A   1      30.525  25.897  23.753  1.00  0.00     0.239 C 
ATOM     10  O   UNL A   1      29.382  26.203  24.118  1.00  0.00    -0.273 OA
ATOM     11  H   UNL A   1      31.064  27.778  23.950  1.00  0.00     0.164 HD
BRANCH   9  12
ATOM     12  C   UNL A   1      30.780  24.441  23.291  1.00  0.00     0.217 C 
BRANCH  12  13
ATOM     13  N   UNL A   1      31.840  24.086  22.359  1.00  0.00    -0.329 N 
ATOM     14  N   UNL A   1      33.234  22.459  23.350  1.00  0.00    -0.331 N 
ATOM     15  C   UNL A   1      32.939  23.330  22.378  1.00  0.00     0.315 C 
ATOM     16  H   UNL A   1      34.194  22.272  23.461  1.00  0.00     0.165 HD
ATOM     17  O   UNL A   1      33.734  23.471  21.447  1.00  0.00    -0.249 OA
ATOM     18  H   UNL A   1      31.712  24.518  21.484  1.00  0.00     0.165 HD
BRANCH  14  19
ATOM     19  C   UNL A   1      32.365  21.746  24.269  1.00  0.00     0.116 C 
ATOM     20  C   UNL A   1      32.408  20.256  23.939  1.00  0.00     0.036 C 
BRANCH  19  21
ATOM     21  C   UNL A   1      32.730  22.117  25.677  1.00  0.00     0.040 A 
ATOM     22  C   UNL A   1      30.398  22.914  26.585  1.00  0.00     0.071 C 
ATOM     23  C   UNL A   1      31.839  22.623  26.678  1.00  0.00     0.086 A 
ATOM     24  N   UNL A   1      32.462  22.842  27.838  1.00  0.00    -0.085 NA
ATOM     25  O   UNL A   1      33.761  22.450  27.642  1.00  0.00    -0.361 OA
ATOM     26  C   UNL A   1      33.921  22.000  26.371  1.00  0.00     0.139 A 
ATOM     27  C   UNL A   1      35.269  21.488  26.071  1.00  0.00     0.091 C 
ENDBRANCH  19  21
ENDBRANCH  14  19
ENDBRANCH  12  13
ENDBRANCH   9  12
ENDBRANCH   7   8
ENDBRANCH   4   7
ENDBRANCH   2   3
ENDBRANCH   1   2
BRANCH   1  28
ATOM     28  C   UNL A   1      32.671  30.148  27.230  1.00  0.00     0.002 C 
BRANCH  28  29
ATOM     29  C   UNL A   1      31.531  30.817  26.455  1.00  0.00     0.002 C 
BRANCH  29  30
ATOM     30  C   UNL A   1      31.448  32.333  26.657  1.00  0.00     0.021 C 
BRANCH  30  31
ATOM     31  C   UNL A   1      32.690  32.922  27.307  1.00  0.00     0.116 C 
BRANCH  31  32
ATOM     32  N   UNL A   1      32.495  34.329  27.616  1.00  0.00    -0.352 N 
ATOM     33  C   UNL A   1      33.018  35.050  28.650  1.00  0.00     0.251 C 
ATOM     34  H   UNL A   1      31.910  34.826  26.999  1.00  0.00     0.163 HD
ATOM     35  O   UNL A   1      32.536  36.135  28.968  1.00  0.00    -0.269 OA
BRANCH  33  36
ATOM     36  C   UNL A   1      34.173  34.502  29.379  1.00  0.00     0.039 A 
ATOM     37  C   UNL A   1      33.966  33.879  30.608  1.00  0.00     0.014 A 
ATOM     38  C   UNL A   1      35.456  34.599  28.829  1.00  0.00     0.014 A 
ATOM     39  C   UNL A   1      35.051  33.318  31.275  1.00  0.00     0.010 A 
ATOM     40  C   UNL A   1      36.520  33.965  29.453  1.00  0.00     0.010 A 
ATOM     41  C   UNL A   1      36.329  33.333  30.690  1.00  0.00    -0.014 A 
BRANCH  41  42
ATOM     42  C   UNL A   1      37.481  32.698  31.368  1.00  0.00     0.031 A 
ATOM     43  C   UNL A   1      38.154  31.505  30.750  1.00  0.00     0.074 A 
ATOM     44  C   UNL A   1      37.885  33.172  32.562  1.00  0.00     0.049 A 
ATOM     45  N   UNL A   1      39.156  30.798  31.205  1.00  0.00    -0.248 NA
ATOM     46  C   UNL A   1      37.614  31.026  29.468  1.00  0.00     0.031 C 
ATOM     47  C   UNL A   1      37.270  34.290  33.280  1.00  0.00     0.029 A 
ATOM     48  N   UNL A   1      38.906  32.770  33.382  1.00  0.00    -0.354 N 
ATOM     49  C   UNL A   1      39.357  29.789  30.272  1.00  0.00     0.074 A 
ATOM     50  C   UNL A   1      38.338  29.938  29.258  1.00  0.00     0.031 C 
ATOM     51  C   UNL A   1      37.944  34.503  34.420  1.00  0.00     0.029 A 
ATOM     52  C   UNL A   1      39.011  33.514  34.533  1.00  0.00     0.049 A 
ATOM     53  H   UNL A   1      39.507  32.021  33.169  1.00  0.00     0.167 HD
ATOM     54  C   UNL A   1      40.322  28.840  30.251  1.00  0.00     0.037 A 
ATOM     55  C   UNL A   1      39.868  33.404  35.564  1.00  0.00     0.037 A 
ATOM     56  C   UNL A   1      41.344  28.713  31.256  1.00  0.00     0.049 A 
ATOM     57  C   UNL A   1      40.926  32.337  35.518  1.00  0.00     0.074 A 
ATOM     58  C   UNL A   1      42.407  27.828  31.296  1.00  0.00     0.029 A 
ATOM     59  N   UNL A   1      41.426  29.490  32.402  1.00  0.00    -0.354 N 
ATOM     60  N   UNL A   1      41.158  31.440  34.590  1.00  0.00    -0.248 NA
ATOM     61  C   UNL A   1      41.848  32.271  36.660  1.00  0.00     0.031 C 
ATOM     62  C   UNL A   1      43.098  28.031  32.495  1.00  0.00     0.029 A 
ATOM     63  C   UNL A   1      42.503  29.084  33.172  1.00  0.00     0.049 A 
ATOM     64  H   UNL A   1      40.810  30.222  32.634  1.00  0.00     0.167 HD
ATOM     65  C   UNL A   1      42.265  30.722  35.022  1.00  0.00     0.074 A 
ATOM     66  C   UNL A   1      42.671  31.302  36.286  1.00  0.00     0.031 C 
ATOM     67  C   UNL A   1      42.890  29.675  34.429  1.00  0.00     0.037 A 
BRANCH  54  68
ATOM     68  C   UNL A   1      40.316  27.866  29.108  1.00  0.00     0.057 A 
ATOM     69  C   UNL A   1      39.521  26.713  29.119  1.00  0.00     0.134 A 
ATOM     70  C   UNL A   1      41.087  28.106  27.963  1.00  0.00     0.134 A 
ATOM     71  F   UNL A   1      38.768  26.415  30.190  1.00  0.00    -0.206 F 
ATOM     72  C   UNL A   1      39.512  25.819  28.046  1.00  0.00     0.040 A 
ATOM     73  C   UNL A   1      41.064  27.236  26.871  1.00  0.00     0.040 A 
ATOM     74  F   UNL A   1      41.869  29.193  27.882  1.00  0.00    -0.206 F 
ATOM     75  C   UNL A   1      40.279  26.085  26.914  1.00  0.00     0.006 A 
ENDBRANCH  54  68
BRANCH  55  76
ATOM     76  C   UNL A   1      39.771  34.336  36.715  1.00  0.00     0.057 A 
ATOM     77  C   UNL A   1      40.370  35.600  36.677  1.00  0.00     0.134 A 
ATOM     78  C   UNL A   1      39.086  33.983  37.885  1.00  0.00     0.134 A 
ATOM     79  F   UNL A   1      41.053  35.991  35.591  1.00  0.00    -0.206 F 
ATOM     80  C   UNL A   1      40.314  36.470  37.767  1.00  0.00     0.040 A 
ATOM     81  C   UNL A   1      38.997  34.854  38.971  1.00  0.00     0.040 A 
ATOM     82  F   UNL A   1      38.481  32.790  37.981  1.00  0.00    -0.206 F 
ATOM     83  C   UNL A   1      39.622  36.098  38.918  1.00  0.00     0.006 A 
ENDBRANCH  55  76
BRANCH  67  84
ATOM     84  C   UNL A   1      44.094  29.111  35.128  1.00  0.00     0.057 A 
ATOM     85  C   UNL A   1      43.986  28.111  36.102  1.00  0.00     0.134 A 
ATOM     86  C   UNL A   1      45.381  29.556  34.797  1.00  0.00     0.134 A 
ATOM     87  F   UNL A   1      42.781  27.650  36.472  1.00  0.00    -0.206 F 
ATOM     88  C   UNL A   1      45.111  27.594  36.744  1.00  0.00     0.040 A 
ATOM     89  C   UNL A   1      46.516  29.023  35.410  1.00  0.00     0.040 A 
ATOM     90  F   UNL A   1      45.557  30.504  33.865  1.00  0.00    -0.206 F 
ATOM     91  C   UNL A   1      46.382  28.045  36.392  1.00  0.00     0.006 A 
ENDBRANCH  67  84
ENDBRANCH  41  42
ENDBRANCH  33  36
ENDBRANCH  31  32
ENDBRANCH  30  31
ENDBRANCH  29  30
ENDBRANCH  28  29
ENDBRANCH   1  28
TORSDOF 18
ENDMDL
