MODEL 1
REMARK VINA RESULT:     -12.3      0.000      0.000
REMARK SMILES CCOC(=O)c1c(NC(=O)[C@H]2CCCC[C@@H]2C(=O)NCCCCCCNC(=O)c2ccc(-c3c4nc(c(-c5c(F)cccc5F)c5ccc([nH]5)c(-c5c(F)cccc5F)c5nc(c(-c6c(F)cccc6F)c6ccc3[nH]6)C=C5)C=C4)cc2)sc2c1CC[C@H](C)C2
REMARK SMILES IDX 21 1 20 2 19 3 17 4 18 5 16 7 11 8 12 9 13 10 15 11 14 12
REMARK SMILES IDX 9 13 8 14 10 16 7 17 6 18 85 19 83 20 84 21 86 22 90 23
REMARK SMILES IDX 87 24 88 25 89 26 4 27 5 28 3 29 2 30 1 31 22 32 23 33 24 34
REMARK SMILES IDX 25 35 26 36 27 37 28 39 29 40 30 41 82 42 31 43 81 44 32 45
REMARK SMILES IDX 33 46 34 47 75 48 35 49 80 50 74 51 76 52 36 53 79 54 73 55
REMARK SMILES IDX 72 56 37 58 63 59 46 60 62 61 47 62 50 63 61 64 77 65 48 66
REMARK SMILES IDX 49 67 60 69 78 70 51 71 38 72 39 73 44 74 40 75 41 76 43 77
REMARK SMILES IDX 45 78 42 79 64 80 65 81 70 82 66 83 67 84 69 85 71 86 68 87
REMARK SMILES IDX 52 88 53 89 58 90 54 91 55 92 57 93 59 94 56 95
REMARK H PARENT 19 6 8 15 26 38 76 57 50 68
REMARK Flexibility Score: inf
ROOT
ATOM      1  C   UNL A   1      39.069  22.659  26.487  1.00  0.00     0.021 C 
ENDROOT
BRANCH   1   2
ATOM      2  C   UNL A   1      37.675  22.532  25.906  1.00  0.00     0.116 C 
BRANCH   2   3
ATOM      3  N   UNL A   1      37.454  22.606  24.470  1.00  0.00    -0.356 N 
ATOM      4  C   UNL A   1      36.301  22.604  23.713  1.00  0.00     0.223 C 
ATOM      5  O   UNL A   1      36.421  23.063  22.569  1.00  0.00    -0.275 OA
ATOM      6  H   UNL A   1      38.281  22.669  23.939  1.00  0.00     0.163 HD
BRANCH   4   7
ATOM      7  C   UNL A   1      34.878  22.118  24.178  1.00  0.00     0.091 C 
ATOM      8  C   UNL A   1      33.854  23.280  24.262  1.00  0.00     0.091 C 
ATOM      9  C   UNL A   1      34.260  24.025  25.468  1.00  0.00     0.014 C 
ATOM     10  C   UNL A   1      34.079  23.260  26.765  1.00  0.00     0.001 C 
ATOM     11  C   UNL A   1      34.944  21.215  25.418  1.00  0.00     0.014 C 
ATOM     12  C   UNL A   1      34.613  21.836  26.774  1.00  0.00     0.001 C 
BRANCH   8  13
ATOM     13  C   UNL A   1      32.330  23.014  24.288  1.00  0.00     0.228 C 
ATOM     14  N   UNL A   1      31.324  23.958  24.084  1.00  0.00    -0.317 N 
ATOM     15  H   UNL A   1      30.497  23.572  23.713  1.00  0.00     0.170 HD
ATOM     16  O   UNL A   1      31.942  21.847  24.454  1.00  0.00    -0.274 OA
BRANCH  14  17
ATOM     17  C   UNL A   1      31.241  25.346  24.294  1.00  0.00     0.110 A 
ATOM     18  C   UNL A   1      31.341  26.577  23.618  1.00  0.00     0.098 A 
ATOM     19  C   UNL A   1      31.993  27.525  24.530  1.00  0.00    -0.017 A 
ATOM     20  S   UNL A   1      31.078  25.647  25.996  1.00  0.00    -0.122 S 
ATOM     21  C   UNL A   1      31.883  27.136  25.847  1.00  0.00     0.011 A 
ATOM     22  C   UNL A   1      32.761  28.770  24.136  1.00  0.00     0.038 C 
ATOM     23  C   UNL A   1      32.449  27.892  27.015  1.00  0.00     0.050 C 
ATOM     24  C   UNL A   1      33.515  29.417  25.311  1.00  0.00     0.008 C 
ATOM     25  C   UNL A   1      32.686  29.366  26.607  1.00  0.00    -0.009 C 
ATOM     26  C   UNL A   1      33.361  30.160  27.721  1.00  0.00     0.008 C 
BRANCH  18  27
ATOM     27  C   UNL A   1      31.204  26.866  22.166  1.00  0.00     0.341 C 
ATOM     28  O   UNL A   1      31.682  26.103  21.313  1.00  0.00    -0.246 OA
BRANCH  27  29
ATOM     29  O   UNL A   1      30.384  27.901  21.870  1.00  0.00    -0.462 OA
BRANCH  29  30
ATOM     30  C   UNL A   1      29.238  28.243  22.696  1.00  0.00     0.230 C 
ATOM     31  C   UNL A   1      28.421  29.498  22.415  1.00  0.00     0.049 C 
ENDBRANCH  29  30
ENDBRANCH  27  29
ENDBRANCH  18  27
ENDBRANCH  14  17
ENDBRANCH   8  13
ENDBRANCH   4   7
ENDBRANCH   2   3
ENDBRANCH   1   2
BRANCH   1  32
ATOM     32  C   UNL A   1      39.966  21.434  26.294  1.00  0.00     0.002 C 
BRANCH  32  33
ATOM     33  C   UNL A   1      41.113  21.182  27.299  1.00  0.00     0.002 C 
BRANCH  33  34
ATOM     34  C   UNL A   1      42.112  20.042  27.041  1.00  0.00     0.021 C 
BRANCH  34  35
ATOM     35  C   UNL A   1      42.301  19.670  25.580  1.00  0.00     0.116 C 
BRANCH  35  36
ATOM     36  N   UNL A   1      43.707  19.523  25.169  1.00  0.00    -0.352 N 
ATOM     37  C   UNL A   1      44.634  20.506  24.835  1.00  0.00     0.251 C 
ATOM     38  H   UNL A   1      44.040  18.597  25.124  1.00  0.00     0.163 HD
ATOM     39  O   UNL A   1      45.655  20.242  24.216  1.00  0.00    -0.269 OA
BRANCH  37  40
ATOM     40  C   UNL A   1      44.363  21.889  25.263  1.00  0.00     0.039 A 
ATOM     41  C   UNL A   1      43.410  22.729  24.680  1.00  0.00     0.014 A 
ATOM     42  C   UNL A   1      45.080  22.309  26.366  1.00  0.00     0.014 A 
ATOM     43  C   UNL A   1      43.170  23.967  25.280  1.00  0.00     0.010 A 
ATOM     44  C   UNL A   1      44.562  23.290  27.141  1.00  0.00     0.010 A 
ATOM     45  C   UNL A   1      43.765  24.231  26.522  1.00  0.00    -0.014 A 
BRANCH  45  46
ATOM     46  C   UNL A   1      43.615  25.469  27.262  1.00  0.00     0.031 A 
ATOM     47  C   UNL A   1      44.585  26.526  26.906  1.00  0.00     0.074 A 
ATOM     48  C   UNL A   1      42.497  25.722  27.983  1.00  0.00     0.049 A 
ATOM     49  N   UNL A   1      45.534  27.000  27.640  1.00  0.00    -0.248 NA
ATOM     50  C   UNL A   1      44.594  27.020  25.520  1.00  0.00     0.031 C 
ATOM     51  C   UNL A   1      41.281  24.903  28.144  1.00  0.00     0.029 A 
ATOM     52  N   UNL A   1      42.165  26.857  28.649  1.00  0.00    -0.354 N 
ATOM     53  C   UNL A   1      46.121  28.011  26.888  1.00  0.00     0.074 A 
ATOM     54  C   UNL A   1      45.646  27.840  25.540  1.00  0.00     0.031 C 
ATOM     55  C   UNL A   1      40.280  25.658  28.646  1.00  0.00     0.029 A 
ATOM     56  C   UNL A   1      40.826  26.946  29.018  1.00  0.00     0.049 A 
ATOM     57  H   UNL A   1      42.820  27.563  28.855  1.00  0.00     0.167 HD
ATOM     58  C   UNL A   1      46.742  29.062  27.491  1.00  0.00     0.037 A 
ATOM     59  C   UNL A   1      40.222  28.030  29.562  1.00  0.00     0.037 A 
ATOM     60  C   UNL A   1      46.988  28.795  28.888  1.00  0.00     0.049 A 
ATOM     61  C   UNL A   1      41.301  28.883  30.126  1.00  0.00     0.074 A 
ATOM     62  C   UNL A   1      47.683  27.821  29.579  1.00  0.00     0.029 A 
ATOM     63  N   UNL A   1      46.136  29.359  29.807  1.00  0.00    -0.354 N 
ATOM     64  N   UNL A   1      42.048  28.522  31.135  1.00  0.00    -0.248 NA
ATOM     65  C   UNL A   1      41.881  29.893  29.251  1.00  0.00     0.031 C 
ATOM     66  C   UNL A   1      46.854  27.505  30.698  1.00  0.00     0.029 A 
ATOM     67  C   UNL A   1      45.749  28.359  30.666  1.00  0.00     0.049 A 
ATOM     68  H   UNL A   1      45.856  30.302  29.844  1.00  0.00     0.167 HD
ATOM     69  C   UNL A   1      43.332  28.930  30.796  1.00  0.00     0.074 A 
ATOM     70  C   UNL A   1      43.155  29.825  29.651  1.00  0.00     0.031 C 
ATOM     71  C   UNL A   1      44.437  28.279  31.267  1.00  0.00     0.037 A 
BRANCH  58  72
ATOM     72  C   UNL A   1      46.780  30.457  26.927  1.00  0.00     0.057 A 
ATOM     73  C   UNL A   1      47.995  31.164  26.934  1.00  0.00     0.134 A 
ATOM     74  C   UNL A   1      45.635  31.230  26.649  1.00  0.00     0.134 A 
ATOM     75  F   UNL A   1      49.151  30.539  27.202  1.00  0.00    -0.206 F 
ATOM     76  C   UNL A   1      48.054  32.550  26.749  1.00  0.00     0.040 A 
ATOM     77  C   UNL A   1      45.689  32.605  26.409  1.00  0.00     0.040 A 
ATOM     78  F   UNL A   1      44.396  30.724  26.695  1.00  0.00    -0.206 F 
ATOM     79  C   UNL A   1      46.898  33.276  26.493  1.00  0.00     0.006 A 
ENDBRANCH  58  72
BRANCH  59  80
ATOM     80  C   UNL A   1      38.850  28.526  29.305  1.00  0.00     0.057 A 
ATOM     81  C   UNL A   1      37.919  28.670  30.342  1.00  0.00     0.134 A 
ATOM     82  C   UNL A   1      38.506  29.127  28.080  1.00  0.00     0.134 A 
ATOM     83  F   UNL A   1      38.176  28.170  31.559  1.00  0.00    -0.206 F 
ATOM     84  C   UNL A   1      36.725  29.387  30.176  1.00  0.00     0.040 A 
ATOM     85  C   UNL A   1      37.317  29.841  27.900  1.00  0.00     0.040 A 
ATOM     86  F   UNL A   1      39.354  29.115  27.039  1.00  0.00    -0.206 F 
ATOM     87  C   UNL A   1      36.426  29.985  28.956  1.00  0.00     0.006 A 
ENDBRANCH  59  80
BRANCH  71  88
ATOM     88  C   UNL A   1      44.241  27.221  32.323  1.00  0.00     0.057 A 
ATOM     89  C   UNL A   1      44.175  25.844  32.055  1.00  0.00     0.134 A 
ATOM     90  C   UNL A   1      44.288  27.590  33.670  1.00  0.00     0.134 A 
ATOM     91  F   UNL A   1      44.230  25.379  30.803  1.00  0.00    -0.206 F 
ATOM     92  C   UNL A   1      44.116  24.887  33.073  1.00  0.00     0.040 A 
ATOM     93  C   UNL A   1      44.260  26.644  34.699  1.00  0.00     0.040 A 
ATOM     94  F   UNL A   1      44.414  28.882  34.011  1.00  0.00    -0.206 F 
ATOM     95  C   UNL A   1      44.164  25.287  34.403  1.00  0.00     0.006 A 
ENDBRANCH  71  88
ENDBRANCH  45  46
ENDBRANCH  37  40
ENDBRANCH  35  36
ENDBRANCH  34  35
ENDBRANCH  33  34
ENDBRANCH  32  33
ENDBRANCH   1  32
TORSDOF 18
ENDMDL
MODEL 2
REMARK VINA RESULT:     -11.6      3.889      9.362
REMARK SMILES CCOC(=O)c1c(NC(=O)[C@H]2CCCC[C@@H]2C(=O)NCCCCCCNC(=O)c2ccc(-c3c4nc(c(-c5c(F)cccc5F)c5ccc([nH]5)c(-c5c(F)cccc5F)c5nc(c(-c6c(F)cccc6F)c6ccc3[nH]6)C=C5)C=C4)cc2)sc2c1CC[C@H](C)C2
REMARK SMILES IDX 21 1 20 2 19 3 17 4 18 5 16 7 11 8 12 9 13 10 15 11 14 12
REMARK SMILES IDX 9 13 8 14 10 16 7 17 6 18 85 19 83 20 84 21 86 22 90 23
REMARK SMILES IDX 87 24 88 25 89 26 4 27 5 28 3 29 2 30 1 31 22 32 23 33 24 34
REMARK SMILES IDX 25 35 26 36 27 37 28 39 29 40 30 41 82 42 31 43 81 44 32 45
REMARK SMILES IDX 33 46 34 47 75 48 35 49 80 50 74 51 76 52 36 53 79 54 73 55
REMARK SMILES IDX 72 56 37 58 63 59 46 60 62 61 47 62 50 63 61 64 77 65 48 66
REMARK SMILES IDX 49 67 60 69 78 70 51 71 38 72 39 73 44 74 40 75 41 76 43 77
REMARK SMILES IDX 45 78 42 79 64 80 65 81 70 82 66 83 67 84 69 85 71 86 68 87
REMARK SMILES IDX 52 88 53 89 58 90 54 91 55 92 57 93 59 94 56 95
REMARK H PARENT 19 6 8 15 26 38 76 57 50 68
REMARK Flexibility Score: inf
ROOT
ATOM      1  C   UNL A   1      35.186  33.480  28.017  1.00  0.00     0.021 C 
ENDROOT
BRANCH   1   2
ATOM      2  C   UNL A   1      34.438  32.163  28.065  1.00  0.00     0.116 C 
BRANCH   2   3
ATOM      3  N   UNL A   1      35.123  30.904  27.816  1.00  0.00    -0.356 N 
ATOM      4  C   UNL A   1      34.667  29.675  27.388  1.00  0.00     0.223 C 
ATOM      5  O   UNL A   1      35.532  28.930  26.907  1.00  0.00    -0.275 OA
ATOM      6  H   UNL A   1      36.092  30.935  27.984  1.00  0.00     0.163 HD
BRANCH   4   7
ATOM      7  C   UNL A   1      33.178  29.167  27.420  1.00  0.00     0.091 C 
ATOM      8  C   UNL A   1      33.008  27.790  26.726  1.00  0.00     0.091 C 
ATOM      9  C   UNL A   1      33.125  28.098  25.289  1.00  0.00     0.014 C 
ATOM     10  C   UNL A   1      31.996  28.949  24.739  1.00  0.00     0.001 C 
ATOM     11  C   UNL A   1      32.180  30.248  26.980  1.00  0.00     0.014 C 
ATOM     12  C   UNL A   1      31.635  30.180  25.554  1.00  0.00     0.001 C 
BRANCH   8  13
ATOM     13  C   UNL A   1      31.763  26.905  26.981  1.00  0.00     0.228 C 
ATOM     14  N   UNL A   1      31.648  25.543  26.703  1.00  0.00    -0.317 N 
ATOM     15  H   UNL A   1      31.012  25.078  27.294  1.00  0.00     0.170 HD
ATOM     16  O   UNL A   1      30.779  27.423  27.530  1.00  0.00    -0.274 OA
BRANCH  14  17
ATOM     17  C   UNL A   1      32.251  24.693  25.759  1.00  0.00     0.110 A 
ATOM     18  C   UNL A   1      32.155  24.285  24.415  1.00  0.00     0.098 A 
ATOM     19  C   UNL A   1      32.475  22.853  24.369  1.00  0.00    -0.017 A 
ATOM     20  S   UNL A   1      33.451  23.726  26.559  1.00  0.00    -0.122 S 
ATOM     21  C   UNL A   1      33.203  22.449  25.467  1.00  0.00     0.011 A 
ATOM     22  C   UNL A   1      32.041  21.867  23.303  1.00  0.00     0.038 C 
ATOM     23  C   UNL A   1      33.678  21.045  25.712  1.00  0.00     0.050 C 
ATOM     24  C   UNL A   1      32.344  20.404  23.669  1.00  0.00     0.008 C 
ATOM     25  C   UNL A   1      33.707  20.272  24.372  1.00  0.00    -0.009 C 
ATOM     26  C   UNL A   1      34.080  18.805  24.573  1.00  0.00     0.008 C 
BRANCH  18  27
ATOM     27  C   UNL A   1      31.506  24.973  23.267  1.00  0.00     0.341 C 
ATOM     28  O   UNL A   1      30.377  25.475  23.377  1.00  0.00    -0.246 OA
BRANCH  27  29
ATOM     29  O   UNL A   1      32.305  25.152  22.190  1.00  0.00    -0.462 OA
BRANCH  29  30
ATOM     30  C   UNL A   1      33.558  25.884  22.267  1.00  0.00     0.230 C 
ATOM     31  C   UNL A   1      33.632  27.349  21.853  1.00  0.00     0.049 C 
ENDBRANCH  29  30
ENDBRANCH  27  29
ENDBRANCH  18  27
ENDBRANCH  14  17
ENDBRANCH   8  13
ENDBRANCH   4   7
ENDBRANCH   2   3
ENDBRANCH   1   2
BRANCH   1  32
ATOM     32  C   UNL A   1      34.777  34.496  29.086  1.00  0.00     0.002 C 
BRANCH  32  33
ATOM     33  C   UNL A   1      33.278  34.826  29.270  1.00  0.00     0.002 C 
BRANCH  33  34
ATOM     34  C   UNL A   1      32.861  35.963  30.216  1.00  0.00     0.021 C 
BRANCH  34  35
ATOM     35  C   UNL A   1      33.568  35.973  31.561  1.00  0.00     0.116 C 
BRANCH  35  36
ATOM     36  N   UNL A   1      33.015  35.026  32.545  1.00  0.00    -0.352 N 
ATOM     37  C   UNL A   1      33.495  33.779  32.934  1.00  0.00     0.251 C 
ATOM     38  H   UNL A   1      32.187  35.317  32.991  1.00  0.00     0.163 HD
ATOM     39  O   UNL A   1      32.785  32.971  33.515  1.00  0.00    -0.269 OA
BRANCH  37  40
ATOM     40  C   UNL A   1      34.902  33.456  32.641  1.00  0.00     0.039 A 
ATOM     41  C   UNL A   1      35.997  34.219  33.058  1.00  0.00     0.014 A 
ATOM     42  C   UNL A   1      35.098  32.268  31.965  1.00  0.00     0.014 A 
ATOM     43  C   UNL A   1      37.277  33.715  32.821  1.00  0.00     0.010 A 
ATOM     44  C   UNL A   1      36.281  31.627  32.111  1.00  0.00     0.010 A 
ATOM     45  C   UNL A   1      37.397  32.404  32.339  1.00  0.00    -0.014 A 
BRANCH  45  46
ATOM     46  C   UNL A   1      38.656  31.747  32.041  1.00  0.00     0.031 A 
ATOM     47  C   UNL A   1      39.457  31.375  33.226  1.00  0.00     0.074 A 
ATOM     48  C   UNL A   1      38.911  31.251  30.807  1.00  0.00     0.049 A 
ATOM     49  N   UNL A   1      40.589  31.871  33.596  1.00  0.00    -0.248 NA
ATOM     50  C   UNL A   1      38.867  30.438  34.195  1.00  0.00     0.031 C 
ATOM     51  C   UNL A   1      38.052  31.234  29.608  1.00  0.00     0.029 A 
ATOM     52  N   UNL A   1      39.988  30.536  30.394  1.00  0.00    -0.354 N 
ATOM     53  C   UNL A   1      40.964  31.152  34.724  1.00  0.00     0.074 A 
ATOM     54  C   UNL A   1      39.790  30.440  35.159  1.00  0.00     0.031 C 
ATOM     55  C   UNL A   1      38.535  30.352  28.708  1.00  0.00     0.029 A 
ATOM     56  C   UNL A   1      39.825  29.887  29.174  1.00  0.00     0.049 A 
ATOM     57  H   UNL A   1      40.820  30.480  30.918  1.00  0.00     0.167 HD
ATOM     58  C   UNL A   1      42.276  30.997  35.053  1.00  0.00     0.037 A 
ATOM     59  C   UNL A   1      40.693  29.006  28.620  1.00  0.00     0.037 A 
ATOM     60  C   UNL A   1      43.112  31.916  34.320  1.00  0.00     0.049 A 
ATOM     61  C   UNL A   1      42.008  29.231  29.276  1.00  0.00     0.074 A 
ATOM     62  C   UNL A   1      43.169  33.293  34.206  1.00  0.00     0.029 A 
ATOM     63  N   UNL A   1      43.798  31.430  33.233  1.00  0.00    -0.354 N 
ATOM     64  N   UNL A   1      42.699  30.330  29.139  1.00  0.00    -0.248 NA
ATOM     65  C   UNL A   1      42.296  28.457  30.475  1.00  0.00     0.031 C 
ATOM     66  C   UNL A   1      43.414  33.534  32.820  1.00  0.00     0.029 A 
ATOM     67  C   UNL A   1      43.571  32.297  32.192  1.00  0.00     0.049 A 
ATOM     68  H   UNL A   1      44.349  30.614  33.205  1.00  0.00     0.167 HD
ATOM     69  C   UNL A   1      43.192  30.605  30.409  1.00  0.00     0.074 A 
ATOM     70  C   UNL A   1      42.962  29.380  31.177  1.00  0.00     0.031 C 
ATOM     71  C   UNL A   1      43.460  31.883  30.811  1.00  0.00     0.037 A 
BRANCH  58  72
ATOM     72  C   UNL A   1      42.837  29.779  35.736  1.00  0.00     0.057 A 
ATOM     73  C   UNL A   1      43.711  29.947  36.824  1.00  0.00     0.134 A 
ATOM     74  C   UNL A   1      42.787  28.477  35.199  1.00  0.00     0.134 A 
ATOM     75  F   UNL A   1      43.856  31.145  37.409  1.00  0.00    -0.206 F 
ATOM     76  C   UNL A   1      44.528  28.912  37.293  1.00  0.00     0.040 A 
ATOM     77  C   UNL A   1      43.558  27.423  35.695  1.00  0.00     0.040 A 
ATOM     78  F   UNL A   1      42.075  28.176  34.106  1.00  0.00    -0.206 F 
ATOM     79  C   UNL A   1      44.459  27.647  36.724  1.00  0.00     0.006 A 
ENDBRANCH  58  72
BRANCH  59  80
ATOM     80  C   UNL A   1      40.370  27.783  27.849  1.00  0.00     0.057 A 
ATOM     81  C   UNL A   1      40.922  27.551  26.583  1.00  0.00     0.134 A 
ATOM     82  C   UNL A   1      39.729  26.685  28.453  1.00  0.00     0.134 A 
ATOM     83  F   UNL A   1      41.590  28.523  25.945  1.00  0.00    -0.206 F 
ATOM     84  C   UNL A   1      40.857  26.295  25.960  1.00  0.00     0.040 A 
ATOM     85  C   UNL A   1      39.654  25.429  27.842  1.00  0.00     0.040 A 
ATOM     86  F   UNL A   1      39.230  26.771  29.696  1.00  0.00    -0.206 F 
ATOM     87  C   UNL A   1      40.232  25.227  26.595  1.00  0.00     0.006 A 
ENDBRANCH  59  80
BRANCH  71  88
ATOM     88  C   UNL A   1      43.393  32.980  29.780  1.00  0.00     0.057 A 
ATOM     89  C   UNL A   1      42.275  33.808  29.583  1.00  0.00     0.134 A 
ATOM     90  C   UNL A   1      44.551  33.323  29.077  1.00  0.00     0.134 A 
ATOM     91  F   UNL A   1      41.151  33.631  30.283  1.00  0.00    -0.206 F 
ATOM     92  C   UNL A   1      42.296  34.894  28.702  1.00  0.00     0.040 A 
ATOM     93  C   UNL A   1      44.597  34.423  28.215  1.00  0.00     0.040 A 
ATOM     94  F   UNL A   1      45.680  32.620  29.256  1.00  0.00    -0.206 F 
ATOM     95  C   UNL A   1      43.464  35.207  28.017  1.00  0.00     0.006 A 
ENDBRANCH  71  88
ENDBRANCH  45  46
ENDBRANCH  37  40
ENDBRANCH  35  36
ENDBRANCH  34  35
ENDBRANCH  33  34
ENDBRANCH  32  33
ENDBRANCH   1  32
TORSDOF 18
ENDMDL
MODEL 3
REMARK VINA RESULT:     -11.2      2.737      8.547
REMARK SMILES CCOC(=O)c1c(NC(=O)[C@H]2CCCC[C@@H]2C(=O)NCCCCCCNC(=O)c2ccc(-c3c4nc(c(-c5c(F)cccc5F)c5ccc([nH]5)c(-c5c(F)cccc5F)c5nc(c(-c6c(F)cccc6F)c6ccc3[nH]6)C=C5)C=C4)cc2)sc2c1CC[C@H](C)C2
REMARK SMILES IDX 21 1 20 2 19 3 17 4 18 5 16 7 11 8 12 9 13 10 15 11 14 12
REMARK SMILES IDX 9 13 8 14 10 16 7 17 6 18 85 19 83 20 84 21 86 22 90 23
REMARK SMILES IDX 87 24 88 25 89 26 4 27 5 28 3 29 2 30 1 31 22 32 23 33 24 34
REMARK SMILES IDX 25 35 26 36 27 37 28 39 29 40 30 41 82 42 31 43 81 44 32 45
REMARK SMILES IDX 33 46 34 47 75 48 35 49 80 50 74 51 76 52 36 53 79 54 73 55
REMARK SMILES IDX 72 56 37 58 63 59 46 60 62 61 47 62 50 63 61 64 77 65 48 66
REMARK SMILES IDX 49 67 60 69 78 70 51 71 38 72 39 73 44 74 40 75 41 76 43 77
REMARK SMILES IDX 45 78 42 79 64 80 65 81 70 82 66 83 67 84 69 85 71 86 68 87
REMARK SMILES IDX 52 88 53 89 58 90 54 91 55 92 57 93 59 94 56 95
REMARK H PARENT 19 6 8 15 26 38 76 57 50 68
REMARK Flexibility Score: inf
ROOT
ATOM      1  C   UNL A   1      33.133  28.606  27.306  1.00  0.00     0.021 C 
ENDROOT
BRANCH   1   2
ATOM      2  C   UNL A   1      31.789  28.362  26.650  1.00  0.00     0.116 C 
BRANCH   2   3
ATOM      3  N   UNL A   1      31.060  27.123  26.878  1.00  0.00    -0.356 N 
ATOM      4  C   UNL A   1      31.036  25.927  26.193  1.00  0.00     0.223 C 
ATOM      5  O   UNL A   1      30.626  24.956  26.842  1.00  0.00    -0.275 OA
ATOM      6  H   UNL A   1      30.473  27.143  27.668  1.00  0.00     0.163 HD
BRANCH   4   7
ATOM      7  C   UNL A   1      31.510  25.689  24.711  1.00  0.00     0.091 C 
ATOM      8  C   UNL A   1      32.873  24.952  24.637  1.00  0.00     0.091 C 
ATOM      9  C   UNL A   1      33.854  25.977  25.041  1.00  0.00     0.014 C 
ATOM     10  C   UNL A   1      33.988  27.132  24.067  1.00  0.00     0.001 C 
ATOM     11  C   UNL A   1      31.406  26.957  23.851  1.00  0.00     0.014 C 
ATOM     12  C   UNL A   1      32.684  27.753  23.593  1.00  0.00     0.001 C 
BRANCH   8  13
ATOM     13  C   UNL A   1      33.342  24.249  23.341  1.00  0.00     0.228 C 
ATOM     14  N   UNL A   1      33.487  22.874  23.154  1.00  0.00    -0.317 N 
ATOM     15  H   UNL A   1      33.364  22.593  22.217  1.00  0.00     0.170 HD
ATOM     16  O   UNL A   1      33.569  24.950  22.342  1.00  0.00    -0.274 OA
BRANCH  14  17
ATOM     17  C   UNL A   1      33.768  21.803  24.020  1.00  0.00     0.110 A 
ATOM     18  C   UNL A   1      34.838  21.141  24.652  1.00  0.00     0.098 A 
ATOM     19  C   UNL A   1      34.521  19.708  24.661  1.00  0.00    -0.017 A 
ATOM     20  S   UNL A   1      32.303  20.922  24.319  1.00  0.00    -0.122 S 
ATOM     21  C   UNL A   1      33.170  19.475  24.521  1.00  0.00     0.011 A 
ATOM     22  C   UNL A   1      35.513  18.566  24.755  1.00  0.00     0.038 C 
ATOM     23  C   UNL A   1      32.532  18.115  24.488  1.00  0.00     0.050 C 
ATOM     24  C   UNL A   1      34.878  17.187  24.505  1.00  0.00     0.008 C 
ATOM     25  C   UNL A   1      33.482  17.087  25.147  1.00  0.00    -0.009 C 
ATOM     26  C   UNL A   1      32.934  15.666  25.048  1.00  0.00     0.008 C 
BRANCH  18  27
ATOM     27  C   UNL A   1      36.212  21.633  24.939  1.00  0.00     0.341 C 
ATOM     28  O   UNL A   1      37.150  21.402  24.161  1.00  0.00    -0.246 OA
BRANCH  27  29
ATOM     29  O   UNL A   1      36.302  22.478  25.992  1.00  0.00    -0.462 OA
BRANCH  29  30
ATOM     30  C   UNL A   1      36.921  23.788  25.884  1.00  0.00     0.230 C 
ATOM     31  C   UNL A   1      38.361  24.009  26.330  1.00  0.00     0.049 C 
ENDBRANCH  29  30
ENDBRANCH  27  29
ENDBRANCH  18  27
ENDBRANCH  14  17
ENDBRANCH   8  13
ENDBRANCH   4   7
ENDBRANCH   2   3
ENDBRANCH   1   2
BRANCH   1  32
ATOM     32  C   UNL A   1      33.816  29.918  26.914  1.00  0.00     0.002 C 
BRANCH  32  33
ATOM     33  C   UNL A   1      33.575  31.175  27.782  1.00  0.00     0.002 C 
BRANCH  33  34
ATOM     34  C   UNL A   1      34.430  32.431  27.553  1.00  0.00     0.021 C 
BRANCH  34  35
ATOM     35  C   UNL A   1      35.603  32.595  28.505  1.00  0.00     0.116 C 
BRANCH  35  36
ATOM     36  N   UNL A   1      35.218  32.812  29.910  1.00  0.00    -0.352 N 
ATOM     37  C   UNL A   1      35.521  32.050  31.035  1.00  0.00     0.251 C 
ATOM     38  H   UNL A   1      34.667  33.611  30.078  1.00  0.00     0.163 HD
ATOM     39  O   UNL A   1      34.888  32.160  32.075  1.00  0.00    -0.269 OA
BRANCH  37  40
ATOM     40  C   UNL A   1      36.648  31.105  30.948  1.00  0.00     0.039 A 
ATOM     41  C   UNL A   1      36.541  29.777  30.523  1.00  0.00     0.014 A 
ATOM     42  C   UNL A   1      37.883  31.641  31.253  1.00  0.00     0.014 A 
ATOM     43  C   UNL A   1      37.717  29.041  30.365  1.00  0.00     0.010 A 
ATOM     44  C   UNL A   1      38.987  31.071  30.718  1.00  0.00     0.010 A 
ATOM     45  C   UNL A   1      38.942  29.715  30.470  1.00  0.00    -0.014 A 
BRANCH  45  46
ATOM     46  C   UNL A   1      40.243  29.087  30.336  1.00  0.00     0.031 A 
ATOM     47  C   UNL A   1      40.967  28.882  31.608  1.00  0.00     0.074 A 
ATOM     48  C   UNL A   1      40.609  28.474  29.185  1.00  0.00     0.049 A 
ATOM     49  N   UNL A   1      42.048  29.466  32.000  1.00  0.00    -0.248 NA
ATOM     50  C   UNL A   1      40.341  28.029  32.631  1.00  0.00     0.031 C 
ATOM     51  C   UNL A   1      39.843  28.289  27.938  1.00  0.00     0.029 A 
ATOM     52  N   UNL A   1      41.739  27.769  28.931  1.00  0.00    -0.354 N 
ATOM     53  C   UNL A   1      42.364  28.890  33.224  1.00  0.00     0.074 A 
ATOM     54  C   UNL A   1      41.188  28.177  33.651  1.00  0.00     0.031 C 
ATOM     55  C   UNL A   1      40.425  27.338  27.177  1.00  0.00     0.029 A 
ATOM     56  C   UNL A   1      41.693  26.986  27.782  1.00  0.00     0.049 A 
ATOM     57  H   UNL A   1      42.532  27.807  29.514  1.00  0.00     0.167 HD
ATOM     58  C   UNL A   1      43.652  28.831  33.660  1.00  0.00     0.037 A 
ATOM     59  C   UNL A   1      42.632  26.090  27.390  1.00  0.00     0.037 A 
ATOM     60  C   UNL A   1      44.506  29.704  32.891  1.00  0.00     0.049 A 
ATOM     61  C   UNL A   1      43.885  26.443  28.108  1.00  0.00     0.074 A 
ATOM     62  C   UNL A   1      44.520  31.061  32.629  1.00  0.00     0.029 A 
ATOM     63  N   UNL A   1      45.290  29.135  31.914  1.00  0.00    -0.354 N 
ATOM     64  N   UNL A   1      44.543  27.552  27.900  1.00  0.00    -0.248 NA
ATOM     65  C   UNL A   1      44.112  25.817  29.404  1.00  0.00     0.031 C 
ATOM     66  C   UNL A   1      44.859  31.162  31.245  1.00  0.00     0.029 A 
ATOM     67  C   UNL A   1      45.110  29.873  30.771  1.00  0.00     0.049 A 
ATOM     68  H   UNL A   1      45.871  28.346  32.016  1.00  0.00     0.167 HD
ATOM     69  C   UNL A   1      44.929  27.984  29.163  1.00  0.00     0.074 A 
ATOM     70  C   UNL A   1      44.688  26.840  30.044  1.00  0.00     0.031 C 
ATOM     71  C   UNL A   1      45.118  29.309  29.440  1.00  0.00     0.037 A 
BRANCH  58  72
ATOM     72  C   UNL A   1      44.206  27.720  34.511  1.00  0.00     0.057 A 
ATOM     73  C   UNL A   1      44.963  28.044  35.650  1.00  0.00     0.134 A 
ATOM     74  C   UNL A   1      44.274  26.372  34.107  1.00  0.00     0.134 A 
ATOM     75  F   UNL A   1      44.990  29.300  36.121  1.00  0.00    -0.206 F 
ATOM     76  C   UNL A   1      45.782  27.110  36.294  1.00  0.00     0.040 A 
ATOM     77  C   UNL A   1      45.046  25.419  34.775  1.00  0.00     0.040 A 
ATOM     78  F   UNL A   1      43.685  25.925  32.990  1.00  0.00    -0.206 F 
ATOM     79  C   UNL A   1      45.831  25.794  35.853  1.00  0.00     0.006 A 
ENDBRANCH  58  72
BRANCH  59  80
ATOM     80  C   UNL A   1      42.415  24.778  26.739  1.00  0.00     0.057 A 
ATOM     81  C   UNL A   1      42.995  24.472  25.501  1.00  0.00     0.134 A 
ATOM     82  C   UNL A   1      41.856  23.694  27.443  1.00  0.00     0.134 A 
ATOM     83  F   UNL A   1      43.591  25.429  24.776  1.00  0.00    -0.206 F 
ATOM     84  C   UNL A   1      43.035  23.162  25.001  1.00  0.00     0.040 A 
ATOM     85  C   UNL A   1      41.886  22.384  26.954  1.00  0.00     0.040 A 
ATOM     86  F   UNL A   1      41.339  23.858  28.671  1.00  0.00    -0.206 F 
ATOM     87  C   UNL A   1      42.490  22.111  25.734  1.00  0.00     0.006 A 
ENDBRANCH  59  80
BRANCH  71  88
ATOM     88  C   UNL A   1      45.087  30.285  28.291  1.00  0.00     0.057 A 
ATOM     89  C   UNL A   1      43.938  30.983  27.882  1.00  0.00     0.134 A 
ATOM     90  C   UNL A   1      46.290  30.658  27.686  1.00  0.00     0.134 A 
ATOM     91  F   UNL A   1      42.757  30.776  28.471  1.00  0.00    -0.206 F 
ATOM     92  C   UNL A   1      43.978  31.971  26.893  1.00  0.00     0.040 A 
ATOM     93  C   UNL A   1      46.350  31.664  26.717  1.00  0.00     0.040 A 
ATOM     94  F   UNL A   1      47.442  30.083  28.065  1.00  0.00    -0.206 F 
ATOM     95  C   UNL A   1      45.190  32.318  26.309  1.00  0.00     0.006 A 
ENDBRANCH  71  88
ENDBRANCH  45  46
ENDBRANCH  37  40
ENDBRANCH  35  36
ENDBRANCH  34  35
ENDBRANCH  33  34
ENDBRANCH  32  33
ENDBRANCH   1  32
TORSDOF 18
ENDMDL
