MODEL 1
REMARK VINA RESULT:     -10.5      0.000      0.000
REMARK SMILES CC(C)(C)c1ccc(CSc2ccnc(C(=O)NCCCCCCNC(=O)c3ccc(-c4c5nc(c(-c6c(F)cccc6F)c6ccc([nH]6)c(-c6c(F)cccc6F)c6nc(c(-c7c(F)cccc7F)c7ccc4[nH]7)C=C6)C=C5)cc3)c2)cc1
REMARK SMILES IDX 20 1 19 2 18 3 16 4 17 5 15 7 11 8 12 9 82 10 13 11 14 12
REMARK SMILES IDX 10 13 9 14 8 15 5 16 6 17 84 18 7 19 83 20 2 21 1 22 3 23
REMARK SMILES IDX 4 24 21 25 22 26 23 27 24 28 25 29 26 30 27 32 28 33 29 34
REMARK SMILES IDX 81 35 30 36 80 37 31 38 32 39 33 40 74 41 34 42 79 43 73 44
REMARK SMILES IDX 75 45 35 46 78 47 72 48 71 49 36 51 62 52 45 53 61 54 46 55
REMARK SMILES IDX 49 56 60 57 76 58 47 59 48 60 59 62 77 63 50 64 37 65 38 66
REMARK SMILES IDX 43 67 39 68 40 69 42 70 44 71 41 72 63 73 64 74 69 75 65 76
REMARK SMILES IDX 66 77 68 78 70 79 67 80 51 81 52 82 57 83 53 84 54 85 56 86
REMARK SMILES IDX 58 87 55 88
REMARK H PARENT 18 6 25 31 75 50 49 61
REMARK Flexibility Score: inf
ROOT
ATOM      1  C   UNL A   1      30.823  26.723  26.690  1.00  0.00     0.021 C 
ENDROOT
BRANCH   1   2
ATOM      2  C   UNL A   1      29.932  25.762  25.899  1.00  0.00     0.116 C 
BRANCH   2   3
ATOM      3  N   UNL A   1      29.693  24.561  26.671  1.00  0.00    -0.351 N 
ATOM      4  C   UNL A   1      30.283  23.321  26.731  1.00  0.00     0.269 C 
ATOM      5  O   UNL A   1      29.759  22.526  27.517  1.00  0.00    -0.268 OA
ATOM      6  H   UNL A   1      28.937  24.654  27.295  1.00  0.00     0.163 HD
BRANCH   4   7
ATOM      7  C   UNL A   1      31.512  22.911  25.962  1.00  0.00     0.129 A 
ATOM      8  C   UNL A   1      32.967  22.893  24.044  1.00  0.00     0.011 A 
ATOM      9  C   UNL A   1      33.955  22.337  24.848  1.00  0.00     0.035 A 
ATOM     10  C   UNL A   1      31.714  23.140  24.611  1.00  0.00     0.049 A 
ATOM     11  C   UNL A   1      33.645  22.024  26.157  1.00  0.00     0.113 A 
ATOM     12  N   UNL A   1      32.463  22.313  26.728  1.00  0.00    -0.251 NA
BRANCH   8  13
ATOM     13  S   UNL A   1      33.207  23.501  22.375  1.00  0.00    -0.121 SA
BRANCH  13  14
ATOM     14  C   UNL A   1      33.815  25.215  22.583  1.00  0.00     0.110 C 
BRANCH  14  15
ATOM     15  C   UNL A   1      32.742  26.258  22.430  1.00  0.00    -0.038 A 
ATOM     16  C   UNL A   1      30.742  28.261  22.577  1.00  0.00    -0.043 A 
ATOM     17  C   UNL A   1      30.405  26.898  22.487  1.00  0.00     0.004 A 
ATOM     18  C   UNL A   1      32.099  28.598  22.466  1.00  0.00     0.004 A 
ATOM     19  C   UNL A   1      31.388  25.909  22.411  1.00  0.00     0.005 A 
ATOM     20  C   UNL A   1      33.087  27.613  22.381  1.00  0.00     0.005 A 
BRANCH  16  21
ATOM     21  C   UNL A   1      29.643  29.313  22.800  1.00  0.00    -0.013 C 
ATOM     22  C   UNL A   1      29.488  30.154  21.520  1.00  0.00     0.016 C 
ATOM     23  C   UNL A   1      29.938  30.272  23.975  1.00  0.00     0.016 C 
ATOM     24  C   UNL A   1      28.299  28.619  23.126  1.00  0.00     0.016 C 
ENDBRANCH  16  21
ENDBRANCH  14  15
ENDBRANCH  13  14
ENDBRANCH   8  13
ENDBRANCH   4   7
ENDBRANCH   2   3
ENDBRANCH   1   2
BRANCH   1  25
ATOM     25  C   UNL A   1      32.097  27.113  25.927  1.00  0.00     0.002 C 
BRANCH  25  26
ATOM     26  C   UNL A   1      32.421  28.613  25.951  1.00  0.00     0.002 C 
BRANCH  26  27
ATOM     27  C   UNL A   1      33.184  29.082  27.193  1.00  0.00     0.021 C 
BRANCH  27  28
ATOM     28  C   UNL A   1      34.299  30.077  26.889  1.00  0.00     0.116 C 
BRANCH  28  29
ATOM     29  N   UNL A   1      34.178  31.275  27.706  1.00  0.00    -0.352 N 
ATOM     30  C   UNL A   1      34.899  31.647  28.812  1.00  0.00     0.251 C 
ATOM     31  H   UNL A   1      33.481  31.909  27.424  1.00  0.00     0.163 HD
ATOM     32  O   UNL A   1      34.504  32.551  29.537  1.00  0.00    -0.269 OA
BRANCH  30  33
ATOM     33  C   UNL A   1      36.155  30.937  29.126  1.00  0.00     0.039 A 
ATOM     34  C   UNL A   1      37.369  31.488  28.715  1.00  0.00     0.014 A 
ATOM     35  C   UNL A   1      36.124  29.728  29.827  1.00  0.00     0.014 A 
ATOM     36  C   UNL A   1      38.563  30.856  29.065  1.00  0.00     0.010 A 
ATOM     37  C   UNL A   1      37.314  29.142  30.239  1.00  0.00     0.010 A 
ATOM     38  C   UNL A   1      38.544  29.699  29.862  1.00  0.00    -0.014 A 
BRANCH  38  39
ATOM     39  C   UNL A   1      39.801  29.061  30.325  1.00  0.00     0.031 A 
ATOM     40  C   UNL A   1      40.519  29.595  31.531  1.00  0.00     0.074 A 
ATOM     41  C   UNL A   1      40.330  28.049  29.612  1.00  0.00     0.049 A 
ATOM     42  N   UNL A   1      41.670  29.231  32.036  1.00  0.00    -0.248 NA
ATOM     43  C   UNL A   1      39.871  30.704  32.248  1.00  0.00     0.031 C 
ATOM     44  C   UNL A   1      39.745  27.469  28.401  1.00  0.00     0.029 A 
ATOM     45  N   UNL A   1      41.487  27.336  29.795  1.00  0.00    -0.354 N 
ATOM     46  C   UNL A   1      41.887  30.069  33.121  1.00  0.00     0.074 A 
ATOM     47  C   UNL A   1      40.778  30.998  33.167  1.00  0.00     0.031 C 
ATOM     48  C   UNL A   1      40.534  26.475  27.964  1.00  0.00     0.029 A 
ATOM     49  C   UNL A   1      41.702  26.378  28.834  1.00  0.00     0.049 A 
ATOM     50  H   UNL A   1      42.107  27.496  30.543  1.00  0.00     0.167 HD
ATOM     51  C   UNL A   1      42.906  30.051  34.013  1.00  0.00     0.037 A 
ATOM     52  C   UNL A   1      42.731  25.527  28.665  1.00  0.00     0.037 A 
ATOM     53  C   UNL A   1      44.001  29.117  33.967  1.00  0.00     0.049 A 
ATOM     54  C   UNL A   1      43.870  25.553  29.645  1.00  0.00     0.074 A 
ATOM     55  C   UNL A   1      45.058  28.983  34.850  1.00  0.00     0.029 A 
ATOM     56  N   UNL A   1      44.184  28.162  32.978  1.00  0.00    -0.354 N 
ATOM     57  N   UNL A   1      44.033  26.307  30.706  1.00  0.00    -0.248 NA
ATOM     58  C   UNL A   1      44.970  24.606  29.408  1.00  0.00     0.031 C 
ATOM     59  C   UNL A   1      45.908  27.984  34.366  1.00  0.00     0.029 A 
ATOM     60  C   UNL A   1      45.352  27.456  33.213  1.00  0.00     0.049 A 
ATOM     61  H   UNL A   1      43.574  28.010  32.220  1.00  0.00     0.167 HD
ATOM     62  C   UNL A   1      45.234  25.909  31.277  1.00  0.00     0.074 A 
ATOM     63  C   UNL A   1      45.753  24.836  30.453  1.00  0.00     0.031 C 
ATOM     64  C   UNL A   1      45.852  26.387  32.385  1.00  0.00     0.037 A 
BRANCH  51  65
ATOM     65  C   UNL A   1      42.883  31.075  35.110  1.00  0.00     0.057 A 
ATOM     66  C   UNL A   1      42.308  30.808  36.361  1.00  0.00     0.134 A 
ATOM     67  C   UNL A   1      43.466  32.336  34.928  1.00  0.00     0.134 A 
ATOM     68  F   UNL A   1      41.724  29.625  36.601  1.00  0.00    -0.206 F 
ATOM     69  C   UNL A   1      42.286  31.766  37.376  1.00  0.00     0.040 A 
ATOM     70  C   UNL A   1      43.477  33.292  35.944  1.00  0.00     0.040 A 
ATOM     71  F   UNL A   1      44.040  32.658  33.759  1.00  0.00    -0.206 F 
ATOM     72  C   UNL A   1      42.879  33.011  37.171  1.00  0.00     0.006 A 
ENDBRANCH  51  65
BRANCH  52  73
ATOM     73  C   UNL A   1      42.725  24.568  27.531  1.00  0.00     0.057 A 
ATOM     74  C   UNL A   1      43.256  24.920  26.286  1.00  0.00     0.134 A 
ATOM     75  C   UNL A   1      42.188  23.281  27.661  1.00  0.00     0.134 A 
ATOM     76  F   UNL A   1      43.770  26.144  26.094  1.00  0.00    -0.206 F 
ATOM     77  C   UNL A   1      43.237  24.038  25.205  1.00  0.00     0.040 A 
ATOM     78  C   UNL A   1      42.185  22.379  26.597  1.00  0.00     0.040 A 
ATOM     79  F   UNL A   1      41.670  22.878  28.831  1.00  0.00    -0.206 F 
ATOM     80  C   UNL A   1      42.704  22.761  25.361  1.00  0.00     0.006 A 
ENDBRANCH  52  73
BRANCH  64  81
ATOM     81  C   UNL A   1      47.140  25.731  32.792  1.00  0.00     0.057 A 
ATOM     82  C   UNL A   1      47.176  24.681  33.718  1.00  0.00     0.134 A 
ATOM     83  C   UNL A   1      48.353  26.126  32.214  1.00  0.00     0.134 A 
ATOM     84  F   UNL A   1      46.051  24.264  34.318  1.00  0.00    -0.206 F 
ATOM     85  C   UNL A   1      48.377  24.060  34.069  1.00  0.00     0.040 A 
ATOM     86  C   UNL A   1      49.555  25.494  32.535  1.00  0.00     0.040 A 
ATOM     87  F   UNL A   1      48.388  27.120  31.314  1.00  0.00    -0.206 F 
ATOM     88  C   UNL A   1      49.569  24.462  33.471  1.00  0.00     0.006 A 
ENDBRANCH  64  81
ENDBRANCH  38  39
ENDBRANCH  30  33
ENDBRANCH  28  29
ENDBRANCH  27  28
ENDBRANCH  26  27
ENDBRANCH  25  26
ENDBRANCH   1  25
TORSDOF 17
ENDMDL
MODEL 2
REMARK VINA RESULT:     -10.4      2.711      4.991
REMARK SMILES CC(C)(C)c1ccc(CSc2ccnc(C(=O)NCCCCCCNC(=O)c3ccc(-c4c5nc(c(-c6c(F)cccc6F)c6ccc([nH]6)c(-c6c(F)cccc6F)c6nc(c(-c7c(F)cccc7F)c7ccc4[nH]7)C=C6)C=C5)cc3)c2)cc1
REMARK SMILES IDX 20 1 19 2 18 3 16 4 17 5 15 7 11 8 12 9 82 10 13 11 14 12
REMARK SMILES IDX 10 13 9 14 8 15 5 16 6 17 84 18 7 19 83 20 2 21 1 22 3 23
REMARK SMILES IDX 4 24 21 25 22 26 23 27 24 28 25 29 26 30 27 32 28 33 29 34
REMARK SMILES IDX 81 35 30 36 80 37 31 38 32 39 33 40 74 41 34 42 79 43 73 44
REMARK SMILES IDX 75 45 35 46 78 47 72 48 71 49 36 51 62 52 45 53 61 54 46 55
REMARK SMILES IDX 49 56 60 57 76 58 47 59 48 60 59 62 77 63 50 64 37 65 38 66
REMARK SMILES IDX 43 67 39 68 40 69 42 70 44 71 41 72 63 73 64 74 69 75 65 76
REMARK SMILES IDX 66 77 68 78 70 79 67 80 51 81 52 82 57 83 53 84 54 85 56 86
REMARK SMILES IDX 58 87 55 88
REMARK H PARENT 18 6 25 31 75 50 49 61
REMARK Flexibility Score: inf
ROOT
ATOM      1  C   UNL A   1      34.928  29.052  27.144  1.00  0.00     0.021 C 
ENDROOT
BRANCH   1   2
ATOM      2  C   UNL A   1      33.743  28.760  26.220  1.00  0.00     0.116 C 
BRANCH   2   3
ATOM      3  N   UNL A   1      34.137  28.946  24.839  1.00  0.00    -0.351 N 
ATOM      4  C   UNL A   1      33.563  28.653  23.625  1.00  0.00     0.269 C 
ATOM      5  O   UNL A   1      34.241  28.946  22.636  1.00  0.00    -0.268 OA
ATOM      6  H   UNL A   1      35.015  29.382  24.749  1.00  0.00     0.163 HD
BRANCH   4   7
ATOM      7  C   UNL A   1      32.187  28.065  23.440  1.00  0.00     0.129 A 
ATOM      8  C   UNL A   1      30.590  26.266  23.345  1.00  0.00     0.011 A 
ATOM      9  C   UNL A   1      29.577  27.215  23.410  1.00  0.00     0.035 A 
ATOM     10  C   UNL A   1      31.914  26.713  23.317  1.00  0.00     0.049 A 
ATOM     11  C   UNL A   1      29.921  28.552  23.409  1.00  0.00     0.113 A 
ATOM     12  N   UNL A   1      31.192  28.990  23.443  1.00  0.00    -0.251 NA
BRANCH   8  13
ATOM     13  S   UNL A   1      30.363  24.493  23.480  1.00  0.00    -0.121 SA
BRANCH  13  14
ATOM     14  C   UNL A   1      30.920  24.078  25.174  1.00  0.00     0.110 C 
BRANCH  14  15
ATOM     15  C   UNL A   1      32.348  23.608  25.240  1.00  0.00    -0.038 A 
ATOM     16  C   UNL A   1      35.082  22.910  24.972  1.00  0.00    -0.043 A 
ATOM     17  C   UNL A   1      34.061  21.992  24.667  1.00  0.00     0.004 A 
ATOM     18  C   UNL A   1      34.698  24.139  25.531  1.00  0.00     0.004 A 
ATOM     19  C   UNL A   1      32.713  22.331  24.802  1.00  0.00     0.005 A 
ATOM     20  C   UNL A   1      33.351  24.481  25.676  1.00  0.00     0.005 A 
BRANCH  16  21
ATOM     21  C   UNL A   1      36.549  22.556  24.681  1.00  0.00    -0.013 C 
ATOM     22  C   UNL A   1      36.833  22.789  23.186  1.00  0.00     0.016 C 
ATOM     23  C   UNL A   1      36.907  21.091  25.016  1.00  0.00     0.016 C 
ATOM     24  C   UNL A   1      37.491  23.443  25.528  1.00  0.00     0.016 C 
ENDBRANCH  16  21
ENDBRANCH  14  15
ENDBRANCH  13  14
ENDBRANCH   8  13
ENDBRANCH   4   7
ENDBRANCH   2   3
ENDBRANCH   1   2
BRANCH   1  25
ATOM     25  C   UNL A   1      34.961  30.511  27.620  1.00  0.00     0.002 C 
BRANCH  25  26
ATOM     26  C   UNL A   1      33.588  31.198  27.668  1.00  0.00     0.002 C 
BRANCH  26  27
ATOM     27  C   UNL A   1      33.605  32.686  27.311  1.00  0.00     0.021 C 
BRANCH  27  28
ATOM     28  C   UNL A   1      32.343  33.432  27.731  1.00  0.00     0.116 C 
BRANCH  28  29
ATOM     29  N   UNL A   1      32.644  34.795  28.141  1.00  0.00    -0.352 N 
ATOM     30  C   UNL A   1      33.579  35.245  29.038  1.00  0.00     0.251 C 
ATOM     31  H   UNL A   1      32.099  35.494  27.713  1.00  0.00     0.163 HD
ATOM     32  O   UNL A   1      33.529  36.391  29.466  1.00  0.00    -0.269 OA
BRANCH  30  33
ATOM     33  C   UNL A   1      34.643  34.329  29.491  1.00  0.00     0.039 A 
ATOM     34  C   UNL A   1      35.904  34.404  28.897  1.00  0.00     0.014 A 
ATOM     35  C   UNL A   1      34.388  33.398  30.502  1.00  0.00     0.014 A 
ATOM     36  C   UNL A   1      36.933  33.584  29.366  1.00  0.00     0.010 A 
ATOM     37  C   UNL A   1      35.431  32.638  31.017  1.00  0.00     0.010 A 
ATOM     38  C   UNL A   1      36.712  32.724  30.454  1.00  0.00    -0.014 A 
BRANCH  38  39
ATOM     39  C   UNL A   1      37.812  31.911  31.029  1.00  0.00     0.031 A 
ATOM     40  C   UNL A   1      38.316  32.197  32.415  1.00  0.00     0.074 A 
ATOM     41  C   UNL A   1      38.403  30.968  30.272  1.00  0.00     0.049 A 
ATOM     42  N   UNL A   1      39.321  31.658  33.056  1.00  0.00    -0.248 NA
ATOM     43  C   UNL A   1      37.613  33.246  33.170  1.00  0.00     0.031 C 
ATOM     44  C   UNL A   1      38.028  30.626  28.899  1.00  0.00     0.029 A 
ATOM     45  N   UNL A   1      39.455  30.131  30.546  1.00  0.00    -0.354 N 
ATOM     46  C   UNL A   1      39.378  32.307  34.282  1.00  0.00     0.074 A 
ATOM     47  C   UNL A   1      38.343  33.318  34.273  1.00  0.00     0.031 C 
ATOM     48  C   UNL A   1      38.822  29.636  28.459  1.00  0.00     0.029 A 
ATOM     49  C   UNL A   1      39.790  29.307  29.500  1.00  0.00     0.049 A 
ATOM     50  H   UNL A   1      39.927  30.123  31.410  1.00  0.00     0.167 HD
ATOM     51  C   UNL A   1      40.201  32.065  35.329  1.00  0.00     0.037 A 
ATOM     52  C   UNL A   1      40.776  28.396  29.388  1.00  0.00     0.037 A 
ATOM     53  C   UNL A   1      41.222  31.051  35.335  1.00  0.00     0.049 A 
ATOM     54  C   UNL A   1      41.703  28.174  30.550  1.00  0.00     0.074 A 
ATOM     55  C   UNL A   1      42.077  30.693  36.363  1.00  0.00     0.029 A 
ATOM     56  N   UNL A   1      41.531  30.235  34.256  1.00  0.00    -0.354 N 
ATOM     57  N   UNL A   1      41.705  28.750  31.728  1.00  0.00    -0.248 NA
ATOM     58  C   UNL A   1      42.764  27.174  30.368  1.00  0.00     0.031 C 
ATOM     59  C   UNL A   1      42.939  29.699  35.888  1.00  0.00     0.029 A 
ATOM     60  C   UNL A   1      42.584  29.396  34.583  1.00  0.00     0.049 A 
ATOM     61  H   UNL A   1      41.071  30.251  33.386  1.00  0.00     0.167 HD
ATOM     62  C   UNL A   1      42.745  28.163  32.437  1.00  0.00     0.074 A 
ATOM     63  C   UNL A   1      43.343  27.177  31.561  1.00  0.00     0.031 C 
ATOM     64  C   UNL A   1      43.166  28.416  33.701  1.00  0.00     0.037 A 
BRANCH  51  65
ATOM     65  C   UNL A   1      40.033  32.919  36.553  1.00  0.00     0.057 A 
ATOM     66  C   UNL A   1      39.063  32.634  37.526  1.00  0.00     0.134 A 
ATOM     67  C   UNL A   1      40.865  34.023  36.779  1.00  0.00     0.134 A 
ATOM     68  F   UNL A   1      38.226  31.598  37.369  1.00  0.00    -0.206 F 
ATOM     69  C   UNL A   1      38.908  33.434  38.660  1.00  0.00     0.040 A 
ATOM     70  C   UNL A   1      40.739  34.812  37.923  1.00  0.00     0.040 A 
ATOM     71  F   UNL A   1      41.818  34.349  35.894  1.00  0.00    -0.206 F 
ATOM     72  C   UNL A   1      39.753  34.523  38.864  1.00  0.00     0.006 A 
ENDBRANCH  51  65
BRANCH  52  73
ATOM     73  C   UNL A   1      40.928  27.615  28.134  1.00  0.00     0.057 A 
ATOM     74  C   UNL A   1      40.306  26.371  27.980  1.00  0.00     0.134 A 
ATOM     75  C   UNL A   1      41.697  28.087  27.063  1.00  0.00     0.134 A 
ATOM     76  F   UNL A   1      39.570  25.857  28.977  1.00  0.00    -0.206 F 
ATOM     77  C   UNL A   1      40.459  25.615  26.817  1.00  0.00     0.040 A 
ATOM     78  C   UNL A   1      41.836  27.354  25.884  1.00  0.00     0.040 A 
ATOM     79  F   UNL A   1      42.312  29.277  27.143  1.00  0.00    -0.206 F 
ATOM     80  C   UNL A   1      41.222  26.110  25.763  1.00  0.00     0.006 A 
ENDBRANCH  52  73
BRANCH  64  81
ATOM     81  C   UNL A   1      44.305  27.591  34.225  1.00  0.00     0.057 A 
ATOM     82  C   UNL A   1      45.635  28.021  34.132  1.00  0.00     0.134 A 
ATOM     83  C   UNL A   1      44.063  26.373  34.874  1.00  0.00     0.134 A 
ATOM     84  F   UNL A   1      45.937  29.171  33.512  1.00  0.00    -0.206 F 
ATOM     85  C   UNL A   1      46.685  27.258  34.648  1.00  0.00     0.040 A 
ATOM     86  C   UNL A   1      45.100  25.617  35.419  1.00  0.00     0.040 A 
ATOM     87  F   UNL A   1      42.811  25.908  35.004  1.00  0.00    -0.206 F 
ATOM     88  C   UNL A   1      46.417  26.057  35.301  1.00  0.00     0.006 A 
ENDBRANCH  64  81
ENDBRANCH  38  39
ENDBRANCH  30  33
ENDBRANCH  28  29
ENDBRANCH  27  28
ENDBRANCH  26  27
ENDBRANCH  25  26
ENDBRANCH   1  25
TORSDOF 17
ENDMDL
MODEL 3
REMARK VINA RESULT:     -10.4      2.846      5.380
REMARK SMILES CC(C)(C)c1ccc(CSc2ccnc(C(=O)NCCCCCCNC(=O)c3ccc(-c4c5nc(c(-c6c(F)cccc6F)c6ccc([nH]6)c(-c6c(F)cccc6F)c6nc(c(-c7c(F)cccc7F)c7ccc4[nH]7)C=C6)C=C5)cc3)c2)cc1
REMARK SMILES IDX 20 1 19 2 18 3 16 4 17 5 15 7 11 8 12 9 82 10 13 11 14 12
REMARK SMILES IDX 10 13 9 14 8 15 5 16 6 17 84 18 7 19 83 20 2 21 1 22 3 23
REMARK SMILES IDX 4 24 21 25 22 26 23 27 24 28 25 29 26 30 27 32 28 33 29 34
REMARK SMILES IDX 81 35 30 36 80 37 31 38 32 39 33 40 74 41 34 42 79 43 73 44
REMARK SMILES IDX 75 45 35 46 78 47 72 48 71 49 36 51 62 52 45 53 61 54 46 55
REMARK SMILES IDX 49 56 60 57 76 58 47 59 48 60 59 62 77 63 50 64 37 65 38 66
REMARK SMILES IDX 43 67 39 68 40 69 42 70 44 71 41 72 63 73 64 74 69 75 65 76
REMARK SMILES IDX 66 77 68 78 70 79 67 80 51 81 52 82 57 83 53 84 54 85 56 86
REMARK SMILES IDX 58 87 55 88
REMARK H PARENT 18 6 25 31 75 50 49 61
REMARK Flexibility Score: inf
ROOT
ATOM      1  C   UNL A   1      34.793  28.883  26.856  1.00  0.00     0.021 C 
ENDROOT
BRANCH   1   2
ATOM      2  C   UNL A   1      33.559  28.665  25.978  1.00  0.00     0.116 C 
BRANCH   2   3
ATOM      3  N   UNL A   1      33.855  29.035  24.609  1.00  0.00    -0.351 N 
ATOM      4  C   UNL A   1      33.646  28.448  23.385  1.00  0.00     0.269 C 
ATOM      5  O   UNL A   1      34.082  29.077  22.416  1.00  0.00    -0.268 OA
ATOM      6  H   UNL A   1      34.309  29.907  24.541  1.00  0.00     0.163 HD
BRANCH   4   7
ATOM      7  C   UNL A   1      32.900  27.157  23.163  1.00  0.00     0.129 A 
ATOM      8  C   UNL A   1      32.725  24.777  22.846  1.00  0.00     0.011 A 
ATOM      9  C   UNL A   1      31.363  24.883  23.099  1.00  0.00     0.035 A 
ATOM     10  C   UNL A   1      33.489  25.948  22.837  1.00  0.00     0.049 A 
ATOM     11  C   UNL A   1      30.822  26.138  23.299  1.00  0.00     0.113 A 
ATOM     12  N   UNL A   1      31.557  27.262  23.352  1.00  0.00    -0.251 NA
BRANCH   8  13
ATOM     13  S   UNL A   1      33.640  23.242  22.705  1.00  0.00    -0.121 SA
BRANCH  13  14
ATOM     14  C   UNL A   1      33.954  22.725  24.434  1.00  0.00     0.110 C 
BRANCH  14  15
ATOM     15  C   UNL A   1      33.928  21.234  24.630  1.00  0.00    -0.038 A 
ATOM     16  C   UNL A   1      33.997  18.401  24.581  1.00  0.00    -0.043 A 
ATOM     17  C   UNL A   1      32.786  19.105  24.441  1.00  0.00     0.004 A 
ATOM     18  C   UNL A   1      35.148  19.149  24.869  1.00  0.00     0.004 A 
ATOM     19  C   UNL A   1      32.749  20.500  24.469  1.00  0.00     0.005 A 
ATOM     20  C   UNL A   1      35.115  20.546  24.906  1.00  0.00     0.005 A 
BRANCH  16  21
ATOM     21  C   UNL A   1      34.024  16.874  24.405  1.00  0.00    -0.013 C 
ATOM     22  C   UNL A   1      34.162  16.545  22.908  1.00  0.00     0.016 C 
ATOM     23  C   UNL A   1      32.757  16.169  24.938  1.00  0.00     0.016 C 
ATOM     24  C   UNL A   1      35.220  16.270  25.178  1.00  0.00     0.016 C 
ENDBRANCH  16  21
ENDBRANCH  14  15
ENDBRANCH  13  14
ENDBRANCH   8  13
ENDBRANCH   4   7
ENDBRANCH   2   3
ENDBRANCH   1   2
BRANCH   1  25
ATOM     25  C   UNL A   1      34.788  30.251  27.554  1.00  0.00     0.002 C 
BRANCH  25  26
ATOM     26  C   UNL A   1      33.422  30.951  27.578  1.00  0.00     0.002 C 
BRANCH  26  27
ATOM     27  C   UNL A   1      33.454  32.429  27.183  1.00  0.00     0.021 C 
BRANCH  27  28
ATOM     28  C   UNL A   1      32.242  33.219  27.667  1.00  0.00     0.116 C 
BRANCH  28  29
ATOM     29  N   UNL A   1      32.591  34.600  27.960  1.00  0.00    -0.352 N 
ATOM     30  C   UNL A   1      33.577  35.091  28.779  1.00  0.00     0.251 C 
ATOM     31  H   UNL A   1      32.043  35.280  27.507  1.00  0.00     0.163 HD
ATOM     32  O   UNL A   1      33.572  36.266  29.123  1.00  0.00    -0.269 OA
BRANCH  30  33
ATOM     33  C   UNL A   1      34.641  34.183  29.250  1.00  0.00     0.039 A 
ATOM     34  C   UNL A   1      35.904  34.252  28.662  1.00  0.00     0.014 A 
ATOM     35  C   UNL A   1      34.382  33.266  30.273  1.00  0.00     0.014 A 
ATOM     36  C   UNL A   1      36.932  33.441  29.147  1.00  0.00     0.010 A 
ATOM     37  C   UNL A   1      35.424  32.516  30.804  1.00  0.00     0.010 A 
ATOM     38  C   UNL A   1      36.708  32.596  30.246  1.00  0.00    -0.014 A 
BRANCH  38  39
ATOM     39  C   UNL A   1      37.806  31.794  30.839  1.00  0.00     0.031 A 
ATOM     40  C   UNL A   1      38.284  32.081  32.233  1.00  0.00     0.074 A 
ATOM     41  C   UNL A   1      38.420  30.858  30.090  1.00  0.00     0.049 A 
ATOM     42  N   UNL A   1      39.283  31.552  32.890  1.00  0.00    -0.248 NA
ATOM     43  C   UNL A   1      37.557  33.121  32.979  1.00  0.00     0.031 C 
ATOM     44  C   UNL A   1      38.073  30.515  28.709  1.00  0.00     0.029 A 
ATOM     45  N   UNL A   1      39.477  30.032  30.380  1.00  0.00    -0.354 N 
ATOM     46  C   UNL A   1      39.312  32.198  34.118  1.00  0.00     0.074 A 
ATOM     47  C   UNL A   1      38.267  33.199  34.094  1.00  0.00     0.031 C 
ATOM     48  C   UNL A   1      38.884  29.535  28.281  1.00  0.00     0.029 A 
ATOM     49  C   UNL A   1      39.838  29.214  29.338  1.00  0.00     0.049 A 
ATOM     50  H   UNL A   1      39.933  30.028  31.252  1.00  0.00     0.167 HD
ATOM     51  C   UNL A   1      40.120  31.963  35.179  1.00  0.00     0.037 A 
ATOM     52  C   UNL A   1      40.835  28.315  29.240  1.00  0.00     0.037 A 
ATOM     53  C   UNL A   1      41.151  30.960  35.200  1.00  0.00     0.049 A 
ATOM     54  C   UNL A   1      41.744  28.100  30.418  1.00  0.00     0.074 A 
ATOM     55  C   UNL A   1      41.993  30.608  36.242  1.00  0.00     0.029 A 
ATOM     56  N   UNL A   1      41.488  30.149  34.125  1.00  0.00    -0.354 N 
ATOM     57  N   UNL A   1      41.721  28.672  31.598  1.00  0.00    -0.248 NA
ATOM     58  C   UNL A   1      42.820  27.111  30.252  1.00  0.00     0.031 C 
ATOM     59  C   UNL A   1      42.873  29.625  35.780  1.00  0.00     0.029 A 
ATOM     60  C   UNL A   1      42.543  29.322  34.469  1.00  0.00     0.049 A 
ATOM     61  H   UNL A   1      41.042  30.163  33.247  1.00  0.00     0.167 HD
ATOM     62  C   UNL A   1      42.754  28.095  32.323  1.00  0.00     0.074 A 
ATOM     63  C   UNL A   1      43.378  27.117  31.455  1.00  0.00     0.031 C 
ATOM     64  C   UNL A   1      43.151  28.350  33.594  1.00  0.00     0.037 A 
BRANCH  51  65
ATOM     65  C   UNL A   1      39.921  32.812  36.402  1.00  0.00     0.057 A 
ATOM     66  C   UNL A   1      38.952  32.503  37.368  1.00  0.00     0.134 A 
ATOM     67  C   UNL A   1      40.724  33.936  36.634  1.00  0.00     0.134 A 
ATOM     68  F   UNL A   1      38.142  31.447  37.204  1.00  0.00    -0.206 F 
ATOM     69  C   UNL A   1      38.768  33.299  38.500  1.00  0.00     0.040 A 
ATOM     70  C   UNL A   1      40.570  34.722  37.777  1.00  0.00     0.040 A 
ATOM     71  F   UNL A   1      41.675  34.286  35.755  1.00  0.00    -0.206 F 
ATOM     72  C   UNL A   1      39.585  34.408  38.711  1.00  0.00     0.006 A 
ENDBRANCH  51  65
BRANCH  52  73
ATOM     73  C   UNL A   1      41.017  27.538  27.988  1.00  0.00     0.057 A 
ATOM     74  C   UNL A   1      40.366  26.314  27.798  1.00  0.00     0.134 A 
ATOM     75  C   UNL A   1      41.845  27.994  26.954  1.00  0.00     0.134 A 
ATOM     76  F   UNL A   1      39.573  25.816  28.758  1.00  0.00    -0.206 F 
ATOM     77  C   UNL A   1      40.545  25.562  26.636  1.00  0.00     0.040 A 
ATOM     78  C   UNL A   1      42.013  27.265  25.776  1.00  0.00     0.040 A 
ATOM     79  F   UNL A   1      42.492  29.164  27.070  1.00  0.00    -0.206 F 
ATOM     80  C   UNL A   1      41.367  26.041  25.619  1.00  0.00     0.006 A 
ENDBRANCH  52  73
BRANCH  64  81
ATOM     81  C   UNL A   1      44.290  27.536  34.136  1.00  0.00     0.057 A 
ATOM     82  C   UNL A   1      44.089  26.286  34.735  1.00  0.00     0.134 A 
ATOM     83  C   UNL A   1      45.610  27.990  34.014  1.00  0.00     0.134 A 
ATOM     84  F   UNL A   1      42.849  25.800  34.895  1.00  0.00    -0.206 F 
ATOM     85  C   UNL A   1      45.159  25.526  35.212  1.00  0.00     0.040 A 
ATOM     86  C   UNL A   1      46.689  27.226  34.460  1.00  0.00     0.040 A 
ATOM     87  F   UNL A   1      45.873  29.175  33.443  1.00  0.00    -0.206 F 
ATOM     88  C   UNL A   1      46.463  25.993  35.067  1.00  0.00     0.006 A 
ENDBRANCH  64  81
ENDBRANCH  38  39
ENDBRANCH  30  33
ENDBRANCH  28  29
ENDBRANCH  27  28
ENDBRANCH  26  27
ENDBRANCH  25  26
ENDBRANCH   1  25
TORSDOF 17
ENDMDL
