MODEL 1
REMARK VINA RESULT:     -11.0      0.000      0.000
REMARK SMILES Cc1cc(I)cc([C@H]([NH3+])C(=O)NCCCCCCNC(=O)c2ccc(-c3c4nc(c(-c5c(F)cccc5F)c5ccc([nH]5)c(-c5c(F)cccc5F)c5nc(c(-c6c(F)cccc6F)c6ccc3[nH]6)C=C5)C=C4)cc2)c1O
REMARK SMILES IDX 15 1 14 2 13 3 12 4 10 5 11 6 8 8 7 9 1 10 2 11 3 12 76 13
REMARK SMILES IDX 4 14 5 15 6 16 77 17 9 19 16 23 17 24 18 25 19 26 20 27
REMARK SMILES IDX 21 29 22 30 23 31 75 32 24 33 74 34 25 35 26 36 27 37 68 38
REMARK SMILES IDX 28 39 73 40 67 41 69 42 29 43 72 44 66 45 65 46 30 48 56 49
REMARK SMILES IDX 39 50 55 51 40 52 43 53 54 54 70 55 41 56 42 57 53 59 71 60
REMARK SMILES IDX 44 61 31 62 32 63 37 64 33 65 34 66 36 67 38 68 35 69 57 70
REMARK SMILES IDX 58 71 63 72 59 73 60 74 62 75 64 76 61 77 45 78 46 79 51 80
REMARK SMILES IDX 47 81 48 82 50 83 52 84 49 85
REMARK H PARENT 12 7 77 18 9 20 9 21 9 22 19 28 69 47 43 58
REMARK Flexibility Score: inf
ROOT
ATOM      1  C   UNL A   1      35.931  21.901  24.337  1.00  0.00     0.002 C 
ENDROOT
BRANCH   1   2
ATOM      2  C   UNL A   1      34.417  21.871  24.102  1.00  0.00     0.021 C 
BRANCH   2   3
ATOM      3  C   UNL A   1      33.671  23.100  24.610  1.00  0.00     0.116 C 
BRANCH   3   4
ATOM      4  N   UNL A   1      33.411  23.024  26.037  1.00  0.00    -0.351 N 
ATOM      5  C   UNL A   1      32.267  23.357  26.714  1.00  0.00     0.283 C 
ATOM      6  O   UNL A   1      32.244  23.176  27.935  1.00  0.00    -0.268 OA
ATOM      7  H   UNL A   1      34.154  22.691  26.590  1.00  0.00     0.163 HD
BRANCH   5   8
ATOM      8  C   UNL A   1      31.039  23.944  25.962  1.00  0.00     0.306 C 
BRANCH   8   9
ATOM      9  C   UNL A   1      31.187  25.416  25.562  1.00  0.00     0.062 A 
ATOM     10  C   UNL A   1      29.660  28.029  23.178  1.00  0.00     0.048 C 
ATOM     11  C   UNL A   1      30.517  27.370  24.222  1.00  0.00    -0.008 A 
ATOM     12  C   UNL A   1      31.453  28.154  24.912  1.00  0.00     0.022 A 
ATOM     13  C   UNL A   1      30.402  26.006  24.550  1.00  0.00     0.128 A 
ATOM     14  C   UNL A   1      32.280  27.578  25.870  1.00  0.00     0.014 A 
ATOM     15  I   UNL A   1      33.674  28.749  26.876  1.00  0.00    -0.044 I 
ATOM     16  C   UNL A   1      32.169  26.222  26.175  1.00  0.00     0.029 A 
BRANCH  13  17
ATOM     17  O   UNL A   1      29.518  25.201  23.877  1.00  0.00    -0.507 OA
ATOM     18  H   UNL A   1      29.001  25.553  23.179  1.00  0.00     0.293 HD
ENDBRANCH  13  17
ENDBRANCH   8   9
BRANCH   8  19
ATOM     19  N   UNL A   1      29.841  23.657  26.788  1.00  0.00    -0.343 N 
ATOM     20  H   UNL A   1      29.000  23.897  26.264  1.00  0.00     0.345 HD
ATOM     21  H   UNL A   1      29.877  24.211  27.644  1.00  0.00     0.345 HD
ATOM     22  H   UNL A   1      29.821  22.665  27.025  1.00  0.00     0.345 HD
ENDBRANCH   8  19
ENDBRANCH   5   8
ENDBRANCH   3   4
ENDBRANCH   2   3
ENDBRANCH   1   2
BRANCH   1  23
ATOM     23  C   UNL A   1      36.458  20.905  25.374  1.00  0.00     0.002 C 
BRANCH  23  24
ATOM     24  C   UNL A   1      37.686  20.098  24.949  1.00  0.00     0.021 C 
BRANCH  24  25
ATOM     25  C   UNL A   1      38.952  20.372  25.752  1.00  0.00     0.116 C 
BRANCH  25  26
ATOM     26  N   UNL A   1      39.882  19.253  25.751  1.00  0.00    -0.352 N 
ATOM     27  C   UNL A   1      41.239  19.258  25.980  1.00  0.00     0.251 C 
ATOM     28  H   UNL A   1      39.486  18.372  25.561  1.00  0.00     0.163 HD
ATOM     29  O   UNL A   1      41.902  18.239  25.823  1.00  0.00    -0.269 OA
BRANCH  27  30
ATOM     30  C   UNL A   1      41.902  20.520  26.374  1.00  0.00     0.039 A 
ATOM     31  C   UNL A   1      42.030  20.864  27.722  1.00  0.00     0.014 A 
ATOM     32  C   UNL A   1      42.357  21.388  25.379  1.00  0.00     0.014 A 
ATOM     33  C   UNL A   1      42.453  22.143  28.067  1.00  0.00     0.010 A 
ATOM     34  C   UNL A   1      42.856  22.645  25.732  1.00  0.00     0.010 A 
ATOM     35  C   UNL A   1      42.856  23.053  27.076  1.00  0.00    -0.014 A 
BRANCH  35  36
ATOM     36  C   UNL A   1      43.243  24.433  27.466  1.00  0.00     0.031 A 
ATOM     37  C   UNL A   1      44.678  24.882  27.374  1.00  0.00     0.074 A 
ATOM     38  C   UNL A   1      42.290  25.305  27.846  1.00  0.00     0.049 A 
ATOM     39  N   UNL A   1      45.197  26.053  27.651  1.00  0.00    -0.248 NA
ATOM     40  C   UNL A   1      45.660  23.889  26.912  1.00  0.00     0.031 C 
ATOM     41  C   UNL A   1      40.863  24.997  27.961  1.00  0.00     0.029 A 
ATOM     42  N   UNL A   1      42.374  26.631  28.183  1.00  0.00    -0.354 N 
ATOM     43  C   UNL A   1      46.562  25.931  27.416  1.00  0.00     0.074 A 
ATOM     44  C   UNL A   1      46.797  24.564  27.002  1.00  0.00     0.031 C 
ATOM     45  C   UNL A   1      40.200  26.115  28.294  1.00  0.00     0.029 A 
ATOM     46  C   UNL A   1      41.158  27.200  28.472  1.00  0.00     0.049 A 
ATOM     47  H   UNL A   1      43.223  27.128  28.216  1.00  0.00     0.167 HD
ATOM     48  C   UNL A   1      47.530  26.873  27.523  1.00  0.00     0.037 A 
ATOM     49  C   UNL A   1      40.850  28.454  28.850  1.00  0.00     0.037 A 
ATOM     50  C   UNL A   1      47.296  28.238  27.918  1.00  0.00     0.049 A 
ATOM     51  C   UNL A   1      41.949  29.463  29.011  1.00  0.00     0.074 A 
ATOM     52  C   UNL A   1      48.210  29.272  28.036  1.00  0.00     0.029 A 
ATOM     53  N   UNL A   1      46.059  28.760  28.261  1.00  0.00    -0.354 N 
ATOM     54  N   UNL A   1      43.232  29.335  28.776  1.00  0.00    -0.248 NA
ATOM     55  C   UNL A   1      41.556  30.791  29.501  1.00  0.00     0.031 C 
ATOM     56  C   UNL A   1      47.529  30.410  28.485  1.00  0.00     0.029 A 
ATOM     57  C   UNL A   1      46.186  30.094  28.610  1.00  0.00     0.049 A 
ATOM     58  H   UNL A   1      45.213  28.255  28.257  1.00  0.00     0.167 HD
ATOM     59  C   UNL A   1      43.797  30.566  29.076  1.00  0.00     0.074 A 
ATOM     60  C   UNL A   1      42.714  31.435  29.488  1.00  0.00     0.031 C 
ATOM     61  C   UNL A   1      45.098  30.943  29.021  1.00  0.00     0.037 A 
BRANCH  48  62
ATOM     62  C   UNL A   1      48.938  26.451  27.223  1.00  0.00     0.057 A 
ATOM     63  C   UNL A   1      49.437  26.504  25.915  1.00  0.00     0.134 A 
ATOM     64  C   UNL A   1      49.796  25.970  28.221  1.00  0.00     0.134 A 
ATOM     65  F   UNL A   1      48.667  26.948  24.910  1.00  0.00    -0.206 F 
ATOM     66  C   UNL A   1      50.737  26.094  25.611  1.00  0.00     0.040 A 
ATOM     67  C   UNL A   1      51.106  25.580  27.933  1.00  0.00     0.040 A 
ATOM     68  F   UNL A   1      49.385  25.907  29.497  1.00  0.00    -0.206 F 
ATOM     69  C   UNL A   1      51.578  25.637  26.624  1.00  0.00     0.006 A 
ENDBRANCH  48  62
BRANCH  49  70
ATOM     70  C   UNL A   1      39.438  28.825  29.114  1.00  0.00     0.057 A 
ATOM     71  C   UNL A   1      38.626  29.364  28.108  1.00  0.00     0.134 A 
ATOM     72  C   UNL A   1      38.866  28.636  30.376  1.00  0.00     0.134 A 
ATOM     73  F   UNL A   1      39.118  29.573  26.879  1.00  0.00    -0.206 F 
ATOM     74  C   UNL A   1      37.297  29.710  28.352  1.00  0.00     0.040 A 
ATOM     75  C   UNL A   1      37.531  28.953  30.627  1.00  0.00     0.040 A 
ATOM     76  F   UNL A   1      39.590  28.104  31.372  1.00  0.00    -0.206 F 
ATOM     77  C   UNL A   1      36.744  29.497  29.613  1.00  0.00     0.006 A 
ENDBRANCH  49  70
BRANCH  61  78
ATOM     78  C   UNL A   1      45.406  32.362  29.397  1.00  0.00     0.057 A 
ATOM     79  C   UNL A   1      45.358  33.382  28.439  1.00  0.00     0.134 A 
ATOM     80  C   UNL A   1      45.754  32.717  30.707  1.00  0.00     0.134 A 
ATOM     81  F   UNL A   1      45.036  33.107  27.166  1.00  0.00    -0.206 F 
ATOM     82  C   UNL A   1      45.642  34.707  28.771  1.00  0.00     0.040 A 
ATOM     83  C   UNL A   1      46.017  34.043  31.056  1.00  0.00     0.040 A 
ATOM     84  F   UNL A   1      45.801  31.788  31.673  1.00  0.00    -0.206 F 
ATOM     85  C   UNL A   1      45.965  35.040  30.085  1.00  0.00     0.006 A 
ENDBRANCH  61  78
ENDBRANCH  35  36
ENDBRANCH  27  30
ENDBRANCH  25  26
ENDBRANCH  24  25
ENDBRANCH  23  24
ENDBRANCH   1  23
TORSDOF 16
ENDMDL
MODEL 2
REMARK VINA RESULT:     -11.0      1.270      1.777
REMARK SMILES Cc1cc(I)cc([C@H]([NH3+])C(=O)NCCCCCCNC(=O)c2ccc(-c3c4nc(c(-c5c(F)cccc5F)c5ccc([nH]5)c(-c5c(F)cccc5F)c5nc(c(-c6c(F)cccc6F)c6ccc3[nH]6)C=C5)C=C4)cc2)c1O
REMARK SMILES IDX 15 1 14 2 13 3 12 4 10 5 11 6 8 8 7 9 1 10 2 11 3 12 76 13
REMARK SMILES IDX 4 14 5 15 6 16 77 17 9 19 16 23 17 24 18 25 19 26 20 27
REMARK SMILES IDX 21 29 22 30 23 31 75 32 24 33 74 34 25 35 26 36 27 37 68 38
REMARK SMILES IDX 28 39 73 40 67 41 69 42 29 43 72 44 66 45 65 46 30 48 56 49
REMARK SMILES IDX 39 50 55 51 40 52 43 53 54 54 70 55 41 56 42 57 53 59 71 60
REMARK SMILES IDX 44 61 31 62 32 63 37 64 33 65 34 66 36 67 38 68 35 69 57 70
REMARK SMILES IDX 58 71 63 72 59 73 60 74 62 75 64 76 61 77 45 78 46 79 51 80
REMARK SMILES IDX 47 81 48 82 50 83 52 84 49 85
REMARK H PARENT 12 7 77 18 9 20 9 21 9 22 19 28 69 47 43 58
REMARK Flexibility Score: inf
ROOT
ATOM      1  C   UNL A   1      36.087  22.035  24.349  1.00  0.00     0.002 C 
ENDROOT
BRANCH   1   2
ATOM      2  C   UNL A   1      34.582  22.288  24.218  1.00  0.00     0.021 C 
BRANCH   2   3
ATOM      3  C   UNL A   1      34.195  23.250  23.099  1.00  0.00     0.116 C 
BRANCH   3   4
ATOM      4  N   UNL A   1      32.762  23.486  23.059  1.00  0.00    -0.351 N 
ATOM      5  C   UNL A   1      32.098  24.648  22.768  1.00  0.00     0.283 C 
ATOM      6  O   UNL A   1      30.863  24.620  22.751  1.00  0.00    -0.268 OA
ATOM      7  H   UNL A   1      32.195  22.709  23.268  1.00  0.00     0.163 HD
BRANCH   5   8
ATOM      8  C   UNL A   1      32.879  25.959  22.469  1.00  0.00     0.306 C 
BRANCH   8   9
ATOM      9  C   UNL A   1      32.370  27.186  23.234  1.00  0.00     0.062 A 
ATOM     10  C   UNL A   1      29.560  29.819  23.123  1.00  0.00     0.048 C 
ATOM     11  C   UNL A   1      30.772  29.034  23.539  1.00  0.00    -0.008 A 
ATOM     12  C   UNL A   1      31.433  29.400  24.721  1.00  0.00     0.022 A 
ATOM     13  C   UNL A   1      31.255  27.934  22.804  1.00  0.00     0.128 A 
ATOM     14  C   UNL A   1      32.570  28.713  25.130  1.00  0.00     0.014 A 
ATOM     15  I   UNL A   1      33.550  29.275  26.876  1.00  0.00    -0.044 I 
ATOM     16  C   UNL A   1      33.051  27.637  24.385  1.00  0.00     0.029 A 
BRANCH  13  17
ATOM     17  O   UNL A   1      30.653  27.565  21.628  1.00  0.00    -0.507 OA
ATOM     18  H   UNL A   1      30.854  26.738  21.239  1.00  0.00     0.293 HD
ENDBRANCH  13  17
ENDBRANCH   8   9
BRANCH   8  19
ATOM     19  N   UNL A   1      32.903  26.129  20.996  1.00  0.00    -0.343 N 
ATOM     20  H   UNL A   1      33.305  27.037  20.764  1.00  0.00     0.345 HD
ATOM     21  H   UNL A   1      31.952  26.076  20.632  1.00  0.00     0.345 HD
ATOM     22  H   UNL A   1      33.469  25.391  20.578  1.00  0.00     0.345 HD
ENDBRANCH   8  19
ENDBRANCH   5   8
ENDBRANCH   3   4
ENDBRANCH   2   3
ENDBRANCH   1   2
BRANCH   1  23
ATOM     23  C   UNL A   1      36.481  20.810  25.180  1.00  0.00     0.002 C 
BRANCH  23  24
ATOM     24  C   UNL A   1      37.791  20.132  24.775  1.00  0.00     0.021 C 
BRANCH  24  25
ATOM     25  C   UNL A   1      38.946  20.319  25.752  1.00  0.00     0.116 C 
BRANCH  25  26
ATOM     26  N   UNL A   1      39.880  19.203  25.751  1.00  0.00    -0.352 N 
ATOM     27  C   UNL A   1      41.236  19.212  25.982  1.00  0.00     0.251 C 
ATOM     28  H   UNL A   1      39.488  18.321  25.558  1.00  0.00     0.163 HD
ATOM     29  O   UNL A   1      41.903  18.195  25.826  1.00  0.00    -0.269 OA
BRANCH  27  30
ATOM     30  C   UNL A   1      41.895  20.475  26.380  1.00  0.00     0.039 A 
ATOM     31  C   UNL A   1      42.004  20.825  27.728  1.00  0.00     0.014 A 
ATOM     32  C   UNL A   1      42.363  21.339  25.388  1.00  0.00     0.014 A 
ATOM     33  C   UNL A   1      42.423  22.106  28.073  1.00  0.00     0.010 A 
ATOM     34  C   UNL A   1      42.858  22.598  25.742  1.00  0.00     0.010 A 
ATOM     35  C   UNL A   1      42.840  23.011  27.084  1.00  0.00    -0.014 A 
BRANCH  35  36
ATOM     36  C   UNL A   1      43.222  24.393  27.473  1.00  0.00     0.031 A 
ATOM     37  C   UNL A   1      44.655  24.847  27.382  1.00  0.00     0.074 A 
ATOM     38  C   UNL A   1      42.266  25.262  27.851  1.00  0.00     0.049 A 
ATOM     39  N   UNL A   1      45.170  26.020  27.658  1.00  0.00    -0.248 NA
ATOM     40  C   UNL A   1      45.641  23.856  26.921  1.00  0.00     0.031 C 
ATOM     41  C   UNL A   1      40.840  24.950  27.965  1.00  0.00     0.029 A 
ATOM     42  N   UNL A   1      42.345  26.589  28.187  1.00  0.00    -0.354 N 
ATOM     43  C   UNL A   1      46.536  25.902  27.425  1.00  0.00     0.074 A 
ATOM     44  C   UNL A   1      46.776  24.535  27.013  1.00  0.00     0.031 C 
ATOM     45  C   UNL A   1      40.172  26.066  28.297  1.00  0.00     0.029 A 
ATOM     46  C   UNL A   1      41.126  27.154  28.474  1.00  0.00     0.049 A 
ATOM     47  H   UNL A   1      43.193  27.088  28.220  1.00  0.00     0.167 HD
ATOM     48  C   UNL A   1      47.501  26.847  27.532  1.00  0.00     0.037 A 
ATOM     49  C   UNL A   1      40.814  28.408  28.851  1.00  0.00     0.037 A 
ATOM     50  C   UNL A   1      47.262  28.212  27.925  1.00  0.00     0.049 A 
ATOM     51  C   UNL A   1      41.909  29.421  29.012  1.00  0.00     0.074 A 
ATOM     52  C   UNL A   1      48.172  29.249  28.044  1.00  0.00     0.029 A 
ATOM     53  N   UNL A   1      46.022  28.730  28.267  1.00  0.00    -0.354 N 
ATOM     54  N   UNL A   1      43.194  29.296  28.778  1.00  0.00    -0.248 NA
ATOM     55  C   UNL A   1      41.512  30.748  29.501  1.00  0.00     0.031 C 
ATOM     56  C   UNL A   1      47.487  30.385  28.491  1.00  0.00     0.029 A 
ATOM     57  C   UNL A   1      46.145  30.065  28.615  1.00  0.00     0.049 A 
ATOM     58  H   UNL A   1      45.178  28.223  28.263  1.00  0.00     0.167 HD
ATOM     59  C   UNL A   1      43.754  30.530  29.079  1.00  0.00     0.074 A 
ATOM     60  C   UNL A   1      42.668  31.396  29.488  1.00  0.00     0.031 C 
ATOM     61  C   UNL A   1      45.054  30.911  29.024  1.00  0.00     0.037 A 
BRANCH  48  62
ATOM     62  C   UNL A   1      48.911  26.430  27.234  1.00  0.00     0.057 A 
ATOM     63  C   UNL A   1      49.407  26.471  25.924  1.00  0.00     0.134 A 
ATOM     64  C   UNL A   1      49.773  25.963  28.235  1.00  0.00     0.134 A 
ATOM     65  F   UNL A   1      48.632  26.901  24.916  1.00  0.00    -0.206 F 
ATOM     66  C   UNL A   1      50.709  26.066  25.623  1.00  0.00     0.040 A 
ATOM     67  C   UNL A   1      51.084  25.578  27.949  1.00  0.00     0.040 A 
ATOM     68  F   UNL A   1      49.365  25.911  29.513  1.00  0.00    -0.206 F 
ATOM     69  C   UNL A   1      51.554  25.624  26.638  1.00  0.00     0.006 A 
ENDBRANCH  48  62
BRANCH  49  70
ATOM     70  C   UNL A   1      39.401  28.774  29.113  1.00  0.00     0.057 A 
ATOM     71  C   UNL A   1      38.827  28.606  30.379  1.00  0.00     0.134 A 
ATOM     72  C   UNL A   1      38.596  29.314  28.103  1.00  0.00     0.134 A 
ATOM     73  F   UNL A   1      39.546  28.091  31.386  1.00  0.00    -0.206 F 
ATOM     74  C   UNL A   1      37.499  28.953  30.629  1.00  0.00     0.040 A 
ATOM     75  C   UNL A   1      37.275  29.690  28.347  1.00  0.00     0.040 A 
ATOM     76  F   UNL A   1      39.098  29.517  26.876  1.00  0.00    -0.206 F 
ATOM     77  C   UNL A   1      36.722  29.504  29.613  1.00  0.00     0.006 A 
ENDBRANCH  49  70
BRANCH  61  78
ATOM     78  C   UNL A   1      45.357  32.331  29.400  1.00  0.00     0.057 A 
ATOM     79  C   UNL A   1      45.313  33.348  28.439  1.00  0.00     0.134 A 
ATOM     80  C   UNL A   1      45.696  32.689  30.710  1.00  0.00     0.134 A 
ATOM     81  F   UNL A   1      45.000  33.070  27.165  1.00  0.00    -0.206 F 
ATOM     82  C   UNL A   1      45.593  34.675  28.770  1.00  0.00     0.040 A 
ATOM     83  C   UNL A   1      45.955  34.016  31.058  1.00  0.00     0.040 A 
ATOM     84  F   UNL A   1      45.738  31.762  31.679  1.00  0.00    -0.206 F 
ATOM     85  C   UNL A   1      45.907  35.012  30.085  1.00  0.00     0.006 A 
ENDBRANCH  61  78
ENDBRANCH  35  36
ENDBRANCH  27  30
ENDBRANCH  25  26
ENDBRANCH  24  25
ENDBRANCH  23  24
ENDBRANCH   1  23
TORSDOF 16
ENDMDL
MODEL 3
REMARK VINA RESULT:     -10.8      4.827      9.786
REMARK SMILES Cc1cc(I)cc([C@H]([NH3+])C(=O)NCCCCCCNC(=O)c2ccc(-c3c4nc(c(-c5c(F)cccc5F)c5ccc([nH]5)c(-c5c(F)cccc5F)c5nc(c(-c6c(F)cccc6F)c6ccc3[nH]6)C=C5)C=C4)cc2)c1O
REMARK SMILES IDX 15 1 14 2 13 3 12 4 10 5 11 6 8 8 7 9 1 10 2 11 3 12 76 13
REMARK SMILES IDX 4 14 5 15 6 16 77 17 9 19 16 23 17 24 18 25 19 26 20 27
REMARK SMILES IDX 21 29 22 30 23 31 75 32 24 33 74 34 25 35 26 36 27 37 68 38
REMARK SMILES IDX 28 39 73 40 67 41 69 42 29 43 72 44 66 45 65 46 30 48 56 49
REMARK SMILES IDX 39 50 55 51 40 52 43 53 54 54 70 55 41 56 42 57 53 59 71 60
REMARK SMILES IDX 44 61 31 62 32 63 37 64 33 65 34 66 36 67 38 68 35 69 57 70
REMARK SMILES IDX 58 71 63 72 59 73 60 74 62 75 64 76 61 77 45 78 46 79 51 80
REMARK SMILES IDX 47 81 48 82 50 83 52 84 49 85
REMARK H PARENT 12 7 77 18 9 20 9 21 9 22 19 28 69 47 43 58
REMARK Flexibility Score: inf
ROOT
ATOM      1  C   UNL A   1      31.804  29.037  26.778  1.00  0.00     0.002 C 
ENDROOT
BRANCH   1   2
ATOM      2  C   UNL A   1      32.653  27.839  26.339  1.00  0.00     0.021 C 
BRANCH   2   3
ATOM      3  C   UNL A   1      32.167  27.149  25.068  1.00  0.00     0.116 C 
BRANCH   3   4
ATOM      4  N   UNL A   1      33.012  27.456  23.928  1.00  0.00    -0.351 N 
ATOM      5  C   UNL A   1      33.145  26.761  22.754  1.00  0.00     0.283 C 
ATOM      6  O   UNL A   1      33.897  27.223  21.891  1.00  0.00    -0.268 OA
ATOM      7  H   UNL A   1      33.561  28.268  24.009  1.00  0.00     0.163 HD
BRANCH   5   8
ATOM      8  C   UNL A   1      32.370  25.433  22.523  1.00  0.00     0.306 C 
BRANCH   8   9
ATOM      9  C   UNL A   1      33.033  24.198  23.143  1.00  0.00     0.062 A 
ATOM     10  C   UNL A   1      32.423  20.431  23.672  1.00  0.00     0.048 C 
ATOM     11  C   UNL A   1      33.049  21.797  23.690  1.00  0.00    -0.008 A 
ATOM     12  C   UNL A   1      34.331  21.939  24.240  1.00  0.00     0.022 A 
ATOM     13  C   UNL A   1      32.411  22.933  23.155  1.00  0.00     0.128 A 
ATOM     14  C   UNL A   1      34.936  23.189  24.294  1.00  0.00     0.014 A 
ATOM     15  I   UNL A   1      36.832  23.389  25.127  1.00  0.00    -0.044 I 
ATOM     16  C   UNL A   1      34.289  24.310  23.777  1.00  0.00     0.029 A 
BRANCH  13  17
ATOM     17  O   UNL A   1      31.145  22.839  22.634  1.00  0.00    -0.507 OA
ATOM     18  H   UNL A   1      31.009  22.933  21.712  1.00  0.00     0.293 HD
ENDBRANCH  13  17
ENDBRANCH   8   9
BRANCH   8  19
ATOM     19  N   UNL A   1      32.120  25.319  21.065  1.00  0.00    -0.343 N 
ATOM     20  H   UNL A   1      31.118  25.234  20.896  1.00  0.00     0.345 HD
ATOM     21  H   UNL A   1      32.597  24.494  20.701  1.00  0.00     0.345 HD
ATOM     22  H   UNL A   1      32.474  26.152  20.594  1.00  0.00     0.345 HD
ENDBRANCH   8  19
ENDBRANCH   5   8
ENDBRANCH   3   4
ENDBRANCH   2   3
ENDBRANCH   1   2
BRANCH   1  23
ATOM     23  C   UNL A   1      31.990  30.316  25.956  1.00  0.00     0.002 C 
BRANCH  23  24
ATOM     24  C   UNL A   1      31.590  31.615  26.659  1.00  0.00     0.021 C 
BRANCH  24  25
ATOM     25  C   UNL A   1      32.741  32.390  27.290  1.00  0.00     0.116 C 
BRANCH  25  26
ATOM     26  N   UNL A   1      32.391  33.764  27.618  1.00  0.00    -0.352 N 
ATOM     27  C   UNL A   1      33.035  34.642  28.458  1.00  0.00     0.251 C 
ATOM     28  H   UNL A   1      31.583  34.113  27.178  1.00  0.00     0.163 HD
ATOM     29  O   UNL A   1      32.540  35.733  28.720  1.00  0.00    -0.269 OA
BRANCH  27  30
ATOM     30  C   UNL A   1      34.314  34.240  29.083  1.00  0.00     0.039 A 
ATOM     31  C   UNL A   1      35.523  34.425  28.408  1.00  0.00     0.014 A 
ATOM     32  C   UNL A   1      34.294  33.627  30.338  1.00  0.00     0.014 A 
ATOM     33  C   UNL A   1      36.684  33.847  28.909  1.00  0.00     0.010 A 
ATOM     34  C   UNL A   1      35.478  33.115  30.877  1.00  0.00     0.010 A 
ATOM     35  C   UNL A   1      36.672  33.172  30.141  1.00  0.00    -0.014 A 
BRANCH  35  36
ATOM     36  C   UNL A   1      37.910  32.508  30.623  1.00  0.00     0.031 A 
ATOM     37  C   UNL A   1      38.637  33.028  31.836  1.00  0.00     0.074 A 
ATOM     38  C   UNL A   1      38.350  31.397  30.003  1.00  0.00     0.049 A 
ATOM     39  N   UNL A   1      39.719  32.566  32.412  1.00  0.00    -0.248 NA
ATOM     40  C   UNL A   1      38.078  34.223  32.488  1.00  0.00     0.031 C 
ATOM     41  C   UNL A   1      37.727  30.785  28.828  1.00  0.00     0.029 A 
ATOM     42  N   UNL A   1      39.407  30.572  30.287  1.00  0.00    -0.354 N 
ATOM     43  C   UNL A   1      39.979  33.421  33.477  1.00  0.00     0.074 A 
ATOM     44  C   UNL A   1      38.960  34.448  33.451  1.00  0.00     0.031 C 
ATOM     45  C   UNL A   1      38.383  29.656  28.522  1.00  0.00     0.029 A 
ATOM     46  C   UNL A   1      39.505  29.495  29.440  1.00  0.00     0.049 A 
ATOM     47  H   UNL A   1      40.036  30.736  31.027  1.00  0.00     0.167 HD
ATOM     48  C   UNL A   1      40.969  33.351  34.400  1.00  0.00     0.037 A 
ATOM     49  C   UNL A   1      40.405  28.496  29.401  1.00  0.00     0.037 A 
ATOM     50  C   UNL A   1      41.975  32.321  34.439  1.00  0.00     0.049 A 
ATOM     51  C   UNL A   1      41.521  28.473  30.403  1.00  0.00     0.074 A 
ATOM     52  C   UNL A   1      43.006  32.154  35.347  1.00  0.00     0.029 A 
ATOM     53  N   UNL A   1      42.075  31.282  33.526  1.00  0.00    -0.354 N 
ATOM     54  N   UNL A   1      41.748  29.283  31.410  1.00  0.00    -0.248 NA
ATOM     55  C   UNL A   1      42.515  27.401  30.258  1.00  0.00     0.031 C 
ATOM     56  C   UNL A   1      43.752  31.033  34.962  1.00  0.00     0.029 A 
ATOM     57  C   UNL A   1      43.162  30.481  33.837  1.00  0.00     0.049 A 
ATOM     58  H   UNL A   1      41.464  31.135  32.769  1.00  0.00     0.167 HD
ATOM     59  C   UNL A   1      42.900  28.811  32.023  1.00  0.00     0.074 A 
ATOM     60  C   UNL A   1      43.311  27.631  31.291  1.00  0.00     0.031 C 
ATOM     61  C   UNL A   1      43.561  29.313  33.095  1.00  0.00     0.037 A 
BRANCH  48  62
ATOM     62  C   UNL A   1      41.021  34.434  35.438  1.00  0.00     0.057 A 
ATOM     63  C   UNL A   1      40.316  34.305  36.641  1.00  0.00     0.134 A 
ATOM     64  C   UNL A   1      41.747  35.616  35.240  1.00  0.00     0.134 A 
ATOM     65  F   UNL A   1      39.594  33.202  36.893  1.00  0.00    -0.206 F 
ATOM     66  C   UNL A   1      40.333  35.311  37.610  1.00  0.00     0.040 A 
ATOM     67  C   UNL A   1      41.791  36.618  36.211  1.00  0.00     0.040 A 
ATOM     68  F   UNL A   1      42.456  35.797  34.114  1.00  0.00    -0.206 F 
ATOM     69  C   UNL A   1      41.078  36.469  37.399  1.00  0.00     0.006 A 
ENDBRANCH  48  62
BRANCH  49  70
ATOM     70  C   UNL A   1      40.296  27.438  28.367  1.00  0.00     0.057 A 
ATOM     71  C   UNL A   1      40.928  27.565  27.124  1.00  0.00     0.134 A 
ATOM     72  C   UNL A   1      39.565  26.269  28.605  1.00  0.00     0.134 A 
ATOM     73  F   UNL A   1      41.640  28.664  26.835  1.00  0.00    -0.206 F 
ATOM     74  C   UNL A   1      40.830  26.571  26.151  1.00  0.00     0.040 A 
ATOM     75  C   UNL A   1      39.481  25.255  27.651  1.00  0.00     0.040 A 
ATOM     76  F   UNL A   1      38.956  26.083  29.785  1.00  0.00    -0.206 F 
ATOM     77  C   UNL A   1      40.111  25.408  26.417  1.00  0.00     0.006 A 
ENDBRANCH  49  70
BRANCH  61  78
ATOM     78  C   UNL A   1      44.783  28.569  33.543  1.00  0.00     0.057 A 
ATOM     79  C   UNL A   1      46.049  28.914  33.054  1.00  0.00     0.134 A 
ATOM     80  C   UNL A   1      44.706  27.509  34.455  1.00  0.00     0.134 A 
ATOM     81  F   UNL A   1      46.190  29.917  32.175  1.00  0.00    -0.206 F 
ATOM     82  C   UNL A   1      47.197  28.232  33.459  1.00  0.00     0.040 A 
ATOM     83  C   UNL A   1      45.850  26.835  34.886  1.00  0.00     0.040 A 
ATOM     84  F   UNL A   1      43.523  27.142  34.973  1.00  0.00    -0.206 F 
ATOM     85  C   UNL A   1      47.099  27.194  34.384  1.00  0.00     0.006 A 
ENDBRANCH  61  78
ENDBRANCH  35  36
ENDBRANCH  27  30
ENDBRANCH  25  26
ENDBRANCH  24  25
ENDBRANCH  23  24
ENDBRANCH   1  23
TORSDOF 16
ENDMDL
