MODEL 1
REMARK VINA RESULT:     -10.7      0.000      0.000
REMARK SMILES CCC[NH2+][C@]1(C(=O)NCCCCCCNC(=O)c2ccc(-c3c4nc(c(-c5c(F)cccc5F)c5ccc([nH]5)c(-c5c(F)cccc5F)c5nc(c(-c6c(F)cccc6F)c6ccc3[nH]6)C=C5)C=C4)cc2)CCC[C@H](Sc2nnc(C)o2)C1
REMARK SMILES IDX 11 1 10 2 9 3 8 4 6 5 7 6 5 8 72 9 83 10 73 11 75 12 74 13
REMARK SMILES IDX 4 14 3 17 2 18 1 19 76 20 77 21 78 22 82 23 79 24 80 25
REMARK SMILES IDX 81 26 12 27 13 28 14 29 15 30 16 31 17 33 18 34 19 35 71 36
REMARK SMILES IDX 20 37 70 38 21 39 22 40 23 41 64 42 24 43 69 44 63 45 65 46
REMARK SMILES IDX 25 47 68 48 62 49 61 50 26 52 52 53 35 54 51 55 36 56 39 57
REMARK SMILES IDX 50 58 66 59 37 60 38 61 49 63 67 64 40 65 27 66 28 67 33 68
REMARK SMILES IDX 29 69 30 70 32 71 34 72 31 73 53 74 54 75 59 76 55 77 56 78
REMARK SMILES IDX 58 79 60 80 57 81 41 82 42 83 47 84 43 85 44 86 46 87 48 88
REMARK SMILES IDX 45 89
REMARK H PARENT 8 7 4 15 4 16 15 32 65 51 39 62
REMARK Flexibility Score: inf
ROOT
ATOM      1  C   UNL A   1      31.595  28.897  27.046  1.00  0.00     0.002 C 
ENDROOT
BRANCH   1   2
ATOM      2  C   UNL A   1      32.233  27.590  26.560  1.00  0.00     0.021 C 
BRANCH   2   3
ATOM      3  C   UNL A   1      31.314  26.763  25.663  1.00  0.00     0.116 C 
BRANCH   3   4
ATOM      4  N   UNL A   1      30.729  25.653  26.389  1.00  0.00    -0.351 N 
ATOM      5  C   UNL A   1      30.872  24.311  26.399  1.00  0.00     0.281 C 
ATOM      6  O   UNL A   1      30.167  23.736  27.250  1.00  0.00    -0.268 OA
ATOM      7  H   UNL A   1      30.056  25.957  27.040  1.00  0.00     0.163 HD
BRANCH   5   8
ATOM      8  C   UNL A   1      31.792  23.414  25.463  1.00  0.00     0.176 C 
ATOM      9  C   UNL A   1      31.430  21.945  25.772  1.00  0.00     0.079 C 
ATOM     10  C   UNL A   1      31.552  23.626  23.953  1.00  0.00     0.094 C 
ATOM     11  C   UNL A   1      32.092  20.902  24.867  1.00  0.00     0.008 C 
ATOM     12  C   UNL A   1      32.351  22.737  22.988  1.00  0.00     0.063 C 
ATOM     13  C   UNL A   1      32.170  21.258  23.379  1.00  0.00     0.015 C 
BRANCH   8  14
ATOM     14  N   UNL A   1      33.178  23.859  25.833  1.00  0.00    -0.334 N 
ATOM     15  H   UNL A   1      33.746  23.804  24.986  1.00  0.00     0.347 HD
ATOM     16  H   UNL A   1      33.039  24.788  26.230  1.00  0.00     0.347 HD
BRANCH  14  17
ATOM     17  C   UNL A   1      33.900  23.137  26.878  1.00  0.00     0.261 C 
BRANCH  17  18
ATOM     18  C   UNL A   1      35.386  22.984  26.538  1.00  0.00     0.058 C 
ATOM     19  C   UNL A   1      35.910  24.077  25.623  1.00  0.00     0.010 C 
ENDBRANCH  17  18
ENDBRANCH  14  17
ENDBRANCH   8  14
BRANCH  12  20
ATOM     20  S   UNL A   1      34.001  23.465  22.755  1.00  0.00    -0.062 SA
BRANCH  20  21
ATOM     21  C   UNL A   1      33.745  25.129  22.402  1.00  0.00     0.276 A 
ATOM     22  N   UNL A   1      33.333  25.646  21.263  1.00  0.00    -0.101 NA
ATOM     23  O   UNL A   1      33.948  26.085  23.361  1.00  0.00    -0.416 OA
ATOM     24  N   UNL A   1      33.275  27.016  21.448  1.00  0.00    -0.112 NA
ATOM     25  C   UNL A   1      33.637  27.232  22.694  1.00  0.00     0.214 A 
ATOM     26  C   UNL A   1      33.744  28.488  23.452  1.00  0.00     0.113 C 
ENDBRANCH  20  21
ENDBRANCH  12  20
ENDBRANCH   5   8
ENDBRANCH   3   4
ENDBRANCH   2   3
ENDBRANCH   1   2
BRANCH   1  27
ATOM     27  C   UNL A   1      31.478  30.001  25.985  1.00  0.00     0.002 C 
BRANCH  27  28
ATOM     28  C   UNL A   1      31.319  31.424  26.530  1.00  0.00     0.021 C 
BRANCH  28  29
ATOM     29  C   UNL A   1      32.632  32.133  26.847  1.00  0.00     0.116 C 
BRANCH  29  30
ATOM     30  N   UNL A   1      32.411  33.456  27.404  1.00  0.00    -0.352 N 
ATOM     31  C   UNL A   1      33.121  34.136  28.360  1.00  0.00     0.251 C 
ATOM     32  H   UNL A   1      31.633  33.938  27.042  1.00  0.00     0.163 HD
ATOM     33  O   UNL A   1      32.658  35.157  28.856  1.00  0.00    -0.269 OA
BRANCH  31  34
ATOM     34  C   UNL A   1      34.442  33.639  28.804  1.00  0.00     0.039 A 
ATOM     35  C   UNL A   1      34.502  32.795  29.916  1.00  0.00     0.014 A 
ATOM     36  C   UNL A   1      35.619  34.036  28.160  1.00  0.00     0.014 A 
ATOM     37  C   UNL A   1      35.736  32.315  30.356  1.00  0.00     0.010 A 
ATOM     38  C   UNL A   1      36.843  33.505  28.560  1.00  0.00     0.010 A 
ATOM     39  C   UNL A   1      36.915  32.647  29.667  1.00  0.00    -0.014 A 
BRANCH  39  40
ATOM     40  C   UNL A   1      38.227  32.104  30.101  1.00  0.00     0.031 A 
ATOM     41  C   UNL A   1      38.717  30.785  29.572  1.00  0.00     0.074 A 
ATOM     42  C   UNL A   1      38.954  32.781  31.008  1.00  0.00     0.049 A 
ATOM     43  N   UNL A   1      39.820  30.141  29.855  1.00  0.00    -0.248 NA
ATOM     44  C   UNL A   1      37.842  30.086  28.617  1.00  0.00     0.031 C 
ATOM     45  C   UNL A   1      38.562  34.046  31.634  1.00  0.00     0.029 A 
ATOM     46  N   UNL A   1      40.174  32.497  31.567  1.00  0.00    -0.354 N 
ATOM     47  C   UNL A   1      39.765  28.958  29.128  1.00  0.00     0.074 A 
ATOM     48  C   UNL A   1      38.499  28.953  28.428  1.00  0.00     0.031 C 
ATOM     49  C   UNL A   1      39.535  34.441  32.471  1.00  0.00     0.029 A 
ATOM     50  C   UNL A   1      40.603  33.446  32.463  1.00  0.00     0.049 A 
ATOM     51  H   UNL A   1      40.693  31.690  31.347  1.00  0.00     0.167 HD
ATOM     52  C   UNL A   1      40.696  27.979  29.035  1.00  0.00     0.037 A 
ATOM     53  C   UNL A   1      41.732  33.507  33.195  1.00  0.00     0.037 A 
ATOM     54  C   UNL A   1      41.966  28.000  29.711  1.00  0.00     0.049 A 
ATOM     55  C   UNL A   1      42.752  32.414  33.063  1.00  0.00     0.074 A 
ATOM     56  C   UNL A   1      43.004  27.087  29.629  1.00  0.00     0.029 A 
ATOM     57  N   UNL A   1      42.372  28.987  30.596  1.00  0.00    -0.354 N 
ATOM     58  N   UNL A   1      42.720  31.337  32.315  1.00  0.00    -0.248 NA
ATOM     59  C   UNL A   1      43.973  32.548  33.870  1.00  0.00     0.031 C 
ATOM     60  C   UNL A   1      44.022  27.502  30.494  1.00  0.00     0.029 A 
ATOM     61  C   UNL A   1      43.637  28.696  31.083  1.00  0.00     0.049 A 
ATOM     62  H   UNL A   1      41.841  29.779  30.842  1.00  0.00     0.167 HD
ATOM     63  C   UNL A   1      43.921  30.679  32.543  1.00  0.00     0.074 A 
ATOM     64  C   UNL A   1      44.667  31.487  33.485  1.00  0.00     0.031 C 
ATOM     65  C   UNL A   1      44.366  29.511  32.020  1.00  0.00     0.037 A 
BRANCH  52  66
ATOM     66  C   UNL A   1      40.372  26.799  28.164  1.00  0.00     0.057 A 
ATOM     67  C   UNL A   1      39.481  25.799  28.578  1.00  0.00     0.134 A 
ATOM     68  C   UNL A   1      40.933  26.676  26.887  1.00  0.00     0.134 A 
ATOM     69  F   UNL A   1      38.918  25.851  29.794  1.00  0.00    -0.206 F 
ATOM     70  C   UNL A   1      39.178  24.708  27.762  1.00  0.00     0.040 A 
ATOM     71  C   UNL A   1      40.619  25.603  26.052  1.00  0.00     0.040 A 
ATOM     72  F   UNL A   1      41.790  27.600  26.426  1.00  0.00    -0.206 F 
ATOM     73  C   UNL A   1      39.743  24.611  26.491  1.00  0.00     0.006 A 
ENDBRANCH  52  66
BRANCH  53  74
ATOM     74  C   UNL A   1      41.971  34.663  34.093  1.00  0.00     0.057 A 
ATOM     75  C   UNL A   1      41.573  34.625  35.435  1.00  0.00     0.134 A 
ATOM     76  C   UNL A   1      42.597  35.829  33.637  1.00  0.00     0.134 A 
ATOM     77  F   UNL A   1      40.952  33.541  35.924  1.00  0.00    -0.206 F 
ATOM     78  C   UNL A   1      41.770  35.714  36.287  1.00  0.00     0.040 A 
ATOM     79  C   UNL A   1      42.821  36.916  34.484  1.00  0.00     0.040 A 
ATOM     80  F   UNL A   1      43.009  35.923  32.365  1.00  0.00    -0.206 F 
ATOM     81  C   UNL A   1      42.401  36.862  35.811  1.00  0.00     0.006 A 
ENDBRANCH  53  74
BRANCH  65  82
ATOM     82  C   UNL A   1      45.732  29.055  32.436  1.00  0.00     0.057 A 
ATOM     83  C   UNL A   1      46.885  29.445  31.743  1.00  0.00     0.134 A 
ATOM     84  C   UNL A   1      45.899  28.232  33.558  1.00  0.00     0.134 A 
ATOM     85  F   UNL A   1      46.792  30.221  30.652  1.00  0.00    -0.206 F 
ATOM     86  C   UNL A   1      48.153  29.011  32.134  1.00  0.00     0.040 A 
ATOM     87  C   UNL A   1      47.163  27.813  33.973  1.00  0.00     0.040 A 
ATOM     88  F   UNL A   1      44.836  27.829  34.271  1.00  0.00    -0.206 F 
ATOM     89  C   UNL A   1      48.294  28.197  33.256  1.00  0.00     0.006 A 
ENDBRANCH  65  82
ENDBRANCH  39  40
ENDBRANCH  31  34
ENDBRANCH  29  30
ENDBRANCH  28  29
ENDBRANCH  27  28
ENDBRANCH   1  27
TORSDOF 18
ENDMDL
MODEL 2
REMARK VINA RESULT:     -10.6      2.208      6.717
REMARK SMILES CCC[NH2+][C@]1(C(=O)NCCCCCCNC(=O)c2ccc(-c3c4nc(c(-c5c(F)cccc5F)c5ccc([nH]5)c(-c5c(F)cccc5F)c5nc(c(-c6c(F)cccc6F)c6ccc3[nH]6)C=C5)C=C4)cc2)CCC[C@H](Sc2nnc(C)o2)C1
REMARK SMILES IDX 11 1 10 2 9 3 8 4 6 5 7 6 5 8 72 9 83 10 73 11 75 12 74 13
REMARK SMILES IDX 4 14 3 17 2 18 1 19 76 20 77 21 78 22 82 23 79 24 80 25
REMARK SMILES IDX 81 26 12 27 13 28 14 29 15 30 16 31 17 33 18 34 19 35 71 36
REMARK SMILES IDX 20 37 70 38 21 39 22 40 23 41 64 42 24 43 69 44 63 45 65 46
REMARK SMILES IDX 25 47 68 48 62 49 61 50 26 52 52 53 35 54 51 55 36 56 39 57
REMARK SMILES IDX 50 58 66 59 37 60 38 61 49 63 67 64 40 65 27 66 28 67 33 68
REMARK SMILES IDX 29 69 30 70 32 71 34 72 31 73 53 74 54 75 59 76 55 77 56 78
REMARK SMILES IDX 58 79 60 80 57 81 41 82 42 83 47 84 43 85 44 86 46 87 48 88
REMARK SMILES IDX 45 89
REMARK H PARENT 8 7 4 15 4 16 15 32 65 51 39 62
REMARK Flexibility Score: inf
ROOT
ATOM      1  C   UNL A   1      32.256  29.608  27.089  1.00  0.00     0.002 C 
ENDROOT
BRANCH   1   2
ATOM      2  C   UNL A   1      31.634  28.264  27.485  1.00  0.00     0.021 C 
BRANCH   2   3
ATOM      3  C   UNL A   1      31.651  27.232  26.360  1.00  0.00     0.116 C 
BRANCH   3   4
ATOM      4  N   UNL A   1      31.069  25.976  26.788  1.00  0.00    -0.351 N 
ATOM      5  C   UNL A   1      31.372  24.666  26.658  1.00  0.00     0.281 C 
ATOM      6  O   UNL A   1      30.582  23.906  27.249  1.00  0.00    -0.268 OA
ATOM      7  H   UNL A   1      30.243  26.113  27.305  1.00  0.00     0.163 HD
BRANCH   5   8
ATOM      8  C   UNL A   1      32.569  24.011  25.845  1.00  0.00     0.176 C 
ATOM      9  C   UNL A   1      33.787  24.942  26.034  1.00  0.00     0.079 C 
ATOM     10  C   UNL A   1      32.989  22.615  26.354  1.00  0.00     0.094 C 
ATOM     11  C   UNL A   1      35.107  24.421  25.457  1.00  0.00     0.008 C 
ATOM     12  C   UNL A   1      34.193  21.954  25.665  1.00  0.00     0.063 C 
ATOM     13  C   UNL A   1      35.386  22.929  25.662  1.00  0.00     0.015 C 
BRANCH   8  14
ATOM     14  N   UNL A   1      32.011  23.906  24.454  1.00  0.00    -0.334 N 
ATOM     15  H   UNL A   1      32.192  22.955  24.130  1.00  0.00     0.347 HD
ATOM     16  H   UNL A   1      31.033  24.173  24.562  1.00  0.00     0.347 HD
BRANCH  14  17
ATOM     17  C   UNL A   1      32.507  24.811  23.420  1.00  0.00     0.261 C 
BRANCH  17  18
ATOM     18  C   UNL A   1      31.378  25.650  22.813  1.00  0.00     0.058 C 
ATOM     19  C   UNL A   1      31.780  26.368  21.537  1.00  0.00     0.010 C 
ENDBRANCH  17  18
ENDBRANCH  14  17
ENDBRANCH   8  14
BRANCH  12  20
ATOM     20  S   UNL A   1      33.619  21.146  24.140  1.00  0.00    -0.062 SA
BRANCH  20  21
ATOM     21  C   UNL A   1      33.149  19.554  24.589  1.00  0.00     0.276 A 
ATOM     22  N   UNL A   1      32.154  19.212  25.381  1.00  0.00    -0.101 NA
ATOM     23  O   UNL A   1      33.816  18.465  24.096  1.00  0.00    -0.416 OA
ATOM     24  N   UNL A   1      32.158  17.829  25.448  1.00  0.00    -0.112 NA
ATOM     25  C   UNL A   1      33.144  17.430  24.675  1.00  0.00     0.214 A 
ATOM     26  C   UNL A   1      33.609  16.073  24.346  1.00  0.00     0.113 C 
ENDBRANCH  20  21
ENDBRANCH  12  20
ENDBRANCH   5   8
ENDBRANCH   3   4
ENDBRANCH   2   3
ENDBRANCH   1   2
BRANCH   1  27
ATOM     27  C   UNL A   1      31.399  30.474  26.154  1.00  0.00     0.002 C 
BRANCH  27  28
ATOM     28  C   UNL A   1      31.347  31.966  26.503  1.00  0.00     0.021 C 
BRANCH  28  29
ATOM     29  C   UNL A   1      32.690  32.573  26.897  1.00  0.00     0.116 C 
BRANCH  29  30
ATOM     30  N   UNL A   1      32.534  33.886  27.499  1.00  0.00    -0.352 N 
ATOM     31  C   UNL A   1      33.168  34.435  28.583  1.00  0.00     0.251 C 
ATOM     32  H   UNL A   1      31.872  34.469  27.063  1.00  0.00     0.163 HD
ATOM     33  O   UNL A   1      32.750  35.479  29.072  1.00  0.00    -0.269 OA
BRANCH  31  34
ATOM     34  C   UNL A   1      34.351  33.771  29.173  1.00  0.00     0.039 A 
ATOM     35  C   UNL A   1      34.151  32.744  30.100  1.00  0.00     0.014 A 
ATOM     36  C   UNL A   1      35.648  34.184  28.854  1.00  0.00     0.014 A 
ATOM     37  C   UNL A   1      35.249  32.103  30.673  1.00  0.00     0.010 A 
ATOM     38  C   UNL A   1      36.744  33.501  29.378  1.00  0.00     0.010 A 
ATOM     39  C   UNL A   1      36.555  32.460  30.298  1.00  0.00    -0.014 A 
BRANCH  39  40
ATOM     40  C   UNL A   1      37.729  31.754  30.869  1.00  0.00     0.031 A 
ATOM     41  C   UNL A   1      38.230  32.098  32.244  1.00  0.00     0.074 A 
ATOM     42  C   UNL A   1      38.372  30.834  30.126  1.00  0.00     0.049 A 
ATOM     43  N   UNL A   1      39.255  31.610  32.896  1.00  0.00    -0.248 NA
ATOM     44  C   UNL A   1      37.500  33.147  32.973  1.00  0.00     0.031 C 
ATOM     45  C   UNL A   1      38.014  30.450  28.758  1.00  0.00     0.029 A 
ATOM     46  N   UNL A   1      39.467  30.058  30.415  1.00  0.00    -0.354 N 
ATOM     47  C   UNL A   1      39.299  32.298  34.102  1.00  0.00     0.074 A 
ATOM     48  C   UNL A   1      38.229  33.271  34.071  1.00  0.00     0.031 C 
ATOM     49  C   UNL A   1      38.856  29.493  28.337  1.00  0.00     0.029 A 
ATOM     50  C   UNL A   1      39.830  29.218  29.390  1.00  0.00     0.049 A 
ATOM     51  H   UNL A   1      39.945  30.099  31.273  1.00  0.00     0.167 HD
ATOM     52  C   UNL A   1      40.141  32.119  35.147  1.00  0.00     0.037 A 
ATOM     53  C   UNL A   1      40.834  28.324  29.311  1.00  0.00     0.037 A 
ATOM     54  C   UNL A   1      41.187  31.131  35.186  1.00  0.00     0.049 A 
ATOM     55  C   UNL A   1      41.745  28.137  30.489  1.00  0.00     0.074 A 
ATOM     56  C   UNL A   1      42.050  30.827  36.225  1.00  0.00     0.029 A 
ATOM     57  N   UNL A   1      41.513  30.286  34.137  1.00  0.00    -0.354 N 
ATOM     58  N   UNL A   1      41.731  28.744  31.652  1.00  0.00    -0.248 NA
ATOM     59  C   UNL A   1      42.809  27.132  30.350  1.00  0.00     0.031 C 
ATOM     60  C   UNL A   1      42.923  29.824  35.790  1.00  0.00     0.029 A 
ATOM     61  C   UNL A   1      42.577  29.473  34.495  1.00  0.00     0.049 A 
ATOM     62  H   UNL A   1      41.056  30.265  33.264  1.00  0.00     0.167 HD
ATOM     63  C   UNL A   1      42.763  28.181  32.388  1.00  0.00     0.074 A 
ATOM     64  C   UNL A   1      43.373  27.170  31.547  1.00  0.00     0.031 C 
ATOM     65  C   UNL A   1      43.171  28.472  33.647  1.00  0.00     0.037 A 
BRANCH  52  66
ATOM     66  C   UNL A   1      39.961  33.012  36.341  1.00  0.00     0.057 A 
ATOM     67  C   UNL A   1      39.038  32.714  37.352  1.00  0.00     0.134 A 
ATOM     68  C   UNL A   1      40.740  34.166  36.495  1.00  0.00     0.134 A 
ATOM     69  F   UNL A   1      38.253  31.631  37.259  1.00  0.00    -0.206 F 
ATOM     70  C   UNL A   1      38.880  33.544  38.464  1.00  0.00     0.040 A 
ATOM     71  C   UNL A   1      40.608  34.990  37.614  1.00  0.00     0.040 A 
ATOM     72  F   UNL A   1      41.646  34.507  35.566  1.00  0.00    -0.206 F 
ATOM     73  C   UNL A   1      39.671  34.683  38.600  1.00  0.00     0.006 A 
ENDBRANCH  52  66
BRANCH  53  74
ATOM     74  C   UNL A   1      41.010  27.515  28.080  1.00  0.00     0.057 A 
ATOM     75  C   UNL A   1      40.370  26.279  27.934  1.00  0.00     0.134 A 
ATOM     76  C   UNL A   1      41.821  27.952  27.026  1.00  0.00     0.134 A 
ATOM     77  F   UNL A   1      39.594  25.801  28.918  1.00  0.00    -0.206 F 
ATOM     78  C   UNL A   1      40.544  25.496  26.791  1.00  0.00     0.040 A 
ATOM     79  C   UNL A   1      41.986  27.190  25.868  1.00  0.00     0.040 A 
ATOM     80  F   UNL A   1      42.454  29.131  27.102  1.00  0.00    -0.206 F 
ATOM     81  C   UNL A   1      41.351  25.954  25.752  1.00  0.00     0.006 A 
ENDBRANCH  53  74
BRANCH  65  82
ATOM     82  C   UNL A   1      44.313  27.670  34.197  1.00  0.00     0.057 A 
ATOM     83  C   UNL A   1      45.640  28.103  34.089  1.00  0.00     0.134 A 
ATOM     84  C   UNL A   1      44.079  26.459  34.861  1.00  0.00     0.134 A 
ATOM     85  F   UNL A   1      45.931  29.248  33.451  1.00  0.00    -0.206 F 
ATOM     86  C   UNL A   1      46.697  27.348  34.597  1.00  0.00     0.040 A 
ATOM     87  C   UNL A   1      45.125  25.708  35.397  1.00  0.00     0.040 A 
ATOM     88  F   UNL A   1      42.830  25.991  35.006  1.00  0.00    -0.206 F 
ATOM     89  C   UNL A   1      46.440  26.148  35.259  1.00  0.00     0.006 A 
ENDBRANCH  65  82
ENDBRANCH  39  40
ENDBRANCH  31  34
ENDBRANCH  29  30
ENDBRANCH  28  29
ENDBRANCH  27  28
ENDBRANCH   1  27
TORSDOF 18
ENDMDL
MODEL 3
REMARK VINA RESULT:     -10.5      2.076      6.878
REMARK SMILES CCC[NH2+][C@]1(C(=O)NCCCCCCNC(=O)c2ccc(-c3c4nc(c(-c5c(F)cccc5F)c5ccc([nH]5)c(-c5c(F)cccc5F)c5nc(c(-c6c(F)cccc6F)c6ccc3[nH]6)C=C5)C=C4)cc2)CCC[C@H](Sc2nnc(C)o2)C1
REMARK SMILES IDX 11 1 10 2 9 3 8 4 6 5 7 6 5 8 72 9 83 10 73 11 75 12 74 13
REMARK SMILES IDX 4 14 3 17 2 18 1 19 76 20 77 21 78 22 82 23 79 24 80 25
REMARK SMILES IDX 81 26 12 27 13 28 14 29 15 30 16 31 17 33 18 34 19 35 71 36
REMARK SMILES IDX 20 37 70 38 21 39 22 40 23 41 64 42 24 43 69 44 63 45 65 46
REMARK SMILES IDX 25 47 68 48 62 49 61 50 26 52 52 53 35 54 51 55 36 56 39 57
REMARK SMILES IDX 50 58 66 59 37 60 38 61 49 63 67 64 40 65 27 66 28 67 33 68
REMARK SMILES IDX 29 69 30 70 32 71 34 72 31 73 53 74 54 75 59 76 55 77 56 78
REMARK SMILES IDX 58 79 60 80 57 81 41 82 42 83 47 84 43 85 44 86 46 87 48 88
REMARK SMILES IDX 45 89
REMARK H PARENT 8 7 4 15 4 16 15 32 65 51 39 62
REMARK Flexibility Score: inf
ROOT
ATOM      1  C   UNL A   1      32.289  29.950  27.162  1.00  0.00     0.002 C 
ENDROOT
BRANCH   1   2
ATOM      2  C   UNL A   1      32.064  28.434  27.108  1.00  0.00     0.021 C 
BRANCH   2   3
ATOM      3  C   UNL A   1      33.254  27.664  26.540  1.00  0.00     0.116 C 
BRANCH   3   4
ATOM      4  N   UNL A   1      33.411  27.908  25.121  1.00  0.00    -0.351 N 
ATOM      5  C   UNL A   1      33.420  27.159  23.997  1.00  0.00     0.281 C 
ATOM      6  O   UNL A   1      33.549  27.822  22.951  1.00  0.00    -0.268 OA
ATOM      7  H   UNL A   1      33.545  28.864  24.927  1.00  0.00     0.163 HD
BRANCH   5   8
ATOM      8  C   UNL A   1      33.310  25.579  23.870  1.00  0.00     0.176 C 
ATOM      9  C   UNL A   1      33.526  25.244  22.378  1.00  0.00     0.079 C 
ATOM     10  C   UNL A   1      34.387  24.806  24.663  1.00  0.00     0.094 C 
ATOM     11  C   UNL A   1      33.615  23.751  22.047  1.00  0.00     0.008 C 
ATOM     12  C   UNL A   1      34.390  23.275  24.525  1.00  0.00     0.063 C 
ATOM     13  C   UNL A   1      34.413  22.892  23.033  1.00  0.00     0.015 C 
BRANCH   8  14
ATOM     14  N   UNL A   1      31.948  25.292  24.436  1.00  0.00    -0.334 N 
ATOM     15  H   UNL A   1      31.864  24.278  24.513  1.00  0.00     0.347 HD
ATOM     16  H   UNL A   1      31.930  25.820  25.308  1.00  0.00     0.347 HD
BRANCH  14  17
ATOM     17  C   UNL A   1      30.768  25.766  23.717  1.00  0.00     0.261 C 
BRANCH  17  18
ATOM     18  C   UNL A   1      29.653  26.190  24.678  1.00  0.00     0.058 C 
ATOM     19  C   UNL A   1      28.375  26.607  23.972  1.00  0.00     0.010 C 
ENDBRANCH  17  18
ENDBRANCH  14  17
ENDBRANCH   8  14
BRANCH  12  20
ATOM     20  S   UNL A   1      33.155  22.585  25.667  1.00  0.00    -0.062 SA
BRANCH  20  21
ATOM     21  C   UNL A   1      33.024  20.915  25.278  1.00  0.00     0.276 A 
ATOM     22  N   UNL A   1      31.921  20.198  25.210  1.00  0.00    -0.101 NA
ATOM     23  O   UNL A   1      34.138  20.181  24.971  1.00  0.00    -0.416 OA
ATOM     24  N   UNL A   1      32.304  18.914  24.863  1.00  0.00    -0.112 NA
ATOM     25  C   UNL A   1      33.611  18.948  24.726  1.00  0.00     0.214 A 
ATOM     26  C   UNL A   1      34.558  17.886  24.350  1.00  0.00     0.113 C 
ENDBRANCH  20  21
ENDBRANCH  12  20
ENDBRANCH   5   8
ENDBRANCH   3   4
ENDBRANCH   2   3
ENDBRANCH   1   2
BRANCH   1  27
ATOM     27  C   UNL A   1      31.351  30.783  26.276  1.00  0.00     0.002 C 
BRANCH  27  28
ATOM     28  C   UNL A   1      31.346  32.289  26.556  1.00  0.00     0.021 C 
BRANCH  28  29
ATOM     29  C   UNL A   1      32.681  32.850  27.036  1.00  0.00     0.116 C 
BRANCH  29  30
ATOM     30  N   UNL A   1      32.524  34.139  27.689  1.00  0.00    -0.352 N 
ATOM     31  C   UNL A   1      33.168  34.652  28.785  1.00  0.00     0.251 C 
ATOM     32  H   UNL A   1      31.851  34.733  27.284  1.00  0.00     0.163 HD
ATOM     33  O   UNL A   1      32.748  35.674  29.318  1.00  0.00    -0.269 OA
BRANCH  31  34
ATOM     34  C   UNL A   1      34.363  33.975  29.334  1.00  0.00     0.039 A 
ATOM     35  C   UNL A   1      34.187  32.988  30.307  1.00  0.00     0.014 A 
ATOM     36  C   UNL A   1      35.651  34.340  28.930  1.00  0.00     0.014 A 
ATOM     37  C   UNL A   1      35.298  32.337  30.844  1.00  0.00     0.010 A 
ATOM     38  C   UNL A   1      36.755  33.645  29.419  1.00  0.00     0.010 A 
ATOM     39  C   UNL A   1      36.590  32.643  30.386  1.00  0.00    -0.014 A 
BRANCH  39  40
ATOM     40  C   UNL A   1      37.774  31.924  30.918  1.00  0.00     0.031 A 
ATOM     41  C   UNL A   1      38.334  32.274  32.268  1.00  0.00     0.074 A 
ATOM     42  C   UNL A   1      38.373  30.986  30.161  1.00  0.00     0.049 A 
ATOM     43  N   UNL A   1      39.375  31.776  32.885  1.00  0.00    -0.248 NA
ATOM     44  C   UNL A   1      37.649  33.342  33.014  1.00  0.00     0.031 C 
ATOM     45  C   UNL A   1      37.956  30.593  28.813  1.00  0.00     0.029 A 
ATOM     46  N   UNL A   1      39.466  30.196  30.415  1.00  0.00    -0.354 N 
ATOM     47  C   UNL A   1      39.478  32.476  34.081  1.00  0.00     0.074 A 
ATOM     48  C   UNL A   1      38.423  33.466  34.081  1.00  0.00     0.031 C 
ATOM     49  C   UNL A   1      38.766  29.619  28.370  1.00  0.00     0.029 A 
ATOM     50  C   UNL A   1      39.776  29.339  29.387  1.00  0.00     0.049 A 
ATOM     51  H   UNL A   1      39.978  30.238  31.254  1.00  0.00     0.167 HD
ATOM     52  C   UNL A   1      40.357  32.294  35.095  1.00  0.00     0.037 A 
ATOM     53  C   UNL A   1      40.762  28.429  29.278  1.00  0.00     0.037 A 
ATOM     54  C   UNL A   1      41.389  31.290  35.103  1.00  0.00     0.049 A 
ATOM     55  C   UNL A   1      41.716  28.239  30.422  1.00  0.00     0.074 A 
ATOM     56  C   UNL A   1      42.287  30.984  36.111  1.00  0.00     0.029 A 
ATOM     57  N   UNL A   1      41.660  30.429  34.052  1.00  0.00    -0.354 N 
ATOM     58  N   UNL A   1      41.757  28.859  31.577  1.00  0.00    -0.248 NA
ATOM     59  C   UNL A   1      42.757  27.216  30.252  1.00  0.00     0.031 C 
ATOM     60  C   UNL A   1      43.127  29.962  35.654  1.00  0.00     0.029 A 
ATOM     61  C   UNL A   1      42.725  29.603  34.378  1.00  0.00     0.049 A 
ATOM     62  H   UNL A   1      41.169  30.406  33.198  1.00  0.00     0.167 HD
ATOM     63  C   UNL A   1      42.808  28.286  32.279  1.00  0.00     0.074 A 
ATOM     64  C   UNL A   1      43.368  27.258  31.426  1.00  0.00     0.031 C 
ATOM     65  C   UNL A   1      43.269  28.584  33.518  1.00  0.00     0.037 A 
BRANCH  52  66
ATOM     66  C   UNL A   1      40.238  33.203  36.284  1.00  0.00     0.057 A 
ATOM     67  C   UNL A   1      41.001  34.373  36.398  1.00  0.00     0.134 A 
ATOM     68  C   UNL A   1      39.328  32.922  37.312  1.00  0.00     0.134 A 
ATOM     69  F   UNL A   1      41.899  34.694  35.455  1.00  0.00    -0.206 F 
ATOM     70  C   UNL A   1      40.881  35.218  37.503  1.00  0.00     0.040 A 
ATOM     71  C   UNL A   1      39.182  33.773  38.409  1.00  0.00     0.040 A 
ATOM     72  F   UNL A   1      38.563  31.821  37.263  1.00  0.00    -0.206 F 
ATOM     73  C   UNL A   1      39.964  34.921  38.510  1.00  0.00     0.006 A 
ENDBRANCH  52  66
BRANCH  53  74
ATOM     74  C   UNL A   1      40.877  27.604  28.050  1.00  0.00     0.057 A 
ATOM     75  C   UNL A   1      41.668  28.023  26.974  1.00  0.00     0.134 A 
ATOM     76  C   UNL A   1      40.201  26.385  27.920  1.00  0.00     0.134 A 
ATOM     77  F   UNL A   1      42.325  29.191  27.035  1.00  0.00    -0.206 F 
ATOM     78  C   UNL A   1      41.768  27.269  25.803  1.00  0.00     0.040 A 
ATOM     79  C   UNL A   1      40.311  25.611  26.764  1.00  0.00     0.040 A 
ATOM     80  F   UNL A   1      39.435  25.926  28.920  1.00  0.00    -0.206 F 
ATOM     81  C   UNL A   1      41.091  26.056  25.699  1.00  0.00     0.006 A 
ENDBRANCH  53  74
BRANCH  65  82
ATOM     82  C   UNL A   1      44.419  27.770  34.032  1.00  0.00     0.057 A 
ATOM     83  C   UNL A   1      44.222  26.561  34.712  1.00  0.00     0.134 A 
ATOM     84  C   UNL A   1      45.739  28.189  33.825  1.00  0.00     0.134 A 
ATOM     85  F   UNL A   1      42.981  26.113  34.955  1.00  0.00    -0.206 F 
ATOM     86  C   UNL A   1      45.297  25.813  35.193  1.00  0.00     0.040 A 
ATOM     87  C   UNL A   1      46.823  27.435  34.277  1.00  0.00     0.040 A 
ATOM     88  F   UNL A   1      45.997  29.333  33.172  1.00  0.00    -0.206 F 
ATOM     89  C   UNL A   1      46.603  26.247  34.970  1.00  0.00     0.006 A 
ENDBRANCH  65  82
ENDBRANCH  39  40
ENDBRANCH  31  34
ENDBRANCH  29  30
ENDBRANCH  28  29
ENDBRANCH  27  28
ENDBRANCH   1  27
TORSDOF 18
ENDMDL
