MODEL 1
REMARK VINA RESULT:     -12.7      0.000      0.000
REMARK SMILES Cc1ccccc1NC(=S)NN1C(=O)CS[C@H]1c1ccccc1C(=O)NCCCCCCNC(=O)c1ccc(-c2c3nc(c(-c4c(F)cccc4F)c4ccc([nH]4)c(-c4c(F)cccc4F)c4nc(c(-c5c(F)cccc5F)c5ccc2[nH]5)C=C4)C=C3)cc1
REMARK SMILES IDX 28 1 27 2 26 3 24 4 25 5 23 7 18 8 19 9 20 10 22 11 21 12
REMARK SMILES IDX 17 13 12 14 13 15 14 16 15 17 16 18 11 19 9 21 10 22 8 23
REMARK SMILES IDX 7 25 1 26 2 27 3 28 4 29 6 30 5 31 29 32 30 33 31 34 32 35
REMARK SMILES IDX 33 36 34 37 35 39 36 40 37 41 89 42 38 43 88 44 39 45 40 46
REMARK SMILES IDX 41 47 82 48 42 49 87 50 81 51 83 52 43 53 86 54 80 55 79 56
REMARK SMILES IDX 44 58 70 59 53 60 69 61 54 62 57 63 68 64 84 65 55 66 56 67
REMARK SMILES IDX 67 69 85 70 58 71 45 72 46 73 51 74 47 75 48 76 50 77 52 78
REMARK SMILES IDX 49 79 71 80 72 81 77 82 73 83 74 84 76 85 78 86 75 87 59 88
REMARK SMILES IDX 60 89 65 90 61 91 62 92 64 93 66 94 63 95
REMARK H PARENT 26 6 11 20 8 24 33 38 83 57 57 68
REMARK Flexibility Score: inf
ROOT
ATOM      1  C   UNL A   1      37.748  22.349  25.370  1.00  0.00     0.021 C 
ENDROOT
BRANCH   1   2
ATOM      2  C   UNL A   1      36.987  23.566  26.026  1.00  0.00     0.116 C 
BRANCH   2   3
ATOM      3  N   UNL A   1      35.478  23.673  26.064  1.00  0.00    -0.352 N 
ATOM      4  C   UNL A   1      34.764  24.632  25.285  1.00  0.00     0.251 C 
ATOM      5  O   UNL A   1      34.719  24.437  24.066  1.00  0.00    -0.269 OA
ATOM      6  H   UNL A   1      34.972  23.062  26.647  1.00  0.00     0.163 HD
BRANCH   4   7
ATOM      7  C   UNL A   1      33.826  25.751  25.854  1.00  0.00     0.046 A 
ATOM      8  C   UNL A   1      32.496  25.669  26.325  1.00  0.00    -0.001 A 
ATOM      9  C   UNL A   1      31.745  26.849  26.629  1.00  0.00     0.007 A 
ATOM     10  C   UNL A   1      32.300  28.110  26.566  1.00  0.00     0.000 A 
ATOM     11  C   UNL A   1      34.383  27.053  25.895  1.00  0.00     0.014 A 
ATOM     12  C   UNL A   1      33.638  28.207  26.236  1.00  0.00     0.001 A 
BRANCH   8  13
ATOM     13  C   UNL A   1      31.699  24.435  26.228  1.00  0.00     0.197 C 
ATOM     14  N   UNL A   1      30.300  24.494  25.936  1.00  0.00    -0.236 N 
ATOM     15  C   UNL A   1      29.992  23.225  26.531  1.00  0.00     0.252 C 
ATOM     16  O   UNL A   1      29.706  23.066  27.719  1.00  0.00    -0.272 OA
ATOM     17  C   UNL A   1      30.704  22.110  25.790  1.00  0.00     0.174 C 
ATOM     18  S   UNL A   1      32.229  22.962  25.269  1.00  0.00    -0.120 SA
BRANCH  14  19
ATOM     19  N   UNL A   1      29.960  24.889  24.406  1.00  0.00    -0.270 N 
ATOM     20  H   UNL A   1      30.295  24.285  23.704  1.00  0.00     0.191 HD
BRANCH  19  21
ATOM     21  C   UNL A   1      29.232  26.015  23.983  1.00  0.00     0.189 C 
ATOM     22  S   UNL A   1      27.711  26.276  24.655  1.00  0.00    -0.039 S 
BRANCH  21  23
ATOM     23  N   UNL A   1      29.684  26.999  23.113  1.00  0.00    -0.331 N 
ATOM     24  H   UNL A   1      28.968  27.526  22.691  1.00  0.00     0.169 HD
BRANCH  23  25
ATOM     25  C   UNL A   1      30.988  27.378  22.728  1.00  0.00     0.043 A 
ATOM     26  C   UNL A   1      32.127  24.809  21.840  1.00  0.00     0.046 C 
ATOM     27  C   UNL A   1      32.268  26.286  22.059  1.00  0.00    -0.028 A 
ATOM     28  C   UNL A   1      33.993  26.851  22.017  1.00  0.00     0.005 A 
ATOM     29  C   UNL A   1      34.425  28.508  22.575  1.00  0.00     0.000 A 
ATOM     30  C   UNL A   1      31.445  29.024  23.187  1.00  0.00     0.026 A 
ATOM     31  C   UNL A   1      33.143  29.578  23.212  1.00  0.00     0.002 A 
ENDBRANCH  23  25
ENDBRANCH  21  23
ENDBRANCH  19  21
ENDBRANCH  14  19
ENDBRANCH   8  13
ENDBRANCH   4   7
ENDBRANCH   2   3
ENDBRANCH   1   2
BRANCH   1  32
ATOM     32  C   UNL A   1      39.249  21.732  26.103  1.00  0.00     0.002 C 
BRANCH  32  33
ATOM     33  C   UNL A   1      40.404  19.882  26.286  1.00  0.00     0.002 C 
BRANCH  33  34
ATOM     34  C   UNL A   1      42.101  19.397  26.445  1.00  0.00     0.021 C 
BRANCH  34  35
ATOM     35  C   UNL A   1      43.224  19.497  25.398  1.00  0.00     0.116 C 
BRANCH  35  36
ATOM     36  N   UNL A   1      44.407  20.297  25.717  1.00  0.00    -0.352 N 
ATOM     37  C   UNL A   1      44.742  21.462  25.015  1.00  0.00     0.251 C 
ATOM     38  H   UNL A   1      44.990  20.005  26.455  1.00  0.00     0.163 HD
ATOM     39  O   UNL A   1      45.734  21.584  24.314  1.00  0.00    -0.269 OA
BRANCH  37  40
ATOM     40  C   UNL A   1      43.956  22.648  25.437  1.00  0.00     0.039 A 
ATOM     41  C   UNL A   1      44.022  23.834  24.696  1.00  0.00     0.014 A 
ATOM     42  C   UNL A   1      43.585  22.654  26.773  1.00  0.00     0.014 A 
ATOM     43  C   UNL A   1      43.953  25.039  25.382  1.00  0.00     0.010 A 
ATOM     44  C   UNL A   1      43.784  23.799  27.479  1.00  0.00     0.010 A 
ATOM     45  C   UNL A   1      43.961  24.988  26.776  1.00  0.00    -0.014 A 
BRANCH  45  46
ATOM     46  C   UNL A   1      43.820  26.134  27.640  1.00  0.00     0.031 A 
ATOM     47  C   UNL A   1      42.469  26.723  27.563  1.00  0.00     0.074 A 
ATOM     48  C   UNL A   1      44.830  26.406  28.495  1.00  0.00     0.049 A 
ATOM     49  N   UNL A   1      42.204  27.974  27.527  1.00  0.00    -0.248 NA
ATOM     50  C   UNL A   1      41.263  25.903  27.334  1.00  0.00     0.031 C 
ATOM     51  C   UNL A   1      44.898  27.338  29.613  1.00  0.00     0.029 A 
ATOM     52  N   UNL A   1      46.160  25.965  28.357  1.00  0.00    -0.354 N 
ATOM     53  C   UNL A   1      40.846  28.071  27.773  1.00  0.00     0.074 A 
ATOM     54  C   UNL A   1      40.290  26.814  27.372  1.00  0.00     0.031 C 
ATOM     55  C   UNL A   1      46.187  27.701  29.786  1.00  0.00     0.029 A 
ATOM     56  C   UNL A   1      46.958  27.069  28.727  1.00  0.00     0.049 A 
ATOM     57  H   UNL A   1      46.466  25.076  28.065  1.00  0.00     0.167 HD
ATOM     58  C   UNL A   1      40.407  29.073  28.583  1.00  0.00     0.037 A 
ATOM     59  C   UNL A   1      47.673  27.729  27.766  1.00  0.00     0.037 A 
ATOM     60  C   UNL A   1      41.572  29.828  29.045  1.00  0.00     0.049 A 
ATOM     61  C   UNL A   1      47.130  29.109  27.530  1.00  0.00     0.074 A 
ATOM     62  C   UNL A   1      42.322  29.757  30.207  1.00  0.00     0.029 A 
ATOM     63  N   UNL A   1      42.375  30.450  28.101  1.00  0.00    -0.354 N 
ATOM     64  N   UNL A   1      45.884  29.449  27.727  1.00  0.00    -0.248 NA
ATOM     65  C   UNL A   1      47.980  30.232  27.167  1.00  0.00     0.031 C 
ATOM     66  C   UNL A   1      43.589  30.350  29.945  1.00  0.00     0.029 A 
ATOM     67  C   UNL A   1      43.610  30.764  28.623  1.00  0.00     0.049 A 
ATOM     68  H   UNL A   1      42.097  30.643  27.177  1.00  0.00     0.167 HD
ATOM     69  C   UNL A   1      45.762  30.811  27.592  1.00  0.00     0.074 A 
ATOM     70  C   UNL A   1      47.106  31.247  27.257  1.00  0.00     0.031 C 
ATOM     71  C   UNL A   1      44.579  31.470  27.795  1.00  0.00     0.037 A 
BRANCH  58  72
ATOM     72  C   UNL A   1      39.039  29.185  29.219  1.00  0.00     0.057 A 
ATOM     73  C   UNL A   1      37.937  29.607  28.447  1.00  0.00     0.134 A 
ATOM     74  C   UNL A   1      38.718  28.879  30.555  1.00  0.00     0.134 A 
ATOM     75  F   UNL A   1      38.054  29.876  27.140  1.00  0.00    -0.206 F 
ATOM     76  C   UNL A   1      36.645  29.759  28.966  1.00  0.00     0.040 A 
ATOM     77  C   UNL A   1      37.433  29.055  31.096  1.00  0.00     0.040 A 
ATOM     78  F   UNL A   1      39.609  28.342  31.397  1.00  0.00    -0.206 F 
ATOM     79  C   UNL A   1      36.389  29.495  30.300  1.00  0.00     0.006 A 
ENDBRANCH  58  72
BRANCH  59  80
ATOM     80  C   UNL A   1      48.225  26.790  26.751  1.00  0.00     0.057 A 
ATOM     81  C   UNL A   1      47.622  26.835  25.483  1.00  0.00     0.134 A 
ATOM     82  C   UNL A   1      49.542  26.331  26.809  1.00  0.00     0.134 A 
ATOM     83  F   UNL A   1      46.346  27.233  25.352  1.00  0.00    -0.206 F 
ATOM     84  C   UNL A   1      48.362  26.659  24.316  1.00  0.00     0.040 A 
ATOM     85  C   UNL A   1      50.293  26.153  25.637  1.00  0.00     0.040 A 
ATOM     86  F   UNL A   1      50.168  26.193  27.986  1.00  0.00    -0.206 F 
ATOM     87  C   UNL A   1      49.726  26.398  24.389  1.00  0.00     0.006 A 
ENDBRANCH  59  80
BRANCH  71  88
ATOM     88  C   UNL A   1      44.212  32.863  27.297  1.00  0.00     0.057 A 
ATOM     89  C   UNL A   1      43.977  33.207  25.960  1.00  0.00     0.134 A 
ATOM     90  C   UNL A   1      43.936  33.916  28.213  1.00  0.00     0.134 A 
ATOM     91  F   UNL A   1      44.040  32.317  24.966  1.00  0.00    -0.206 F 
ATOM     92  C   UNL A   1      43.592  34.493  25.561  1.00  0.00     0.040 A 
ATOM     93  C   UNL A   1      43.455  35.170  27.833  1.00  0.00     0.040 A 
ATOM     94  F   UNL A   1      44.092  33.793  29.537  1.00  0.00    -0.206 F 
ATOM     95  C   UNL A   1      43.309  35.476  26.497  1.00  0.00     0.006 A 
ENDBRANCH  71  88
ENDBRANCH  45  46
ENDBRANCH  37  40
ENDBRANCH  35  36
ENDBRANCH  34  35
ENDBRANCH  33  34
ENDBRANCH  32  33
ENDBRANCH   1  32
TORSDOF 18
ENDMDL
MODEL 2
REMARK VINA RESULT:     -12.2      5.865     11.164
REMARK SMILES Cc1ccccc1NC(=S)NN1C(=O)CS[C@H]1c1ccccc1C(=O)NCCCCCCNC(=O)c1ccc(-c2c3nc(c(-c4c(F)cccc4F)c4ccc([nH]4)c(-c4c(F)cccc4F)c4nc(c(-c5c(F)cccc5F)c5ccc2[nH]5)C=C4)C=C3)cc1
REMARK SMILES IDX 28 1 27 2 26 3 24 4 25 5 23 7 18 8 19 9 20 10 22 11 21 12
REMARK SMILES IDX 17 13 12 14 13 15 14 16 15 17 16 18 11 19 9 21 10 22 8 23
REMARK SMILES IDX 7 25 1 26 2 27 3 28 4 29 6 30 5 31 29 32 30 33 31 34 32 35
REMARK SMILES IDX 33 36 34 37 35 39 36 40 37 41 89 42 38 43 88 44 39 45 40 46
REMARK SMILES IDX 41 47 82 48 42 49 87 50 81 51 83 52 43 53 86 54 80 55 79 56
REMARK SMILES IDX 44 58 70 59 53 60 69 61 54 62 57 63 68 64 84 65 55 66 56 67
REMARK SMILES IDX 67 69 85 70 58 71 45 72 46 73 51 74 47 75 48 76 50 77 52 78
REMARK SMILES IDX 49 79 71 80 72 81 77 82 73 83 74 84 76 85 78 86 75 87 59 88
REMARK SMILES IDX 60 89 65 90 61 91 62 92 64 93 66 94 63 95
REMARK H PARENT 26 6 11 20 8 24 33 38 83 57 57 68
REMARK Flexibility Score: inf
ROOT
ATOM      1  C   UNL A   1      40.117  29.872  33.673  1.00  0.00     0.021 C 
ENDROOT
BRANCH   1   2
ATOM      2  C   UNL A   1      41.546  29.588  33.066  1.00  0.00     0.116 C 
BRANCH   2   3
ATOM      3  N   UNL A   1      41.807  28.511  32.037  1.00  0.00    -0.352 N 
ATOM      4  C   UNL A   1      42.072  28.816  30.667  1.00  0.00     0.251 C 
ATOM      5  O   UNL A   1      43.167  29.326  30.412  1.00  0.00    -0.269 OA
ATOM      6  H   UNL A   1      41.794  27.569  32.320  1.00  0.00     0.163 HD
BRANCH   4   7
ATOM      7  C   UNL A   1      41.218  28.331  29.446  1.00  0.00     0.046 A 
ATOM      8  C   UNL A   1      41.611  27.631  28.283  1.00  0.00    -0.001 A 
ATOM      9  C   UNL A   1      40.706  27.446  27.190  1.00  0.00     0.007 A 
ATOM     10  C   UNL A   1      39.391  27.858  27.246  1.00  0.00     0.000 A 
ATOM     11  C   UNL A   1      39.838  28.651  29.499  1.00  0.00     0.014 A 
ATOM     12  C   UNL A   1      38.946  28.427  28.423  1.00  0.00     0.001 A 
BRANCH   8  13
ATOM     13  C   UNL A   1      43.020  27.337  27.978  1.00  0.00     0.197 C 
ATOM     14  N   UNL A   1      43.469  25.985  27.840  1.00  0.00    -0.236 N 
ATOM     15  C   UNL A   1      44.840  26.274  28.150  1.00  0.00     0.252 C 
ATOM     16  O   UNL A   1      45.308  26.281  29.290  1.00  0.00    -0.272 OA
ATOM     17  C   UNL A   1      45.431  27.201  27.106  1.00  0.00     0.174 C 
ATOM     18  S   UNL A   1      43.967  28.191  26.656  1.00  0.00    -0.120 SA
BRANCH  14  19
ATOM     19  N   UNL A   1      42.974  25.259  26.484  1.00  0.00    -0.270 N 
ATOM     20  H   UNL A   1      43.146  25.731  25.637  1.00  0.00     0.191 HD
BRANCH  19  21
ATOM     21  C   UNL A   1      42.321  24.017  26.400  1.00  0.00     0.189 C 
ATOM     22  S   UNL A   1      41.005  23.742  27.413  1.00  0.00    -0.039 S 
BRANCH  21  23
ATOM     23  N   UNL A   1      42.605  23.006  25.490  1.00  0.00    -0.331 N 
ATOM     24  H   UNL A   1      42.063  23.037  24.669  1.00  0.00     0.169 HD
BRANCH  23  25
ATOM     25  C   UNL A   1      43.532  21.944  25.535  1.00  0.00     0.043 A 
ATOM     26  C   UNL A   1      45.981  23.235  24.526  1.00  0.00     0.046 C 
ATOM     27  C   UNL A   1      45.277  22.024  25.060  1.00  0.00    -0.028 A 
ATOM     28  C   UNL A   1      46.201  20.484  24.783  1.00  0.00     0.005 A 
ATOM     29  C   UNL A   1      45.410  18.887  25.042  1.00  0.00     0.000 A 
ATOM     30  C   UNL A   1      42.822  20.356  25.856  1.00  0.00     0.026 A 
ATOM     31  C   UNL A   1      43.693  18.830  25.532  1.00  0.00     0.002 A 
ENDBRANCH  23  25
ENDBRANCH  21  23
ENDBRANCH  19  21
ENDBRANCH  14  19
ENDBRANCH   8  13
ENDBRANCH   4   7
ENDBRANCH   2   3
ENDBRANCH   1   2
BRANCH   1  32
ATOM     32  C   UNL A   1      38.660  29.653  32.672  1.00  0.00     0.002 C 
BRANCH  32  33
ATOM     33  C   UNL A   1      36.642  30.463  32.426  1.00  0.00     0.002 C 
BRANCH  33  34
ATOM     34  C   UNL A   1      35.884  32.019  32.046  1.00  0.00     0.021 C 
BRANCH  34  35
ATOM     35  C   UNL A   1      35.083  32.409  30.791  1.00  0.00     0.116 C 
BRANCH  35  36
ATOM     36  N   UNL A   1      35.612  32.030  29.481  1.00  0.00    -0.352 N 
ATOM     37  C   UNL A   1      36.339  32.916  28.675  1.00  0.00     0.251 C 
ATOM     38  H   UNL A   1      35.450  31.115  29.152  1.00  0.00     0.163 HD
ATOM     39  O   UNL A   1      35.955  33.342  27.598  1.00  0.00    -0.269 OA
BRANCH  37  40
ATOM     40  C   UNL A   1      37.757  33.055  29.089  1.00  0.00     0.039 A 
ATOM     41  C   UNL A   1      38.498  31.923  29.447  1.00  0.00     0.014 A 
ATOM     42  C   UNL A   1      38.110  34.318  29.538  1.00  0.00     0.014 A 
ATOM     43  C   UNL A   1      39.440  32.051  30.459  1.00  0.00     0.010 A 
ATOM     44  C   UNL A   1      38.822  34.401  30.694  1.00  0.00     0.010 A 
ATOM     45  C   UNL A   1      39.489  33.265  31.143  1.00  0.00    -0.014 A 
BRANCH  45  46
ATOM     46  C   UNL A   1      40.452  33.592  32.166  1.00  0.00     0.031 A 
ATOM     47  C   UNL A   1      39.811  34.165  33.366  1.00  0.00     0.074 A 
ATOM     48  C   UNL A   1      41.730  33.196  31.980  1.00  0.00     0.049 A 
ATOM     49  N   UNL A   1      40.251  35.158  34.042  1.00  0.00    -0.248 NA
ATOM     50  C   UNL A   1      38.468  33.751  33.817  1.00  0.00     0.031 C 
ATOM     51  C   UNL A   1      42.861  33.185  32.897  1.00  0.00     0.029 A 
ATOM     52  N   UNL A   1      42.313  32.876  30.739  1.00  0.00    -0.354 N 
ATOM     53  C   UNL A   1      39.533  35.148  35.225  1.00  0.00     0.074 A 
ATOM     54  C   UNL A   1      38.305  34.475  34.924  1.00  0.00     0.031 C 
ATOM     55  C   UNL A   1      43.996  33.281  32.174  1.00  0.00     0.029 A 
ATOM     56  C   UNL A   1      43.608  33.438  30.781  1.00  0.00     0.049 A 
ATOM     57  H   UNL A   1      41.905  32.368  30.001  1.00  0.00     0.167 HD
ATOM     58  C   UNL A   1      40.195  35.416  36.384  1.00  0.00     0.037 A 
ATOM     59  C   UNL A   1      43.892  34.521  29.996  1.00  0.00     0.037 A 
ATOM     60  C   UNL A   1      41.605  35.632  36.062  1.00  0.00     0.049 A 
ATOM     61  C   UNL A   1      44.103  35.757  30.824  1.00  0.00     0.074 A 
ATOM     62  C   UNL A   1      42.704  34.790  36.097  1.00  0.00     0.029 A 
ATOM     63  N   UNL A   1      41.937  36.671  35.207  1.00  0.00    -0.354 N 
ATOM     64  N   UNL A   1      43.556  35.957  31.993  1.00  0.00    -0.248 NA
ATOM     65  C   UNL A   1      45.039  36.802  30.442  1.00  0.00     0.031 C 
ATOM     66  C   UNL A   1      43.704  35.343  35.248  1.00  0.00     0.029 A 
ATOM     67  C   UNL A   1      43.204  36.509  34.690  1.00  0.00     0.049 A 
ATOM     68  H   UNL A   1      41.345  37.428  34.996  1.00  0.00     0.167 HD
ATOM     69  C   UNL A   1      44.093  37.091  32.553  1.00  0.00     0.074 A 
ATOM     70  C   UNL A   1      45.024  37.567  31.545  1.00  0.00     0.031 C 
ATOM     71  C   UNL A   1      43.753  37.528  33.806  1.00  0.00     0.037 A 
BRANCH  58  72
ATOM     72  C   UNL A   1      39.692  35.167  37.788  1.00  0.00     0.057 A 
ATOM     73  C   UNL A   1      39.434  33.848  38.220  1.00  0.00     0.134 A 
ATOM     74  C   UNL A   1      39.462  36.146  38.774  1.00  0.00     0.134 A 
ATOM     75  F   UNL A   1      39.662  32.791  37.429  1.00  0.00    -0.206 F 
ATOM     76  C   UNL A   1      38.945  33.536  39.494  1.00  0.00     0.040 A 
ATOM     77  C   UNL A   1      38.944  35.849  40.046  1.00  0.00     0.040 A 
ATOM     78  F   UNL A   1      39.775  37.433  38.585  1.00  0.00    -0.206 F 
ATOM     79  C   UNL A   1      38.684  34.538  40.411  1.00  0.00     0.006 A 
ENDBRANCH  58  72
BRANCH  59  80
ATOM     80  C   UNL A   1      43.225  34.428  28.669  1.00  0.00     0.057 A 
ATOM     81  C   UNL A   1      42.155  35.313  28.455  1.00  0.00     0.134 A 
ATOM     82  C   UNL A   1      43.898  33.965  27.536  1.00  0.00     0.134 A 
ATOM     83  F   UNL A   1      41.439  35.773  29.494  1.00  0.00    -0.206 F 
ATOM     84  C   UNL A   1      41.920  35.887  27.209  1.00  0.00     0.040 A 
ATOM     85  C   UNL A   1      43.666  34.539  26.278  1.00  0.00     0.040 A 
ATOM     86  F   UNL A   1      44.885  33.065  27.646  1.00  0.00    -0.206 F 
ATOM     87  C   UNL A   1      42.733  35.563  26.128  1.00  0.00     0.006 A 
ENDBRANCH  59  80
BRANCH  71  88
ATOM     88  C   UNL A   1      43.944  38.932  34.367  1.00  0.00     0.057 A 
ATOM     89  C   UNL A   1      43.449  40.108  33.789  1.00  0.00     0.134 A 
ATOM     90  C   UNL A   1      44.546  39.134  35.640  1.00  0.00     0.134 A 
ATOM     91  F   UNL A   1      42.726  40.108  32.666  1.00  0.00    -0.206 F 
ATOM     92  C   UNL A   1      43.610  41.370  34.374  1.00  0.00     0.040 A 
ATOM     93  C   UNL A   1      44.620  40.373  36.277  1.00  0.00     0.040 A 
ATOM     94  F   UNL A   1      45.079  38.140  36.362  1.00  0.00    -0.206 F 
ATOM     95  C   UNL A   1      44.178  41.507  35.630  1.00  0.00     0.006 A 
ENDBRANCH  71  88
ENDBRANCH  45  46
ENDBRANCH  37  40
ENDBRANCH  35  36
ENDBRANCH  34  35
ENDBRANCH  33  34
ENDBRANCH  32  33
ENDBRANCH   1  32
TORSDOF 18
ENDMDL
MODEL 3
REMARK VINA RESULT:     -11.9      6.107     10.966
REMARK SMILES Cc1ccccc1NC(=S)NN1C(=O)CS[C@H]1c1ccccc1C(=O)NCCCCCCNC(=O)c1ccc(-c2c3nc(c(-c4c(F)cccc4F)c4ccc([nH]4)c(-c4c(F)cccc4F)c4nc(c(-c5c(F)cccc5F)c5ccc2[nH]5)C=C4)C=C3)cc1
REMARK SMILES IDX 28 1 27 2 26 3 24 4 25 5 23 7 18 8 19 9 20 10 22 11 21 12
REMARK SMILES IDX 17 13 12 14 13 15 14 16 15 17 16 18 11 19 9 21 10 22 8 23
REMARK SMILES IDX 7 25 1 26 2 27 3 28 4 29 6 30 5 31 29 32 30 33 31 34 32 35
REMARK SMILES IDX 33 36 34 37 35 39 36 40 37 41 89 42 38 43 88 44 39 45 40 46
REMARK SMILES IDX 41 47 82 48 42 49 87 50 81 51 83 52 43 53 86 54 80 55 79 56
REMARK SMILES IDX 44 58 70 59 53 60 69 61 54 62 57 63 68 64 84 65 55 66 56 67
REMARK SMILES IDX 67 69 85 70 58 71 45 72 46 73 51 74 47 75 48 76 50 77 52 78
REMARK SMILES IDX 49 79 71 80 72 81 77 82 73 83 74 84 76 85 78 86 75 87 59 88
REMARK SMILES IDX 60 89 65 90 61 91 62 92 64 93 66 94 63 95
REMARK H PARENT 26 6 11 20 8 24 33 38 83 57 57 68
REMARK Flexibility Score: inf
ROOT
ATOM      1  C   UNL A   1      44.403  24.383  31.018  1.00  0.00     0.021 C 
ENDROOT
BRANCH   1   2
ATOM      2  C   UNL A   1      44.361  24.414  32.596  1.00  0.00     0.116 C 
BRANCH   2   3
ATOM      3  N   UNL A   1      45.075  23.398  33.461  1.00  0.00    -0.352 N 
ATOM      4  C   UNL A   1      44.925  23.368  34.880  1.00  0.00     0.251 C 
ATOM      5  O   UNL A   1      43.838  22.976  35.317  1.00  0.00    -0.269 OA
ATOM      6  H   UNL A   1      45.664  22.737  33.031  1.00  0.00     0.163 HD
BRANCH   4   7
ATOM      7  C   UNL A   1      46.083  23.536  35.921  1.00  0.00     0.046 A 
ATOM      8  C   UNL A   1      46.774  22.563  36.677  1.00  0.00    -0.001 A 
ATOM      9  C   UNL A   1      47.678  22.941  37.721  1.00  0.00     0.007 A 
ATOM     10  C   UNL A   1      47.989  24.259  37.983  1.00  0.00     0.000 A 
ATOM     11  C   UNL A   1      46.503  24.869  36.160  1.00  0.00     0.014 A 
ATOM     12  C   UNL A   1      47.427  25.225  37.170  1.00  0.00     0.001 A 
BRANCH   8  13
ATOM     13  C   UNL A   1      46.388  21.143  36.677  1.00  0.00     0.197 C 
ATOM     14  N   UNL A   1      46.962  20.232  35.735  1.00  0.00    -0.236 N 
ATOM     15  C   UNL A   1      45.878  19.292  35.790  1.00  0.00     0.252 C 
ATOM     16  O   UNL A   1      44.874  19.349  35.077  1.00  0.00    -0.272 OA
ATOM     17  C   UNL A   1      45.761  18.705  37.182  1.00  0.00     0.174 C 
ATOM     18  S   UNL A   1      46.304  20.118  38.199  1.00  0.00    -0.120 SA
BRANCH  14  19
ATOM     19  N   UNL A   1      48.506  19.860  36.033  1.00  0.00    -0.270 N 
ATOM     20  H   UNL A   1      48.696  19.374  36.867  1.00  0.00     0.191 HD
BRANCH  19  21
ATOM     21  C   UNL A   1      49.605  20.166  35.211  1.00  0.00     0.189 C 
ATOM     22  S   UNL A   1      51.090  19.460  35.574  1.00  0.00    -0.039 S 
BRANCH  21  23
ATOM     23  N   UNL A   1      49.571  20.942  34.058  1.00  0.00    -0.331 N 
ATOM     24  H   UNL A   1      48.978  20.594  33.354  1.00  0.00     0.169 HD
BRANCH  23  25
ATOM     25  C   UNL A   1      50.236  22.139  33.720  1.00  0.00     0.043 A 
ATOM     26  C   UNL A   1      52.761  21.132  32.584  1.00  0.00     0.046 C 
ATOM     27  C   UNL A   1      51.868  22.280  32.951  1.00  0.00    -0.028 A 
ATOM     28  C   UNL A   1      52.735  23.876  32.975  1.00  0.00     0.005 A 
ATOM     29  C   UNL A   1      51.954  25.327  33.700  1.00  0.00     0.000 A 
ATOM     30  C   UNL A   1      49.474  23.609  34.346  1.00  0.00     0.026 A 
ATOM     31  C   UNL A   1      50.332  25.173  34.435  1.00  0.00     0.002 A 
ENDBRANCH  23  25
ENDBRANCH  21  23
ENDBRANCH  19  21
ENDBRANCH  14  19
ENDBRANCH   8  13
ENDBRANCH   4   7
ENDBRANCH   2   3
ENDBRANCH   1   2
BRANCH   1  32
ATOM     32  C   UNL A   1      43.639  23.043  30.128  1.00  0.00     0.002 C 
BRANCH  32  33
ATOM     33  C   UNL A   1      42.092  22.678  28.624  1.00  0.00     0.002 C 
BRANCH  33  34
ATOM     34  C   UNL A   1      41.808  21.575  27.267  1.00  0.00     0.021 C 
BRANCH  34  35
ATOM     35  C   UNL A   1      42.127  21.793  25.777  1.00  0.00     0.116 C 
BRANCH  35  36
ATOM     36  N   UNL A   1      43.473  21.478  25.299  1.00  0.00    -0.352 N 
ATOM     37  C   UNL A   1      44.202  22.343  24.472  1.00  0.00     0.251 C 
ATOM     38  H   UNL A   1      43.883  20.624  25.569  1.00  0.00     0.163 HD
ATOM     39  O   UNL A   1      44.512  22.097  23.318  1.00  0.00    -0.269 OA
BRANCH  37  40
ATOM     40  C   UNL A   1      44.840  23.460  25.211  1.00  0.00     0.039 A 
ATOM     41  C   UNL A   1      45.415  23.233  26.468  1.00  0.00     0.014 A 
ATOM     42  C   UNL A   1      44.419  24.725  24.832  1.00  0.00     0.014 A 
ATOM     43  C   UNL A   1      45.328  24.240  27.419  1.00  0.00     0.010 A 
ATOM     44  C   UNL A   1      44.091  25.603  25.816  1.00  0.00     0.010 A 
ATOM     45  C   UNL A   1      44.554  25.357  27.105  1.00  0.00    -0.014 A 
BRANCH  45  46
ATOM     46  C   UNL A   1      44.417  26.523  27.944  1.00  0.00     0.031 A 
ATOM     47  C   UNL A   1      43.019  26.988  28.020  1.00  0.00     0.074 A 
ATOM     48  C   UNL A   1      45.496  26.918  28.655  1.00  0.00     0.049 A 
ATOM     49  N   UNL A   1      42.637  28.209  27.979  1.00  0.00    -0.248 NA
ATOM     50  C   UNL A   1      41.874  26.058  27.972  1.00  0.00     0.031 C 
ATOM     51  C   UNL A   1      45.616  27.899  29.726  1.00  0.00     0.029 A 
ATOM     52  N   UNL A   1      46.833  26.589  28.364  1.00  0.00    -0.354 N 
ATOM     53  C   UNL A   1      41.317  28.197  28.392  1.00  0.00     0.074 A 
ATOM     54  C   UNL A   1      40.834  26.881  28.104  1.00  0.00     0.031 C 
ATOM     55  C   UNL A   1      46.877  28.380  29.722  1.00  0.00     0.029 A 
ATOM     56  C   UNL A   1      47.566  27.773  28.594  1.00  0.00     0.049 A 
ATOM     57  H   UNL A   1      47.181  25.718  28.063  1.00  0.00     0.167 HD
ATOM     58  C   UNL A   1      40.892  29.192  29.219  1.00  0.00     0.037 A 
ATOM     59  C   UNL A   1      48.094  28.450  27.530  1.00  0.00     0.037 A 
ATOM     60  C   UNL A   1      42.031  30.064  29.505  1.00  0.00     0.049 A 
ATOM     61  C   UNL A   1      47.401  29.767  27.321  1.00  0.00     0.074 A 
ATOM     62  C   UNL A   1      42.922  30.108  30.565  1.00  0.00     0.029 A 
ATOM     63  N   UNL A   1      42.650  30.712  28.448  1.00  0.00    -0.354 N 
ATOM     64  N   UNL A   1      46.163  30.005  27.664  1.00  0.00    -0.248 NA
ATOM     65  C   UNL A   1      48.094  30.943  26.818  1.00  0.00     0.031 C 
ATOM     66  C   UNL A   1      44.087  30.797  30.125  1.00  0.00     0.029 A 
ATOM     67  C   UNL A   1      43.906  31.154  28.799  1.00  0.00     0.049 A 
ATOM     68  H   UNL A   1      42.244  30.841  27.561  1.00  0.00     0.167 HD
ATOM     69  C   UNL A   1      45.901  31.345  27.502  1.00  0.00     0.074 A 
ATOM     70  C   UNL A   1      47.148  31.881  26.986  1.00  0.00     0.031 C 
ATOM     71  C   UNL A   1      44.697  31.906  27.833  1.00  0.00     0.037 A 
BRANCH  58  72
ATOM     72  C   UNL A   1      39.609  29.211  30.020  1.00  0.00     0.057 A 
ATOM     73  C   UNL A   1      38.395  29.565  29.394  1.00  0.00     0.134 A 
ATOM     74  C   UNL A   1      39.475  28.877  31.381  1.00  0.00     0.134 A 
ATOM     75  F   UNL A   1      38.332  29.848  28.087  1.00  0.00    -0.206 F 
ATOM     76  C   UNL A   1      37.170  29.630  30.070  1.00  0.00     0.040 A 
ATOM     77  C   UNL A   1      38.258  28.967  32.078  1.00  0.00     0.040 A 
ATOM     78  F   UNL A   1      40.495  28.394  32.099  1.00  0.00    -0.206 F 
ATOM     79  C   UNL A   1      37.097  29.343  31.422  1.00  0.00     0.006 A 
ENDBRANCH  58  72
BRANCH  59  80
ATOM     80  C   UNL A   1      48.599  27.521  26.483  1.00  0.00     0.057 A 
ATOM     81  C   UNL A   1      47.814  27.419  25.322  1.00  0.00     0.134 A 
ATOM     82  C   UNL A   1      49.957  27.220  26.356  1.00  0.00     0.134 A 
ATOM     83  F   UNL A   1      46.494  27.660  25.373  1.00  0.00    -0.206 F 
ATOM     84  C   UNL A   1      48.390  27.258  24.064  1.00  0.00     0.040 A 
ATOM     85  C   UNL A   1      50.542  27.057  25.092  1.00  0.00     0.040 A 
ATOM     86  F   UNL A   1      50.762  27.227  27.428  1.00  0.00    -0.206 F 
ATOM     87  C   UNL A   1      49.771  27.160  23.937  1.00  0.00     0.006 A 
ENDBRANCH  59  80
BRANCH  71  88
ATOM     88  C   UNL A   1      44.145  33.239  27.343  1.00  0.00     0.057 A 
ATOM     89  C   UNL A   1      43.870  33.557  26.007  1.00  0.00     0.134 A 
ATOM     90  C   UNL A   1      43.726  34.240  28.263  1.00  0.00     0.134 A 
ATOM     91  F   UNL A   1      44.056  32.690  25.008  1.00  0.00    -0.206 F 
ATOM     92  C   UNL A   1      43.314  34.781  25.614  1.00  0.00     0.040 A 
ATOM     93  C   UNL A   1      43.080  35.418  27.890  1.00  0.00     0.040 A 
ATOM     94  F   UNL A   1      43.894  34.130  29.588  1.00  0.00    -0.206 F 
ATOM     95  C   UNL A   1      42.898  35.710  26.554  1.00  0.00     0.006 A 
ENDBRANCH  71  88
ENDBRANCH  45  46
ENDBRANCH  37  40
ENDBRANCH  35  36
ENDBRANCH  34  35
ENDBRANCH  33  34
ENDBRANCH  32  33
ENDBRANCH   1  32
TORSDOF 18
ENDMDL
