MODEL 1
REMARK VINA RESULT:     -12.7      0.000      0.000
REMARK SMILES Cc1ccc(S(=O)(=O)n2cc(C(=O)C(=O)N[C@H](Cc3c[nH]c4ccccc34)C(=O)NCC(=O)NCCCCCCNC(=O)c3ccc(-c4c5nc(c(-c6c(F)cccc6F)c6ccc([nH]6)c(-c6c(F)cccc6F)c6nc(c(-c7c(F)cccc7F)c7ccc4[nH]7)C=C6)C=C5)cc3)c3ccccc32)cc1
REMARK SMILES IDX 35 1 34 2 32 3 33 4 31 6 30 7 28 8 29 9 17 11 16 12 14 13
REMARK SMILES IDX 15 14 12 16 13 17 11 18 9 19 10 20 103 21 98 22 102 23 99 24
REMARK SMILES IDX 101 25 100 26 6 27 7 28 8 29 5 30 1 31 2 32 3 33 105 34 4 35
REMARK SMILES IDX 104 36 18 37 19 38 20 39 27 40 21 41 22 42 26 43 23 45 25 46
REMARK SMILES IDX 24 47 36 48 37 49 38 50 39 51 40 52 41 53 42 54 43 56 44 57
REMARK SMILES IDX 45 58 97 59 46 60 96 61 47 62 48 63 49 64 90 65 50 66 95 67
REMARK SMILES IDX 89 68 91 69 51 70 94 71 88 72 87 73 52 75 78 76 61 77 77 78
REMARK SMILES IDX 62 79 65 80 76 81 92 82 63 83 64 84 75 86 93 87 66 88 53 89
REMARK SMILES IDX 54 90 59 91 55 92 56 93 58 94 60 95 57 96 79 97 80 98 85 99
REMARK SMILES IDX 81 100 82 101 84 102 86 103 83 104 67 105 68 106 73 107
REMARK SMILES IDX 69 108 70 109 72 110 74 111 71 112
REMARK H PARENT 34 5 30 10 16 15 21 44 41 55 91 74 65 85
REMARK Flexibility Score: inf
ROOT
ATOM      1  C   UNL A   1      34.006  33.172  28.436  1.00  0.00     0.116 C 
ENDROOT
BRANCH   1   2
ATOM      2  N   UNL A   1      34.701  31.908  28.219  1.00  0.00    -0.355 N 
ATOM      3  C   UNL A   1      34.294  30.769  27.582  1.00  0.00     0.239 C 
ATOM      4  O   UNL A   1      35.169  29.943  27.300  1.00  0.00    -0.273 OA
ATOM      5  H   UNL A   1      35.611  31.869  28.593  1.00  0.00     0.163 HD
BRANCH   3   6
ATOM      6  C   UNL A   1      32.858  30.553  27.070  1.00  0.00     0.216 C 
BRANCH   6   7
ATOM      7  N   UNL A   1      32.156  29.421  27.624  1.00  0.00    -0.345 N 
ATOM      8  C   UNL A   1      31.815  28.201  27.163  1.00  0.00     0.243 C 
ATOM      9  O   UNL A   1      31.367  27.450  28.042  1.00  0.00    -0.273 OA
ATOM     10  H   UNL A   1      31.860  29.574  28.550  1.00  0.00     0.164 HD
BRANCH   8  11
ATOM     11  C   UNL A   1      31.868  27.692  25.685  1.00  0.00     0.176 C 
BRANCH  11  12
ATOM     12  N   UNL A   1      30.794  26.815  25.102  1.00  0.00    -0.337 N 
ATOM     13  C   UNL A   1      30.429  25.479  25.212  1.00  0.00     0.293 C 
ATOM     14  O   UNL A   1      29.535  25.034  24.497  1.00  0.00    -0.265 OA
ATOM     15  H   UNL A   1      30.203  27.311  24.492  1.00  0.00     0.164 HD
BRANCH  13  16
ATOM     16  C   UNL A   1      31.099  24.561  26.230  1.00  0.00     0.252 C 
ATOM     17  O   UNL A   1      30.434  24.359  27.249  1.00  0.00    -0.283 OA
BRANCH  16  18
ATOM     18  C   UNL A   1      32.431  23.930  26.121  1.00  0.00     0.054 A 
ATOM     19  N   UNL A   1      34.545  23.116  26.278  1.00  0.00    -0.240 N 
ATOM     20  C   UNL A   1      33.757  24.293  26.394  1.00  0.00     0.117 A 
ATOM     21  C   UNL A   1      33.620  22.057  26.305  1.00  0.00     0.065 A 
ATOM     22  C   UNL A   1      32.556  22.610  25.612  1.00  0.00     0.012 A 
ATOM     23  C   UNL A   1      33.782  20.667  26.421  1.00  0.00     0.028 A 
ATOM     24  C   UNL A   1      31.849  21.806  24.712  1.00  0.00     0.011 A 
ATOM     25  C   UNL A   1      33.031  19.879  25.537  1.00  0.00     0.002 A 
ATOM     26  C   UNL A   1      32.138  20.450  24.636  1.00  0.00     0.001 A 
BRANCH  19  27
ATOM     27  S   UNL A   1      35.718  22.874  24.941  1.00  0.00     0.268 S 
ATOM     28  O   UNL A   1      36.290  24.186  24.705  1.00  0.00    -0.201 OA
ATOM     29  O   UNL A   1      34.917  22.207  23.922  1.00  0.00    -0.201 OA
BRANCH  27  30
ATOM     30  C   UNL A   1      37.055  21.746  25.146  1.00  0.00     0.088 A 
ATOM     31  C   UNL A   1      40.662  19.554  26.042  1.00  0.00     0.044 C 
ATOM     32  C   UNL A   1      39.378  20.278  25.756  1.00  0.00    -0.051 A 
ATOM     33  C   UNL A   1      39.299  21.616  26.118  1.00  0.00     0.005 A 
ATOM     34  C   UNL A   1      38.280  19.679  25.100  1.00  0.00     0.005 A 
ATOM     35  C   UNL A   1      38.148  22.329  25.829  1.00  0.00     0.022 A 
ATOM     36  C   UNL A   1      37.108  20.409  24.789  1.00  0.00     0.022 A 
ENDBRANCH  27  30
ENDBRANCH  19  27
ENDBRANCH  16  18
ENDBRANCH  13  16
ENDBRANCH  11  12
BRANCH  11  37
ATOM     37  C   UNL A   1      33.290  27.512  25.059  1.00  0.00     0.072 C 
BRANCH  37  38
ATOM     38  C   UNL A   1      33.406  27.418  23.559  1.00  0.00    -0.020 A 
ATOM     39  C   UNL A   1      33.700  28.484  22.733  1.00  0.00     0.087 A 
ATOM     40  C   UNL A   1      33.278  26.271  22.696  1.00  0.00     0.003 A 
ATOM     41  N   UNL A   1      33.641  28.062  21.437  1.00  0.00    -0.361 N 
ATOM     42  C   UNL A   1      33.347  26.727  21.378  1.00  0.00     0.046 A 
ATOM     43  C   UNL A   1      33.060  24.893  22.893  1.00  0.00     0.010 A 
ATOM     44  H   UNL A   1      33.789  28.639  20.653  1.00  0.00     0.166 HD
ATOM     45  C   UNL A   1      33.136  25.908  20.262  1.00  0.00     0.026 A 
ATOM     46  C   UNL A   1      32.874  24.049  21.785  1.00  0.00     0.001 A 
ATOM     47  C   UNL A   1      32.891  24.556  20.489  1.00  0.00     0.002 A 
ENDBRANCH  37  38
ENDBRANCH  11  37
ENDBRANCH   8  11
ENDBRANCH   6   7
ENDBRANCH   3   6
ENDBRANCH   1   2
BRANCH   1  48
ATOM     48  C   UNL A   1      34.820  34.393  28.002  1.00  0.00     0.021 C 
BRANCH  48  49
ATOM     49  C   UNL A   1      34.226  35.788  28.268  1.00  0.00     0.002 C 
BRANCH  49  50
ATOM     50  C   UNL A   1      32.917  35.947  29.067  1.00  0.00     0.002 C 
BRANCH  50  51
ATOM     51  C   UNL A   1      32.898  36.619  30.444  1.00  0.00     0.021 C 
BRANCH  51  52
ATOM     52  C   UNL A   1      32.533  35.778  31.663  1.00  0.00     0.116 C 
BRANCH  52  53
ATOM     53  N   UNL A   1      33.323  36.014  32.866  1.00  0.00    -0.352 N 
ATOM     54  C   UNL A   1      34.355  35.256  33.414  1.00  0.00     0.251 C 
ATOM     55  H   UNL A   1      33.091  36.830  33.364  1.00  0.00     0.163 HD
ATOM     56  O   UNL A   1      34.866  35.595  34.465  1.00  0.00    -0.269 OA
BRANCH  54  57
ATOM     57  C   UNL A   1      34.945  34.131  32.634  1.00  0.00     0.039 A 
ATOM     58  C   UNL A   1      35.069  32.894  33.282  1.00  0.00     0.014 A 
ATOM     59  C   UNL A   1      35.589  34.340  31.423  1.00  0.00     0.014 A 
ATOM     60  C   UNL A   1      36.080  32.018  32.894  1.00  0.00     0.010 A 
ATOM     61  C   UNL A   1      36.663  33.537  31.108  1.00  0.00     0.010 A 
ATOM     62  C   UNL A   1      36.959  32.426  31.898  1.00  0.00    -0.014 A 
BRANCH  62  63
ATOM     63  C   UNL A   1      38.263  31.825  31.659  1.00  0.00     0.031 A 
ATOM     64  C   UNL A   1      38.368  30.563  30.908  1.00  0.00     0.074 A 
ATOM     65  C   UNL A   1      39.371  32.515  32.005  1.00  0.00     0.049 A 
ATOM     66  N   UNL A   1      39.422  29.823  30.876  1.00  0.00    -0.248 NA
ATOM     67  C   UNL A   1      37.255  30.015  30.144  1.00  0.00     0.031 C 
ATOM     68  C   UNL A   1      40.751  32.261  31.599  1.00  0.00     0.029 A 
ATOM     69  N   UNL A   1      39.483  33.487  33.010  1.00  0.00    -0.354 N 
ATOM     70  C   UNL A   1      39.229  28.847  29.927  1.00  0.00     0.074 A 
ATOM     71  C   UNL A   1      37.847  28.987  29.529  1.00  0.00     0.031 C 
ATOM     72  C   UNL A   1      41.574  32.790  32.519  1.00  0.00     0.029 A 
ATOM     73  C   UNL A   1      40.745  33.265  33.612  1.00  0.00     0.049 A 
ATOM     74  H   UNL A   1      38.822  34.178  33.247  1.00  0.00     0.167 HD
ATOM     75  C   UNL A   1      40.298  28.101  29.525  1.00  0.00     0.037 A 
ATOM     76  C   UNL A   1      40.824  32.836  34.907  1.00  0.00     0.037 A 
ATOM     77  C   UNL A   1      41.484  28.410  30.323  1.00  0.00     0.049 A 
ATOM     78  C   UNL A   1      41.459  31.470  35.080  1.00  0.00     0.074 A 
ATOM     79  C   UNL A   1      42.575  29.248  30.160  1.00  0.00     0.029 A 
ATOM     80  N   UNL A   1      41.488  28.031  31.651  1.00  0.00    -0.354 N 
ATOM     81  N   UNL A   1      41.815  30.694  34.093  1.00  0.00    -0.248 NA
ATOM     82  C   UNL A   1      41.665  30.835  36.383  1.00  0.00     0.031 C 
ATOM     83  C   UNL A   1      43.206  29.403  31.430  1.00  0.00     0.029 A 
ATOM     84  C   UNL A   1      42.504  28.647  32.353  1.00  0.00     0.049 A 
ATOM     85  H   UNL A   1      40.846  27.400  32.048  1.00  0.00     0.167 HD
ATOM     86  C   UNL A   1      42.227  29.487  34.588  1.00  0.00     0.074 A 
ATOM     87  C   UNL A   1      42.124  29.624  36.028  1.00  0.00     0.031 C 
ATOM     88  C   UNL A   1      42.581  28.442  33.789  1.00  0.00     0.037 A 
BRANCH  75  89
ATOM     89  C   UNL A   1      40.329  27.229  28.293  1.00  0.00     0.057 A 
ATOM     90  C   UNL A   1      39.682  25.977  28.290  1.00  0.00     0.134 A 
ATOM     91  C   UNL A   1      40.997  27.536  27.095  1.00  0.00     0.134 A 
ATOM     92  F   UNL A   1      38.926  25.572  29.319  1.00  0.00    -0.206 F 
ATOM     93  C   UNL A   1      39.782  25.069  27.228  1.00  0.00     0.040 A 
ATOM     94  C   UNL A   1      41.152  26.616  26.048  1.00  0.00     0.040 A 
ATOM     95  F   UNL A   1      41.479  28.759  26.850  1.00  0.00    -0.206 F 
ATOM     96  C   UNL A   1      40.550  25.370  26.115  1.00  0.00     0.006 A 
ENDBRANCH  75  89
BRANCH  76  97
ATOM     97  C   UNL A   1      39.722  33.384  35.747  1.00  0.00     0.057 A 
ATOM     98  C   UNL A   1      38.619  32.554  36.025  1.00  0.00     0.134 A 
ATOM     99  C   UNL A   1      39.921  34.482  36.588  1.00  0.00     0.134 A 
ATOM    100  F   UNL A   1      38.370  31.483  35.253  1.00  0.00    -0.206 F 
ATOM    101  C   UNL A   1      37.842  32.722  37.172  1.00  0.00     0.040 A 
ATOM    102  C   UNL A   1      39.129  34.675  37.725  1.00  0.00     0.040 A 
ATOM    103  F   UNL A   1      40.958  35.311  36.398  1.00  0.00    -0.206 F 
ATOM    104  C   UNL A   1      38.121  33.767  38.047  1.00  0.00     0.006 A 
ENDBRANCH  76  97
BRANCH  88 105
ATOM    105  C   UNL A   1      43.032  27.120  34.326  1.00  0.00     0.057 A 
ATOM    106  C   UNL A   1      44.373  26.720  34.287  1.00  0.00     0.134 A 
ATOM    107  C   UNL A   1      42.111  26.154  34.776  1.00  0.00     0.134 A 
ATOM    108  F   UNL A   1      45.326  27.554  33.844  1.00  0.00    -0.206 F 
ATOM    109  C   UNL A   1      44.777  25.442  34.686  1.00  0.00     0.040 A 
ATOM    110  C   UNL A   1      42.496  24.860  35.130  1.00  0.00     0.040 A 
ATOM    111  F   UNL A   1      40.806  26.439  34.905  1.00  0.00    -0.206 F 
ATOM    112  C   UNL A   1      43.835  24.501  35.092  1.00  0.00     0.006 A 
ENDBRANCH  88 105
ENDBRANCH  62  63
ENDBRANCH  54  57
ENDBRANCH  52  53
ENDBRANCH  51  52
ENDBRANCH  50  51
ENDBRANCH  49  50
ENDBRANCH  48  49
ENDBRANCH   1  48
TORSDOF 22
ENDMDL
MODEL 2
REMARK VINA RESULT:     -12.4      2.852      4.511
REMARK SMILES Cc1ccc(S(=O)(=O)n2cc(C(=O)C(=O)N[C@H](Cc3c[nH]c4ccccc34)C(=O)NCC(=O)NCCCCCCNC(=O)c3ccc(-c4c5nc(c(-c6c(F)cccc6F)c6ccc([nH]6)c(-c6c(F)cccc6F)c6nc(c(-c7c(F)cccc7F)c7ccc4[nH]7)C=C6)C=C5)cc3)c3ccccc32)cc1
REMARK SMILES IDX 35 1 34 2 32 3 33 4 31 6 30 7 28 8 29 9 17 11 16 12 14 13
REMARK SMILES IDX 15 14 12 16 13 17 11 18 9 19 10 20 103 21 98 22 102 23 99 24
REMARK SMILES IDX 101 25 100 26 6 27 7 28 8 29 5 30 1 31 2 32 3 33 105 34 4 35
REMARK SMILES IDX 104 36 18 37 19 38 20 39 27 40 21 41 22 42 26 43 23 45 25 46
REMARK SMILES IDX 24 47 36 48 37 49 38 50 39 51 40 52 41 53 42 54 43 56 44 57
REMARK SMILES IDX 45 58 97 59 46 60 96 61 47 62 48 63 49 64 90 65 50 66 95 67
REMARK SMILES IDX 89 68 91 69 51 70 94 71 88 72 87 73 52 75 78 76 61 77 77 78
REMARK SMILES IDX 62 79 65 80 76 81 92 82 63 83 64 84 75 86 93 87 66 88 53 89
REMARK SMILES IDX 54 90 59 91 55 92 56 93 58 94 60 95 57 96 79 97 80 98 85 99
REMARK SMILES IDX 81 100 82 101 84 102 86 103 83 104 67 105 68 106 73 107
REMARK SMILES IDX 69 108 70 109 72 110 74 111 71 112
REMARK H PARENT 34 5 30 10 16 15 21 44 41 55 91 74 65 85
REMARK Flexibility Score: inf
ROOT
ATOM      1  C   UNL A   1      34.141  29.658  27.468  1.00  0.00     0.116 C 
ENDROOT
BRANCH   1   2
ATOM      2  N   UNL A   1      34.219  29.418  26.032  1.00  0.00    -0.355 N 
ATOM      3  C   UNL A   1      33.231  29.329  25.092  1.00  0.00     0.239 C 
ATOM      4  O   UNL A   1      33.579  29.392  23.907  1.00  0.00    -0.273 OA
ATOM      5  H   UNL A   1      35.133  29.299  25.683  1.00  0.00     0.163 HD
BRANCH   3   6
ATOM      6  C   UNL A   1      31.731  29.319  25.439  1.00  0.00     0.216 C 
BRANCH   6   7
ATOM      7  N   UNL A   1      31.258  28.160  26.154  1.00  0.00    -0.345 N 
ATOM      8  C   UNL A   1      30.985  26.884  25.813  1.00  0.00     0.243 C 
ATOM      9  O   UNL A   1      30.771  26.149  26.789  1.00  0.00    -0.273 OA
ATOM     10  H   UNL A   1      31.099  28.341  27.108  1.00  0.00     0.164 HD
BRANCH   8  11
ATOM     11  C   UNL A   1      30.856  26.290  24.371  1.00  0.00     0.176 C 
BRANCH  11  12
ATOM     12  N   UNL A   1      31.881  26.555  23.303  1.00  0.00    -0.337 N 
ATOM     13  C   UNL A   1      33.217  26.231  23.100  1.00  0.00     0.293 C 
ATOM     14  O   UNL A   1      33.817  26.708  22.141  1.00  0.00    -0.265 OA
ATOM     15  H   UNL A   1      31.513  27.089  22.564  1.00  0.00     0.164 HD
BRANCH  13  16
ATOM     16  C   UNL A   1      33.945  25.268  24.034  1.00  0.00     0.252 C 
ATOM     17  O   UNL A   1      34.719  25.813  24.824  1.00  0.00    -0.283 OA
BRANCH  16  18
ATOM     18  C   UNL A   1      33.826  23.795  24.065  1.00  0.00     0.054 A 
ATOM     19  N   UNL A   1      33.931  21.534  23.883  1.00  0.00    -0.240 N 
ATOM     20  C   UNL A   1      33.916  22.746  23.140  1.00  0.00     0.117 A 
ATOM     21  C   UNL A   1      34.220  21.923  25.204  1.00  0.00     0.065 A 
ATOM     22  C   UNL A   1      33.540  23.127  25.285  1.00  0.00     0.012 A 
ATOM     23  C   UNL A   1      34.555  21.187  26.350  1.00  0.00     0.028 A 
ATOM     24  C   UNL A   1      32.855  23.435  26.465  1.00  0.00     0.011 A 
ATOM     25  C   UNL A   1      33.887  21.541  27.532  1.00  0.00     0.002 A 
ATOM     26  C   UNL A   1      32.985  22.600  27.566  1.00  0.00     0.001 A 
BRANCH  19  27
ATOM     27  S   UNL A   1      32.555  20.381  23.868  1.00  0.00     0.268 S 
ATOM     28  O   UNL A   1      31.965  20.523  22.551  1.00  0.00    -0.201 OA
ATOM     29  O   UNL A   1      31.815  20.743  25.070  1.00  0.00    -0.201 OA
BRANCH  27  30
ATOM     30  C   UNL A   1      32.854  18.664  24.129  1.00  0.00     0.088 A 
ATOM     31  C   UNL A   1      33.250  14.577  25.453  1.00  0.00     0.044 C 
ATOM     32  C   UNL A   1      33.084  15.981  24.949  1.00  0.00    -0.051 A 
ATOM     33  C   UNL A   1      32.585  16.928  25.835  1.00  0.00     0.005 A 
ATOM     34  C   UNL A   1      33.451  16.387  23.648  1.00  0.00     0.005 A 
ATOM     35  C   UNL A   1      32.460  18.243  25.422  1.00  0.00     0.022 A 
ATOM     36  C   UNL A   1      33.339  17.734  23.226  1.00  0.00     0.022 A 
ENDBRANCH  27  30
ENDBRANCH  19  27
ENDBRANCH  16  18
ENDBRANCH  13  16
ENDBRANCH  11  12
BRANCH  11  37
ATOM     37  C   UNL A   1      29.405  26.022  23.854  1.00  0.00     0.072 C 
BRANCH  37  38
ATOM     38  C   UNL A   1      28.529  27.207  23.538  1.00  0.00    -0.020 A 
ATOM     39  C   UNL A   1      27.186  27.287  23.848  1.00  0.00     0.087 A 
ATOM     40  C   UNL A   1      28.865  28.460  22.910  1.00  0.00     0.003 A 
ATOM     41  N   UNL A   1      26.689  28.453  23.344  1.00  0.00    -0.361 N 
ATOM     42  C   UNL A   1      27.678  29.174  22.732  1.00  0.00     0.046 A 
ATOM     43  C   UNL A   1      30.052  29.047  22.428  1.00  0.00     0.010 A 
ATOM     44  H   UNL A   1      25.749  28.738  23.411  1.00  0.00     0.166 HD
ATOM     45  C   UNL A   1      27.601  30.388  22.039  1.00  0.00     0.026 A 
ATOM     46  C   UNL A   1      29.999  30.279  21.754  1.00  0.00     0.001 A 
ATOM     47  C   UNL A   1      28.786  30.928  21.545  1.00  0.00     0.002 A 
ENDBRANCH  37  38
ENDBRANCH  11  37
ENDBRANCH   8  11
ENDBRANCH   6   7
ENDBRANCH   3   6
ENDBRANCH   1   2
BRANCH   1  48
ATOM     48  C   UNL A   1      35.499  29.959  28.107  1.00  0.00     0.021 C 
BRANCH  48  49
ATOM     49  C   UNL A   1      36.183  31.292  27.755  1.00  0.00     0.002 C 
BRANCH  49  50
ATOM     50  C   UNL A   1      35.597  32.631  28.244  1.00  0.00     0.002 C 
BRANCH  50  51
ATOM     51  C   UNL A   1      34.563  32.687  29.374  1.00  0.00     0.021 C 
BRANCH  51  52
ATOM     52  C   UNL A   1      34.968  32.199  30.761  1.00  0.00     0.116 C 
BRANCH  52  53
ATOM     53  N   UNL A   1      35.973  32.995  31.454  1.00  0.00    -0.352 N 
ATOM     54  C   UNL A   1      37.319  32.719  31.687  1.00  0.00     0.251 C 
ATOM     55  H   UNL A   1      35.653  33.854  31.811  1.00  0.00     0.163 HD
ATOM     56  O   UNL A   1      37.995  33.495  32.336  1.00  0.00    -0.269 OA
BRANCH  54  57
ATOM     57  C   UNL A   1      37.969  31.566  31.003  1.00  0.00     0.039 A 
ATOM     58  C   UNL A   1      37.912  30.321  31.645  1.00  0.00     0.014 A 
ATOM     59  C   UNL A   1      38.822  31.742  29.922  1.00  0.00     0.014 A 
ATOM     60  C   UNL A   1      38.923  29.389  31.423  1.00  0.00     0.010 A 
ATOM     61  C   UNL A   1      39.887  30.880  29.784  1.00  0.00     0.010 A 
ATOM     62  C   UNL A   1      39.980  29.750  30.597  1.00  0.00    -0.014 A 
BRANCH  62  63
ATOM     63  C   UNL A   1      41.271  29.076  30.576  1.00  0.00     0.031 A 
ATOM     64  C   UNL A   1      41.431  27.810  29.841  1.00  0.00     0.074 A 
ATOM     65  C   UNL A   1      42.341  29.702  31.111  1.00  0.00     0.049 A 
ATOM     66  N   UNL A   1      42.431  27.012  29.980  1.00  0.00    -0.248 NA
ATOM     67  C   UNL A   1      40.434  27.328  28.894  1.00  0.00     0.031 C 
ATOM     68  C   UNL A   1      43.753  29.370  30.941  1.00  0.00     0.029 A 
ATOM     69  N   UNL A   1      42.336  30.665  32.130  1.00  0.00    -0.354 N 
ATOM     70  C   UNL A   1      42.347  26.049  29.001  1.00  0.00     0.074 A 
ATOM     71  C   UNL A   1      41.063  26.268  28.378  1.00  0.00     0.031 C 
ATOM     72  C   UNL A   1      44.437  29.851  31.992  1.00  0.00     0.029 A 
ATOM     73  C   UNL A   1      43.463  30.371  32.934  1.00  0.00     0.049 A 
ATOM     74  H   UNL A   1      41.685  31.392  32.259  1.00  0.00     0.167 HD
ATOM     75  C   UNL A   1      43.425  25.243  28.778  1.00  0.00     0.037 A 
ATOM     76  C   UNL A   1      43.298  29.938  34.219  1.00  0.00     0.037 A 
ATOM     77  C   UNL A   1      44.474  25.484  29.767  1.00  0.00     0.049 A 
ATOM     78  C   UNL A   1      43.818  28.538  34.483  1.00  0.00     0.074 A 
ATOM     79  C   UNL A   1      45.623  26.259  29.800  1.00  0.00     0.029 A 
ATOM     80  N   UNL A   1      44.233  25.105  31.073  1.00  0.00    -0.354 N 
ATOM     81  N   UNL A   1      44.291  27.743  33.563  1.00  0.00    -0.248 NA
ATOM     82  C   UNL A   1      43.764  27.891  35.796  1.00  0.00     0.031 C 
ATOM     83  C   UNL A   1      46.037  26.376  31.160  1.00  0.00     0.029 A 
ATOM     84  C   UNL A   1      45.149  25.661  31.943  1.00  0.00     0.049 A 
ATOM     85  H   UNL A   1      43.499  24.511  31.350  1.00  0.00     0.167 HD
ATOM     86  C   UNL A   1      44.545  26.514  34.108  1.00  0.00     0.074 A 
ATOM     87  C   UNL A   1      44.208  26.656  35.512  1.00  0.00     0.031 C 
ATOM     88  C   UNL A   1      44.970  25.452  33.370  1.00  0.00     0.037 A 
BRANCH  75  89
ATOM     89  C   UNL A   1      43.616  24.372  27.560  1.00  0.00     0.057 A 
ATOM     90  C   UNL A   1      43.521  22.970  27.666  1.00  0.00     0.134 A 
ATOM     91  C   UNL A   1      43.925  24.833  26.269  1.00  0.00     0.134 A 
ATOM     92  F   UNL A   1      43.147  22.372  28.805  1.00  0.00    -0.206 F 
ATOM     93  C   UNL A   1      43.813  22.102  26.606  1.00  0.00     0.040 A 
ATOM     94  C   UNL A   1      44.273  23.978  25.214  1.00  0.00     0.040 A 
ATOM     95  F   UNL A   1      43.843  26.128  25.945  1.00  0.00    -0.206 F 
ATOM     96  C   UNL A   1      44.228  22.603  25.382  1.00  0.00     0.006 A 
ENDBRANCH  75  89
BRANCH  76  97
ATOM     97  C   UNL A   1      42.103  30.547  34.867  1.00  0.00     0.057 A 
ATOM     98  C   UNL A   1      42.199  31.874  35.329  1.00  0.00     0.134 A 
ATOM     99  C   UNL A   1      40.819  30.035  34.662  1.00  0.00     0.134 A 
ATOM    100  F   UNL A   1      43.403  32.426  35.551  1.00  0.00    -0.206 F 
ATOM    101  C   UNL A   1      41.077  32.699  35.438  1.00  0.00     0.040 A 
ATOM    102  C   UNL A   1      39.687  30.847  34.795  1.00  0.00     0.040 A 
ATOM    103  F   UNL A   1      40.645  28.786  34.208  1.00  0.00    -0.206 F 
ATOM    104  C   UNL A   1      39.818  32.193  35.133  1.00  0.00     0.006 A 
ENDBRANCH  76  97
BRANCH  88 105
ATOM    105  C   UNL A   1      45.249  24.105  33.962  1.00  0.00     0.057 A 
ATOM    106  C   UNL A   1      46.553  23.632  34.150  1.00  0.00     0.134 A 
ATOM    107  C   UNL A   1      44.213  23.191  34.234  1.00  0.00     0.134 A 
ATOM    108  F   UNL A   1      47.612  24.413  33.888  1.00  0.00    -0.206 F 
ATOM    109  C   UNL A   1      46.812  22.333  34.599  1.00  0.00     0.040 A 
ATOM    110  C   UNL A   1      44.460  21.877  34.635  1.00  0.00     0.040 A 
ATOM    111  F   UNL A   1      42.923  23.547  34.139  1.00  0.00    -0.206 F 
ATOM    112  C   UNL A   1      45.764  21.445  34.825  1.00  0.00     0.006 A 
ENDBRANCH  88 105
ENDBRANCH  62  63
ENDBRANCH  54  57
ENDBRANCH  52  53
ENDBRANCH  51  52
ENDBRANCH  50  51
ENDBRANCH  49  50
ENDBRANCH  48  49
ENDBRANCH   1  48
TORSDOF 22
ENDMDL
MODEL 3
REMARK VINA RESULT:     -12.2      4.439     10.446
REMARK SMILES Cc1ccc(S(=O)(=O)n2cc(C(=O)C(=O)N[C@H](Cc3c[nH]c4ccccc34)C(=O)NCC(=O)NCCCCCCNC(=O)c3ccc(-c4c5nc(c(-c6c(F)cccc6F)c6ccc([nH]6)c(-c6c(F)cccc6F)c6nc(c(-c7c(F)cccc7F)c7ccc4[nH]7)C=C6)C=C5)cc3)c3ccccc32)cc1
REMARK SMILES IDX 35 1 34 2 32 3 33 4 31 6 30 7 28 8 29 9 17 11 16 12 14 13
REMARK SMILES IDX 15 14 12 16 13 17 11 18 9 19 10 20 103 21 98 22 102 23 99 24
REMARK SMILES IDX 101 25 100 26 6 27 7 28 8 29 5 30 1 31 2 32 3 33 105 34 4 35
REMARK SMILES IDX 104 36 18 37 19 38 20 39 27 40 21 41 22 42 26 43 23 45 25 46
REMARK SMILES IDX 24 47 36 48 37 49 38 50 39 51 40 52 41 53 42 54 43 56 44 57
REMARK SMILES IDX 45 58 97 59 46 60 96 61 47 62 48 63 49 64 90 65 50 66 95 67
REMARK SMILES IDX 89 68 91 69 51 70 94 71 88 72 87 73 52 75 78 76 61 77 77 78
REMARK SMILES IDX 62 79 65 80 76 81 92 82 63 83 64 84 75 86 93 87 66 88 53 89
REMARK SMILES IDX 54 90 59 91 55 92 56 93 58 94 60 95 57 96 79 97 80 98 85 99
REMARK SMILES IDX 81 100 82 101 84 102 86 103 83 104 67 105 68 106 73 107
REMARK SMILES IDX 69 108 70 109 72 110 74 111 71 112
REMARK H PARENT 34 5 30 10 16 15 21 44 41 55 91 74 65 85
REMARK Flexibility Score: inf
ROOT
ATOM      1  C   UNL A   1      38.506  21.855  25.836  1.00  0.00     0.116 C 
ENDROOT
BRANCH   1   2
ATOM      2  N   UNL A   1      37.792  21.873  24.565  1.00  0.00    -0.355 N 
ATOM      3  C   UNL A   1      36.913  22.786  24.053  1.00  0.00     0.239 C 
ATOM      4  O   UNL A   1      36.662  22.706  22.845  1.00  0.00    -0.273 OA
ATOM      5  H   UNL A   1      37.973  21.102  23.979  1.00  0.00     0.163 HD
BRANCH   3   6
ATOM      6  C   UNL A   1      36.364  23.977  24.861  1.00  0.00     0.216 C 
BRANCH   6   7
ATOM      7  N   UNL A   1      35.165  23.723  25.620  1.00  0.00    -0.345 N 
ATOM      8  C   UNL A   1      34.046  23.000  25.409  1.00  0.00     0.243 C 
ATOM      9  O   UNL A   1      33.327  22.901  26.415  1.00  0.00    -0.273 OA
ATOM     10  H   UNL A   1      35.163  24.180  26.492  1.00  0.00     0.164 HD
BRANCH   8  11
ATOM     11  C   UNL A   1      33.564  22.362  24.065  1.00  0.00     0.176 C 
BRANCH  11  12
ATOM     12  N   UNL A   1      33.668  23.089  22.752  1.00  0.00    -0.337 N 
ATOM     13  C   UNL A   1      32.956  24.096  22.110  1.00  0.00     0.293 C 
ATOM     14  O   UNL A   1      33.246  24.401  20.957  1.00  0.00    -0.265 OA
ATOM     15  H   UNL A   1      34.429  22.774  22.215  1.00  0.00     0.164 HD
BRANCH  13  16
ATOM     16  C   UNL A   1      31.839  24.850  22.826  1.00  0.00     0.252 C 
ATOM     17  O   UNL A   1      30.791  24.210  22.948  1.00  0.00    -0.283 OA
BRANCH  16  18
ATOM     18  C   UNL A   1      31.888  26.230  23.350  1.00  0.00     0.054 A 
ATOM     19  N   UNL A   1      32.268  28.386  23.954  1.00  0.00    -0.240 N 
ATOM     20  C   UNL A   1      32.875  27.108  23.820  1.00  0.00     0.117 A 
ATOM     21  C   UNL A   1      31.071  28.297  23.220  1.00  0.00     0.065 A 
ATOM     22  C   UNL A   1      30.694  26.989  23.476  1.00  0.00     0.012 A 
ATOM     23  C   UNL A   1      30.141  29.266  22.814  1.00  0.00     0.028 A 
ATOM     24  C   UNL A   1      29.342  26.709  23.697  1.00  0.00     0.011 A 
ATOM     25  C   UNL A   1      28.789  28.947  23.006  1.00  0.00     0.002 A 
ATOM     26  C   UNL A   1      28.400  27.714  23.521  1.00  0.00     0.001 A 
BRANCH  19  27
ATOM     27  S   UNL A   1      31.954  29.137  25.554  1.00  0.00     0.268 S 
ATOM     28  O   UNL A   1      31.339  28.088  26.343  1.00  0.00    -0.201 OA
ATOM     29  O   UNL A   1      31.221  30.348  25.206  1.00  0.00    -0.201 OA
BRANCH  27  30
ATOM     30  C   UNL A   1      33.297  29.784  26.492  1.00  0.00     0.088 A 
ATOM     31  C   UNL A   1      36.106  31.947  28.951  1.00  0.00     0.044 C 
ATOM     32  C   UNL A   1      35.134  31.152  28.129  1.00  0.00    -0.051 A 
ATOM     33  C   UNL A   1      33.904  31.731  27.848  1.00  0.00     0.005 A 
ATOM     34  C   UNL A   1      35.430  29.878  27.596  1.00  0.00     0.005 A 
ATOM     35  C   UNL A   1      32.998  31.048  27.055  1.00  0.00     0.022 A 
ATOM     36  C   UNL A   1      34.513  29.183  26.772  1.00  0.00     0.022 A 
ENDBRANCH  27  30
ENDBRANCH  19  27
ENDBRANCH  16  18
ENDBRANCH  13  16
ENDBRANCH  11  12
BRANCH  11  37
ATOM     37  C   UNL A   1      32.398  21.325  24.164  1.00  0.00     0.072 C 
BRANCH  37  38
ATOM     38  C   UNL A   1      32.669  20.006  24.842  1.00  0.00    -0.020 A 
ATOM     39  C   UNL A   1      32.578  19.798  26.203  1.00  0.00     0.087 A 
ATOM     40  C   UNL A   1      33.030  18.734  24.270  1.00  0.00     0.003 A 
ATOM     41  N   UNL A   1      32.971  18.521  26.478  1.00  0.00    -0.361 N 
ATOM     42  C   UNL A   1      33.291  17.857  25.325  1.00  0.00     0.046 A 
ATOM     43  C   UNL A   1      33.211  18.243  22.961  1.00  0.00     0.010 A 
ATOM     44  H   UNL A   1      33.019  18.131  27.381  1.00  0.00     0.166 HD
ATOM     45  C   UNL A   1      33.791  16.561  25.151  1.00  0.00     0.026 A 
ATOM     46  C   UNL A   1      33.686  16.936  22.765  1.00  0.00     0.001 A 
ATOM     47  C   UNL A   1      33.991  16.115  23.846  1.00  0.00     0.002 A 
ENDBRANCH  37  38
ENDBRANCH  11  37
ENDBRANCH   8  11
ENDBRANCH   6   7
ENDBRANCH   3   6
ENDBRANCH   1   2
BRANCH   1  48
ATOM     48  C   UNL A   1      39.642  20.829  25.879  1.00  0.00     0.021 C 
BRANCH  48  49
ATOM     49  C   UNL A   1      40.545  20.806  27.124  1.00  0.00     0.002 C 
BRANCH  49  50
ATOM     50  C   UNL A   1      41.869  21.595  27.153  1.00  0.00     0.002 C 
BRANCH  50  51
ATOM     51  C   UNL A   1      41.954  23.034  26.631  1.00  0.00     0.021 C 
BRANCH  51  52
ATOM     52  C   UNL A   1      42.565  23.277  25.255  1.00  0.00     0.116 C 
BRANCH  52  53
ATOM     53  N   UNL A   1      43.519  22.278  24.790  1.00  0.00    -0.352 N 
ATOM     54  C   UNL A   1      44.911  22.282  24.852  1.00  0.00     0.251 C 
ATOM     55  H   UNL A   1      43.121  21.482  24.370  1.00  0.00     0.163 HD
ATOM     56  O   UNL A   1      45.545  21.368  24.360  1.00  0.00    -0.269 OA
BRANCH  54  57
ATOM     57  C   UNL A   1      45.614  23.316  25.665  1.00  0.00     0.039 A 
ATOM     58  C   UNL A   1      45.769  23.062  27.035  1.00  0.00     0.014 A 
ATOM     59  C   UNL A   1      45.872  24.586  25.169  1.00  0.00     0.014 A 
ATOM     60  C   UNL A   1      45.850  24.131  27.924  1.00  0.00     0.010 A 
ATOM     61  C   UNL A   1      45.833  25.649  26.044  1.00  0.00     0.010 A 
ATOM     62  C   UNL A   1      45.733  25.419  27.417  1.00  0.00    -0.014 A 
BRANCH  62  63
ATOM     63  C   UNL A   1      45.406  26.590  28.219  1.00  0.00     0.031 A 
ATOM     64  C   UNL A   1      44.002  27.002  28.384  1.00  0.00     0.074 A 
ATOM     65  C   UNL A   1      46.390  27.194  28.920  1.00  0.00     0.049 A 
ATOM     66  N   UNL A   1      43.632  28.150  28.836  1.00  0.00    -0.248 NA
ATOM     67  C   UNL A   1      42.888  26.140  28.016  1.00  0.00     0.031 C 
ATOM     68  C   UNL A   1      46.254  28.167  30.001  1.00  0.00     0.029 A 
ATOM     69  N   UNL A   1      47.759  27.202  28.621  1.00  0.00    -0.354 N 
ATOM     70  C   UNL A   1      42.274  28.108  29.043  1.00  0.00     0.074 A 
ATOM     71  C   UNL A   1      41.852  26.847  28.478  1.00  0.00     0.031 C 
ATOM     72  C   UNL A   1      47.382  28.893  30.069  1.00  0.00     0.029 A 
ATOM     73  C   UNL A   1      48.208  28.506  28.940  1.00  0.00     0.049 A 
ATOM     74  H   UNL A   1      48.296  26.457  28.264  1.00  0.00     0.167 HD
ATOM     75  C   UNL A   1      41.687  29.111  29.757  1.00  0.00     0.037 A 
ATOM     76  C   UNL A   1      48.640  29.346  27.953  1.00  0.00     0.037 A 
ATOM     77  C   UNL A   1      42.649  30.166  30.070  1.00  0.00     0.049 A 
ATOM     78  C   UNL A   1      47.806  30.602  27.786  1.00  0.00     0.074 A 
ATOM     79  C   UNL A   1      43.450  30.462  31.162  1.00  0.00     0.029 A 
ATOM     80  N   UNL A   1      43.124  30.940  29.029  1.00  0.00    -0.354 N 
ATOM     81  N   UNL A   1      46.702  30.843  28.438  1.00  0.00    -0.248 NA
ATOM     82  C   UNL A   1      48.108  31.647  26.806  1.00  0.00     0.031 C 
ATOM     83  C   UNL A   1      44.445  31.393  30.740  1.00  0.00     0.029 A 
ATOM     84  C   UNL A   1      44.235  31.669  29.401  1.00  0.00     0.049 A 
ATOM     85  H   UNL A   1      42.719  30.968  28.133  1.00  0.00     0.167 HD
ATOM     86  C   UNL A   1      46.131  31.990  27.958  1.00  0.00     0.074 A 
ATOM     87  C   UNL A   1      47.051  32.464  26.942  1.00  0.00     0.031 C 
ATOM     88  C   UNL A   1      44.924  32.452  28.389  1.00  0.00     0.037 A 
BRANCH  75  89
ATOM     89  C   UNL A   1      40.295  29.058  30.339  1.00  0.00     0.057 A 
ATOM     90  C   UNL A   1      40.094  28.637  31.670  1.00  0.00     0.134 A 
ATOM     91  C   UNL A   1      39.111  29.370  29.649  1.00  0.00     0.134 A 
ATOM     92  F   UNL A   1      41.122  28.388  32.492  1.00  0.00    -0.206 F 
ATOM     93  C   UNL A   1      38.824  28.444  32.227  1.00  0.00     0.040 A 
ATOM     94  C   UNL A   1      37.833  29.129  30.174  1.00  0.00     0.040 A 
ATOM     95  F   UNL A   1      39.128  29.983  28.461  1.00  0.00    -0.206 F 
ATOM     96  C   UNL A   1      37.684  28.654  31.467  1.00  0.00     0.006 A 
ENDBRANCH  75  89
BRANCH  76  97
ATOM     97  C   UNL A   1      49.318  28.612  26.849  1.00  0.00     0.057 A 
ATOM     98  C   UNL A   1      50.607  28.095  27.084  1.00  0.00     0.134 A 
ATOM     99  C   UNL A   1      48.599  28.067  25.782  1.00  0.00     0.134 A 
ATOM    100  F   UNL A   1      51.354  28.578  28.091  1.00  0.00    -0.206 F 
ATOM    101  C   UNL A   1      51.094  26.988  26.388  1.00  0.00     0.040 A 
ATOM    102  C   UNL A   1      49.091  26.974  25.061  1.00  0.00     0.040 A 
ATOM    103  F   UNL A   1      47.359  28.495  25.504  1.00  0.00    -0.206 F 
ATOM    104  C   UNL A   1      50.317  26.400  25.396  1.00  0.00     0.006 A 
ENDBRANCH  76  97
BRANCH  88 105
ATOM    105  C   UNL A   1      44.295  33.706  27.867  1.00  0.00     0.057 A 
ATOM    106  C   UNL A   1      43.805  33.802  26.559  1.00  0.00     0.134 A 
ATOM    107  C   UNL A   1      44.287  34.895  28.620  1.00  0.00     0.134 A 
ATOM    108  F   UNL A   1      43.799  32.735  25.747  1.00  0.00    -0.206 F 
ATOM    109  C   UNL A   1      43.320  35.006  26.037  1.00  0.00     0.040 A 
ATOM    110  C   UNL A   1      43.852  36.112  28.094  1.00  0.00     0.040 A 
ATOM    111  F   UNL A   1      44.684  34.914  29.902  1.00  0.00    -0.206 F 
ATOM    112  C   UNL A   1      43.359  36.170  26.798  1.00  0.00     0.006 A 
ENDBRANCH  88 105
ENDBRANCH  62  63
ENDBRANCH  54  57
ENDBRANCH  52  53
ENDBRANCH  51  52
ENDBRANCH  50  51
ENDBRANCH  49  50
ENDBRANCH  48  49
ENDBRANCH   1  48
TORSDOF 22
ENDMDL
