MODEL 1
REMARK VINA RESULT:     -11.0      0.000      0.000
REMARK SMILES CSc1ccc(Cl)c(C(=O)N[C@@H](CO)C(=O)NCCCCCCNC(=O)c2ccc(-c3c4nc(c(-c5c(F)cccc5F)c5ccc([nH]5)c(-c5c(F)cccc5F)c5nc(c(-c6c(F)cccc6F)c6ccc3[nH]6)C=C5)C=C4)cc2)c1
REMARK SMILES IDX 20 1 19 2 18 3 17 4 15 5 16 6 12 8 11 9 9 10 10 11 8 13 3 14
REMARK SMILES IDX 4 15 81 16 5 17 6 18 7 19 2 20 1 21 13 22 14 23 21 25 22 26
REMARK SMILES IDX 23 27 24 28 25 29 26 31 27 32 28 33 80 34 29 35 79 36 30 37
REMARK SMILES IDX 31 38 32 39 73 40 33 41 78 42 72 43 74 44 34 45 77 46 71 47
REMARK SMILES IDX 70 48 35 50 61 51 44 52 60 53 45 54 48 55 59 56 75 57 46 58
REMARK SMILES IDX 47 59 58 61 76 62 49 63 36 64 37 65 42 66 38 67 39 68 41 69
REMARK SMILES IDX 43 70 40 71 62 72 63 73 68 74 64 75 65 76 67 77 69 78 66 79
REMARK SMILES IDX 50 80 51 81 56 82 52 83 53 84 55 85 57 86 54 87
REMARK H PARENT 17 7 11 12 14 24 24 30 74 49 48 60
REMARK Flexibility Score: inf
ROOT
ATOM      1  C   UNL A   1      31.780  29.218  26.888  1.00  0.00     0.002 C 
ENDROOT
BRANCH   1   2
ATOM      2  C   UNL A   1      32.338  27.968  26.199  1.00  0.00     0.021 C 
BRANCH   2   3
ATOM      3  C   UNL A   1      31.311  27.114  25.460  1.00  0.00     0.116 C 
BRANCH   3   4
ATOM      4  N   UNL A   1      30.851  27.763  24.250  1.00  0.00    -0.354 N 
ATOM      5  C   UNL A   1      31.404  27.873  23.017  1.00  0.00     0.244 C 
ATOM      6  O   UNL A   1      30.684  28.374  22.142  1.00  0.00    -0.273 OA
ATOM      7  H   UNL A   1      29.976  28.205  24.340  1.00  0.00     0.163 HD
BRANCH   5   8
ATOM      8  C   UNL A   1      32.792  27.321  22.635  1.00  0.00     0.197 C 
BRANCH   8   9
ATOM      9  N   UNL A   1      32.855  26.408  21.489  1.00  0.00    -0.338 N 
ATOM     10  C   UNL A   1      33.061  25.061  21.344  1.00  0.00     0.253 C 
ATOM     11  O   UNL A   1      33.178  24.670  20.179  1.00  0.00    -0.269 OA
ATOM     12  H   UNL A   1      32.718  26.867  20.629  1.00  0.00     0.164 HD
BRANCH  10  13
ATOM     13  C   UNL A   1      33.046  24.030  22.427  1.00  0.00     0.059 A 
ATOM     14  C   UNL A   1      34.530  22.608  23.811  1.00  0.00     0.008 A 
ATOM     15  C   UNL A   1      33.411  22.035  24.404  1.00  0.00     0.016 A 
ATOM     16  C   UNL A   1      34.333  23.559  22.795  1.00  0.00     0.030 A 
ATOM     17  C   UNL A   1      32.140  22.512  24.093  1.00  0.00     0.022 A 
ATOM     18  C   UNL A   1      31.963  23.556  23.171  1.00  0.00     0.053 A 
ATOM     19  Cl  UNL A   1      30.411  24.298  23.248  1.00  0.00    -0.083 Cl
BRANCH  14  20
ATOM     20  S   UNL A   1      36.205  22.211  24.293  1.00  0.00    -0.130 SA
ATOM     21  C   UNL A   1      36.629  23.578  25.418  1.00  0.00     0.091 C 
ENDBRANCH  14  20
ENDBRANCH  10  13
ENDBRANCH   8   9
BRANCH   8  22
ATOM     22  C   UNL A   1      33.798  28.479  22.465  1.00  0.00     0.191 C 
BRANCH  22  23
ATOM     23  O   UNL A   1      33.507  29.601  23.304  1.00  0.00    -0.394 OA
ATOM     24  H   UNL A   1      33.500  29.317  24.232  1.00  0.00     0.210 HD
ENDBRANCH  22  23
ENDBRANCH   8  22
ENDBRANCH   5   8
ENDBRANCH   3   4
ENDBRANCH   2   3
ENDBRANCH   1   2
BRANCH   1  25
ATOM     25  C   UNL A   1      31.954  30.536  26.129  1.00  0.00     0.002 C 
BRANCH  25  26
ATOM     26  C   UNL A   1      31.579  31.798  26.905  1.00  0.00     0.021 C 
BRANCH  26  27
ATOM     27  C   UNL A   1      32.756  32.657  27.347  1.00  0.00     0.116 C 
BRANCH  27  28
ATOM     28  N   UNL A   1      32.383  34.038  27.610  1.00  0.00    -0.352 N 
ATOM     29  C   UNL A   1      32.944  34.910  28.508  1.00  0.00     0.251 C 
ATOM     30  H   UNL A   1      31.634  34.391  27.077  1.00  0.00     0.163 HD
ATOM     31  O   UNL A   1      32.449  36.012  28.716  1.00  0.00    -0.269 OA
BRANCH  29  32
ATOM     32  C   UNL A   1      34.147  34.486  29.253  1.00  0.00     0.039 A 
ATOM     33  C   UNL A   1      33.996  33.889  30.506  1.00  0.00     0.014 A 
ATOM     34  C   UNL A   1      35.415  34.628  28.679  1.00  0.00     0.014 A 
ATOM     35  C   UNL A   1      35.115  33.375  31.162  1.00  0.00     0.010 A 
ATOM     36  C   UNL A   1      36.517  34.056  29.302  1.00  0.00     0.010 A 
ATOM     37  C   UNL A   1      36.378  33.424  30.550  1.00  0.00    -0.014 A 
BRANCH  37  38
ATOM     38  C   UNL A   1      37.581  32.840  31.192  1.00  0.00     0.031 A 
ATOM     39  C   UNL A   1      38.245  31.645  30.570  1.00  0.00     0.074 A 
ATOM     40  C   UNL A   1      38.017  33.321  32.372  1.00  0.00     0.049 A 
ATOM     41  N   UNL A   1      39.206  30.893  31.039  1.00  0.00    -0.248 NA
ATOM     42  C   UNL A   1      37.736  31.222  29.254  1.00  0.00     0.031 C 
ATOM     43  C   UNL A   1      37.437  34.455  33.093  1.00  0.00     0.029 A 
ATOM     44  N   UNL A   1      39.038  32.898  33.185  1.00  0.00    -0.354 N 
ATOM     45  C   UNL A   1      39.396  29.894  30.093  1.00  0.00     0.074 A 
ATOM     46  C   UNL A   1      38.425  30.110  29.044  1.00  0.00     0.031 C 
ATOM     47  C   UNL A   1      38.116  34.644  34.236  1.00  0.00     0.029 A 
ATOM     48  C   UNL A   1      39.151  33.621  34.348  1.00  0.00     0.049 A 
ATOM     49  H   UNL A   1      39.634  32.150  32.955  1.00  0.00     0.167 HD
ATOM     50  C   UNL A   1      40.312  28.897  30.092  1.00  0.00     0.037 A 
ATOM     51  C   UNL A   1      39.984  33.462  35.394  1.00  0.00     0.037 A 
ATOM     52  C   UNL A   1      41.299  28.707  31.120  1.00  0.00     0.049 A 
ATOM     53  C   UNL A   1      40.990  32.345  35.370  1.00  0.00     0.074 A 
ATOM     54  C   UNL A   1      42.309  27.762  31.181  1.00  0.00     0.029 A 
ATOM     55  N   UNL A   1      41.401  29.479  32.266  1.00  0.00    -0.354 N 
ATOM     56  N   UNL A   1      41.195  31.436  34.447  1.00  0.00    -0.248 NA
ATOM     57  C   UNL A   1      41.882  32.229  36.533  1.00  0.00     0.031 C 
ATOM     58  C   UNL A   1      43.002  27.943  32.382  1.00  0.00     0.029 A 
ATOM     59  C   UNL A   1      42.448  29.024  33.049  1.00  0.00     0.049 A 
ATOM     60  H   UNL A   1      40.816  30.239  32.491  1.00  0.00     0.167 HD
ATOM     61  C   UNL A   1      42.255  30.663  34.901  1.00  0.00     0.074 A 
ATOM     62  C   UNL A   1      42.656  31.211  36.180  1.00  0.00     0.031 C 
ATOM     63  C   UNL A   1      42.845  29.596  34.310  1.00  0.00     0.037 A 
BRANCH  50  64
ATOM     64  C   UNL A   1      40.287  27.938  28.939  1.00  0.00     0.057 A 
ATOM     65  C   UNL A   1      41.014  28.176  27.765  1.00  0.00     0.134 A 
ATOM     66  C   UNL A   1      39.549  26.750  29.012  1.00  0.00     0.134 A 
ATOM     67  F   UNL A   1      41.730  29.302  27.625  1.00  0.00    -0.206 F 
ATOM     68  C   UNL A   1      40.987  27.279  26.695  1.00  0.00     0.040 A 
ATOM     69  C   UNL A   1      39.535  25.833  27.960  1.00  0.00     0.040 A 
ATOM     70  F   UNL A   1      38.833  26.459  30.110  1.00  0.00    -0.206 F 
ATOM     71  C   UNL A   1      40.250  26.100  26.795  1.00  0.00     0.006 A 
ENDBRANCH  50  64
BRANCH  51  72
ATOM     72  C   UNL A   1      39.914  34.392  36.548  1.00  0.00     0.057 A 
ATOM     73  C   UNL A   1      40.611  35.607  36.537  1.00  0.00     0.134 A 
ATOM     74  C   UNL A   1      39.160  34.093  37.688  1.00  0.00     0.134 A 
ATOM     75  F   UNL A   1      41.366  35.940  35.481  1.00  0.00    -0.206 F 
ATOM     76  C   UNL A   1      40.575  36.480  37.625  1.00  0.00     0.040 A 
ATOM     77  C   UNL A   1      39.096  34.968  38.774  1.00  0.00     0.040 A 
ATOM     78  F   UNL A   1      38.464  32.947  37.759  1.00  0.00    -0.206 F 
ATOM     79  C   UNL A   1      39.812  36.163  38.746  1.00  0.00     0.006 A 
ENDBRANCH  51  72
BRANCH  63  80
ATOM     80  C   UNL A   1      44.015  28.977  35.013  1.00  0.00     0.057 A 
ATOM     81  C   UNL A   1      45.323  29.428  34.809  1.00  0.00     0.134 A 
ATOM     82  C   UNL A   1      43.818  27.959  35.955  1.00  0.00     0.134 A 
ATOM     83  F   UNL A   1      45.578  30.392  33.910  1.00  0.00    -0.206 F 
ATOM     84  C   UNL A   1      46.399  28.880  35.510  1.00  0.00     0.040 A 
ATOM     85  C   UNL A   1      44.881  27.419  36.678  1.00  0.00     0.040 A 
ATOM     86  F   UNL A   1      42.585  27.488  36.202  1.00  0.00    -0.206 F 
ATOM     87  C   UNL A   1      46.178  27.879  36.454  1.00  0.00     0.006 A 
ENDBRANCH  63  80
ENDBRANCH  37  38
ENDBRANCH  29  32
ENDBRANCH  27  28
ENDBRANCH  26  27
ENDBRANCH  25  26
ENDBRANCH   1  25
TORSDOF 18
ENDMDL
MODEL 2
REMARK VINA RESULT:     -11.0      2.429      3.293
REMARK SMILES CSc1ccc(Cl)c(C(=O)N[C@@H](CO)C(=O)NCCCCCCNC(=O)c2ccc(-c3c4nc(c(-c5c(F)cccc5F)c5ccc([nH]5)c(-c5c(F)cccc5F)c5nc(c(-c6c(F)cccc6F)c6ccc3[nH]6)C=C5)C=C4)cc2)c1
REMARK SMILES IDX 20 1 19 2 18 3 17 4 15 5 16 6 12 8 11 9 9 10 10 11 8 13 3 14
REMARK SMILES IDX 4 15 81 16 5 17 6 18 7 19 2 20 1 21 13 22 14 23 21 25 22 26
REMARK SMILES IDX 23 27 24 28 25 29 26 31 27 32 28 33 80 34 29 35 79 36 30 37
REMARK SMILES IDX 31 38 32 39 73 40 33 41 78 42 72 43 74 44 34 45 77 46 71 47
REMARK SMILES IDX 70 48 35 50 61 51 44 52 60 53 45 54 48 55 59 56 75 57 46 58
REMARK SMILES IDX 47 59 58 61 76 62 49 63 36 64 37 65 42 66 38 67 39 68 41 69
REMARK SMILES IDX 43 70 40 71 62 72 63 73 68 74 64 75 65 76 67 77 69 78 66 79
REMARK SMILES IDX 50 80 51 81 56 82 52 83 53 84 55 85 57 86 54 87
REMARK H PARENT 17 7 11 12 14 24 24 30 74 49 48 60
REMARK Flexibility Score: inf
ROOT
ATOM      1  C   UNL A   1      32.284  28.106  26.366  1.00  0.00     0.002 C 
ENDROOT
BRANCH   1   2
ATOM      2  C   UNL A   1      33.121  26.972  25.762  1.00  0.00     0.021 C 
BRANCH   2   3
ATOM      3  C   UNL A   1      32.381  25.653  25.550  1.00  0.00     0.116 C 
BRANCH   3   4
ATOM      4  N   UNL A   1      32.537  24.768  26.685  1.00  0.00    -0.354 N 
ATOM      5  C   UNL A   1      32.034  23.537  26.949  1.00  0.00     0.244 C 
ATOM      6  O   UNL A   1      32.478  22.973  27.957  1.00  0.00    -0.273 OA
ATOM      7  H   UNL A   1      33.117  25.126  27.396  1.00  0.00     0.163 HD
BRANCH   5   8
ATOM      8  C   UNL A   1      31.055  22.784  26.025  1.00  0.00     0.197 C 
BRANCH   8   9
ATOM      9  N   UNL A   1      31.406  21.408  25.661  1.00  0.00    -0.338 N 
ATOM     10  C   UNL A   1      32.421  20.834  24.942  1.00  0.00     0.253 C 
ATOM     11  O   UNL A   1      32.300  19.622  24.737  1.00  0.00    -0.269 OA
ATOM     12  H   UNL A   1      30.768  20.747  26.014  1.00  0.00     0.164 HD
BRANCH  10  13
ATOM     13  C   UNL A   1      33.683  21.494  24.487  1.00  0.00     0.059 A 
ATOM     14  C   UNL A   1      36.151  21.276  24.549  1.00  0.00     0.008 A 
ATOM     15  C   UNL A   1      36.265  22.477  23.861  1.00  0.00     0.016 A 
ATOM     16  C   UNL A   1      34.866  20.826  24.898  1.00  0.00     0.030 A 
ATOM     17  C   UNL A   1      35.120  23.128  23.406  1.00  0.00     0.022 A 
ATOM     18  C   UNL A   1      33.842  22.599  23.648  1.00  0.00     0.053 A 
ATOM     19  Cl  UNL A   1      32.608  23.275  22.653  1.00  0.00    -0.083 Cl
BRANCH  14  20
ATOM     20  S   UNL A   1      37.557  20.264  24.992  1.00  0.00    -0.130 SA
ATOM     21  C   UNL A   1      38.708  21.477  25.711  1.00  0.00     0.091 C 
ENDBRANCH  14  20
ENDBRANCH  10  13
ENDBRANCH   8   9
BRANCH   8  22
ATOM     22  C   UNL A   1      29.624  22.847  26.600  1.00  0.00     0.191 C 
BRANCH  22  23
ATOM     23  O   UNL A   1      29.578  22.622  28.013  1.00  0.00    -0.394 OA
ATOM     24  H   UNL A   1      28.809  22.071  28.227  1.00  0.00     0.210 HD
ENDBRANCH  22  23
ENDBRANCH   8  22
ENDBRANCH   5   8
ENDBRANCH   3   4
ENDBRANCH   2   3
ENDBRANCH   1   2
BRANCH   1  25
ATOM     25  C   UNL A   1      32.270  29.420  25.582  1.00  0.00     0.002 C 
BRANCH  25  26
ATOM     26  C   UNL A   1      31.718  30.630  26.333  1.00  0.00     0.021 C 
BRANCH  26  27
ATOM     27  C   UNL A   1      32.750  31.426  27.120  1.00  0.00     0.116 C 
BRANCH  27  28
ATOM     28  N   UNL A   1      32.339  32.799  27.369  1.00  0.00    -0.352 N 
ATOM     29  C   UNL A   1      32.976  33.750  28.126  1.00  0.00     0.251 C 
ATOM     30  H   UNL A   1      31.497  33.081  26.941  1.00  0.00     0.163 HD
ATOM     31  O   UNL A   1      32.452  34.835  28.352  1.00  0.00    -0.269 OA
BRANCH  29  32
ATOM     32  C   UNL A   1      34.300  33.433  28.696  1.00  0.00     0.039 A 
ATOM     33  C   UNL A   1      34.372  32.710  29.889  1.00  0.00     0.014 A 
ATOM     34  C   UNL A   1      35.465  33.802  28.015  1.00  0.00     0.014 A 
ATOM     35  C   UNL A   1      35.616  32.300  30.370  1.00  0.00     0.010 A 
ATOM     36  C   UNL A   1      36.696  33.336  28.460  1.00  0.00     0.010 A 
ATOM     37  C   UNL A   1      36.783  32.582  29.642  1.00  0.00    -0.014 A 
BRANCH  37  38
ATOM     38  C   UNL A   1      38.117  32.116  30.095  1.00  0.00     0.031 A 
ATOM     39  C   UNL A   1      38.683  30.841  29.538  1.00  0.00     0.074 A 
ATOM     40  C   UNL A   1      38.772  32.783  31.065  1.00  0.00     0.049 A 
ATOM     41  N   UNL A   1      39.751  30.180  29.902  1.00  0.00    -0.248 NA
ATOM     42  C   UNL A   1      37.927  30.209  28.445  1.00  0.00     0.031 C 
ATOM     43  C   UNL A   1      38.311  34.015  31.708  1.00  0.00     0.029 A 
ATOM     44  N   UNL A   1      39.958  32.503  31.695  1.00  0.00    -0.354 N 
ATOM     45  C   UNL A   1      39.778  29.044  29.105  1.00  0.00     0.074 A 
ATOM     46  C   UNL A   1      38.600  29.082  28.268  1.00  0.00     0.031 C 
ATOM     47  C   UNL A   1      39.207  34.389  32.634  1.00  0.00     0.029 A 
ATOM     48  C   UNL A   1      40.283  33.404  32.680  1.00  0.00     0.049 A 
ATOM     49  H   UNL A   1      40.522  31.731  31.463  1.00  0.00     0.167 HD
ATOM     50  C   UNL A   1      40.714  28.064  29.063  1.00  0.00     0.037 A 
ATOM     51  C   UNL A   1      41.323  33.421  33.535  1.00  0.00     0.037 A 
ATOM     52  C   UNL A   1      41.902  28.049  29.872  1.00  0.00     0.049 A 
ATOM     53  C   UNL A   1      42.347  32.321  33.470  1.00  0.00     0.074 A 
ATOM     54  C   UNL A   1      42.940  27.133  29.862  1.00  0.00     0.029 A 
ATOM     55  N   UNL A   1      42.211  28.996  30.835  1.00  0.00    -0.354 N 
ATOM     56  N   UNL A   1      42.389  31.277  32.678  1.00  0.00    -0.248 NA
ATOM     57  C   UNL A   1      43.468  32.400  34.418  1.00  0.00     0.031 C 
ATOM     58  C   UNL A   1      43.862  27.509  30.844  1.00  0.00     0.029 A 
ATOM     59  C   UNL A   1      43.417  28.680  31.437  1.00  0.00     0.049 A 
ATOM     60  H   UNL A   1      41.657  29.778  31.059  1.00  0.00     0.167 HD
ATOM     61  C   UNL A   1      43.552  30.594  33.009  1.00  0.00     0.074 A 
ATOM     62  C   UNL A   1      44.190  31.343  34.071  1.00  0.00     0.031 C 
ATOM     63  C   UNL A   1      44.047  29.449  32.478  1.00  0.00     0.037 A 
BRANCH  50  64
ATOM     64  C   UNL A   1      40.485  26.933  28.106  1.00  0.00     0.057 A 
ATOM     65  C   UNL A   1      41.116  26.884  26.855  1.00  0.00     0.134 A 
ATOM     66  C   UNL A   1      39.646  25.865  28.448  1.00  0.00     0.134 A 
ATOM     67  F   UNL A   1      41.922  27.882  26.462  1.00  0.00    -0.206 F 
ATOM     68  C   UNL A   1      40.900  25.827  25.969  1.00  0.00     0.040 A 
ATOM     69  C   UNL A   1      39.443  24.790  27.581  1.00  0.00     0.040 A 
ATOM     70  F   UNL A   1      39.014  25.847  29.631  1.00  0.00    -0.206 F 
ATOM     71  C   UNL A   1      40.065  24.773  26.335  1.00  0.00     0.006 A 
ENDBRANCH  50  64
BRANCH  51  72
ATOM     72  C   UNL A   1      41.461  34.525  34.518  1.00  0.00     0.057 A 
ATOM     73  C   UNL A   1      40.950  34.400  35.816  1.00  0.00     0.134 A 
ATOM     74  C   UNL A   1      42.096  35.727  34.187  1.00  0.00     0.134 A 
ATOM     75  F   UNL A   1      40.315  33.279  36.185  1.00  0.00    -0.206 F 
ATOM     76  C   UNL A   1      41.050  35.438  36.743  1.00  0.00     0.040 A 
ATOM     77  C   UNL A   1      42.223  36.765  35.112  1.00  0.00     0.040 A 
ATOM     78  F   UNL A   1      42.611  35.907  32.962  1.00  0.00    -0.206 F 
ATOM     79  C   UNL A   1      41.692  36.624  36.393  1.00  0.00     0.006 A 
ENDBRANCH  51  72
BRANCH  63  80
ATOM     80  C   UNL A   1      45.363  28.959  33.002  1.00  0.00     0.057 A 
ATOM     81  C   UNL A   1      45.444  28.052  34.065  1.00  0.00     0.134 A 
ATOM     82  C   UNL A   1      46.560  29.353  32.391  1.00  0.00     0.134 A 
ATOM     83  F   UNL A   1      44.333  27.648  34.700  1.00  0.00    -0.206 F 
ATOM     84  C   UNL A   1      46.673  27.561  34.509  1.00  0.00     0.040 A 
ATOM     85  C   UNL A   1      47.792  28.851  32.811  1.00  0.00     0.040 A 
ATOM     86  F   UNL A   1      46.549  30.214  31.362  1.00  0.00    -0.206 F 
ATOM     87  C   UNL A   1      47.850  27.954  33.875  1.00  0.00     0.006 A 
ENDBRANCH  63  80
ENDBRANCH  37  38
ENDBRANCH  29  32
ENDBRANCH  27  28
ENDBRANCH  26  27
ENDBRANCH  25  26
ENDBRANCH   1  25
TORSDOF 18
ENDMDL
MODEL 3
REMARK VINA RESULT:     -10.9      1.980      3.229
REMARK SMILES CSc1ccc(Cl)c(C(=O)N[C@@H](CO)C(=O)NCCCCCCNC(=O)c2ccc(-c3c4nc(c(-c5c(F)cccc5F)c5ccc([nH]5)c(-c5c(F)cccc5F)c5nc(c(-c6c(F)cccc6F)c6ccc3[nH]6)C=C5)C=C4)cc2)c1
REMARK SMILES IDX 20 1 19 2 18 3 17 4 15 5 16 6 12 8 11 9 9 10 10 11 8 13 3 14
REMARK SMILES IDX 4 15 81 16 5 17 6 18 7 19 2 20 1 21 13 22 14 23 21 25 22 26
REMARK SMILES IDX 23 27 24 28 25 29 26 31 27 32 28 33 80 34 29 35 79 36 30 37
REMARK SMILES IDX 31 38 32 39 73 40 33 41 78 42 72 43 74 44 34 45 77 46 71 47
REMARK SMILES IDX 70 48 35 50 61 51 44 52 60 53 45 54 48 55 59 56 75 57 46 58
REMARK SMILES IDX 47 59 58 61 76 62 49 63 36 64 37 65 42 66 38 67 39 68 41 69
REMARK SMILES IDX 43 70 40 71 62 72 63 73 68 74 64 75 65 76 67 77 69 78 66 79
REMARK SMILES IDX 50 80 51 81 56 82 52 83 53 84 55 85 57 86 54 87
REMARK H PARENT 17 7 11 12 14 24 24 30 74 49 48 60
REMARK Flexibility Score: inf
ROOT
ATOM      1  C   UNL A   1      31.956  29.097  26.355  1.00  0.00     0.002 C 
ENDROOT
BRANCH   1   2
ATOM      2  C   UNL A   1      32.934  28.130  25.676  1.00  0.00     0.021 C 
BRANCH   2   3
ATOM      3  C   UNL A   1      32.685  26.649  25.949  1.00  0.00     0.116 C 
BRANCH   3   4
ATOM      4  N   UNL A   1      33.927  25.914  26.063  1.00  0.00    -0.354 N 
ATOM      5  C   UNL A   1      34.471  24.933  25.300  1.00  0.00     0.244 C 
ATOM      6  O   UNL A   1      35.632  24.607  25.582  1.00  0.00    -0.273 OA
ATOM      7  H   UNL A   1      34.479  26.175  26.835  1.00  0.00     0.163 HD
BRANCH   5   8
ATOM      8  C   UNL A   1      33.783  24.307  24.071  1.00  0.00     0.197 C 
BRANCH   8   9
ATOM      9  N   UNL A   1      33.812  25.078  22.824  1.00  0.00    -0.338 N 
ATOM     10  C   UNL A   1      32.890  25.818  22.131  1.00  0.00     0.253 C 
ATOM     11  O   UNL A   1      33.263  26.219  21.024  1.00  0.00    -0.269 OA
ATOM     12  H   UNL A   1      34.693  25.060  22.386  1.00  0.00     0.164 HD
BRANCH  10  13
ATOM     13  C   UNL A   1      31.552  26.270  22.620  1.00  0.00     0.059 A 
ATOM     14  C   UNL A   1      30.014  28.213  22.635  1.00  0.00     0.008 A 
ATOM     15  C   UNL A   1      29.126  27.492  23.423  1.00  0.00     0.016 A 
ATOM     16  C   UNL A   1      31.237  27.613  22.287  1.00  0.00     0.030 A 
ATOM     17  C   UNL A   1      29.390  26.158  23.724  1.00  0.00     0.022 A 
ATOM     18  C   UNL A   1      30.556  25.527  23.259  1.00  0.00     0.053 A 
ATOM     19  Cl  UNL A   1      30.498  23.808  23.342  1.00  0.00    -0.083 Cl
BRANCH  14  20
ATOM     20  S   UNL A   1      29.669  29.858  22.023  1.00  0.00    -0.130 SA
ATOM     21  C   UNL A   1      27.932  30.105  22.510  1.00  0.00     0.091 C 
ENDBRANCH  14  20
ENDBRANCH  10  13
ENDBRANCH   8   9
BRANCH   8  22
ATOM     22  C   UNL A   1      34.310  22.874  23.838  1.00  0.00     0.191 C 
BRANCH  22  23
ATOM     23  O   UNL A   1      34.259  22.061  25.014  1.00  0.00    -0.394 OA
ATOM     24  H   UNL A   1      33.601  22.422  25.629  1.00  0.00     0.210 HD
ENDBRANCH  22  23
ENDBRANCH   8  22
ENDBRANCH   5   8
ENDBRANCH   3   4
ENDBRANCH   2   3
ENDBRANCH   1   2
BRANCH   1  25
ATOM     25  C   UNL A   1      31.346  30.174  25.455  1.00  0.00     0.002 C 
BRANCH  25  26
ATOM     26  C   UNL A   1      31.175  31.550  26.098  1.00  0.00     0.021 C 
BRANCH  26  27
ATOM     27  C   UNL A   1      32.381  32.052  26.879  1.00  0.00     0.116 C 
BRANCH  27  28
ATOM     28  N   UNL A   1      32.248  33.438  27.300  1.00  0.00    -0.352 N 
ATOM     29  C   UNL A   1      33.050  34.141  28.164  1.00  0.00     0.251 C 
ATOM     30  H   UNL A   1      31.487  33.933  26.918  1.00  0.00     0.163 HD
ATOM     31  O   UNL A   1      32.749  35.272  28.528  1.00  0.00    -0.269 OA
BRANCH  29  32
ATOM     32  C   UNL A   1      34.275  33.497  28.678  1.00  0.00     0.039 A 
ATOM     33  C   UNL A   1      35.517  34.065  28.383  1.00  0.00     0.014 A 
ATOM     34  C   UNL A   1      34.184  32.368  29.498  1.00  0.00     0.014 A 
ATOM     35  C   UNL A   1      36.670  33.536  28.965  1.00  0.00     0.010 A 
ATOM     36  C   UNL A   1      35.324  31.885  30.128  1.00  0.00     0.010 A 
ATOM     37  C   UNL A   1      36.578  32.464  29.867  1.00  0.00    -0.014 A 
BRANCH  37  38
ATOM     38  C   UNL A   1      37.775  31.910  30.546  1.00  0.00     0.031 A 
ATOM     39  C   UNL A   1      38.571  30.827  29.874  1.00  0.00     0.074 A 
ATOM     40  C   UNL A   1      38.089  32.309  31.793  1.00  0.00     0.049 A 
ATOM     41  N   UNL A   1      39.553  30.104  30.348  1.00  0.00    -0.248 NA
ATOM     42  C   UNL A   1      38.189  30.493  28.492  1.00  0.00     0.031 C 
ATOM     43  C   UNL A   1      37.375  33.327  32.564  1.00  0.00     0.029 A 
ATOM     44  N   UNL A   1      39.082  31.886  32.641  1.00  0.00    -0.354 N 
ATOM     45  C   UNL A   1      39.885  29.214  29.336  1.00  0.00     0.074 A 
ATOM     46  C   UNL A   1      38.975  29.457  28.239  1.00  0.00     0.031 C 
ATOM     47  C   UNL A   1      37.957  33.457  33.767  1.00  0.00     0.029 A 
ATOM     48  C   UNL A   1      39.057  32.504  33.868  1.00  0.00     0.049 A 
ATOM     49  H   UNL A   1      39.749  31.206  32.393  1.00  0.00     0.167 HD
ATOM     50  C   UNL A   1      40.873  28.288  29.317  1.00  0.00     0.037 A 
ATOM     51  C   UNL A   1      39.825  32.309  34.957  1.00  0.00     0.037 A 
ATOM     52  C   UNL A   1      41.798  28.074  30.397  1.00  0.00     0.049 A 
ATOM     53  C   UNL A   1      40.915  31.272  34.912  1.00  0.00     0.074 A 
ATOM     54  C   UNL A   1      42.872  27.202  30.452  1.00  0.00     0.029 A 
ATOM     55  N   UNL A   1      41.760  28.742  31.611  1.00  0.00    -0.354 N 
ATOM     56  N   UNL A   1      41.252  30.470  33.932  1.00  0.00    -0.248 NA
ATOM     57  C   UNL A   1      41.730  31.113  36.125  1.00  0.00     0.031 C 
ATOM     58  C   UNL A   1      43.463  27.319  31.714  1.00  0.00     0.029 A 
ATOM     59  C   UNL A   1      42.783  28.292  32.428  1.00  0.00     0.049 A 
ATOM     60  H   UNL A   1      41.104  29.435  31.856  1.00  0.00     0.167 HD
ATOM     61  C   UNL A   1      42.335  29.735  34.396  1.00  0.00     0.074 A 
ATOM     62  C   UNL A   1      42.603  30.190  35.745  1.00  0.00     0.031 C 
ATOM     63  C   UNL A   1      43.045  28.772  33.761  1.00  0.00     0.037 A 
BRANCH  50  64
ATOM     64  C   UNL A   1      41.002  27.441  28.087  1.00  0.00     0.057 A 
ATOM     65  C   UNL A   1      40.322  26.222  27.955  1.00  0.00     0.134 A 
ATOM     66  C   UNL A   1      41.793  27.859  27.010  1.00  0.00     0.134 A 
ATOM     67  F   UNL A   1      39.559  25.758  28.956  1.00  0.00    -0.206 F 
ATOM     68  C   UNL A   1      40.445  25.439  26.806  1.00  0.00     0.040 A 
ATOM     69  C   UNL A   1      41.903  27.097  25.845  1.00  0.00     0.040 A 
ATOM     70  F   UNL A   1      42.467  29.018  27.069  1.00  0.00    -0.206 F 
ATOM     71  C   UNL A   1      41.233  25.880  25.744  1.00  0.00     0.006 A 
ENDBRANCH  50  64
BRANCH  51  72
ATOM     72  C   UNL A   1      39.604  33.121  36.179  1.00  0.00     0.057 A 
ATOM     73  C   UNL A   1      38.689  32.715  37.157  1.00  0.00     0.134 A 
ATOM     74  C   UNL A   1      40.292  34.320  36.398  1.00  0.00     0.134 A 
ATOM     75  F   UNL A   1      37.987  31.584  36.995  1.00  0.00    -0.206 F 
ATOM     76  C   UNL A   1      38.452  33.480  38.300  1.00  0.00     0.040 A 
ATOM     77  C   UNL A   1      40.082  35.084  37.547  1.00  0.00     0.040 A 
ATOM     78  F   UNL A   1      41.186  34.762  35.500  1.00  0.00    -0.206 F 
ATOM     79  C   UNL A   1      39.154  34.667  38.499  1.00  0.00     0.006 A 
ENDBRANCH  51  72
BRANCH  63  80
ATOM     80  C   UNL A   1      44.208  28.175  34.495  1.00  0.00     0.057 A 
ATOM     81  C   UNL A   1      45.482  28.753  34.458  1.00  0.00     0.134 A 
ATOM     82  C   UNL A   1      44.032  27.042  35.300  1.00  0.00     0.134 A 
ATOM     83  F   UNL A   1      45.717  29.832  33.694  1.00  0.00    -0.206 F 
ATOM     84  C   UNL A   1      46.544  28.219  35.188  1.00  0.00     0.040 A 
ATOM     85  C   UNL A   1      45.080  26.513  36.052  1.00  0.00     0.040 A 
ATOM     86  F   UNL A   1      42.832  26.445  35.384  1.00  0.00    -0.206 F 
ATOM     87  C   UNL A   1      46.342  27.101  35.996  1.00  0.00     0.006 A 
ENDBRANCH  63  80
ENDBRANCH  37  38
ENDBRANCH  29  32
ENDBRANCH  27  28
ENDBRANCH  26  27
ENDBRANCH  25  26
ENDBRANCH   1  25
TORSDOF 18
ENDMDL
