MODEL 1
REMARK VINA RESULT:     -10.6      0.000      0.000
REMARK SMILES CC(C)[C@H](CO)NS(=O)(=O)c1ccc(Cl)c(C(=O)NCCCCCCNC(=O)c2ccc(-c3c4nc(c(-c5c(F)cccc5F)c5ccc([nH]5)c(-c5c(F)cccc5F)c5nc(c(-c6c(F)cccc6F)c6ccc3[nH]6)C=C5)C=C4)cc2)c1
REMARK SMILES IDX 21 1 20 2 19 3 17 4 18 5 16 7 11 8 12 9 83 10 13 11 14 12
REMARK SMILES IDX 15 13 8 14 9 15 10 16 7 17 4 19 2 20 1 21 3 22 5 23 6 24
REMARK SMILES IDX 22 26 23 27 24 28 25 29 26 30 27 31 28 33 29 34 30 35 82 36
REMARK SMILES IDX 31 37 81 38 32 39 33 40 34 41 75 42 35 43 80 44 74 45 76 46
REMARK SMILES IDX 36 47 79 48 73 49 72 50 37 52 63 53 46 54 62 55 47 56 50 57
REMARK SMILES IDX 61 58 77 59 48 60 49 61 60 63 78 64 51 65 38 66 39 67 44 68
REMARK SMILES IDX 40 69 41 70 43 71 45 72 42 73 64 74 65 75 70 76 66 77 67 78
REMARK SMILES IDX 69 79 71 80 68 81 52 82 53 83 58 84 54 85 55 86 57 87 59 88
REMARK SMILES IDX 56 89
REMARK H PARENT 19 6 7 18 6 25 26 32 76 51 50 62
REMARK Flexibility Score: inf
ROOT
ATOM      1  C   UNL A   1      37.790  22.618  25.370  1.00  0.00     0.021 C 
ENDROOT
BRANCH   1   2
ATOM      2  C   UNL A   1      36.915  23.772  25.845  1.00  0.00     0.116 C 
BRANCH   2   3
ATOM      3  N   UNL A   1      35.712  23.395  26.554  1.00  0.00    -0.352 N 
ATOM      4  C   UNL A   1      34.433  23.166  26.096  1.00  0.00     0.252 C 
ATOM      5  O   UNL A   1      33.605  22.766  26.917  1.00  0.00    -0.269 OA
ATOM      6  H   UNL A   1      35.826  23.283  27.525  1.00  0.00     0.163 HD
BRANCH   4   7
ATOM      7  C   UNL A   1      33.956  23.508  24.719  1.00  0.00     0.059 A 
ATOM      8  C   UNL A   1      33.614  25.346  23.132  1.00  0.00     0.083 A 
ATOM      9  C   UNL A   1      33.340  24.441  22.113  1.00  0.00     0.023 A 
ATOM     10  C   UNL A   1      33.944  24.886  24.415  1.00  0.00     0.037 A 
ATOM     11  C   UNL A   1      33.257  23.086  22.425  1.00  0.00     0.023 A 
ATOM     12  C   UNL A   1      33.476  22.632  23.738  1.00  0.00     0.053 A 
ATOM     13  Cl  UNL A   1      32.876  21.045  24.071  1.00  0.00    -0.083 Cl
BRANCH   8  14
ATOM     14  S   UNL A   1      33.317  27.077  22.864  1.00  0.00     0.240 S 
ATOM     15  O   UNL A   1      33.983  27.481  21.653  1.00  0.00    -0.207 OA
ATOM     16  O   UNL A   1      33.604  27.761  24.110  1.00  0.00    -0.207 OA
BRANCH  14  17
ATOM     17  N   UNL A   1      31.676  27.203  22.673  1.00  0.00    -0.206 NA
ATOM     18  H   UNL A   1      31.556  27.782  21.842  1.00  0.00     0.141 HD
BRANCH  17  19
ATOM     19  C   UNL A   1      30.685  27.725  23.641  1.00  0.00     0.098 C 
BRANCH  19  20
ATOM     20  C   UNL A   1      30.044  26.604  24.510  1.00  0.00     0.003 C 
ATOM     21  C   UNL A   1      30.124  25.230  23.825  1.00  0.00     0.009 C 
ATOM     22  C   UNL A   1      30.734  26.424  25.872  1.00  0.00     0.009 C 
ENDBRANCH  19  20
BRANCH  19  23
ATOM     23  C   UNL A   1      29.676  28.510  22.747  1.00  0.00     0.176 C 
BRANCH  23  24
ATOM     24  O   UNL A   1      30.318  29.051  21.587  1.00  0.00    -0.395 OA
ATOM     25  H   UNL A   1      30.819  29.845  21.835  1.00  0.00     0.210 HD
ENDBRANCH  23  24
ENDBRANCH  19  23
ENDBRANCH  17  19
ENDBRANCH  14  17
ENDBRANCH   8  14
ENDBRANCH   4   7
ENDBRANCH   2   3
ENDBRANCH   1   2
BRANCH   1  26
ATOM     26  C   UNL A   1      37.163  21.631  24.381  1.00  0.00     0.002 C 
BRANCH  26  27
ATOM     27  C   UNL A   1      36.984  20.183  24.850  1.00  0.00     0.002 C 
BRANCH  27  28
ATOM     28  C   UNL A   1      38.239  19.306  24.882  1.00  0.00     0.021 C 
BRANCH  28  29
ATOM     29  C   UNL A   1      39.201  19.558  26.036  1.00  0.00     0.116 C 
BRANCH  29  30
ATOM     30  N   UNL A   1      40.502  18.944  25.832  1.00  0.00    -0.352 N 
ATOM     31  C   UNL A   1      41.758  19.493  25.923  1.00  0.00     0.251 C 
ATOM     32  H   UNL A   1      40.480  17.989  25.592  1.00  0.00     0.163 HD
ATOM     33  O   UNL A   1      42.736  18.846  25.561  1.00  0.00    -0.269 OA
BRANCH  31  34
ATOM     34  C   UNL A   1      41.938  20.869  26.435  1.00  0.00     0.039 A 
ATOM     35  C   UNL A   1      41.909  21.083  27.817  1.00  0.00     0.014 A 
ATOM     36  C   UNL A   1      42.113  21.949  25.566  1.00  0.00     0.014 A 
ATOM     37  C   UNL A   1      42.117  22.367  28.326  1.00  0.00     0.010 A 
ATOM     38  C   UNL A   1      42.397  23.214  26.076  1.00  0.00     0.010 A 
ATOM     39  C   UNL A   1      42.397  23.438  27.462  1.00  0.00    -0.014 A 
BRANCH  39  40
ATOM     40  C   UNL A   1      42.687  24.797  27.988  1.00  0.00     0.031 A 
ATOM     41  C   UNL A   1      44.085  25.171  28.396  1.00  0.00     0.074 A 
ATOM     42  C   UNL A   1      41.679  25.678  28.153  1.00  0.00     0.049 A 
ATOM     43  N   UNL A   1      44.521  26.279  28.940  1.00  0.00    -0.248 NA
ATOM     44  C   UNL A   1      45.129  24.154  28.190  1.00  0.00     0.031 C 
ATOM     45  C   UNL A   1      40.274  25.427  27.831  1.00  0.00     0.029 A 
ATOM     46  N   UNL A   1      41.683  26.961  28.642  1.00  0.00    -0.354 N 
ATOM     47  C   UNL A   1      45.882  26.089  29.149  1.00  0.00     0.074 A 
ATOM     48  C   UNL A   1      46.188  24.739  28.728  1.00  0.00     0.031 C 
ATOM     49  C   UNL A   1      39.555  26.525  28.110  1.00  0.00     0.029 A 
ATOM     50  C   UNL A   1      40.438  27.543  28.671  1.00  0.00     0.049 A 
ATOM     51  H   UNL A   1      42.499  27.421  28.944  1.00  0.00     0.167 HD
ATOM     52  C   UNL A   1      46.798  26.966  29.625  1.00  0.00     0.037 A 
ATOM     53  C   UNL A   1      40.050  28.754  29.112  1.00  0.00     0.037 A 
ATOM     54  C   UNL A   1      46.492  28.314  30.030  1.00  0.00     0.049 A 
ATOM     55  C   UNL A   1      41.081  29.700  29.667  1.00  0.00     0.074 A 
ATOM     56  C   UNL A   1      47.357  29.296  30.477  1.00  0.00     0.029 A 
ATOM     57  N   UNL A   1      45.219  28.867  30.041  1.00  0.00    -0.354 N 
ATOM     58  N   UNL A   1      42.375  29.529  29.797  1.00  0.00    -0.248 NA
ATOM     59  C   UNL A   1      40.599  31.007  30.131  1.00  0.00     0.031 C 
ATOM     60  C   UNL A   1      46.602  30.424  30.815  1.00  0.00     0.029 A 
ATOM     61  C   UNL A   1      45.274  30.167  30.518  1.00  0.00     0.049 A 
ATOM     62  H   UNL A   1      44.400  28.404  29.754  1.00  0.00     0.167 HD
ATOM     63  C   UNL A   1      42.864  30.717  30.327  1.00  0.00     0.074 A 
ATOM     64  C   UNL A   1      41.730  31.604  30.479  1.00  0.00     0.031 C 
ATOM     65  C   UNL A   1      44.138  31.043  30.658  1.00  0.00     0.037 A 
BRANCH  52  66
ATOM     66  C   UNL A   1      48.219  26.493  29.739  1.00  0.00     0.057 A 
ATOM     67  C   UNL A   1      48.689  25.824  30.877  1.00  0.00     0.134 A 
ATOM     68  C   UNL A   1      49.120  26.677  28.682  1.00  0.00     0.134 A 
ATOM     69  F   UNL A   1      47.883  25.623  31.930  1.00  0.00    -0.206 F 
ATOM     70  C   UNL A   1      50.010  25.381  30.972  1.00  0.00     0.040 A 
ATOM     71  C   UNL A   1      50.435  26.211  28.753  1.00  0.00     0.040 A 
ATOM     72  F   UNL A   1      48.738  27.303  27.559  1.00  0.00    -0.206 F 
ATOM     73  C   UNL A   1      50.885  25.567  29.904  1.00  0.00     0.006 A 
ENDBRANCH  52  66
BRANCH  53  74
ATOM     74  C   UNL A   1      38.619  29.152  29.041  1.00  0.00     0.057 A 
ATOM     75  C   UNL A   1      38.064  29.648  27.855  1.00  0.00     0.134 A 
ATOM     76  C   UNL A   1      37.780  29.066  30.157  1.00  0.00     0.134 A 
ATOM     77  F   UNL A   1      38.823  29.772  26.755  1.00  0.00    -0.206 F 
ATOM     78  C   UNL A   1      36.735  30.066  27.787  1.00  0.00     0.040 A 
ATOM     79  C   UNL A   1      36.440  29.454  30.097  1.00  0.00     0.040 A 
ATOM     80  F   UNL A   1      38.246  28.594  31.323  1.00  0.00    -0.206 F 
ATOM     81  C   UNL A   1      35.917  29.965  28.910  1.00  0.00     0.006 A 
ENDBRANCH  53  74
BRANCH  65  82
ATOM     82  C   UNL A   1      44.381  32.431  31.180  1.00  0.00     0.057 A 
ATOM     83  C   UNL A   1      44.375  32.722  32.551  1.00  0.00     0.134 A 
ATOM     84  C   UNL A   1      44.661  33.483  30.298  1.00  0.00     0.134 A 
ATOM     85  F   UNL A   1      44.102  31.763  33.449  1.00  0.00    -0.206 F 
ATOM     86  C   UNL A   1      44.612  34.014  33.023  1.00  0.00     0.040 A 
ATOM     87  C   UNL A   1      44.931  34.771  30.760  1.00  0.00     0.040 A 
ATOM     88  F   UNL A   1      44.692  33.272  28.973  1.00  0.00    -0.206 F 
ATOM     89  C   UNL A   1      44.900  35.041  32.125  1.00  0.00     0.006 A 
ENDBRANCH  65  82
ENDBRANCH  39  40
ENDBRANCH  31  34
ENDBRANCH  29  30
ENDBRANCH  28  29
ENDBRANCH  27  28
ENDBRANCH  26  27
ENDBRANCH   1  26
TORSDOF 19
ENDMDL
MODEL 2
REMARK VINA RESULT:     -10.4      0.730      6.063
REMARK SMILES CC(C)[C@H](CO)NS(=O)(=O)c1ccc(Cl)c(C(=O)NCCCCCCNC(=O)c2ccc(-c3c4nc(c(-c5c(F)cccc5F)c5ccc([nH]5)c(-c5c(F)cccc5F)c5nc(c(-c6c(F)cccc6F)c6ccc3[nH]6)C=C5)C=C4)cc2)c1
REMARK SMILES IDX 21 1 20 2 19 3 17 4 18 5 16 7 11 8 12 9 83 10 13 11 14 12
REMARK SMILES IDX 15 13 8 14 9 15 10 16 7 17 4 19 2 20 1 21 3 22 5 23 6 24
REMARK SMILES IDX 22 26 23 27 24 28 25 29 26 30 27 31 28 33 29 34 30 35 82 36
REMARK SMILES IDX 31 37 81 38 32 39 33 40 34 41 75 42 35 43 80 44 74 45 76 46
REMARK SMILES IDX 36 47 79 48 73 49 72 50 37 52 63 53 46 54 62 55 47 56 50 57
REMARK SMILES IDX 61 58 77 59 48 60 49 61 60 63 78 64 51 65 38 66 39 67 44 68
REMARK SMILES IDX 40 69 41 70 43 71 45 72 42 73 64 74 65 75 70 76 66 77 67 78
REMARK SMILES IDX 69 79 71 80 68 81 52 82 53 83 58 84 54 85 55 86 57 87 59 88
REMARK SMILES IDX 56 89
REMARK H PARENT 19 6 7 18 6 25 26 32 76 51 50 62
REMARK Flexibility Score: inf
ROOT
ATOM      1  C   UNL A   1      37.591  22.780  25.481  1.00  0.00     0.021 C 
ENDROOT
BRANCH   1   2
ATOM      2  C   UNL A   1      36.508  23.699  26.034  1.00  0.00     0.116 C 
BRANCH   2   3
ATOM      3  N   UNL A   1      35.442  23.044  26.760  1.00  0.00    -0.352 N 
ATOM      4  C   UNL A   1      34.262  22.489  26.318  1.00  0.00     0.252 C 
ATOM      5  O   UNL A   1      33.566  21.908  27.153  1.00  0.00    -0.269 OA
ATOM      6  H   UNL A   1      35.584  22.984  27.732  1.00  0.00     0.163 HD
BRANCH   4   7
ATOM      7  C   UNL A   1      33.710  22.670  24.938  1.00  0.00     0.059 A 
ATOM      8  C   UNL A   1      33.375  24.288  23.127  1.00  0.00     0.083 A 
ATOM      9  C   UNL A   1      32.968  23.273  22.269  1.00  0.00     0.023 A 
ATOM     10  C   UNL A   1      33.766  23.988  24.440  1.00  0.00     0.037 A 
ATOM     11  C   UNL A   1      32.818  21.985  22.778  1.00  0.00     0.023 A 
ATOM     12  C   UNL A   1      33.103  21.704  24.126  1.00  0.00     0.053 A 
ATOM     13  Cl  UNL A   1      32.425  20.228  24.722  1.00  0.00    -0.083 Cl
BRANCH   8  14
ATOM     14  S   UNL A   1      33.173  25.982  22.630  1.00  0.00     0.240 S 
ATOM     15  O   UNL A   1      33.323  26.069  21.201  1.00  0.00    -0.207 OA
ATOM     16  O   UNL A   1      34.014  26.787  23.495  1.00  0.00    -0.207 OA
BRANCH  14  17
ATOM     17  N   UNL A   1      31.621  26.371  23.060  1.00  0.00    -0.206 NA
ATOM     18  H   UNL A   1      31.124  26.461  22.174  1.00  0.00     0.141 HD
BRANCH  17  19
ATOM     19  C   UNL A   1      31.162  27.522  23.868  1.00  0.00     0.098 C 
BRANCH  19  20
ATOM     20  C   UNL A   1      30.786  27.122  25.325  1.00  0.00     0.003 C 
ATOM     21  C   UNL A   1      29.935  25.843  25.368  1.00  0.00     0.009 C 
ATOM     22  C   UNL A   1      32.009  26.831  26.208  1.00  0.00     0.009 C 
ENDBRANCH  19  20
BRANCH  19  23
ATOM     23  C   UNL A   1      29.983  28.112  23.033  1.00  0.00     0.176 C 
BRANCH  23  24
ATOM     24  O   UNL A   1      30.418  28.514  21.729  1.00  0.00    -0.395 OA
ATOM     25  H   UNL A   1      30.810  27.755  21.270  1.00  0.00     0.210 HD
ENDBRANCH  23  24
ENDBRANCH  19  23
ENDBRANCH  17  19
ENDBRANCH  14  17
ENDBRANCH   8  14
ENDBRANCH   4   7
ENDBRANCH   2   3
ENDBRANCH   1   2
BRANCH   1  26
ATOM     26  C   UNL A   1      37.185  21.824  24.355  1.00  0.00     0.002 C 
BRANCH  26  27
ATOM     27  C   UNL A   1      36.967  20.353  24.725  1.00  0.00     0.002 C 
BRANCH  27  28
ATOM     28  C   UNL A   1      38.213  19.470  24.817  1.00  0.00     0.021 C 
BRANCH  28  29
ATOM     29  C   UNL A   1      39.155  19.761  25.979  1.00  0.00     0.116 C 
BRANCH  29  30
ATOM     30  N   UNL A   1      40.402  19.020  25.896  1.00  0.00    -0.352 N 
ATOM     31  C   UNL A   1      41.694  19.450  26.070  1.00  0.00     0.251 C 
ATOM     32  H   UNL A   1      40.305  18.063  25.683  1.00  0.00     0.163 HD
ATOM     33  O   UNL A   1      42.630  18.700  25.805  1.00  0.00    -0.269 OA
BRANCH  31  34
ATOM     34  C   UNL A   1      41.969  20.821  26.554  1.00  0.00     0.039 A 
ATOM     35  C   UNL A   1      41.960  21.063  27.931  1.00  0.00     0.014 A 
ATOM     36  C   UNL A   1      42.212  21.869  25.663  1.00  0.00     0.014 A 
ATOM     37  C   UNL A   1      42.255  22.340  28.414  1.00  0.00     0.010 A 
ATOM     38  C   UNL A   1      42.582  23.121  26.148  1.00  0.00     0.010 A 
ATOM     39  C   UNL A   1      42.603  23.373  27.529  1.00  0.00    -0.014 A 
BRANCH  39  40
ATOM     40  C   UNL A   1      42.985  24.719  28.027  1.00  0.00     0.031 A 
ATOM     41  C   UNL A   1      41.933  25.763  28.278  1.00  0.00     0.074 A 
ATOM     42  C   UNL A   1      44.288  25.022  28.200  1.00  0.00     0.049 A 
ATOM     43  N   UNL A   1      42.076  27.012  28.645  1.00  0.00    -0.248 NA
ATOM     44  C   UNL A   1      40.535  25.358  28.063  1.00  0.00     0.031 C 
ATOM     45  C   UNL A   1      45.408  24.111  27.956  1.00  0.00     0.029 A 
ATOM     46  N   UNL A   1      44.891  26.185  28.611  1.00  0.00    -0.354 N 
ATOM     47  C   UNL A   1      40.792  27.541  28.694  1.00  0.00     0.074 A 
ATOM     48  C   UNL A   1      39.888  26.496  28.263  1.00  0.00     0.031 C 
ATOM     49  C   UNL A   1      46.558  24.740  28.243  1.00  0.00     0.029 A 
ATOM     50  C   UNL A   1      46.262  26.111  28.648  1.00  0.00     0.049 A 
ATOM     51  H   UNL A   1      44.388  26.995  28.856  1.00  0.00     0.167 HD
ATOM     52  C   UNL A   1      40.398  28.777  29.085  1.00  0.00     0.037 A 
ATOM     53  C   UNL A   1      47.179  27.047  28.959  1.00  0.00     0.037 A 
ATOM     54  C   UNL A   1      41.299  29.810  29.527  1.00  0.00     0.049 A 
ATOM     55  C   UNL A   1      46.719  28.423  29.360  1.00  0.00     0.074 A 
ATOM     56  C   UNL A   1      40.996  31.077  29.991  1.00  0.00     0.029 A 
ATOM     57  N   UNL A   1      42.681  29.696  29.552  1.00  0.00    -0.354 N 
ATOM     58  N   UNL A   1      45.498  28.888  29.465  1.00  0.00    -0.248 NA
ATOM     59  C   UNL A   1      47.764  29.400  29.690  1.00  0.00     0.031 C 
ATOM     60  C   UNL A   1      42.195  31.751  30.243  1.00  0.00     0.029 A 
ATOM     61  C   UNL A   1      43.245  30.882  29.996  1.00  0.00     0.049 A 
ATOM     62  H   UNL A   1      43.187  28.892  29.293  1.00  0.00     0.167 HD
ATOM     63  C   UNL A   1      45.627  30.201  29.903  1.00  0.00     0.074 A 
ATOM     64  C   UNL A   1      47.045  30.450  30.059  1.00  0.00     0.031 C 
ATOM     65  C   UNL A   1      44.659  31.116  30.153  1.00  0.00     0.037 A 
BRANCH  52  66
ATOM     66  C   UNL A   1      38.928  29.082  29.048  1.00  0.00     0.057 A 
ATOM     67  C   UNL A   1      38.118  28.968  30.186  1.00  0.00     0.134 A 
ATOM     68  C   UNL A   1      38.320  29.533  27.868  1.00  0.00     0.134 A 
ATOM     69  F   UNL A   1      38.632  28.533  31.346  1.00  0.00    -0.206 F 
ATOM     70  C   UNL A   1      36.753  29.260  30.145  1.00  0.00     0.040 A 
ATOM     71  C   UNL A   1      36.963  29.858  27.823  1.00  0.00     0.040 A 
ATOM     72  F   UNL A   1      39.036  29.673  26.742  1.00  0.00    -0.206 F 
ATOM     73  C   UNL A   1      36.174  29.716  28.962  1.00  0.00     0.006 A 
ENDBRANCH  52  66
BRANCH  53  74
ATOM     74  C   UNL A   1      48.628  26.717  28.916  1.00  0.00     0.057 A 
ATOM     75  C   UNL A   1      49.372  26.874  27.740  1.00  0.00     0.134 A 
ATOM     76  C   UNL A   1      49.298  26.218  30.039  1.00  0.00     0.134 A 
ATOM     77  F   UNL A   1      48.782  27.330  26.625  1.00  0.00    -0.206 F 
ATOM     78  C   UNL A   1      50.721  26.526  27.675  1.00  0.00     0.040 A 
ATOM     79  C   UNL A   1      50.655  25.892  29.996  1.00  0.00     0.040 A 
ATOM     80  F   UNL A   1      48.647  26.049  31.199  1.00  0.00    -0.206 F 
ATOM     81  C   UNL A   1      51.368  26.037  28.808  1.00  0.00     0.006 A 
ENDBRANCH  53  74
BRANCH  65  82
ATOM     82  C   UNL A   1      45.096  32.461  30.661  1.00  0.00     0.057 A 
ATOM     83  C   UNL A   1      45.270  32.720  32.027  1.00  0.00     0.134 A 
ATOM     84  C   UNL A   1      45.383  33.499  29.766  1.00  0.00     0.134 A 
ATOM     85  F   UNL A   1      45.001  31.773  32.939  1.00  0.00    -0.206 F 
ATOM     86  C   UNL A   1      45.686  33.972  32.485  1.00  0.00     0.040 A 
ATOM     87  C   UNL A   1      45.831  34.744  30.209  1.00  0.00     0.040 A 
ATOM     88  F   UNL A   1      45.248  33.316  28.443  1.00  0.00    -0.206 F 
ATOM     89  C   UNL A   1      45.977  34.985  31.572  1.00  0.00     0.006 A 
ENDBRANCH  65  82
ENDBRANCH  39  40
ENDBRANCH  31  34
ENDBRANCH  29  30
ENDBRANCH  28  29
ENDBRANCH  27  28
ENDBRANCH  26  27
ENDBRANCH   1  26
TORSDOF 19
ENDMDL
MODEL 3
REMARK VINA RESULT:     -10.4      3.912      7.309
REMARK SMILES CC(C)[C@H](CO)NS(=O)(=O)c1ccc(Cl)c(C(=O)NCCCCCCNC(=O)c2ccc(-c3c4nc(c(-c5c(F)cccc5F)c5ccc([nH]5)c(-c5c(F)cccc5F)c5nc(c(-c6c(F)cccc6F)c6ccc3[nH]6)C=C5)C=C4)cc2)c1
REMARK SMILES IDX 21 1 20 2 19 3 17 4 18 5 16 7 11 8 12 9 83 10 13 11 14 12
REMARK SMILES IDX 15 13 8 14 9 15 10 16 7 17 4 19 2 20 1 21 3 22 5 23 6 24
REMARK SMILES IDX 22 26 23 27 24 28 25 29 26 30 27 31 28 33 29 34 30 35 82 36
REMARK SMILES IDX 31 37 81 38 32 39 33 40 34 41 75 42 35 43 80 44 74 45 76 46
REMARK SMILES IDX 36 47 79 48 73 49 72 50 37 52 63 53 46 54 62 55 47 56 50 57
REMARK SMILES IDX 61 58 77 59 48 60 49 61 60 63 78 64 51 65 38 66 39 67 44 68
REMARK SMILES IDX 40 69 41 70 43 71 45 72 42 73 64 74 65 75 70 76 66 77 67 78
REMARK SMILES IDX 69 79 71 80 68 81 52 82 53 83 58 84 54 85 55 86 57 87 59 88
REMARK SMILES IDX 56 89
REMARK H PARENT 19 6 7 18 6 25 26 32 76 51 50 62
REMARK Flexibility Score: inf
ROOT
ATOM      1  C   UNL A   1      34.167  26.235  24.749  1.00  0.00     0.021 C 
ENDROOT
BRANCH   1   2
ATOM      2  C   UNL A   1      34.494  24.796  24.367  1.00  0.00     0.116 C 
BRANCH   2   3
ATOM      3  N   UNL A   1      34.137  24.409  23.020  1.00  0.00    -0.352 N 
ATOM      4  C   UNL A   1      33.033  24.720  22.258  1.00  0.00     0.252 C 
ATOM      5  O   UNL A   1      33.024  24.321  21.092  1.00  0.00    -0.269 OA
ATOM      6  H   UNL A   1      34.793  23.827  22.573  1.00  0.00     0.163 HD
BRANCH   4   7
ATOM      7  C   UNL A   1      31.797  25.374  22.792  1.00  0.00     0.059 A 
ATOM      8  C   UNL A   1      30.487  27.447  22.794  1.00  0.00     0.083 A 
ATOM      9  C   UNL A   1      29.441  26.809  23.449  1.00  0.00     0.023 A 
ATOM     10  C   UNL A   1      31.643  26.733  22.445  1.00  0.00     0.037 A 
ATOM     11  C   UNL A   1      29.622  25.496  23.879  1.00  0.00     0.023 A 
ATOM     12  C   UNL A   1      30.825  24.813  23.629  1.00  0.00     0.053 A 
ATOM     13  Cl  UNL A   1      31.089  23.416  24.614  1.00  0.00    -0.083 Cl
BRANCH   8  14
ATOM     14  S   UNL A   1      30.451  29.214  22.610  1.00  0.00     0.240 S 
ATOM     15  O   UNL A   1      31.714  29.652  22.074  1.00  0.00    -0.207 OA
ATOM     16  O   UNL A   1      29.966  29.767  23.860  1.00  0.00    -0.207 OA
BRANCH  14  17
ATOM     17  N   UNL A   1      29.243  29.505  21.515  1.00  0.00    -0.206 NA
ATOM     18  H   UNL A   1      29.728  29.793  20.665  1.00  0.00     0.141 HD
BRANCH  17  19
ATOM     19  C   UNL A   1      28.110  30.449  21.639  1.00  0.00     0.098 C 
BRANCH  19  20
ATOM     20  C   UNL A   1      28.564  31.938  21.628  1.00  0.00     0.003 C 
ATOM     21  C   UNL A   1      27.771  32.772  20.609  1.00  0.00     0.009 C 
ATOM     22  C   UNL A   1      28.363  32.643  22.979  1.00  0.00     0.009 C 
ENDBRANCH  19  20
BRANCH  19  23
ATOM     23  C   UNL A   1      27.397  29.997  22.952  1.00  0.00     0.176 C 
BRANCH  23  24
ATOM     24  O   UNL A   1      26.612  28.818  22.740  1.00  0.00    -0.395 OA
ATOM     25  H   UNL A   1      26.441  28.710  21.791  1.00  0.00     0.210 HD
ENDBRANCH  23  24
ENDBRANCH  19  23
ENDBRANCH  17  19
ENDBRANCH  14  17
ENDBRANCH   8  14
ENDBRANCH   4   7
ENDBRANCH   2   3
ENDBRANCH   1   2
BRANCH   1  26
ATOM     26  C   UNL A   1      33.675  26.481  26.177  1.00  0.00     0.002 C 
BRANCH  26  27
ATOM     27  C   UNL A   1      32.170  26.694  26.376  1.00  0.00     0.002 C 
BRANCH  27  28
ATOM     28  C   UNL A   1      31.674  28.142  26.409  1.00  0.00     0.021 C 
BRANCH  28  29
ATOM     29  C   UNL A   1      32.607  29.182  25.802  1.00  0.00     0.116 C 
BRANCH  29  30
ATOM     30  N   UNL A   1      32.205  30.545  26.101  1.00  0.00    -0.352 N 
ATOM     31  C   UNL A   1      32.768  31.461  26.956  1.00  0.00     0.251 C 
ATOM     32  H   UNL A   1      31.408  30.861  25.616  1.00  0.00     0.163 HD
ATOM     33  O   UNL A   1      32.188  32.518  27.189  1.00  0.00    -0.269 OA
BRANCH  31  34
ATOM     34  C   UNL A   1      34.059  31.173  27.618  1.00  0.00     0.039 A 
ATOM     35  C   UNL A   1      34.949  32.228  27.845  1.00  0.00     0.014 A 
ATOM     36  C   UNL A   1      34.407  29.874  27.995  1.00  0.00     0.014 A 
ATOM     37  C   UNL A   1      36.158  31.988  28.503  1.00  0.00     0.010 A 
ATOM     38  C   UNL A   1      35.576  29.649  28.720  1.00  0.00     0.010 A 
ATOM     39  C   UNL A   1      36.467  30.703  28.977  1.00  0.00    -0.014 A 
BRANCH  39  40
ATOM     40  C   UNL A   1      37.716  30.442  29.739  1.00  0.00     0.031 A 
ATOM     41  C   UNL A   1      38.807  29.597  29.141  1.00  0.00     0.074 A 
ATOM     42  C   UNL A   1      37.844  30.919  30.994  1.00  0.00     0.049 A 
ATOM     43  N   UNL A   1      39.934  29.201  29.676  1.00  0.00    -0.248 NA
ATOM     44  C   UNL A   1      38.590  29.110  27.770  1.00  0.00     0.031 C 
ATOM     45  C   UNL A   1      36.845  31.720  31.702  1.00  0.00     0.029 A 
ATOM     46  N   UNL A   1      38.868  30.790  31.900  1.00  0.00    -0.354 N 
ATOM     47  C   UNL A   1      40.554  28.414  28.713  1.00  0.00     0.074 A 
ATOM     48  C   UNL A   1      39.651  28.340  27.584  1.00  0.00     0.031 C 
ATOM     49  C   UNL A   1      37.311  32.029  32.921  1.00  0.00     0.029 A 
ATOM     50  C   UNL A   1      38.622  31.413  33.100  1.00  0.00     0.049 A 
ATOM     51  H   UNL A   1      39.698  30.297  31.709  1.00  0.00     0.167 HD
ATOM     52  C   UNL A   1      41.774  27.826  28.754  1.00  0.00     0.037 A 
ATOM     53  C   UNL A   1      39.363  31.470  34.223  1.00  0.00     0.037 A 
ATOM     54  C   UNL A   1      42.676  27.914  29.873  1.00  0.00     0.049 A 
ATOM     55  C   UNL A   1      40.701  30.781  34.256  1.00  0.00     0.074 A 
ATOM     56  C   UNL A   1      43.953  27.397  29.993  1.00  0.00     0.029 A 
ATOM     57  N   UNL A   1      42.391  28.556  31.069  1.00  0.00    -0.354 N 
ATOM     58  N   UNL A   1      41.302  30.095  33.314  1.00  0.00    -0.248 NA
ATOM     59  C   UNL A   1      41.466  30.880  35.507  1.00  0.00     0.031 C 
ATOM     60  C   UNL A   1      44.420  27.675  31.281  1.00  0.00     0.029 A 
ATOM     61  C   UNL A   1      43.459  28.422  31.943  1.00  0.00     0.049 A 
ATOM     62  H   UNL A   1      41.556  29.037  31.268  1.00  0.00     0.167 HD
ATOM     63  C   UNL A   1      42.526  29.709  33.846  1.00  0.00     0.074 A 
ATOM     64  C   UNL A   1      42.588  30.250  35.187  1.00  0.00     0.031 C 
ATOM     65  C   UNL A   1      43.510  28.972  33.274  1.00  0.00     0.037 A 
BRANCH  52  66
ATOM     66  C   UNL A   1      42.203  27.030  27.554  1.00  0.00     0.057 A 
ATOM     67  C   UNL A   1      41.968  25.652  27.455  1.00  0.00     0.134 A 
ATOM     68  C   UNL A   1      42.825  27.657  26.466  1.00  0.00     0.134 A 
ATOM     69  F   UNL A   1      41.386  24.987  28.464  1.00  0.00    -0.206 F 
ATOM     70  C   UNL A   1      42.364  24.921  26.333  1.00  0.00     0.040 A 
ATOM     71  C   UNL A   1      43.197  26.942  25.326  1.00  0.00     0.040 A 
ATOM     72  F   UNL A   1      43.075  28.975  26.488  1.00  0.00    -0.206 F 
ATOM     73  C   UNL A   1      42.973  25.569  25.260  1.00  0.00     0.006 A 
ENDBRANCH  52  66
BRANCH  53  74
ATOM     74  C   UNL A   1      38.866  32.214  35.410  1.00  0.00     0.057 A 
ATOM     75  C   UNL A   1      39.047  33.597  35.525  1.00  0.00     0.134 A 
ATOM     76  C   UNL A   1      38.217  31.560  36.464  1.00  0.00     0.134 A 
ATOM     77  F   UNL A   1      39.678  34.278  34.556  1.00  0.00    -0.206 F 
ATOM     78  C   UNL A   1      38.624  34.300  36.653  1.00  0.00     0.040 A 
ATOM     79  C   UNL A   1      37.763  32.254  37.587  1.00  0.00     0.040 A 
ATOM     80  F   UNL A   1      38.006  30.237  36.415  1.00  0.00    -0.206 F 
ATOM     81  C   UNL A   1      37.975  33.628  37.687  1.00  0.00     0.006 A 
ENDBRANCH  53  74
BRANCH  65  82
ATOM     82  C   UNL A   1      44.756  28.740  34.083  1.00  0.00     0.057 A 
ATOM     83  C   UNL A   1      44.919  27.607  34.891  1.00  0.00     0.134 A 
ATOM     84  C   UNL A   1      45.821  29.647  34.021  1.00  0.00     0.134 A 
ATOM     85  F   UNL A   1      43.932  26.704  35.003  1.00  0.00    -0.206 F 
ATOM     86  C   UNL A   1      46.085  27.399  35.628  1.00  0.00     0.040 A 
ATOM     87  C   UNL A   1      47.005  29.434  34.729  1.00  0.00     0.040 A 
ATOM     88  F   UNL A   1      45.736  30.749  33.260  1.00  0.00    -0.206 F 
ATOM     89  C   UNL A   1      47.136  28.311  35.541  1.00  0.00     0.006 A 
ENDBRANCH  65  82
ENDBRANCH  39  40
ENDBRANCH  31  34
ENDBRANCH  29  30
ENDBRANCH  28  29
ENDBRANCH  27  28
ENDBRANCH  26  27
ENDBRANCH   1  26
TORSDOF 19
ENDMDL
