MODEL 1
REMARK VINA RESULT:     -10.7      0.000      0.000
REMARK SMILES CCC[N@H+](CC(=O)NCCCCCCNC(=O)c1ccc(-c2c3nc(c(-c4c(F)cccc4F)c4ccc([nH]4)c(-c4c(F)cccc4F)c4nc(c(-c5c(F)cccc5F)c5ccc2[nH]5)C=C4)C=C3)cc1)[C@H]1CCOC2(CCCCC2)C1
REMARK SMILES IDX 11 1 10 2 9 3 8 4 6 5 7 6 5 8 4 9 3 11 2 12 1 13 72 14 73 15
REMARK SMILES IDX 82 16 74 17 76 18 75 19 77 20 81 21 78 22 80 23 79 24 12 25
REMARK SMILES IDX 13 26 14 27 15 28 16 29 17 31 18 32 19 33 71 34 20 35 70 36
REMARK SMILES IDX 21 37 22 38 23 39 64 40 24 41 69 42 63 43 65 44 25 45 68 46
REMARK SMILES IDX 62 47 61 48 26 50 52 51 35 52 51 53 36 54 39 55 50 56 66 57
REMARK SMILES IDX 37 58 38 59 49 61 67 62 40 63 27 64 28 65 33 66 29 67 30 68
REMARK SMILES IDX 32 69 34 70 31 71 53 72 54 73 59 74 55 75 56 76 58 77 60 78
REMARK SMILES IDX 57 79 41 80 42 81 47 82 43 83 44 84 46 85 48 86 45 87
REMARK H PARENT 8 7 4 10 15 30 65 49 39 60
REMARK Flexibility Score: inf
ROOT
ATOM      1  C   UNL A   1      34.260  32.371  28.023  1.00  0.00     0.002 C 
ENDROOT
BRANCH   1   2
ATOM      2  C   UNL A   1      35.527  31.519  27.969  1.00  0.00     0.021 C 
BRANCH   2   3
ATOM      3  C   UNL A   1      35.280  30.065  27.558  1.00  0.00     0.116 C 
BRANCH   3   4
ATOM      4  N   UNL A   1      33.901  29.694  27.809  1.00  0.00    -0.351 N 
ATOM      5  C   UNL A   1      33.016  29.022  27.008  1.00  0.00     0.275 C 
ATOM      6  O   UNL A   1      31.836  28.981  27.367  1.00  0.00    -0.269 OA
ATOM      7  H   UNL A   1      33.547  29.966  28.686  1.00  0.00     0.163 HD
BRANCH   5   8
ATOM      8  C   UNL A   1      33.506  28.304  25.740  1.00  0.00     0.363 C 
BRANCH   8   9
ATOM      9  N   UNL A   1      32.411  27.808  24.856  1.00  0.00    -0.325 N 
ATOM     10  H   UNL A   1      31.604  27.613  25.449  1.00  0.00     0.348 HD
BRANCH   9  11
ATOM     11  C   UNL A   1      31.998  28.843  23.893  1.00  0.00     0.262 C 
BRANCH  11  12
ATOM     12  C   UNL A   1      30.546  29.345  23.895  1.00  0.00     0.058 C 
ATOM     13  C   UNL A   1      29.663  28.606  22.905  1.00  0.00     0.010 C 
ENDBRANCH  11  12
ENDBRANCH   9  11
BRANCH   9  14
ATOM     14  C   UNL A   1      32.743  26.511  24.209  1.00  0.00     0.189 C 
ATOM     15  C   UNL A   1      32.894  26.561  22.678  1.00  0.00     0.093 C 
ATOM     16  C   UNL A   1      33.989  25.824  24.802  1.00  0.00     0.100 C 
ATOM     17  C   UNL A   1      33.170  25.171  22.124  1.00  0.00     0.167 C 
ATOM     18  C   UNL A   1      34.231  24.435  24.172  1.00  0.00     0.074 C 
ATOM     19  O   UNL A   1      34.301  24.568  22.741  1.00  0.00    -0.375 OA
ATOM     20  C   UNL A   1      33.154  23.411  24.598  1.00  0.00     0.036 C 
ATOM     21  C   UNL A   1      35.617  23.918  24.622  1.00  0.00     0.036 C 
ATOM     22  C   UNL A   1      33.445  22.008  24.067  1.00  0.00     0.003 C 
ATOM     23  C   UNL A   1      35.913  22.510  24.104  1.00  0.00     0.003 C 
ATOM     24  C   UNL A   1      34.822  21.523  24.501  1.00  0.00     0.000 C 
ENDBRANCH   9  14
ENDBRANCH   8   9
ENDBRANCH   5   8
ENDBRANCH   3   4
ENDBRANCH   2   3
ENDBRANCH   1   2
BRANCH   1  25
ATOM     25  C   UNL A   1      34.398  33.662  28.832  1.00  0.00     0.002 C 
BRANCH  25  26
ATOM     26  C   UNL A   1      33.162  34.569  28.833  1.00  0.00     0.021 C 
BRANCH  26  27
ATOM     27  C   UNL A   1      33.389  35.972  29.390  1.00  0.00     0.116 C 
BRANCH  27  28
ATOM     28  N   UNL A   1      32.544  36.243  30.541  1.00  0.00    -0.352 N 
ATOM     29  C   UNL A   1      32.631  35.754  31.819  1.00  0.00     0.251 C 
ATOM     30  H   UNL A   1      31.802  36.871  30.379  1.00  0.00     0.163 HD
ATOM     31  O   UNL A   1      31.708  35.918  32.609  1.00  0.00    -0.269 OA
BRANCH  29  32
ATOM     32  C   UNL A   1      33.838  35.016  32.239  1.00  0.00     0.039 A 
ATOM     33  C   UNL A   1      33.710  33.685  32.644  1.00  0.00     0.014 A 
ATOM     34  C   UNL A   1      35.088  35.644  32.257  1.00  0.00     0.014 A 
ATOM     35  C   UNL A   1      34.845  32.967  33.021  1.00  0.00     0.010 A 
ATOM     36  C   UNL A   1      36.226  34.909  32.576  1.00  0.00     0.010 A 
ATOM     37  C   UNL A   1      36.114  33.567  32.968  1.00  0.00    -0.014 A 
BRANCH  37  38
ATOM     38  C   UNL A   1      37.335  32.806  33.330  1.00  0.00     0.031 A 
ATOM     39  C   UNL A   1      38.057  33.106  34.614  1.00  0.00     0.074 A 
ATOM     40  C   UNL A   1      37.829  31.891  32.475  1.00  0.00     0.049 A 
ATOM     41  N   UNL A   1      39.173  32.600  35.071  1.00  0.00    -0.248 NA
ATOM     42  C   UNL A   1      37.460  34.131  35.484  1.00  0.00     0.031 C 
ATOM     43  C   UNL A   1      37.246  31.547  31.176  1.00  0.00     0.029 A 
ATOM     44  N   UNL A   1      38.940  31.092  32.564  1.00  0.00    -0.354 N 
ATOM     45  C   UNL A   1      39.422  33.256  36.270  1.00  0.00     0.074 A 
ATOM     46  C   UNL A   1      38.363  34.227  36.449  1.00  0.00     0.031 C 
ATOM     47  C   UNL A   1      37.997  30.596  30.597  1.00  0.00     0.029 A 
ATOM     48  C   UNL A   1      39.127  30.285  31.468  1.00  0.00     0.049 A 
ATOM     49  H   UNL A   1      39.546  31.096  33.340  1.00  0.00     0.167 HD
ATOM     50  C   UNL A   1      40.429  33.053  37.152  1.00  0.00     0.037 A 
ATOM     51  C   UNL A   1      40.101  29.398  31.195  1.00  0.00     0.037 A 
ATOM     52  C   UNL A   1      41.460  32.063  36.990  1.00  0.00     0.049 A 
ATOM     53  C   UNL A   1      41.194  29.173  32.202  1.00  0.00     0.074 A 
ATOM     54  C   UNL A   1      42.484  31.734  37.861  1.00  0.00     0.029 A 
ATOM     55  N   UNL A   1      41.595  31.240  35.882  1.00  0.00    -0.354 N 
ATOM     56  N   UNL A   1      41.381  29.755  33.361  1.00  0.00    -0.248 NA
ATOM     57  C   UNL A   1      42.207  28.162  31.866  1.00  0.00     0.031 C 
ATOM     58  C   UNL A   1      43.260  30.734  37.264  1.00  0.00     0.029 A 
ATOM     59  C   UNL A   1      42.696  30.414  36.039  1.00  0.00     0.049 A 
ATOM     60  H   UNL A   1      40.998  31.242  35.099  1.00  0.00     0.167 HD
ATOM     61  C   UNL A   1      42.516  29.167  33.903  1.00  0.00     0.074 A 
ATOM     62  C   UNL A   1      42.968  28.173  32.952  1.00  0.00     0.031 C 
ATOM     63  C   UNL A   1      43.129  29.428  35.084  1.00  0.00     0.037 A 
BRANCH  50  64
ATOM     64  C   UNL A   1      40.461  33.918  38.377  1.00  0.00     0.057 A 
ATOM     65  C   UNL A   1      41.178  35.122  38.410  1.00  0.00     0.134 A 
ATOM     66  C   UNL A   1      39.740  33.564  39.524  1.00  0.00     0.134 A 
ATOM     67  F   UNL A   1      41.900  35.513  37.349  1.00  0.00    -0.206 F 
ATOM     68  C   UNL A   1      41.194  35.931  39.548  1.00  0.00     0.040 A 
ATOM     69  C   UNL A   1      39.728  34.376  40.659  1.00  0.00     0.040 A 
ATOM     70  F   UNL A   1      39.029  32.427  39.557  1.00  0.00    -0.206 F 
ATOM     71  C   UNL A   1      40.462  35.561  40.675  1.00  0.00     0.006 A 
ENDBRANCH  50  64
BRANCH  51  72
ATOM     72  C   UNL A   1      40.071  28.635  29.923  1.00  0.00     0.057 A 
ATOM     73  C   UNL A   1      40.769  29.085  28.797  1.00  0.00     0.134 A 
ATOM     74  C   UNL A   1      39.352  27.441  29.804  1.00  0.00     0.134 A 
ATOM     75  F   UNL A   1      41.462  30.233  28.847  1.00  0.00    -0.206 F 
ATOM     76  C   UNL A   1      40.742  28.382  27.592  1.00  0.00     0.040 A 
ATOM     77  C   UNL A   1      39.335  26.716  28.612  1.00  0.00     0.040 A 
ATOM     78  F   UNL A   1      38.670  26.953  30.851  1.00  0.00    -0.206 F 
ATOM     79  C   UNL A   1      40.026  27.190  27.499  1.00  0.00     0.006 A 
ENDBRANCH  51  72
BRANCH  63  80
ATOM     80  C   UNL A   1      44.338  28.608  35.423  1.00  0.00     0.057 A 
ATOM     81  C   UNL A   1      45.620  28.977  34.998  1.00  0.00     0.134 A 
ATOM     82  C   UNL A   1      44.222  27.462  36.219  1.00  0.00     0.134 A 
ATOM     83  F   UNL A   1      45.795  30.058  34.224  1.00  0.00    -0.206 F 
ATOM     84  C   UNL A   1      46.744  28.221  35.337  1.00  0.00     0.040 A 
ATOM     85  C   UNL A   1      45.340  26.711  36.583  1.00  0.00     0.040 A 
ATOM     86  F   UNL A   1      43.021  27.061  36.664  1.00  0.00    -0.206 F 
ATOM     87  C   UNL A   1      46.605  27.088  36.137  1.00  0.00     0.006 A 
ENDBRANCH  63  80
ENDBRANCH  37  38
ENDBRANCH  29  32
ENDBRANCH  27  28
ENDBRANCH  26  27
ENDBRANCH  25  26
ENDBRANCH   1  25
TORSDOF 17
ENDMDL
MODEL 2
REMARK VINA RESULT:     -10.6      1.859      7.247
REMARK SMILES CCC[N@H+](CC(=O)NCCCCCCNC(=O)c1ccc(-c2c3nc(c(-c4c(F)cccc4F)c4ccc([nH]4)c(-c4c(F)cccc4F)c4nc(c(-c5c(F)cccc5F)c5ccc2[nH]5)C=C4)C=C3)cc1)[C@H]1CCOC2(CCCCC2)C1
REMARK SMILES IDX 11 1 10 2 9 3 8 4 6 5 7 6 5 8 4 9 3 11 2 12 1 13 72 14 73 15
REMARK SMILES IDX 82 16 74 17 76 18 75 19 77 20 81 21 78 22 80 23 79 24 12 25
REMARK SMILES IDX 13 26 14 27 15 28 16 29 17 31 18 32 19 33 71 34 20 35 70 36
REMARK SMILES IDX 21 37 22 38 23 39 64 40 24 41 69 42 63 43 65 44 25 45 68 46
REMARK SMILES IDX 62 47 61 48 26 50 52 51 35 52 51 53 36 54 39 55 50 56 66 57
REMARK SMILES IDX 37 58 38 59 49 61 67 62 40 63 27 64 28 65 33 66 29 67 30 68
REMARK SMILES IDX 32 69 34 70 31 71 53 72 54 73 59 74 55 75 56 76 58 77 60 78
REMARK SMILES IDX 57 79 41 80 42 81 47 82 43 83 44 84 46 85 48 86 45 87
REMARK H PARENT 8 7 4 10 15 30 65 49 39 60
REMARK Flexibility Score: inf
ROOT
ATOM      1  C   UNL A   1      33.044  30.015  27.272  1.00  0.00     0.002 C 
ENDROOT
BRANCH   1   2
ATOM      2  C   UNL A   1      33.947  29.230  26.323  1.00  0.00     0.021 C 
BRANCH   2   3
ATOM      3  C   UNL A   1      33.188  28.327  25.346  1.00  0.00     0.116 C 
BRANCH   3   4
ATOM      4  N   UNL A   1      33.180  26.957  25.823  1.00  0.00    -0.351 N 
ATOM      5  C   UNL A   1      32.148  26.060  25.891  1.00  0.00     0.275 C 
ATOM      6  O   UNL A   1      32.343  25.008  26.504  1.00  0.00    -0.269 OA
ATOM      7  H   UNL A   1      34.047  26.622  26.148  1.00  0.00     0.163 HD
BRANCH   5   8
ATOM      8  C   UNL A   1      30.819  26.350  25.173  1.00  0.00     0.363 C 
BRANCH   8   9
ATOM      9  N   UNL A   1      30.971  26.747  23.743  1.00  0.00    -0.325 N 
ATOM     10  H   UNL A   1      31.829  27.292  23.666  1.00  0.00     0.348 HD
BRANCH   9  11
ATOM     11  C   UNL A   1      31.132  25.564  22.880  1.00  0.00     0.262 C 
BRANCH  11  12
ATOM     12  C   UNL A   1      30.631  24.196  23.366  1.00  0.00     0.058 C 
ATOM     13  C   UNL A   1      31.732  23.151  23.427  1.00  0.00     0.010 C 
ENDBRANCH  11  12
ENDBRANCH   9  11
BRANCH   9  14
ATOM     14  C   UNL A   1      29.887  27.656  23.284  1.00  0.00     0.189 C 
ATOM     15  C   UNL A   1      28.464  27.248  23.706  1.00  0.00     0.093 C 
ATOM     16  C   UNL A   1      30.109  29.131  23.674  1.00  0.00     0.100 C 
ATOM     17  C   UNL A   1      27.439  28.213  23.129  1.00  0.00     0.167 C 
ATOM     18  C   UNL A   1      29.016  30.049  23.086  1.00  0.00     0.074 C 
ATOM     19  O   UNL A   1      27.722  29.561  23.482  1.00  0.00    -0.375 OA
ATOM     20  C   UNL A   1      29.133  30.177  21.550  1.00  0.00     0.036 C 
ATOM     21  C   UNL A   1      29.154  31.455  23.715  1.00  0.00     0.036 C 
ATOM     22  C   UNL A   1      28.123  31.168  20.971  1.00  0.00     0.003 C 
ATOM     23  C   UNL A   1      28.155  32.457  23.135  1.00  0.00     0.003 C 
ATOM     24  C   UNL A   1      28.258  32.540  21.617  1.00  0.00     0.000 C 
ENDBRANCH   9  14
ENDBRANCH   8   9
ENDBRANCH   5   8
ENDBRANCH   3   4
ENDBRANCH   2   3
ENDBRANCH   1   2
BRANCH   1  25
ATOM     25  C   UNL A   1      31.775  30.572  26.626  1.00  0.00     0.002 C 
BRANCH  25  26
ATOM     26  C   UNL A   1      31.560  32.079  26.799  1.00  0.00     0.021 C 
BRANCH  26  27
ATOM     27  C   UNL A   1      32.828  32.889  27.055  1.00  0.00     0.116 C 
BRANCH  27  28
ATOM     28  N   UNL A   1      32.535  34.194  27.623  1.00  0.00    -0.352 N 
ATOM     29  C   UNL A   1      33.044  34.787  28.751  1.00  0.00     0.251 C 
ATOM     30  H   UNL A   1      31.875  34.730  27.127  1.00  0.00     0.163 HD
ATOM     31  O   UNL A   1      32.527  35.801  29.205  1.00  0.00    -0.269 OA
BRANCH  29  32
ATOM     32  C   UNL A   1      34.216  34.192  29.424  1.00  0.00     0.039 A 
ATOM     33  C   UNL A   1      34.009  33.346  30.516  1.00  0.00     0.014 A 
ATOM     34  C   UNL A   1      35.513  34.489  28.993  1.00  0.00     0.014 A 
ATOM     35  C   UNL A   1      35.105  32.757  31.149  1.00  0.00     0.010 A 
ATOM     36  C   UNL A   1      36.600  33.854  29.587  1.00  0.00     0.010 A 
ATOM     37  C   UNL A   1      36.406  32.989  30.674  1.00  0.00    -0.014 A 
BRANCH  37  38
ATOM     38  C   UNL A   1      37.579  32.341  31.312  1.00  0.00     0.031 A 
ATOM     39  C   UNL A   1      38.271  31.195  30.629  1.00  0.00     0.074 A 
ATOM     40  C   UNL A   1      37.980  32.742  32.532  1.00  0.00     0.049 A 
ATOM     41  N   UNL A   1      39.264  30.458  31.054  1.00  0.00    -0.248 NA
ATOM     42  C   UNL A   1      37.760  30.809  29.305  1.00  0.00     0.031 C 
ATOM     43  C   UNL A   1      37.358  33.810  33.318  1.00  0.00     0.029 A 
ATOM     44  N   UNL A   1      38.999  32.291  33.332  1.00  0.00    -0.354 N 
ATOM     45  C   UNL A   1      39.484  29.511  30.062  1.00  0.00     0.074 A 
ATOM     46  C   UNL A   1      38.494  29.740  29.032  1.00  0.00     0.031 C 
ATOM     47  C   UNL A   1      38.018  33.941  34.480  1.00  0.00     0.029 A 
ATOM     48  C   UNL A   1      39.089  32.950  34.534  1.00  0.00     0.049 A 
ATOM     49  H   UNL A   1      39.608  31.564  33.069  1.00  0.00     0.167 HD
ATOM     50  C   UNL A   1      40.439  28.552  30.005  1.00  0.00     0.037 A 
ATOM     51  C   UNL A   1      39.937  32.772  35.563  1.00  0.00     0.037 A 
ATOM     52  C   UNL A   1      41.444  28.349  31.014  1.00  0.00     0.049 A 
ATOM     53  C   UNL A   1      41.003  31.717  35.464  1.00  0.00     0.074 A 
ATOM     54  C   UNL A   1      42.495  27.450  31.015  1.00  0.00     0.029 A 
ATOM     55  N   UNL A   1      41.524  29.061  32.202  1.00  0.00    -0.354 N 
ATOM     56  N   UNL A   1      41.240  30.872  34.492  1.00  0.00    -0.248 NA
ATOM     57  C   UNL A   1      41.925  31.598  36.603  1.00  0.00     0.031 C 
ATOM     58  C   UNL A   1      43.192  27.594  32.219  1.00  0.00     0.029 A 
ATOM     59  C   UNL A   1      42.598  28.610  32.950  1.00  0.00     0.049 A 
ATOM     60  H   UNL A   1      40.908  29.780  32.472  1.00  0.00     0.167 HD
ATOM     61  C   UNL A   1      42.349  30.136  34.888  1.00  0.00     0.074 A 
ATOM     62  C   UNL A   1      42.747  30.645  36.185  1.00  0.00     0.031 C 
ATOM     63  C   UNL A   1      42.981  29.130  34.237  1.00  0.00     0.037 A 
BRANCH  50  64
ATOM     64  C   UNL A   1      40.442  27.649  28.807  1.00  0.00     0.057 A 
ATOM     65  C   UNL A   1      39.661  26.487  28.758  1.00  0.00     0.134 A 
ATOM     66  C   UNL A   1      41.206  27.963  27.677  1.00  0.00     0.134 A 
ATOM     67  F   UNL A   1      38.915  26.123  29.813  1.00  0.00    -0.206 F 
ATOM     68  C   UNL A   1      39.657  25.658  27.635  1.00  0.00     0.040 A 
ATOM     69  C   UNL A   1      41.192  27.155  26.539  1.00  0.00     0.040 A 
ATOM     70  F   UNL A   1      41.973  29.064  27.656  1.00  0.00    -0.206 F 
ATOM     71  C   UNL A   1      40.420  25.995  26.518  1.00  0.00     0.006 A 
ENDBRANCH  50  64
BRANCH  51  72
ATOM     72  C   UNL A   1      39.828  33.632  36.767  1.00  0.00     0.057 A 
ATOM     73  C   UNL A   1      40.511  34.851  36.845  1.00  0.00     0.134 A 
ATOM     74  C   UNL A   1      39.039  33.261  37.861  1.00  0.00     0.134 A 
ATOM     75  F   UNL A   1      41.295  35.251  35.833  1.00  0.00    -0.206 F 
ATOM     76  C   UNL A   1      40.423  35.666  37.975  1.00  0.00     0.040 A 
ATOM     77  C   UNL A   1      38.925  34.076  38.988  1.00  0.00     0.040 A 
ATOM     78  F   UNL A   1      38.354  32.108  37.843  1.00  0.00    -0.206 F 
ATOM     79  C   UNL A   1      39.624  35.280  39.049  1.00  0.00     0.006 A 
ENDBRANCH  51  72
BRANCH  63  80
ATOM     80  C   UNL A   1      44.183  28.531  34.904  1.00  0.00     0.057 A 
ATOM     81  C   UNL A   1      45.467  29.058  34.717  1.00  0.00     0.134 A 
ATOM     82  C   UNL A   1      44.048  27.444  35.776  1.00  0.00     0.134 A 
ATOM     83  F   UNL A   1      45.665  30.091  33.885  1.00  0.00    -0.206 F 
ATOM     84  C   UNL A   1      46.579  28.509  35.359  1.00  0.00     0.040 A 
ATOM     85  C   UNL A   1      45.147  26.902  36.441  1.00  0.00     0.040 A 
ATOM     86  F   UNL A   1      42.843  26.900  36.003  1.00  0.00    -0.206 F 
ATOM     87  C   UNL A   1      46.419  27.433  36.230  1.00  0.00     0.006 A 
ENDBRANCH  63  80
ENDBRANCH  37  38
ENDBRANCH  29  32
ENDBRANCH  27  28
ENDBRANCH  26  27
ENDBRANCH  25  26
ENDBRANCH   1  25
TORSDOF 17
ENDMDL
MODEL 3
REMARK VINA RESULT:     -10.6      4.482      6.711
REMARK SMILES CCC[N@H+](CC(=O)NCCCCCCNC(=O)c1ccc(-c2c3nc(c(-c4c(F)cccc4F)c4ccc([nH]4)c(-c4c(F)cccc4F)c4nc(c(-c5c(F)cccc5F)c5ccc2[nH]5)C=C4)C=C3)cc1)[C@H]1CCOC2(CCCCC2)C1
REMARK SMILES IDX 11 1 10 2 9 3 8 4 6 5 7 6 5 8 4 9 3 11 2 12 1 13 72 14 73 15
REMARK SMILES IDX 82 16 74 17 76 18 75 19 77 20 81 21 78 22 80 23 79 24 12 25
REMARK SMILES IDX 13 26 14 27 15 28 16 29 17 31 18 32 19 33 71 34 20 35 70 36
REMARK SMILES IDX 21 37 22 38 23 39 64 40 24 41 69 42 63 43 65 44 25 45 68 46
REMARK SMILES IDX 62 47 61 48 26 50 52 51 35 52 51 53 36 54 39 55 50 56 66 57
REMARK SMILES IDX 37 58 38 59 49 61 67 62 40 63 27 64 28 65 33 66 29 67 30 68
REMARK SMILES IDX 32 69 34 70 31 71 53 72 54 73 59 74 55 75 56 76 58 77 60 78
REMARK SMILES IDX 57 79 41 80 42 81 47 82 43 83 44 84 46 85 48 86 45 87
REMARK H PARENT 8 7 4 10 15 30 65 49 39 60
REMARK Flexibility Score: inf
ROOT
ATOM      1  C   UNL A   1      31.062  26.129  25.920  1.00  0.00     0.002 C 
ENDROOT
BRANCH   1   2
ATOM      2  C   UNL A   1      30.493  26.777  24.660  1.00  0.00     0.021 C 
BRANCH   2   3
ATOM      3  C   UNL A   1      30.687  25.943  23.390  1.00  0.00     0.116 C 
BRANCH   3   4
ATOM      4  N   UNL A   1      31.895  26.349  22.697  1.00  0.00    -0.351 N 
ATOM      5  C   UNL A   1      32.987  25.607  22.333  1.00  0.00     0.275 C 
ATOM      6  O   UNL A   1      33.975  26.211  21.910  1.00  0.00    -0.269 OA
ATOM      7  H   UNL A   1      31.936  27.301  22.451  1.00  0.00     0.163 HD
BRANCH   5   8
ATOM      8  C   UNL A   1      32.941  24.071  22.405  1.00  0.00     0.363 C 
BRANCH   8   9
ATOM      9  N   UNL A   1      32.438  23.535  23.704  1.00  0.00    -0.325 N 
ATOM     10  H   UNL A   1      31.838  24.248  24.117  1.00  0.00     0.348 HD
BRANCH   9  11
ATOM     11  C   UNL A   1      31.605  22.339  23.495  1.00  0.00     0.262 C 
BRANCH  11  12
ATOM     12  C   UNL A   1      32.123  21.199  22.604  1.00  0.00     0.058 C 
ATOM     13  C   UNL A   1      32.353  19.908  23.370  1.00  0.00     0.010 C 
ENDBRANCH  11  12
ENDBRANCH   9  11
BRANCH   9  14
ATOM     14  C   UNL A   1      33.528  23.318  24.692  1.00  0.00     0.189 C 
ATOM     15  C   UNL A   1      33.117  22.564  25.969  1.00  0.00     0.093 C 
ATOM     16  C   UNL A   1      34.775  22.634  24.099  1.00  0.00     0.100 C 
ATOM     17  C   UNL A   1      34.294  22.459  26.928  1.00  0.00     0.167 C 
ATOM     18  C   UNL A   1      35.916  22.527  25.133  1.00  0.00     0.074 C 
ATOM     19  O   UNL A   1      35.429  21.863  26.312  1.00  0.00    -0.375 OA
ATOM     20  C   UNL A   1      36.525  23.909  25.466  1.00  0.00     0.036 C 
ATOM     21  C   UNL A   1      37.028  21.618  24.558  1.00  0.00     0.036 C 
ATOM     22  C   UNL A   1      37.726  23.803  26.407  1.00  0.00     0.003 C 
ATOM     23  C   UNL A   1      38.239  21.515  25.487  1.00  0.00     0.003 C 
ATOM     24  C   UNL A   1      38.800  22.888  25.836  1.00  0.00     0.000 C 
ENDBRANCH   9  14
ENDBRANCH   8   9
ENDBRANCH   5   8
ENDBRANCH   3   4
ENDBRANCH   2   3
ENDBRANCH   1   2
BRANCH   1  25
ATOM     25  C   UNL A   1      32.491  26.555  26.264  1.00  0.00     0.002 C 
BRANCH  25  26
ATOM     26  C   UNL A   1      32.729  28.068  26.312  1.00  0.00     0.021 C 
BRANCH  26  27
ATOM     27  C   UNL A   1      33.950  28.506  27.117  1.00  0.00     0.116 C 
BRANCH  27  28
ATOM     28  N   UNL A   1      33.830  29.876  27.584  1.00  0.00    -0.352 N 
ATOM     29  C   UNL A   1      34.716  30.627  28.315  1.00  0.00     0.251 C 
ATOM     30  H   UNL A   1      32.992  30.332  27.341  1.00  0.00     0.163 HD
ATOM     31  O   UNL A   1      34.365  31.693  28.809  1.00  0.00    -0.269 OA
BRANCH  29  32
ATOM     32  C   UNL A   1      36.096  30.142  28.514  1.00  0.00     0.039 A 
ATOM     33  C   UNL A   1      37.002  30.231  27.454  1.00  0.00     0.014 A 
ATOM     34  C   UNL A   1      36.485  29.578  29.733  1.00  0.00     0.014 A 
ATOM     35  C   UNL A   1      38.317  29.799  27.633  1.00  0.00     0.010 A 
ATOM     36  C   UNL A   1      37.811  29.203  29.929  1.00  0.00     0.010 A 
ATOM     37  C   UNL A   1      38.737  29.303  28.879  1.00  0.00    -0.014 A 
BRANCH  37  38
ATOM     38  C   UNL A   1      40.140  28.874  29.097  1.00  0.00     0.031 A 
ATOM     39  C   UNL A   1      41.128  29.817  29.724  1.00  0.00     0.074 A 
ATOM     40  C   UNL A   1      40.539  27.660  28.673  1.00  0.00     0.049 A 
ATOM     41  N   UNL A   1      42.408  29.652  29.934  1.00  0.00    -0.248 NA
ATOM     42  C   UNL A   1      40.613  31.130  30.144  1.00  0.00     0.031 C 
ATOM     43  C   UNL A   1      39.686  26.675  28.005  1.00  0.00     0.029 A 
ATOM     44  N   UNL A   1      41.768  27.053  28.730  1.00  0.00    -0.354 N 
ATOM     45  C   UNL A   1      42.856  30.843  30.492  1.00  0.00     0.074 A 
ATOM     46  C   UNL A   1      41.719  31.737  30.549  1.00  0.00     0.031 C 
ATOM     47  C   UNL A   1      40.414  25.581  27.728  1.00  0.00     0.029 A 
ATOM     48  C   UNL A   1      41.788  25.798  28.172  1.00  0.00     0.049 A 
ATOM     49  H   UNL A   1      42.560  27.476  29.133  1.00  0.00     0.167 HD
ATOM     50  C   UNL A   1      44.097  31.155  30.936  1.00  0.00     0.037 A 
ATOM     51  C   UNL A   1      42.801  24.924  28.030  1.00  0.00     0.037 A 
ATOM     52  C   UNL A   1      45.216  30.252  30.912  1.00  0.00     0.049 A 
ATOM     53  C   UNL A   1      44.163  25.284  28.554  1.00  0.00     0.074 A 
ATOM     54  C   UNL A   1      46.495  30.451  31.401  1.00  0.00     0.029 A 
ATOM     55  N   UNL A   1      45.188  28.976  30.369  1.00  0.00    -0.354 N 
ATOM     56  N   UNL A   1      44.556  26.390  29.137  1.00  0.00    -0.248 NA
ATOM     57  C   UNL A   1      45.219  24.273  28.407  1.00  0.00     0.031 C 
ATOM     58  C   UNL A   1      47.251  29.307  31.124  1.00  0.00     0.029 A 
ATOM     59  C   UNL A   1      46.432  28.381  30.498  1.00  0.00     0.049 A 
ATOM     60  H   UNL A   1      44.401  28.555  29.955  1.00  0.00     0.167 HD
ATOM     61  C   UNL A   1      45.896  26.200  29.448  1.00  0.00     0.074 A 
ATOM     62  C   UNL A   1      46.245  24.867  29.000  1.00  0.00     0.031 C 
ATOM     63  C   UNL A   1      46.760  27.053  30.050  1.00  0.00     0.037 A 
BRANCH  50  64
ATOM     64  C   UNL A   1      44.307  32.532  31.491  1.00  0.00     0.057 A 
ATOM     65  C   UNL A   1      44.693  33.604  30.677  1.00  0.00     0.134 A 
ATOM     66  C   UNL A   1      44.086  32.799  32.848  1.00  0.00     0.134 A 
ATOM     67  F   UNL A   1      44.934  33.414  29.370  1.00  0.00    -0.206 F 
ATOM     68  C   UNL A   1      44.874  34.887  31.196  1.00  0.00     0.040 A 
ATOM     69  C   UNL A   1      44.239  34.082  33.375  1.00  0.00     0.040 A 
ATOM     70  F   UNL A   1      43.709  31.818  33.683  1.00  0.00    -0.206 F 
ATOM     71  C   UNL A   1      44.641  35.130  32.549  1.00  0.00     0.006 A 
ENDBRANCH  50  64
BRANCH  51  72
ATOM     72  C   UNL A   1      42.558  23.609  27.386  1.00  0.00     0.057 A 
ATOM     73  C   UNL A   1      42.152  22.503  28.139  1.00  0.00     0.134 A 
ATOM     74  C   UNL A   1      42.720  23.430  26.007  1.00  0.00     0.134 A 
ATOM     75  F   UNL A   1      41.996  22.611  29.467  1.00  0.00    -0.206 F 
ATOM     76  C   UNL A   1      41.928  21.259  27.547  1.00  0.00     0.040 A 
ATOM     77  C   UNL A   1      42.479  22.198  25.399  1.00  0.00     0.040 A 
ATOM     78  F   UNL A   1      43.100  24.456  25.231  1.00  0.00    -0.206 F 
ATOM     79  C   UNL A   1      42.087  21.106  26.171  1.00  0.00     0.006 A 
ENDBRANCH  51  72
BRANCH  63  80
ATOM     80  C   UNL A   1      48.158  26.561  30.283  1.00  0.00     0.057 A 
ATOM     81  C   UNL A   1      49.181  26.786  29.354  1.00  0.00     0.134 A 
ATOM     82  C   UNL A   1      48.490  25.892  31.467  1.00  0.00     0.134 A 
ATOM     83  F   UNL A   1      48.923  27.410  28.195  1.00  0.00    -0.206 F 
ATOM     84  C   UNL A   1      50.485  26.345  29.587  1.00  0.00     0.040 A 
ATOM     85  C   UNL A   1      49.794  25.467  31.722  1.00  0.00     0.040 A 
ATOM     86  F   UNL A   1      47.556  25.654  32.399  1.00  0.00    -0.206 F 
ATOM     87  C   UNL A   1      50.795  25.689  30.778  1.00  0.00     0.006 A 
ENDBRANCH  63  80
ENDBRANCH  37  38
ENDBRANCH  29  32
ENDBRANCH  27  28
ENDBRANCH  26  27
ENDBRANCH  25  26
ENDBRANCH   1  25
TORSDOF 17
ENDMDL
