MODEL 1
REMARK VINA RESULT:     -10.5      0.000      0.000
REMARK SMILES C[C@H](CC(=O)NCCCCCCNC(=O)c1ccc(-c2c3nc(c(-c4c(F)cccc4F)c4ccc([nH]4)c(-c4c(F)cccc4F)c4nc(c(-c5c(F)cccc5F)c5ccc2[nH]5)C=C4)C=C3)cc1)N1C(=O)CCCC1=O
REMARK SMILES IDX 9 1 8 2 7 3 6 4 4 5 5 6 3 8 2 9 1 10 70 11 71 12 76 13 72 14
REMARK SMILES IDX 73 15 75 16 77 17 74 18 10 19 11 20 12 21 13 22 14 23 15 25
REMARK SMILES IDX 16 26 17 27 69 28 18 29 68 30 19 31 20 32 21 33 62 34 22 35
REMARK SMILES IDX 67 36 61 37 63 38 23 39 66 40 60 41 59 42 24 44 50 45 33 46
REMARK SMILES IDX 49 47 34 48 37 49 48 50 64 51 35 52 36 53 47 55 65 56 38 57
REMARK SMILES IDX 25 58 26 59 31 60 27 61 28 62 30 63 32 64 29 65 51 66 52 67
REMARK SMILES IDX 57 68 53 69 54 70 56 71 58 72 55 73 39 74 40 75 45 76 41 77
REMARK SMILES IDX 42 78 44 79 46 80 43 81
REMARK H PARENT 6 7 13 24 63 43 37 54
REMARK Flexibility Score: inf
ROOT
ATOM      1  C   UNL A   1      31.408  29.095  24.398  1.00  0.00     0.002 C 
ENDROOT
BRANCH   1   2
ATOM      2  C   UNL A   1      30.727  28.428  23.203  1.00  0.00     0.021 C 
BRANCH   2   3
ATOM      3  C   UNL A   1      31.016  26.933  23.054  1.00  0.00     0.116 C 
BRANCH   3   4
ATOM      4  N   UNL A   1      31.790  26.658  21.851  1.00  0.00    -0.356 N 
ATOM      5  C   UNL A   1      32.611  25.605  21.553  1.00  0.00     0.222 C 
ATOM      6  O   UNL A   1      33.243  25.624  20.497  1.00  0.00    -0.275 OA
ATOM      7  H   UNL A   1      31.710  27.335  21.141  1.00  0.00     0.163 HD
BRANCH   5   8
ATOM      8  C   UNL A   1      32.734  24.444  22.520  1.00  0.00     0.125 C 
BRANCH   8   9
ATOM      9  C   UNL A   1      34.110  24.365  23.216  1.00  0.00     0.099 C 
ATOM     10  C   UNL A   1      34.262  25.360  24.372  1.00  0.00     0.032 C 
BRANCH   9  11
ATOM     11  N   UNL A   1      34.533  23.022  23.707  1.00  0.00    -0.279 N 
ATOM     12  C   UNL A   1      33.687  22.224  24.475  1.00  0.00     0.229 C 
ATOM     13  C   UNL A   1      35.893  22.729  23.539  1.00  0.00     0.229 C 
ATOM     14  O   UNL A   1      32.598  22.568  24.931  1.00  0.00    -0.274 OA
ATOM     15  C   UNL A   1      34.217  20.848  24.784  1.00  0.00     0.101 C 
ATOM     16  C   UNL A   1      36.503  21.622  24.383  1.00  0.00     0.101 C 
ATOM     17  O   UNL A   1      36.622  23.349  22.761  1.00  0.00    -0.274 OA
ATOM     18  C   UNL A   1      35.569  21.039  25.420  1.00  0.00     0.020 C 
ENDBRANCH   9  11
ENDBRANCH   8   9
ENDBRANCH   5   8
ENDBRANCH   3   4
ENDBRANCH   2   3
ENDBRANCH   1   2
BRANCH   1  19
ATOM     19  C   UNL A   1      32.607  28.333  24.964  1.00  0.00     0.002 C 
BRANCH  19  20
ATOM     20  C   UNL A   1      32.590  28.107  26.479  1.00  0.00     0.021 C 
BRANCH  20  21
ATOM     21  C   UNL A   1      33.847  28.558  27.220  1.00  0.00     0.116 C 
BRANCH  21  22
ATOM     22  N   UNL A   1      33.754  29.935  27.676  1.00  0.00    -0.352 N 
ATOM     23  C   UNL A   1      34.677  30.688  28.357  1.00  0.00     0.251 C 
ATOM     24  H   UNL A   1      32.908  30.393  27.467  1.00  0.00     0.163 HD
ATOM     25  O   UNL A   1      34.367  31.777  28.828  1.00  0.00    -0.269 OA
BRANCH  23  26
ATOM     26  C   UNL A   1      36.049  30.172  28.538  1.00  0.00     0.039 A 
ATOM     27  C   UNL A   1      36.946  30.250  27.470  1.00  0.00     0.014 A 
ATOM     28  C   UNL A   1      36.445  29.604  29.753  1.00  0.00     0.014 A 
ATOM     29  C   UNL A   1      38.260  29.807  27.637  1.00  0.00     0.010 A 
ATOM     30  C   UNL A   1      37.771  29.219  29.937  1.00  0.00     0.010 A 
ATOM     31  C   UNL A   1      38.689  29.312  28.879  1.00  0.00    -0.014 A 
BRANCH  31  32
ATOM     32  C   UNL A   1      40.094  28.878  29.086  1.00  0.00     0.031 A 
ATOM     33  C   UNL A   1      41.092  29.820  29.698  1.00  0.00     0.074 A 
ATOM     34  C   UNL A   1      40.484  27.659  28.668  1.00  0.00     0.049 A 
ATOM     35  N   UNL A   1      42.372  29.648  29.904  1.00  0.00    -0.248 NA
ATOM     36  C   UNL A   1      40.588  31.141  30.108  1.00  0.00     0.031 C 
ATOM     37  C   UNL A   1      39.621  26.671  28.017  1.00  0.00     0.029 A 
ATOM     38  N   UNL A   1      41.710  27.047  28.720  1.00  0.00    -0.354 N 
ATOM     39  C   UNL A   1      42.830  30.839  30.453  1.00  0.00     0.074 A 
ATOM     40  C   UNL A   1      41.701  31.743  30.502  1.00  0.00     0.031 C 
ATOM     41  C   UNL A   1      40.341  25.570  27.747  1.00  0.00     0.029 A 
ATOM     42  C   UNL A   1      41.719  25.785  28.177  1.00  0.00     0.049 A 
ATOM     43  H   UNL A   1      42.508  27.472  29.110  1.00  0.00     0.167 HD
ATOM     44  C   UNL A   1      44.073  31.145  30.894  1.00  0.00     0.037 A 
ATOM     45  C   UNL A   1      42.727  24.904  28.037  1.00  0.00     0.037 A 
ATOM     46  C   UNL A   1      45.187  30.235  30.871  1.00  0.00     0.049 A 
ATOM     47  C   UNL A   1      44.096  25.264  28.543  1.00  0.00     0.074 A 
ATOM     48  C   UNL A   1      46.470  30.429  31.355  1.00  0.00     0.029 A 
ATOM     49  N   UNL A   1      45.152  28.958  30.333  1.00  0.00    -0.354 N 
ATOM     50  N   UNL A   1      44.499  26.369  29.119  1.00  0.00    -0.248 NA
ATOM     51  C   UNL A   1      45.149  24.250  28.384  1.00  0.00     0.031 C 
ATOM     52  C   UNL A   1      47.221  29.282  31.076  1.00  0.00     0.029 A 
ATOM     53  C   UNL A   1      46.395  28.358  30.456  1.00  0.00     0.049 A 
ATOM     54  H   UNL A   1      44.360  28.539  29.925  1.00  0.00     0.167 HD
ATOM     55  C   UNL A   1      45.842  26.176  29.416  1.00  0.00     0.074 A 
ATOM     56  C   UNL A   1      46.182  24.842  28.966  1.00  0.00     0.031 C 
ATOM     57  C   UNL A   1      46.714  27.028  30.008  1.00  0.00     0.037 A 
BRANCH  44  58
ATOM     58  C   UNL A   1      44.290  32.524  31.446  1.00  0.00     0.057 A 
ATOM     59  C   UNL A   1      44.694  33.590  30.630  1.00  0.00     0.134 A 
ATOM     60  C   UNL A   1      44.067  32.797  32.801  1.00  0.00     0.134 A 
ATOM     61  F   UNL A   1      44.937  33.394  29.326  1.00  0.00    -0.206 F 
ATOM     62  C   UNL A   1      44.895  34.870  31.149  1.00  0.00     0.040 A 
ATOM     63  C   UNL A   1      44.239  34.078  33.325  1.00  0.00     0.040 A 
ATOM     64  F   UNL A   1      43.673  31.823  33.636  1.00  0.00    -0.206 F 
ATOM     65  C   UNL A   1      44.661  35.118  32.500  1.00  0.00     0.006 A 
ENDBRANCH  44  58
BRANCH  45  66
ATOM     66  C   UNL A   1      42.472  23.581  27.415  1.00  0.00     0.057 A 
ATOM     67  C   UNL A   1      42.577  23.404  26.030  1.00  0.00     0.134 A 
ATOM     68  C   UNL A   1      42.119  22.467  28.184  1.00  0.00     0.134 A 
ATOM     69  F   UNL A   1      42.895  24.440  25.240  1.00  0.00    -0.206 F 
ATOM     70  C   UNL A   1      42.325  22.170  25.431  1.00  0.00     0.040 A 
ATOM     71  C   UNL A   1      41.885  21.221  27.600  1.00  0.00     0.040 A 
ATOM     72  F   UNL A   1      42.008  22.571  29.517  1.00  0.00    -0.206 F 
ATOM     73  C   UNL A   1      41.982  21.072  26.217  1.00  0.00     0.006 A 
ENDBRANCH  45  66
BRANCH  57  74
ATOM     74  C   UNL A   1      48.112  26.530  30.230  1.00  0.00     0.057 A 
ATOM     75  C   UNL A   1      48.482  25.866  31.406  1.00  0.00     0.134 A 
ATOM     76  C   UNL A   1      49.089  26.685  29.237  1.00  0.00     0.134 A 
ATOM     77  F   UNL A   1      47.595  25.698  32.399  1.00  0.00    -0.206 F 
ATOM     78  C   UNL A   1      49.780  25.390  31.595  1.00  0.00     0.040 A 
ATOM     79  C   UNL A   1      50.383  26.193  29.406  1.00  0.00     0.040 A 
ATOM     80  F   UNL A   1      48.797  27.306  28.085  1.00  0.00    -0.206 F 
ATOM     81  C   UNL A   1      50.733  25.548  30.590  1.00  0.00     0.006 A 
ENDBRANCH  57  74
ENDBRANCH  31  32
ENDBRANCH  23  26
ENDBRANCH  21  22
ENDBRANCH  20  21
ENDBRANCH  19  20
ENDBRANCH   1  19
TORSDOF 15
ENDMDL
MODEL 2
REMARK VINA RESULT:     -10.4      1.983      7.582
REMARK SMILES C[C@H](CC(=O)NCCCCCCNC(=O)c1ccc(-c2c3nc(c(-c4c(F)cccc4F)c4ccc([nH]4)c(-c4c(F)cccc4F)c4nc(c(-c5c(F)cccc5F)c5ccc2[nH]5)C=C4)C=C3)cc1)N1C(=O)CCCC1=O
REMARK SMILES IDX 9 1 8 2 7 3 6 4 4 5 5 6 3 8 2 9 1 10 70 11 71 12 76 13 72 14
REMARK SMILES IDX 73 15 75 16 77 17 74 18 10 19 11 20 12 21 13 22 14 23 15 25
REMARK SMILES IDX 16 26 17 27 69 28 18 29 68 30 19 31 20 32 21 33 62 34 22 35
REMARK SMILES IDX 67 36 61 37 63 38 23 39 66 40 60 41 59 42 24 44 50 45 33 46
REMARK SMILES IDX 49 47 34 48 37 49 48 50 64 51 35 52 36 53 47 55 65 56 38 57
REMARK SMILES IDX 25 58 26 59 31 60 27 61 28 62 30 63 32 64 29 65 51 66 52 67
REMARK SMILES IDX 57 68 53 69 54 70 56 71 58 72 55 73 39 74 40 75 45 76 41 77
REMARK SMILES IDX 42 78 44 79 46 80 43 81
REMARK H PARENT 6 7 13 24 63 43 37 54
REMARK Flexibility Score: inf
ROOT
ATOM      1  C   UNL A   1      36.270  22.118  25.659  1.00  0.00     0.002 C 
ENDROOT
BRANCH   1   2
ATOM      2  C   UNL A   1      34.932  22.776  25.993  1.00  0.00     0.021 C 
BRANCH   2   3
ATOM      3  C   UNL A   1      34.849  24.266  25.654  1.00  0.00     0.116 C 
BRANCH   3   4
ATOM      4  N   UNL A   1      34.785  24.481  24.215  1.00  0.00    -0.356 N 
ATOM      5  C   UNL A   1      33.734  24.866  23.428  1.00  0.00     0.222 C 
ATOM      6  O   UNL A   1      33.887  24.898  22.207  1.00  0.00    -0.275 OA
ATOM      7  H   UNL A   1      35.629  24.327  23.733  1.00  0.00     0.163 HD
BRANCH   5   8
ATOM      8  C   UNL A   1      32.409  25.238  24.063  1.00  0.00     0.125 C 
BRANCH   8   9
ATOM      9  C   UNL A   1      32.047  26.730  23.903  1.00  0.00     0.099 C 
ATOM     10  C   UNL A   1      30.591  26.959  23.482  1.00  0.00     0.032 C 
BRANCH   9  11
ATOM     11  N   UNL A   1      32.333  27.614  25.070  1.00  0.00    -0.279 N 
ATOM     12  C   UNL A   1      31.870  27.310  26.348  1.00  0.00     0.229 C 
ATOM     13  C   UNL A   1      32.889  28.860  24.749  1.00  0.00     0.229 C 
ATOM     14  O   UNL A   1      31.096  26.398  26.631  1.00  0.00    -0.274 OA
ATOM     15  C   UNL A   1      32.349  28.237  27.436  1.00  0.00     0.101 C 
ATOM     16  C   UNL A   1      32.800  29.977  25.775  1.00  0.00     0.101 C 
ATOM     17  O   UNL A   1      33.421  29.098  23.662  1.00  0.00    -0.274 OA
ATOM     18  C   UNL A   1      31.987  29.634  27.004  1.00  0.00     0.020 C 
ENDBRANCH   9  11
ENDBRANCH   8   9
ENDBRANCH   5   8
ENDBRANCH   3   4
ENDBRANCH   2   3
ENDBRANCH   1   2
BRANCH   1  19
ATOM     19  C   UNL A   1      36.165  20.722  25.044  1.00  0.00     0.002 C 
BRANCH  19  20
ATOM     20  C   UNL A   1      37.499  20.024  24.759  1.00  0.00     0.021 C 
BRANCH  20  21
ATOM     21  C   UNL A   1      38.669  20.471  25.631  1.00  0.00     0.116 C 
BRANCH  21  22
ATOM     22  N   UNL A   1      39.726  19.475  25.691  1.00  0.00    -0.352 N 
ATOM     23  C   UNL A   1      41.045  19.629  26.033  1.00  0.00     0.251 C 
ATOM     24  H   UNL A   1      39.456  18.560  25.451  1.00  0.00     0.163 HD
ATOM     25  O   UNL A   1      41.846  18.718  25.854  1.00  0.00    -0.269 OA
BRANCH  23  26
ATOM     26  C   UNL A   1      41.506  20.910  26.607  1.00  0.00     0.039 A 
ATOM     27  C   UNL A   1      42.021  21.887  25.751  1.00  0.00     0.014 A 
ATOM     28  C   UNL A   1      41.442  21.141  27.985  1.00  0.00     0.014 A 
ATOM     29  C   UNL A   1      42.422  23.119  26.271  1.00  0.00     0.010 A 
ATOM     30  C   UNL A   1      41.785  22.391  28.493  1.00  0.00     0.010 A 
ATOM     31  C   UNL A   1      42.284  23.389  27.642  1.00  0.00    -0.014 A 
BRANCH  31  32
ATOM     32  C   UNL A   1      42.663  24.710  28.203  1.00  0.00     0.031 A 
ATOM     33  C   UNL A   1      41.622  25.777  28.395  1.00  0.00     0.074 A 
ATOM     34  C   UNL A   1      43.955  24.969  28.484  1.00  0.00     0.049 A 
ATOM     35  N   UNL A   1      41.768  27.008  28.813  1.00  0.00    -0.248 NA
ATOM     36  C   UNL A   1      40.238  25.419  28.044  1.00  0.00     0.031 C 
ATOM     37  C   UNL A   1      45.066  24.034  28.298  1.00  0.00     0.029 A 
ATOM     38  N   UNL A   1      44.552  26.102  28.976  1.00  0.00    -0.354 N 
ATOM     39  C   UNL A   1      40.501  27.576  28.762  1.00  0.00     0.074 A 
ATOM     40  C   UNL A   1      39.608  26.571  28.226  1.00  0.00     0.031 C 
ATOM     41  C   UNL A   1      46.207  24.624  28.689  1.00  0.00     0.029 A 
ATOM     42  C   UNL A   1      45.913  25.987  29.123  1.00  0.00     0.049 A 
ATOM     43  H   UNL A   1      44.053  26.919  29.204  1.00  0.00     0.167 HD
ATOM     44  C   UNL A   1      40.113  28.815  29.145  1.00  0.00     0.037 A 
ATOM     45  C   UNL A   1      46.822  26.881  29.555  1.00  0.00     0.037 A 
ATOM     46  C   UNL A   1      40.996  29.804  29.705  1.00  0.00     0.049 A 
ATOM     47  C   UNL A   1      46.365  28.247  29.984  1.00  0.00     0.074 A 
ATOM     48  C   UNL A   1      40.686  31.065  30.184  1.00  0.00     0.029 A 
ATOM     49  N   UNL A   1      42.364  29.642  29.859  1.00  0.00    -0.354 N 
ATOM     50  N   UNL A   1      45.154  28.748  29.992  1.00  0.00    -0.248 NA
ATOM     51  C   UNL A   1      47.401  29.170  30.469  1.00  0.00     0.031 C 
ATOM     52  C   UNL A   1      41.875  31.680  30.595  1.00  0.00     0.029 A 
ATOM     53  C   UNL A   1      42.917  30.787  30.409  1.00  0.00     0.049 A 
ATOM     54  H   UNL A   1      42.868  28.833  29.614  1.00  0.00     0.167 HD
ATOM     55  C   UNL A   1      45.277  30.032  30.506  1.00  0.00     0.074 A 
ATOM     56  C   UNL A   1      46.680  30.229  30.809  1.00  0.00     0.031 C 
ATOM     57  C   UNL A   1      44.314  30.964  30.709  1.00  0.00     0.037 A 
BRANCH  44  58
ATOM     58  C   UNL A   1      38.663  29.168  28.976  1.00  0.00     0.057 A 
ATOM     59  C   UNL A   1      37.761  29.116  30.047  1.00  0.00     0.134 A 
ATOM     60  C   UNL A   1      38.169  29.588  27.735  1.00  0.00     0.134 A 
ATOM     61  F   UNL A   1      38.168  28.711  31.259  1.00  0.00    -0.206 F 
ATOM     62  C   UNL A   1      36.414  29.445  29.883  1.00  0.00     0.040 A 
ATOM     63  C   UNL A   1      36.830  29.943  27.565  1.00  0.00     0.040 A 
ATOM     64  F   UNL A   1      38.980  29.664  26.669  1.00  0.00    -0.206 F 
ATOM     65  C   UNL A   1      35.947  29.865  28.640  1.00  0.00     0.006 A 
ENDBRANCH  44  58
BRANCH  45  66
ATOM     66  C   UNL A   1      48.255  26.502  29.631  1.00  0.00     0.057 A 
ATOM     67  C   UNL A   1      48.764  25.836  30.752  1.00  0.00     0.134 A 
ATOM     68  C   UNL A   1      49.145  26.793  28.592  1.00  0.00     0.134 A 
ATOM     69  F   UNL A   1      47.963  25.547  31.788  1.00  0.00    -0.206 F 
ATOM     70  C   UNL A   1      50.113  25.488  30.844  1.00  0.00     0.040 A 
ATOM     71  C   UNL A   1      50.491  26.430  28.661  1.00  0.00     0.040 A 
ATOM     72  F   UNL A   1      48.716  27.424  27.489  1.00  0.00    -0.206 F 
ATOM     73  C   UNL A   1      50.980  25.781  29.793  1.00  0.00     0.006 A 
ENDBRANCH  45  66
BRANCH  57  74
ATOM     74  C   UNL A   1      44.741  32.269  31.313  1.00  0.00     0.057 A 
ATOM     75  C   UNL A   1      45.082  33.373  30.521  1.00  0.00     0.134 A 
ATOM     76  C   UNL A   1      44.775  32.433  32.704  1.00  0.00     0.134 A 
ATOM     77  F   UNL A   1      45.082  33.276  29.183  1.00  0.00    -0.206 F 
ATOM     78  C   UNL A   1      45.461  34.589  31.093  1.00  0.00     0.040 A 
ATOM     79  C   UNL A   1      45.128  33.650  33.286  1.00  0.00     0.040 A 
ATOM     80  F   UNL A   1      44.452  31.416  33.518  1.00  0.00    -0.206 F 
ATOM     81  C   UNL A   1      45.478  34.731  32.480  1.00  0.00     0.006 A 
ENDBRANCH  57  74
ENDBRANCH  31  32
ENDBRANCH  23  26
ENDBRANCH  21  22
ENDBRANCH  20  21
ENDBRANCH  19  20
ENDBRANCH   1  19
TORSDOF 15
ENDMDL
MODEL 3
REMARK VINA RESULT:     -10.4      4.842     10.228
REMARK SMILES C[C@H](CC(=O)NCCCCCCNC(=O)c1ccc(-c2c3nc(c(-c4c(F)cccc4F)c4ccc([nH]4)c(-c4c(F)cccc4F)c4nc(c(-c5c(F)cccc5F)c5ccc2[nH]5)C=C4)C=C3)cc1)N1C(=O)CCCC1=O
REMARK SMILES IDX 9 1 8 2 7 3 6 4 4 5 5 6 3 8 2 9 1 10 70 11 71 12 76 13 72 14
REMARK SMILES IDX 73 15 75 16 77 17 74 18 10 19 11 20 12 21 13 22 14 23 15 25
REMARK SMILES IDX 16 26 17 27 69 28 18 29 68 30 19 31 20 32 21 33 62 34 22 35
REMARK SMILES IDX 67 36 61 37 63 38 23 39 66 40 60 41 59 42 24 44 50 45 33 46
REMARK SMILES IDX 49 47 34 48 37 49 48 50 64 51 35 52 36 53 47 55 65 56 38 57
REMARK SMILES IDX 25 58 26 59 31 60 27 61 28 62 30 63 32 64 29 65 51 66 52 67
REMARK SMILES IDX 57 68 53 69 54 70 56 71 58 72 55 73 39 74 40 75 45 76 41 77
REMARK SMILES IDX 42 78 44 79 46 80 43 81
REMARK H PARENT 6 7 13 24 63 43 37 54
REMARK Flexibility Score: inf
ROOT
ATOM      1  C   UNL A   1      41.416  35.248  28.995  1.00  0.00     0.002 C 
ENDROOT
BRANCH   1   2
ATOM      2  C   UNL A   1      40.331  34.279  29.463  1.00  0.00     0.021 C 
BRANCH   2   3
ATOM      3  C   UNL A   1      39.045  34.947  29.956  1.00  0.00     0.116 C 
BRANCH   3   4
ATOM      4  N   UNL A   1      37.900  34.564  29.140  1.00  0.00    -0.356 N 
ATOM      5  C   UNL A   1      36.764  33.882  29.481  1.00  0.00     0.222 C 
ATOM      6  O   UNL A   1      35.960  33.589  28.597  1.00  0.00    -0.275 OA
ATOM      7  H   UNL A   1      37.951  34.839  28.197  1.00  0.00     0.163 HD
BRANCH   5   8
ATOM      8  C   UNL A   1      36.517  33.499  30.927  1.00  0.00     0.125 C 
BRANCH   8   9
ATOM      9  C   UNL A   1      35.025  33.516  31.322  1.00  0.00     0.099 C 
ATOM     10  C   UNL A   1      34.706  32.626  32.528  1.00  0.00     0.032 C 
BRANCH   9  11
ATOM     11  N   UNL A   1      34.414  34.855  31.564  1.00  0.00    -0.279 N 
ATOM     12  C   UNL A   1      34.777  35.636  32.659  1.00  0.00     0.229 C 
ATOM     13  C   UNL A   1      33.309  35.160  30.758  1.00  0.00     0.229 C 
ATOM     14  O   UNL A   1      35.505  35.279  33.583  1.00  0.00    -0.274 OA
ATOM     15  C   UNL A   1      34.163  37.012  32.692  1.00  0.00     0.101 C 
ATOM     16  C   UNL A   1      32.364  36.259  31.214  1.00  0.00     0.101 C 
ATOM     17  O   UNL A   1      33.053  34.556  29.714  1.00  0.00    -0.274 OA
ATOM     18  C   UNL A   1      32.672  36.821  32.584  1.00  0.00     0.020 C 
ENDBRANCH   9  11
ENDBRANCH   8   9
ENDBRANCH   5   8
ENDBRANCH   3   4
ENDBRANCH   2   3
ENDBRANCH   1   2
BRANCH   1  19
ATOM     19  C   UNL A   1      42.672  35.277  29.866  1.00  0.00     0.002 C 
BRANCH  19  20
ATOM     20  C   UNL A   1      43.541  36.532  29.731  1.00  0.00     0.021 C 
BRANCH  20  21
ATOM     21  C   UNL A   1      44.628  36.691  30.791  1.00  0.00     0.116 C 
BRANCH  21  22
ATOM     22  N   UNL A   1      45.927  36.985  30.210  1.00  0.00    -0.352 N 
ATOM     23  C   UNL A   1      46.831  36.132  29.628  1.00  0.00     0.251 C 
ATOM     24  H   UNL A   1      46.197  37.931  30.237  1.00  0.00     0.163 HD
ATOM     25  O   UNL A   1      47.962  36.517  29.353  1.00  0.00    -0.269 OA
BRANCH  23  26
ATOM     26  C   UNL A   1      46.442  34.735  29.348  1.00  0.00     0.039 A 
ATOM     27  C   UNL A   1      46.488  33.801  30.386  1.00  0.00     0.014 A 
ATOM     28  C   UNL A   1      46.045  34.347  28.065  1.00  0.00     0.014 A 
ATOM     29  C   UNL A   1      46.084  32.485  30.150  1.00  0.00     0.010 A 
ATOM     30  C   UNL A   1      45.584  33.050  27.847  1.00  0.00     0.010 A 
ATOM     31  C   UNL A   1      45.605  32.107  28.885  1.00  0.00    -0.014 A 
BRANCH  31  32
ATOM     32  C   UNL A   1      45.129  30.724  28.629  1.00  0.00     0.031 A 
ATOM     33  C   UNL A   1      46.090  29.669  28.161  1.00  0.00     0.074 A 
ATOM     34  C   UNL A   1      43.820  30.435  28.762  1.00  0.00     0.049 A 
ATOM     35  N   UNL A   1      45.855  28.425  27.829  1.00  0.00    -0.248 NA
ATOM     36  C   UNL A   1      47.499  30.073  28.022  1.00  0.00     0.031 C 
ATOM     37  C   UNL A   1      42.779  31.383  29.164  1.00  0.00     0.029 A 
ATOM     38  N   UNL A   1      43.140  29.260  28.561  1.00  0.00    -0.354 N 
ATOM     39  C   UNL A   1      47.079  27.904  27.429  1.00  0.00     0.074 A 
ATOM     40  C   UNL A   1      48.044  28.979  27.513  1.00  0.00     0.031 C 
ATOM     41  C   UNL A   1      41.596  30.748  29.199  1.00  0.00     0.029 A 
ATOM     42  C   UNL A   1      41.790  29.359  28.793  1.00  0.00     0.049 A 
ATOM     43  H   UNL A   1      43.579  28.425  28.279  1.00  0.00     0.167 HD
ATOM     44  C   UNL A   1      47.375  26.639  27.045  1.00  0.00     0.037 A 
ATOM     45  C   UNL A   1      40.816  28.435  28.684  1.00  0.00     0.037 A 
ATOM     46  C   UNL A   1      46.420  25.565  26.990  1.00  0.00     0.049 A 
ATOM     47  C   UNL A   1      41.173  27.036  28.266  1.00  0.00     0.074 A 
ATOM     48  C   UNL A   1      46.636  24.234  26.677  1.00  0.00     0.029 A 
ATOM     49  N   UNL A   1      45.066  25.699  27.253  1.00  0.00    -0.354 N 
ATOM     50  N   UNL A   1      42.345  26.541  27.953  1.00  0.00    -0.248 NA
ATOM     51  C   UNL A   1      40.070  26.067  28.190  1.00  0.00     0.031 C 
ATOM     52  C   UNL A   1      45.404  23.570  26.715  1.00  0.00     0.029 A 
ATOM     53  C   UNL A   1      44.429  24.479  27.092  1.00  0.00     0.049 A 
ATOM     54  H   UNL A   1      44.622  26.537  27.516  1.00  0.00     0.167 HD
ATOM     55  C   UNL A   1      42.128  25.199  27.671  1.00  0.00     0.074 A 
ATOM     56  C   UNL A   1      40.712  24.955  27.860  1.00  0.00     0.031 C 
ATOM     57  C   UNL A   1      43.021  24.253  27.289  1.00  0.00     0.037 A 
BRANCH  44  58
ATOM     58  C   UNL A   1      48.797  26.350  26.660  1.00  0.00     0.057 A 
ATOM     59  C   UNL A   1      49.705  25.782  27.563  1.00  0.00     0.134 A 
ATOM     60  C   UNL A   1      49.257  26.620  25.365  1.00  0.00     0.134 A 
ATOM     61  F   UNL A   1      49.332  25.510  28.823  1.00  0.00    -0.206 F 
ATOM     62  C   UNL A   1      51.027  25.515  27.200  1.00  0.00     0.040 A 
ATOM     63  C   UNL A   1      50.569  26.335  24.983  1.00  0.00     0.040 A 
ATOM     64  F   UNL A   1      48.439  27.160  24.450  1.00  0.00    -0.206 F 
ATOM     65  C   UNL A   1      51.460  25.788  25.904  1.00  0.00     0.006 A 
ENDBRANCH  44  58
BRANCH  45  66
ATOM     66  C   UNL A   1      39.414  28.797  29.006  1.00  0.00     0.057 A 
ATOM     67  C   UNL A   1      38.568  29.336  28.030  1.00  0.00     0.134 A 
ATOM     68  C   UNL A   1      38.887  28.614  30.289  1.00  0.00     0.134 A 
ATOM     69  F   UNL A   1      39.022  29.552  26.787  1.00  0.00    -0.206 F 
ATOM     70  C   UNL A   1      37.251  29.695  28.323  1.00  0.00     0.040 A 
ATOM     71  C   UNL A   1      37.566  28.948  30.590  1.00  0.00     0.040 A 
ATOM     72  F   UNL A   1      39.647  28.095  31.266  1.00  0.00    -0.206 F 
ATOM     73  C   UNL A   1      36.746  29.497  29.606  1.00  0.00     0.006 A 
ENDBRANCH  45  66
BRANCH  57  74
ATOM     74  C   UNL A   1      42.498  22.863  27.080  1.00  0.00     0.057 A 
ATOM     75  C   UNL A   1      42.364  22.309  25.800  1.00  0.00     0.134 A 
ATOM     76  C   UNL A   1      42.161  22.056  28.175  1.00  0.00     0.134 A 
ATOM     77  F   UNL A   1      42.659  23.035  24.711  1.00  0.00    -0.206 F 
ATOM     78  C   UNL A   1      41.894  21.008  25.616  1.00  0.00     0.040 A 
ATOM     79  C   UNL A   1      41.712  20.746  28.004  1.00  0.00     0.040 A 
ATOM     80  F   UNL A   1      42.273  22.525  29.427  1.00  0.00    -0.206 F 
ATOM     81  C   UNL A   1      41.573  20.221  26.721  1.00  0.00     0.006 A 
ENDBRANCH  57  74
ENDBRANCH  31  32
ENDBRANCH  23  26
ENDBRANCH  21  22
ENDBRANCH  20  21
ENDBRANCH  19  20
ENDBRANCH   1  19
TORSDOF 15
ENDMDL
