MODEL 1
REMARK VINA RESULT:     -10.3      0.000      0.000
REMARK SMILES Cc1ncccc1C(=O)NCCOCC(=O)NCCCCCCNC(=O)c1ccc(-c2c3nc(c(-c4c(F)cccc4F)c4ccc([nH]4)c(-c4c(F)cccc4F)c4nc(c(-c5c(F)cccc5F)c5ccc2[nH]5)C=C4)C=C3)cc1
REMARK SMILES IDX 19 1 18 2 17 3 15 4 16 5 14 7 13 8 12 9 11 10 10 11 8 12
REMARK SMILES IDX 9 13 7 15 1 16 2 17 3 18 4 19 6 20 5 21 20 22 21 23 22 24
REMARK SMILES IDX 23 25 24 26 25 27 26 29 27 30 28 31 80 32 29 33 79 34 30 35
REMARK SMILES IDX 31 36 32 37 73 38 33 39 78 40 72 41 74 42 34 43 77 44 71 45
REMARK SMILES IDX 70 46 35 48 61 49 44 50 60 51 45 52 48 53 59 54 75 55 46 56
REMARK SMILES IDX 47 57 58 59 76 60 49 61 36 62 37 63 42 64 38 65 39 66 41 67
REMARK SMILES IDX 43 68 40 69 62 70 63 71 68 72 64 73 65 74 67 75 69 76 66 77
REMARK SMILES IDX 50 78 51 79 56 80 52 81 53 82 55 83 57 84 54 85
REMARK H PARENT 17 6 10 14 24 28 74 47 48 58
REMARK Flexibility Score: inf
ROOT
ATOM      1  C   UNL A   1      36.801  23.103  23.878  1.00  0.00     0.021 C 
ENDROOT
BRANCH   1   2
ATOM      2  C   UNL A   1      35.454  23.724  24.256  1.00  0.00     0.116 C 
BRANCH   2   3
ATOM      3  N   UNL A   1      34.359  23.161  23.494  1.00  0.00    -0.354 N 
ATOM      4  C   UNL A   1      33.323  23.820  22.896  1.00  0.00     0.245 C 
ATOM      5  O   UNL A   1      32.482  23.176  22.272  1.00  0.00    -0.272 OA
ATOM      6  H   UNL A   1      34.361  22.181  23.397  1.00  0.00     0.163 HD
BRANCH   4   7
ATOM      7  C   UNL A   1      33.236  25.348  23.041  1.00  0.00     0.260 C 
BRANCH   7   8
ATOM      8  O   UNL A   1      33.980  26.186  22.169  1.00  0.00    -0.370 OA
BRANCH   8   9
ATOM      9  C   UNL A   1      33.552  27.543  22.097  1.00  0.00     0.182 C 
BRANCH   9  10
ATOM     10  C   UNL A   1      33.827  28.370  23.346  1.00  0.00     0.144 C 
BRANCH  10  11
ATOM     11  N   UNL A   1      32.805  29.325  23.719  1.00  0.00    -0.350 N 
ATOM     12  C   UNL A   1      31.705  29.215  24.527  1.00  0.00     0.253 C 
ATOM     13  O   UNL A   1      31.070  30.246  24.760  1.00  0.00    -0.269 OA
ATOM     14  H   UNL A   1      32.922  30.216  23.317  1.00  0.00     0.163 HD
BRANCH  12  15
ATOM     15  C   UNL A   1      31.186  27.934  25.068  1.00  0.00     0.061 A 
ATOM     16  C   UNL A   1      32.110  28.073  27.460  1.00  0.00     0.067 C 
ATOM     17  C   UNL A   1      31.372  27.401  26.346  1.00  0.00     0.050 A 
ATOM     18  N   UNL A   1      30.831  26.202  26.720  1.00  0.00    -0.261 NA
ATOM     19  C   UNL A   1      30.012  25.568  25.854  1.00  0.00     0.111 A 
ATOM     20  C   UNL A   1      30.304  27.249  24.210  1.00  0.00     0.017 A 
ATOM     21  C   UNL A   1      29.701  26.060  24.607  1.00  0.00     0.021 A 
ENDBRANCH  12  15
ENDBRANCH  10  11
ENDBRANCH   9  10
ENDBRANCH   8   9
ENDBRANCH   7   8
ENDBRANCH   4   7
ENDBRANCH   2   3
ENDBRANCH   1   2
BRANCH   1  22
ATOM     22  C   UNL A   1      37.331  22.069  24.876  1.00  0.00     0.002 C 
BRANCH  22  23
ATOM     23  C   UNL A   1      36.966  20.617  24.558  1.00  0.00     0.002 C 
BRANCH  23  24
ATOM     24  C   UNL A   1      38.031  19.587  24.939  1.00  0.00     0.021 C 
BRANCH  24  25
ATOM     25  C   UNL A   1      39.189  20.151  25.752  1.00  0.00     0.116 C 
BRANCH  25  26
ATOM     26  N   UNL A   1      40.290  19.207  25.856  1.00  0.00    -0.352 N 
ATOM     27  C   UNL A   1      41.610  19.448  26.132  1.00  0.00     0.251 C 
ATOM     28  H   UNL A   1      40.053  18.263  25.708  1.00  0.00     0.163 HD
ATOM     29  O   UNL A   1      42.448  18.563  25.970  1.00  0.00    -0.269 OA
BRANCH  27  30
ATOM     30  C   UNL A   1      42.028  20.782  26.607  1.00  0.00     0.039 A 
ATOM     31  C   UNL A   1      42.458  21.729  25.675  1.00  0.00     0.014 A 
ATOM     32  C   UNL A   1      41.994  21.098  27.968  1.00  0.00     0.014 A 
ATOM     33  C   UNL A   1      42.802  23.012  26.104  1.00  0.00     0.010 A 
ATOM     34  C   UNL A   1      42.260  22.399  28.384  1.00  0.00     0.010 A 
ATOM     35  C   UNL A   1      42.674  23.368  27.456  1.00  0.00    -0.014 A 
BRANCH  35  36
ATOM     36  C   UNL A   1      42.969  24.747  27.919  1.00  0.00     0.031 A 
ATOM     37  C   UNL A   1      44.385  25.160  28.211  1.00  0.00     0.074 A 
ATOM     38  C   UNL A   1      41.956  25.609  28.131  1.00  0.00     0.049 A 
ATOM     39  N   UNL A   1      44.835  26.298  28.677  1.00  0.00    -0.248 NA
ATOM     40  C   UNL A   1      45.432  24.154  27.974  1.00  0.00     0.031 C 
ATOM     41  C   UNL A   1      40.537  25.313  27.928  1.00  0.00     0.029 A 
ATOM     42  N   UNL A   1      41.964  26.907  28.574  1.00  0.00    -0.354 N 
ATOM     43  C   UNL A   1      46.210  26.140  28.797  1.00  0.00     0.074 A 
ATOM     44  C   UNL A   1      46.514  24.779  28.413  1.00  0.00     0.031 C 
ATOM     45  C   UNL A   1      39.814  26.407  28.219  1.00  0.00     0.029 A 
ATOM     46  C   UNL A   1      40.712  27.464  28.670  1.00  0.00     0.049 A 
ATOM     47  H   UNL A   1      42.789  27.395  28.800  1.00  0.00     0.167 HD
ATOM     48  C   UNL A   1      47.138  27.052  29.171  1.00  0.00     0.037 A 
ATOM     49  C   UNL A   1      40.330  28.687  29.085  1.00  0.00     0.037 A 
ATOM     50  C   UNL A   1      46.832  28.411  29.536  1.00  0.00     0.049 A 
ATOM     51  C   UNL A   1      41.378  29.676  29.515  1.00  0.00     0.074 A 
ATOM     52  C   UNL A   1      47.706  29.429  29.877  1.00  0.00     0.029 A 
ATOM     53  N   UNL A   1      45.553  28.939  29.616  1.00  0.00    -0.354 N 
ATOM     54  N   UNL A   1      42.682  29.536  29.557  1.00  0.00    -0.248 NA
ATOM     55  C   UNL A   1      40.903  30.997  29.951  1.00  0.00     0.031 C 
ATOM     56  C   UNL A   1      46.952  30.557  30.216  1.00  0.00     0.029 A 
ATOM     57  C   UNL A   1      45.611  30.261  30.028  1.00  0.00     0.049 A 
ATOM     58  H   UNL A   1      44.724  28.448  29.411  1.00  0.00     0.167 HD
ATOM     59  C   UNL A   1      43.182  30.756  29.993  1.00  0.00     0.074 A 
ATOM     60  C   UNL A   1      42.044  31.629  30.186  1.00  0.00     0.031 C 
ATOM     61  C   UNL A   1      44.469  31.121  30.210  1.00  0.00     0.037 A 
BRANCH  48  62
ATOM     62  C   UNL A   1      48.573  26.611  29.203  1.00  0.00     0.057 A 
ATOM     63  C   UNL A   1      49.396  26.680  28.070  1.00  0.00     0.134 A 
ATOM     64  C   UNL A   1      49.151  26.143  30.390  1.00  0.00     0.134 A 
ATOM     65  F   UNL A   1      48.903  27.107  26.897  1.00  0.00    -0.206 F 
ATOM     66  C   UNL A   1      50.731  26.273  28.109  1.00  0.00     0.040 A 
ATOM     67  C   UNL A   1      50.493  25.763  30.450  1.00  0.00     0.040 A 
ATOM     68  F   UNL A   1      48.425  26.057  31.514  1.00  0.00    -0.206 F 
ATOM     69  C   UNL A   1      51.285  25.820  29.304  1.00  0.00     0.006 A 
ENDBRANCH  48  62
BRANCH  49  70
ATOM     70  C   UNL A   1      38.890  29.054  29.098  1.00  0.00     0.057 A 
ATOM     71  C   UNL A   1      38.115  28.895  30.252  1.00  0.00     0.134 A 
ATOM     72  C   UNL A   1      38.252  29.559  27.957  1.00  0.00     0.134 A 
ATOM     73  F   UNL A   1      38.663  28.399  31.371  1.00  0.00    -0.206 F 
ATOM     74  C   UNL A   1      36.753  29.200  30.266  1.00  0.00     0.040 A 
ATOM     75  C   UNL A   1      36.898  29.895  27.966  1.00  0.00     0.040 A 
ATOM     76  F   UNL A   1      38.941  29.744  26.823  1.00  0.00    -0.206 F 
ATOM     77  C   UNL A   1      36.141  29.707  29.121  1.00  0.00     0.006 A 
ENDBRANCH  49  70
BRANCH  61  78
ATOM     78  C   UNL A   1      44.720  32.537  30.644  1.00  0.00     0.057 A 
ATOM     79  C   UNL A   1      44.880  33.581  29.722  1.00  0.00     0.134 A 
ATOM     80  C   UNL A   1      44.764  32.865  32.005  1.00  0.00     0.134 A 
ATOM     81  F   UNL A   1      44.861  33.332  28.403  1.00  0.00    -0.206 F 
ATOM     82  C   UNL A   1      45.100  34.894  30.139  1.00  0.00     0.040 A 
ATOM     83  C   UNL A   1      44.952  34.180  32.434  1.00  0.00     0.040 A 
ATOM     84  F   UNL A   1      44.609  31.917  32.940  1.00  0.00    -0.206 F 
ATOM     85  C   UNL A   1      45.128  35.198  31.499  1.00  0.00     0.006 A 
ENDBRANCH  61  78
ENDBRANCH  35  36
ENDBRANCH  27  30
ENDBRANCH  25  26
ENDBRANCH  24  25
ENDBRANCH  23  24
ENDBRANCH  22  23
ENDBRANCH   1  22
TORSDOF 18
ENDMDL
MODEL 2
REMARK VINA RESULT:     -10.2      1.320      2.511
REMARK SMILES Cc1ncccc1C(=O)NCCOCC(=O)NCCCCCCNC(=O)c1ccc(-c2c3nc(c(-c4c(F)cccc4F)c4ccc([nH]4)c(-c4c(F)cccc4F)c4nc(c(-c5c(F)cccc5F)c5ccc2[nH]5)C=C4)C=C3)cc1
REMARK SMILES IDX 19 1 18 2 17 3 15 4 16 5 14 7 13 8 12 9 11 10 10 11 8 12
REMARK SMILES IDX 9 13 7 15 1 16 2 17 3 18 4 19 6 20 5 21 20 22 21 23 22 24
REMARK SMILES IDX 23 25 24 26 25 27 26 29 27 30 28 31 80 32 29 33 79 34 30 35
REMARK SMILES IDX 31 36 32 37 73 38 33 39 78 40 72 41 74 42 34 43 77 44 71 45
REMARK SMILES IDX 70 46 35 48 61 49 44 50 60 51 45 52 48 53 59 54 75 55 46 56
REMARK SMILES IDX 47 57 58 59 76 60 49 61 36 62 37 63 42 64 38 65 39 66 41 67
REMARK SMILES IDX 43 68 40 69 62 70 63 71 68 72 64 73 65 74 67 75 69 76 66 77
REMARK SMILES IDX 50 78 51 79 56 80 52 81 53 82 55 83 57 84 54 85
REMARK H PARENT 17 6 10 14 24 28 74 47 48 58
REMARK Flexibility Score: inf
ROOT
ATOM      1  C   UNL A   1      35.488  22.769  25.631  1.00  0.00     0.021 C 
ENDROOT
BRANCH   1   2
ATOM      2  C   UNL A   1      34.416  22.131  26.518  1.00  0.00     0.116 C 
BRANCH   2   3
ATOM      3  N   UNL A   1      34.272  20.712  26.267  1.00  0.00    -0.354 N 
ATOM      4  C   UNL A   1      33.286  20.076  25.568  1.00  0.00     0.245 C 
ATOM      5  O   UNL A   1      33.331  18.854  25.443  1.00  0.00    -0.272 OA
ATOM      6  H   UNL A   1      34.973  20.133  26.649  1.00  0.00     0.163 HD
BRANCH   4   7
ATOM      7  C   UNL A   1      32.140  20.913  24.978  1.00  0.00     0.260 C 
BRANCH   7   8
ATOM      8  O   UNL A   1      32.056  21.110  23.575  1.00  0.00    -0.370 OA
BRANCH   8   9
ATOM      9  C   UNL A   1      32.799  22.210  23.057  1.00  0.00     0.182 C 
BRANCH   9  10
ATOM     10  C   UNL A   1      32.000  23.494  22.870  1.00  0.00     0.144 C 
BRANCH  10  11
ATOM     11  N   UNL A   1      32.592  24.496  22.011  1.00  0.00    -0.350 N 
ATOM     12  C   UNL A   1      33.055  25.759  22.265  1.00  0.00     0.253 C 
ATOM     13  O   UNL A   1      33.627  26.348  21.345  1.00  0.00    -0.269 OA
ATOM     14  H   UNL A   1      32.677  24.218  21.070  1.00  0.00     0.163 HD
BRANCH  12  15
ATOM     15  C   UNL A   1      32.840  26.490  23.540  1.00  0.00     0.061 A 
ATOM     16  C   UNL A   1      30.449  27.340  23.149  1.00  0.00     0.067 C 
ATOM     17  C   UNL A   1      31.712  27.211  23.939  1.00  0.00     0.050 A 
ATOM     18  N   UNL A   1      31.643  27.840  25.152  1.00  0.00    -0.261 NA
ATOM     19  C   UNL A   1      32.659  27.670  26.024  1.00  0.00     0.111 A 
ATOM     20  C   UNL A   1      33.863  26.319  24.493  1.00  0.00     0.017 A 
ATOM     21  C   UNL A   1      33.771  26.904  25.752  1.00  0.00     0.021 A 
ENDBRANCH  12  15
ENDBRANCH  10  11
ENDBRANCH   9  10
ENDBRANCH   8   9
ENDBRANCH   7   8
ENDBRANCH   4   7
ENDBRANCH   2   3
ENDBRANCH   1   2
BRANCH   1  22
ATOM     22  C   UNL A   1      36.851  22.071  25.674  1.00  0.00     0.002 C 
BRANCH  22  23
ATOM     23  C   UNL A   1      37.140  21.144  24.491  1.00  0.00     0.002 C 
BRANCH  23  24
ATOM     24  C   UNL A   1      38.015  19.933  24.820  1.00  0.00     0.021 C 
BRANCH  24  25
ATOM     25  C   UNL A   1      39.000  20.161  25.960  1.00  0.00     0.116 C 
BRANCH  25  26
ATOM     26  N   UNL A   1      40.149  19.275  25.871  1.00  0.00    -0.352 N 
ATOM     27  C   UNL A   1      41.479  19.567  26.022  1.00  0.00     0.251 C 
ATOM     28  H   UNL A   1      39.942  18.332  25.674  1.00  0.00     0.163 HD
ATOM     29  O   UNL A   1      42.335  18.745  25.702  1.00  0.00    -0.269 OA
BRANCH  27  30
ATOM     30  C   UNL A   1      41.884  20.885  26.554  1.00  0.00     0.039 A 
ATOM     31  C   UNL A   1      42.266  21.887  25.660  1.00  0.00     0.014 A 
ATOM     32  C   UNL A   1      41.885  21.129  27.930  1.00  0.00     0.014 A 
ATOM     33  C   UNL A   1      42.597  23.153  26.146  1.00  0.00     0.010 A 
ATOM     34  C   UNL A   1      42.136  22.412  28.405  1.00  0.00     0.010 A 
ATOM     35  C   UNL A   1      42.502  23.436  27.518  1.00  0.00    -0.014 A 
BRANCH  35  36
ATOM     36  C   UNL A   1      42.783  24.796  28.043  1.00  0.00     0.031 A 
ATOM     37  C   UNL A   1      44.180  25.175  28.453  1.00  0.00     0.074 A 
ATOM     38  C   UNL A   1      41.770  25.669  28.206  1.00  0.00     0.049 A 
ATOM     39  N   UNL A   1      44.611  26.291  28.986  1.00  0.00    -0.248 NA
ATOM     40  C   UNL A   1      45.225  24.158  28.264  1.00  0.00     0.031 C 
ATOM     41  C   UNL A   1      40.366  25.404  27.888  1.00  0.00     0.029 A 
ATOM     42  N   UNL A   1      41.765  26.954  28.687  1.00  0.00    -0.354 N 
ATOM     43  C   UNL A   1      45.970  26.105  29.203  1.00  0.00     0.074 A 
ATOM     44  C   UNL A   1      46.281  24.750  28.801  1.00  0.00     0.031 C 
ATOM     45  C   UNL A   1      39.641  26.501  28.158  1.00  0.00     0.029 A 
ATOM     46  C   UNL A   1      40.517  27.529  28.707  1.00  0.00     0.049 A 
ATOM     47  H   UNL A   1      42.578  27.420  28.989  1.00  0.00     0.167 HD
ATOM     48  C   UNL A   1      46.881  26.990  29.673  1.00  0.00     0.037 A 
ATOM     49  C   UNL A   1      40.125  28.746  29.129  1.00  0.00     0.037 A 
ATOM     50  C   UNL A   1      46.569  28.342  30.055  1.00  0.00     0.049 A 
ATOM     51  C   UNL A   1      41.153  29.703  29.667  1.00  0.00     0.074 A 
ATOM     52  C   UNL A   1      47.431  29.334  30.491  1.00  0.00     0.029 A 
ATOM     53  N   UNL A   1      45.296  28.890  30.056  1.00  0.00    -0.354 N 
ATOM     54  N   UNL A   1      42.447  29.539  29.801  1.00  0.00    -0.248 NA
ATOM     55  C   UNL A   1      40.667  31.019  30.106  1.00  0.00     0.031 C 
ATOM     56  C   UNL A   1      46.671  30.465  30.807  1.00  0.00     0.029 A 
ATOM     57  C   UNL A   1      45.344  30.198  30.511  1.00  0.00     0.049 A 
ATOM     58  H   UNL A   1      44.478  28.420  29.774  1.00  0.00     0.167 HD
ATOM     59  C   UNL A   1      42.932  30.736  30.310  1.00  0.00     0.074 A 
ATOM     60  C   UNL A   1      41.796  31.624  30.445  1.00  0.00     0.031 C 
ATOM     61  C   UNL A   1      44.205  31.073  30.633  1.00  0.00     0.037 A 
BRANCH  48  62
ATOM     62  C   UNL A   1      48.303  26.522  29.798  1.00  0.00     0.057 A 
ATOM     63  C   UNL A   1      49.252  26.757  28.794  1.00  0.00     0.134 A 
ATOM     64  C   UNL A   1      48.738  25.859  30.952  1.00  0.00     0.134 A 
ATOM     65  F   UNL A   1      48.900  27.376  27.657  1.00  0.00    -0.206 F 
ATOM     66  C   UNL A   1      50.574  26.324  28.920  1.00  0.00     0.040 A 
ATOM     67  C   UNL A   1      50.064  25.450  31.104  1.00  0.00     0.040 A 
ATOM     68  F   UNL A   1      47.885  25.607  31.957  1.00  0.00    -0.206 F 
ATOM     69  C   UNL A   1      50.984  25.675  30.082  1.00  0.00     0.006 A 
ENDBRANCH  48  62
BRANCH  49  70
ATOM     70  C   UNL A   1      38.694  29.138  29.046  1.00  0.00     0.057 A 
ATOM     71  C   UNL A   1      38.137  29.592  27.846  1.00  0.00     0.134 A 
ATOM     72  C   UNL A   1      37.852  29.079  30.165  1.00  0.00     0.134 A 
ATOM     73  F   UNL A   1      38.896  29.688  26.743  1.00  0.00    -0.206 F 
ATOM     74  C   UNL A   1      36.804  29.998  27.764  1.00  0.00     0.040 A 
ATOM     75  C   UNL A   1      36.511  29.454  30.090  1.00  0.00     0.040 A 
ATOM     76  F   UNL A   1      38.322  28.644  31.343  1.00  0.00    -0.206 F 
ATOM     77  C   UNL A   1      35.985  29.925  28.889  1.00  0.00     0.006 A 
ENDBRANCH  49  70
BRANCH  61  78
ATOM     78  C   UNL A   1      44.444  32.470  31.128  1.00  0.00     0.057 A 
ATOM     79  C   UNL A   1      44.428  32.789  32.493  1.00  0.00     0.134 A 
ATOM     80  C   UNL A   1      44.732  33.503  30.227  1.00  0.00     0.134 A 
ATOM     81  F   UNL A   1      44.146  31.849  33.408  1.00  0.00    -0.206 F 
ATOM     82  C   UNL A   1      44.665  34.091  32.940  1.00  0.00     0.040 A 
ATOM     83  C   UNL A   1      45.001  34.801  30.663  1.00  0.00     0.040 A 
ATOM     84  F   UNL A   1      44.773  33.266  28.908  1.00  0.00    -0.206 F 
ATOM     85  C   UNL A   1      44.960  35.099  32.024  1.00  0.00     0.006 A 
ENDBRANCH  61  78
ENDBRANCH  35  36
ENDBRANCH  27  30
ENDBRANCH  25  26
ENDBRANCH  24  25
ENDBRANCH  23  24
ENDBRANCH  22  23
ENDBRANCH   1  22
TORSDOF 18
ENDMDL
MODEL 3
REMARK VINA RESULT:     -10.2      1.293      6.627
REMARK SMILES Cc1ncccc1C(=O)NCCOCC(=O)NCCCCCCNC(=O)c1ccc(-c2c3nc(c(-c4c(F)cccc4F)c4ccc([nH]4)c(-c4c(F)cccc4F)c4nc(c(-c5c(F)cccc5F)c5ccc2[nH]5)C=C4)C=C3)cc1
REMARK SMILES IDX 19 1 18 2 17 3 15 4 16 5 14 7 13 8 12 9 11 10 10 11 8 12
REMARK SMILES IDX 9 13 7 15 1 16 2 17 3 18 4 19 6 20 5 21 20 22 21 23 22 24
REMARK SMILES IDX 23 25 24 26 25 27 26 29 27 30 28 31 80 32 29 33 79 34 30 35
REMARK SMILES IDX 31 36 32 37 73 38 33 39 78 40 72 41 74 42 34 43 77 44 71 45
REMARK SMILES IDX 70 46 35 48 61 49 44 50 60 51 45 52 48 53 59 54 75 55 46 56
REMARK SMILES IDX 47 57 58 59 76 60 49 61 36 62 37 63 42 64 38 65 39 66 41 67
REMARK SMILES IDX 43 68 40 69 62 70 63 71 68 72 64 73 65 74 67 75 69 76 66 77
REMARK SMILES IDX 50 78 51 79 56 80 52 81 53 82 55 83 57 84 54 85
REMARK H PARENT 17 6 10 14 24 28 74 47 48 58
REMARK Flexibility Score: inf
ROOT
ATOM      1  C   UNL A   1      35.754  23.048  26.240  1.00  0.00     0.021 C 
ENDROOT
BRANCH   1   2
ATOM      2  C   UNL A   1      34.403  23.419  25.625  1.00  0.00     0.116 C 
BRANCH   2   3
ATOM      3  N   UNL A   1      33.296  23.088  26.499  1.00  0.00    -0.354 N 
ATOM      4  C   UNL A   1      32.200  23.848  26.794  1.00  0.00     0.245 C 
ATOM      5  O   UNL A   1      31.344  23.397  27.553  1.00  0.00    -0.272 OA
ATOM      6  H   UNL A   1      33.340  22.206  26.935  1.00  0.00     0.163 HD
BRANCH   4   7
ATOM      7  C   UNL A   1      32.086  25.252  26.179  1.00  0.00     0.260 C 
BRANCH   7   8
ATOM      8  O   UNL A   1      30.937  26.045  26.434  1.00  0.00    -0.370 OA
BRANCH   8   9
ATOM      9  C   UNL A   1      29.853  25.879  25.524  1.00  0.00     0.182 C 
BRANCH   9  10
ATOM     10  C   UNL A   1      30.252  25.816  24.055  1.00  0.00     0.144 C 
BRANCH  10  11
ATOM     11  N   UNL A   1      30.012  27.011  23.275  1.00  0.00    -0.350 N 
ATOM     12  C   UNL A   1      30.649  28.222  23.242  1.00  0.00     0.253 C 
ATOM     13  O   UNL A   1      30.293  29.025  22.376  1.00  0.00    -0.269 OA
ATOM     14  H   UNL A   1      29.251  26.940  22.656  1.00  0.00     0.163 HD
BRANCH  12  15
ATOM     15  C   UNL A   1      31.675  28.659  24.223  1.00  0.00     0.061 A 
ATOM     16  C   UNL A   1      33.702  27.360  23.330  1.00  0.00     0.067 C 
ATOM     17  C   UNL A   1      33.016  28.274  24.295  1.00  0.00     0.050 A 
ATOM     18  N   UNL A   1      33.860  28.758  25.256  1.00  0.00    -0.261 NA
ATOM     19  C   UNL A   1      33.403  29.711  26.094  1.00  0.00     0.111 A 
ATOM     20  C   UNL A   1      31.251  29.674  25.102  1.00  0.00     0.017 A 
ATOM     21  C   UNL A   1      32.122  30.216  26.041  1.00  0.00     0.021 A 
ENDBRANCH  12  15
ENDBRANCH  10  11
ENDBRANCH   9  10
ENDBRANCH   8   9
ENDBRANCH   7   8
ENDBRANCH   4   7
ENDBRANCH   2   3
ENDBRANCH   1   2
BRANCH   1  22
ATOM     22  C   UNL A   1      36.779  22.496  25.243  1.00  0.00     0.002 C 
BRANCH  22  23
ATOM     23  C   UNL A   1      36.445  21.117  24.669  1.00  0.00     0.002 C 
BRANCH  23  24
ATOM     24  C   UNL A   1      37.501  20.040  24.921  1.00  0.00     0.021 C 
BRANCH  24  25
ATOM     25  C   UNL A   1      38.737  20.533  25.663  1.00  0.00     0.116 C 
BRANCH  25  26
ATOM     26  N   UNL A   1      39.770  19.513  25.737  1.00  0.00    -0.352 N 
ATOM     27  C   UNL A   1      41.097  19.649  26.047  1.00  0.00     0.251 C 
ATOM     28  H   UNL A   1      39.473  18.596  25.535  1.00  0.00     0.163 HD
ATOM     29  O   UNL A   1      41.877  18.718  25.854  1.00  0.00    -0.269 OA
BRANCH  27  30
ATOM     30  C   UNL A   1      41.594  20.926  26.599  1.00  0.00     0.039 A 
ATOM     31  C   UNL A   1      42.101  21.889  25.724  1.00  0.00     0.014 A 
ATOM     32  C   UNL A   1      41.558  21.172  27.974  1.00  0.00     0.014 A 
ATOM     33  C   UNL A   1      42.521  23.122  26.226  1.00  0.00     0.010 A 
ATOM     34  C   UNL A   1      41.902  22.428  28.462  1.00  0.00     0.010 A 
ATOM     35  C   UNL A   1      42.394  23.415  27.593  1.00  0.00    -0.014 A 
BRANCH  35  36
ATOM     36  C   UNL A   1      42.772  24.745  28.133  1.00  0.00     0.031 A 
ATOM     37  C   UNL A   1      41.722  25.800  28.348  1.00  0.00     0.074 A 
ATOM     38  C   UNL A   1      44.068  25.021  28.375  1.00  0.00     0.049 A 
ATOM     39  N   UNL A   1      41.864  27.036  28.756  1.00  0.00    -0.248 NA
ATOM     40  C   UNL A   1      40.333  25.427  28.040  1.00  0.00     0.031 C 
ATOM     41  C   UNL A   1      45.184  24.097  28.163  1.00  0.00     0.029 A 
ATOM     42  N   UNL A   1      44.667  26.163  28.843  1.00  0.00    -0.354 N 
ATOM     43  C   UNL A   1      40.590  27.587  28.742  1.00  0.00     0.074 A 
ATOM     44  C   UNL A   1      39.695  26.571  28.231  1.00  0.00     0.031 C 
ATOM     45  C   UNL A   1      46.327  24.699  28.526  1.00  0.00     0.029 A 
ATOM     46  C   UNL A   1      46.033  26.063  28.953  1.00  0.00     0.049 A 
ATOM     47  H   UNL A   1      44.166  26.977  29.079  1.00  0.00     0.167 HD
ATOM     48  C   UNL A   1      40.195  28.819  29.143  1.00  0.00     0.037 A 
ATOM     49  C   UNL A   1      46.946  26.972  29.345  1.00  0.00     0.037 A 
ATOM     50  C   UNL A   1      41.086  29.821  29.668  1.00  0.00     0.049 A 
ATOM     51  C   UNL A   1      46.485  28.340  29.764  1.00  0.00     0.074 A 
ATOM     52  C   UNL A   1      40.778  31.080  30.152  1.00  0.00     0.029 A 
ATOM     53  N   UNL A   1      42.462  29.680  29.769  1.00  0.00    -0.354 N 
ATOM     54  N   UNL A   1      45.267  28.825  29.813  1.00  0.00    -0.248 NA
ATOM     55  C   UNL A   1      47.525  29.289  30.189  1.00  0.00     0.031 C 
ATOM     56  C   UNL A   1      41.971  31.722  30.495  1.00  0.00     0.029 A 
ATOM     57  C   UNL A   1      43.020  30.840  30.282  1.00  0.00     0.049 A 
ATOM     58  H   UNL A   1      42.968  28.875  29.514  1.00  0.00     0.167 HD
ATOM     59  C   UNL A   1      45.391  30.119  30.302  1.00  0.00     0.074 A 
ATOM     60  C   UNL A   1      46.801  30.338  30.549  1.00  0.00     0.031 C 
ATOM     61  C   UNL A   1      44.425  31.042  30.529  1.00  0.00     0.037 A 
BRANCH  48  62
ATOM     62  C   UNL A   1      38.735  29.152  29.029  1.00  0.00     0.057 A 
ATOM     63  C   UNL A   1      37.866  29.063  30.126  1.00  0.00     0.134 A 
ATOM     64  C   UNL A   1      38.196  29.602  27.817  1.00  0.00     0.134 A 
ATOM     65  F   UNL A   1      38.314  28.628  31.314  1.00  0.00    -0.206 F 
ATOM     66  C   UNL A   1      36.511  29.380  30.014  1.00  0.00     0.040 A 
ATOM     67  C   UNL A   1      36.850  29.952  27.700  1.00  0.00     0.040 A 
ATOM     68  F   UNL A   1      38.971  29.718  26.728  1.00  0.00    -0.206 F 
ATOM     69  C   UNL A   1      36.001  29.834  28.800  1.00  0.00     0.006 A 
ENDBRANCH  48  62
BRANCH  49  70
ATOM     70  C   UNL A   1      48.388  26.614  29.376  1.00  0.00     0.057 A 
ATOM     71  C   UNL A   1      49.224  26.890  28.289  1.00  0.00     0.134 A 
ATOM     72  C   UNL A   1      48.961  25.978  30.485  1.00  0.00     0.134 A 
ATOM     73  F   UNL A   1      48.731  27.481  27.190  1.00  0.00    -0.206 F 
ATOM     74  C   UNL A   1      50.572  26.525  28.291  1.00  0.00     0.040 A 
ATOM     75  C   UNL A   1      50.313  25.634  30.513  1.00  0.00     0.040 A 
ATOM     76  F   UNL A   1      48.216  25.694  31.563  1.00  0.00    -0.206 F 
ATOM     77  C   UNL A   1      51.121  25.899  29.409  1.00  0.00     0.006 A 
ENDBRANCH  49  70
BRANCH  61  78
ATOM     78  C   UNL A   1      44.853  32.359  31.108  1.00  0.00     0.057 A 
ATOM     79  C   UNL A   1      44.948  32.569  32.491  1.00  0.00     0.134 A 
ATOM     80  C   UNL A   1      45.211  33.422  30.268  1.00  0.00     0.134 A 
ATOM     81  F   UNL A   1      44.608  31.597  33.351  1.00  0.00    -0.206 F 
ATOM     82  C   UNL A   1      45.359  33.795  33.016  1.00  0.00     0.040 A 
ATOM     83  C   UNL A   1      45.653  34.642  30.781  1.00  0.00     0.040 A 
ATOM     84  F   UNL A   1      45.152  33.287  28.936  1.00  0.00    -0.206 F 
ATOM     85  C   UNL A   1      45.721  34.834  32.159  1.00  0.00     0.006 A 
ENDBRANCH  61  78
ENDBRANCH  35  36
ENDBRANCH  27  30
ENDBRANCH  25  26
ENDBRANCH  24  25
ENDBRANCH  23  24
ENDBRANCH  22  23
ENDBRANCH   1  22
TORSDOF 18
ENDMDL
