MODEL 1
REMARK VINA RESULT:     -11.8      0.000      0.000
REMARK SMILES N#Cc1ccc(/C=C/C(=O)N2C[C@@H](O)C[C@H]2C(=O)NCCCCCCNC(=O)c2ccc(-c3c4nc(c(-c5c(F)cccc5F)c5ccc([nH]5)c(-c5c(F)cccc5F)c5nc(c(-c6c(F)cccc6F)c6ccc3[nH]6)C=C5)C=C4)cc2)cc1
REMARK SMILES IDX 21 1 20 2 19 3 17 4 18 5 16 7 11 8 12 9 13 10 15 11 9 12
REMARK SMILES IDX 10 13 8 14 7 15 6 16 3 17 4 18 84 19 5 20 83 21 2 22 1 23
REMARK SMILES IDX 14 24 22 26 23 27 24 28 25 29 26 30 27 31 28 33 29 34 30 35
REMARK SMILES IDX 82 36 31 37 81 38 32 39 33 40 34 41 75 42 35 43 80 44 74 45
REMARK SMILES IDX 76 46 36 47 79 48 73 49 72 50 37 52 63 53 46 54 62 55 47 56
REMARK SMILES IDX 50 57 61 58 77 59 48 60 49 61 60 63 78 64 51 65 38 66 39 67
REMARK SMILES IDX 44 68 40 69 41 70 43 71 45 72 42 73 64 74 65 75 70 76 66 77
REMARK SMILES IDX 67 78 69 79 71 80 68 81 52 82 53 83 58 84 54 85 55 86 57 87
REMARK SMILES IDX 59 88 56 89
REMARK H PARENT 19 6 14 25 26 32 76 51 50 62
REMARK Flexibility Score: inf
ROOT
ATOM      1  C   UNL A   1      36.604  23.515  25.663  1.00  0.00     0.021 C 
ENDROOT
BRANCH   1   2
ATOM      2  C   UNL A   1      35.424  24.422  25.352  1.00  0.00     0.116 C 
BRANCH   2   3
ATOM      3  N   UNL A   1      34.290  24.136  26.192  1.00  0.00    -0.354 N 
ATOM      4  C   UNL A   1      32.961  24.339  25.968  1.00  0.00     0.242 C 
ATOM      5  O   UNL A   1      32.176  23.816  26.767  1.00  0.00    -0.273 OA
ATOM      6  H   UNL A   1      34.507  23.731  27.062  1.00  0.00     0.163 HD
BRANCH   4   7
ATOM      7  C   UNL A   1      32.439  24.996  24.671  1.00  0.00     0.177 C 
ATOM      8  N   UNL A   1      31.983  24.114  23.589  1.00  0.00    -0.324 N 
ATOM      9  C   UNL A   1      30.593  24.360  23.236  1.00  0.00     0.152 C 
ATOM     10  C   UNL A   1      30.295  25.746  23.796  1.00  0.00     0.136 C 
ATOM     11  C   UNL A   1      31.252  25.920  24.975  1.00  0.00     0.069 C 
BRANCH   8  12
ATOM     12  C   UNL A   1      32.926  23.388  22.897  1.00  0.00     0.247 C 
ATOM     13  O   UNL A   1      33.480  23.809  21.885  1.00  0.00    -0.270 OA
BRANCH  12  14
ATOM     14  C   UNL A   1      33.262  22.021  23.362  1.00  0.00     0.072 C 
ATOM     15  C   UNL A   1      32.291  21.202  23.798  1.00  0.00     0.014 C 
BRANCH  15  16
ATOM     16  C   UNL A   1      32.449  19.794  24.174  1.00  0.00    -0.025 A 
ATOM     17  C   UNL A   1      33.033  17.109  24.769  1.00  0.00     0.052 A 
ATOM     18  C   UNL A   1      32.922  18.052  25.796  1.00  0.00     0.020 A 
ATOM     19  C   UNL A   1      32.826  17.503  23.445  1.00  0.00     0.020 A 
ATOM     20  C   UNL A   1      32.633  19.389  25.499  1.00  0.00     0.009 A 
ATOM     21  C   UNL A   1      32.539  18.839  23.151  1.00  0.00     0.009 A 
BRANCH  17  22
ATOM     22  C   UNL A   1      33.391  15.752  25.069  1.00  0.00     0.099 C 
ATOM     23  N   UNL A   1      33.690  14.663  25.319  1.00  0.00    -0.192 NA
ENDBRANCH  17  22
ENDBRANCH  15  16
ENDBRANCH  12  14
ENDBRANCH   8  12
BRANCH  10  24
ATOM     24  O   UNL A   1      28.942  25.881  24.200  1.00  0.00    -0.391 OA
ATOM     25  H   UNL A   1      28.699  25.136  24.772  1.00  0.00     0.211 HD
ENDBRANCH  10  24
ENDBRANCH   4   7
ENDBRANCH   2   3
ENDBRANCH   1   2
BRANCH   1  26
ATOM     26  C   UNL A   1      36.828  22.453  24.581  1.00  0.00     0.002 C 
BRANCH  26  27
ATOM     27  C   UNL A   1      36.633  21.008  25.060  1.00  0.00     0.002 C 
BRANCH  27  28
ATOM     28  C   UNL A   1      37.843  20.099  24.839  1.00  0.00     0.021 C 
BRANCH  28  29
ATOM     29  C   UNL A   1      39.030  20.448  25.726  1.00  0.00     0.116 C 
BRANCH  29  30
ATOM     30  N   UNL A   1      39.930  19.314  25.883  1.00  0.00    -0.352 N 
ATOM     31  C   UNL A   1      41.287  19.323  26.085  1.00  0.00     0.251 C 
ATOM     32  H   UNL A   1      39.510  18.426  25.838  1.00  0.00     0.163 HD
ATOM     33  O   UNL A   1      41.951  18.300  25.960  1.00  0.00    -0.269 OA
BRANCH  31  34
ATOM     34  C   UNL A   1      41.936  20.597  26.441  1.00  0.00     0.039 A 
ATOM     35  C   UNL A   1      42.310  21.486  25.433  1.00  0.00     0.014 A 
ATOM     36  C   UNL A   1      42.123  20.925  27.788  1.00  0.00     0.014 A 
ATOM     37  C   UNL A   1      42.817  22.740  25.779  1.00  0.00     0.010 A 
ATOM     38  C   UNL A   1      42.537  22.203  28.129  1.00  0.00     0.010 A 
ATOM     39  C   UNL A   1      42.897  23.121  27.129  1.00  0.00    -0.014 A 
BRANCH  39  40
ATOM     40  C   UNL A   1      43.388  24.459  27.541  1.00  0.00     0.031 A 
ATOM     41  C   UNL A   1      42.394  25.512  27.948  1.00  0.00     0.074 A 
ATOM     42  C   UNL A   1      44.701  24.752  27.474  1.00  0.00     0.049 A 
ATOM     43  N   UNL A   1      42.586  26.783  28.189  1.00  0.00    -0.248 NA
ATOM     44  C   UNL A   1      40.989  25.082  28.070  1.00  0.00     0.031 C 
ATOM     45  C   UNL A   1      45.763  23.824  27.079  1.00  0.00     0.029 A 
ATOM     46  N   UNL A   1      45.366  25.928  27.721  1.00  0.00    -0.354 N 
ATOM     47  C   UNL A   1      41.332  27.301  28.488  1.00  0.00     0.074 A 
ATOM     48  C   UNL A   1      40.376  26.228  28.323  1.00  0.00     0.031 C 
ATOM     49  C   UNL A   1      46.945  24.461  27.125  1.00  0.00     0.029 A 
ATOM     50  C   UNL A   1      46.721  25.855  27.498  1.00  0.00     0.049 A 
ATOM     51  H   UNL A   1      44.916  26.747  28.028  1.00  0.00     0.167 HD
ATOM     52  C   UNL A   1      41.009  28.549  28.896  1.00  0.00     0.037 A 
ATOM     53  C   UNL A   1      47.668  26.810  27.563  1.00  0.00     0.037 A 
ATOM     54  C   UNL A   1      41.962  29.612  29.067  1.00  0.00     0.049 A 
ATOM     55  C   UNL A   1      47.266  28.213  27.942  1.00  0.00     0.074 A 
ATOM     56  C   UNL A   1      41.736  30.912  29.483  1.00  0.00     0.029 A 
ATOM     57  N   UNL A   1      43.323  29.495  28.834  1.00  0.00    -0.354 N 
ATOM     58  N   UNL A   1      46.082  28.681  28.256  1.00  0.00    -0.248 NA
ATOM     59  C   UNL A   1      48.334  29.224  27.978  1.00  0.00     0.031 C 
ATOM     60  C   UNL A   1      42.953  31.596  29.453  1.00  0.00     0.029 A 
ATOM     61  C   UNL A   1      43.948  30.703  29.086  1.00  0.00     0.049 A 
ATOM     62  H   UNL A   1      43.777  28.675  28.534  1.00  0.00     0.167 HD
ATOM     63  C   UNL A   1      46.274  30.018  28.581  1.00  0.00     0.074 A 
ATOM     64  C   UNL A   1      47.687  30.288  28.428  1.00  0.00     0.031 C 
ATOM     65  C   UNL A   1      45.363  30.942  28.973  1.00  0.00     0.037 A 
BRANCH  52  66
ATOM     66  C   UNL A   1      39.567  28.829  29.205  1.00  0.00     0.057 A 
ATOM     67  C   UNL A   1      38.679  29.275  28.217  1.00  0.00     0.134 A 
ATOM     68  C   UNL A   1      39.046  28.598  30.484  1.00  0.00     0.134 A 
ATOM     69  F   UNL A   1      39.115  29.527  26.973  1.00  0.00    -0.206 F 
ATOM     70  C   UNL A   1      37.330  29.503  28.496  1.00  0.00     0.040 A 
ATOM     71  C   UNL A   1      37.693  28.792  30.767  1.00  0.00     0.040 A 
ATOM     72  F   UNL A   1      39.840  28.165  31.475  1.00  0.00    -0.206 F 
ATOM     73  C   UNL A   1      36.833  29.251  29.772  1.00  0.00     0.006 A 
ENDBRANCH  52  66
BRANCH  53  74
ATOM     74  C   UNL A   1      49.092  26.498  27.261  1.00  0.00     0.057 A 
ATOM     75  C   UNL A   1      49.598  26.624  25.960  1.00  0.00     0.134 A 
ATOM     76  C   UNL A   1      49.959  25.998  28.240  1.00  0.00     0.134 A 
ATOM     77  F   UNL A   1      48.815  27.083  24.973  1.00  0.00    -0.206 F 
ATOM     78  C   UNL A   1      50.891  26.213  25.632  1.00  0.00     0.040 A 
ATOM     79  C   UNL A   1      51.268  25.618  27.934  1.00  0.00     0.040 A 
ATOM     80  F   UNL A   1      49.547  25.864  29.508  1.00  0.00    -0.206 F 
ATOM     81  C   UNL A   1      51.730  25.707  26.623  1.00  0.00     0.006 A 
ENDBRANCH  53  74
BRANCH  65  82
ATOM     82  C   UNL A   1      45.867  32.305  29.355  1.00  0.00     0.057 A 
ATOM     83  C   UNL A   1      46.286  32.611  30.655  1.00  0.00     0.134 A 
ATOM     84  C   UNL A   1      46.000  33.303  28.380  1.00  0.00     0.134 A 
ATOM     85  F   UNL A   1      46.175  31.705  31.638  1.00  0.00    -0.206 F 
ATOM     86  C   UNL A   1      46.802  33.868  30.976  1.00  0.00     0.040 A 
ATOM     87  C   UNL A   1      46.546  34.550  28.681  1.00  0.00     0.040 A 
ATOM     88  F   UNL A   1      45.628  33.071  27.113  1.00  0.00    -0.206 F 
ATOM     89  C   UNL A   1      46.945  34.838  29.984  1.00  0.00     0.006 A 
ENDBRANCH  65  82
ENDBRANCH  39  40
ENDBRANCH  31  34
ENDBRANCH  29  30
ENDBRANCH  28  29
ENDBRANCH  27  28
ENDBRANCH  26  27
ENDBRANCH   1  26
TORSDOF 18
ENDMDL
MODEL 2
REMARK VINA RESULT:     -11.8      1.280      6.173
REMARK SMILES N#Cc1ccc(/C=C/C(=O)N2C[C@@H](O)C[C@H]2C(=O)NCCCCCCNC(=O)c2ccc(-c3c4nc(c(-c5c(F)cccc5F)c5ccc([nH]5)c(-c5c(F)cccc5F)c5nc(c(-c6c(F)cccc6F)c6ccc3[nH]6)C=C5)C=C4)cc2)cc1
REMARK SMILES IDX 21 1 20 2 19 3 17 4 18 5 16 7 11 8 12 9 13 10 15 11 9 12
REMARK SMILES IDX 10 13 8 14 7 15 6 16 3 17 4 18 84 19 5 20 83 21 2 22 1 23
REMARK SMILES IDX 14 24 22 26 23 27 24 28 25 29 26 30 27 31 28 33 29 34 30 35
REMARK SMILES IDX 82 36 31 37 81 38 32 39 33 40 34 41 75 42 35 43 80 44 74 45
REMARK SMILES IDX 76 46 36 47 79 48 73 49 72 50 37 52 63 53 46 54 62 55 47 56
REMARK SMILES IDX 50 57 61 58 77 59 48 60 49 61 60 63 78 64 51 65 38 66 39 67
REMARK SMILES IDX 44 68 40 69 41 70 43 71 45 72 42 73 64 74 65 75 70 76 66 77
REMARK SMILES IDX 67 78 69 79 71 80 68 81 52 82 53 83 58 84 54 85 55 86 57 87
REMARK SMILES IDX 59 88 56 89
REMARK H PARENT 19 6 14 25 26 32 76 51 50 62
REMARK Flexibility Score: inf
ROOT
ATOM      1  C   UNL A   1      36.461  23.002  24.496  1.00  0.00     0.021 C 
ENDROOT
BRANCH   1   2
ATOM      2  C   UNL A   1      35.736  24.154  25.174  1.00  0.00     0.116 C 
BRANCH   2   3
ATOM      3  N   UNL A   1      34.688  23.691  26.045  1.00  0.00    -0.354 N 
ATOM      4  C   UNL A   1      33.338  23.858  25.956  1.00  0.00     0.242 C 
ATOM      5  O   UNL A   1      32.643  23.185  26.726  1.00  0.00    -0.273 OA
ATOM      6  H   UNL A   1      34.992  23.175  26.826  1.00  0.00     0.163 HD
BRANCH   4   7
ATOM      7  C   UNL A   1      32.685  24.669  24.815  1.00  0.00     0.177 C 
ATOM      8  N   UNL A   1      32.065  23.926  23.711  1.00  0.00    -0.324 N 
ATOM      9  C   UNL A   1      30.653  24.244  23.567  1.00  0.00     0.152 C 
ATOM     10  C   UNL A   1      30.479  25.565  24.307  1.00  0.00     0.136 C 
ATOM     11  C   UNL A   1      31.581  25.582  25.367  1.00  0.00     0.069 C 
BRANCH   8  12
ATOM     12  C   UNL A   1      32.887  23.260  22.829  1.00  0.00     0.247 C 
ATOM     13  O   UNL A   1      33.247  23.744  21.760  1.00  0.00    -0.270 OA
BRANCH  12  14
ATOM     14  C   UNL A   1      33.325  21.882  23.158  1.00  0.00     0.072 C 
ATOM     15  C   UNL A   1      32.506  21.061  23.836  1.00  0.00     0.014 C 
BRANCH  15  16
ATOM     16  C   UNL A   1      32.749  19.645  24.129  1.00  0.00    -0.025 A 
ATOM     17  C   UNL A   1      32.928  16.922  24.806  1.00  0.00     0.052 A 
ATOM     18  C   UNL A   1      32.881  17.315  23.465  1.00  0.00     0.020 A 
ATOM     19  C   UNL A   1      32.911  17.893  25.810  1.00  0.00     0.020 A 
ATOM     20  C   UNL A   1      32.790  18.670  23.128  1.00  0.00     0.009 A 
ATOM     21  C   UNL A   1      32.819  19.246  25.472  1.00  0.00     0.009 A 
BRANCH  17  22
ATOM     22  C   UNL A   1      32.958  15.530  25.152  1.00  0.00     0.099 C 
ATOM     23  N   UNL A   1      32.992  14.410  25.441  1.00  0.00    -0.192 NA
ENDBRANCH  17  22
ENDBRANCH  15  16
ENDBRANCH  12  14
ENDBRANCH   8  12
BRANCH  10  24
ATOM     24  O   UNL A   1      29.193  25.687  24.893  1.00  0.00    -0.391 OA
ATOM     25  H   UNL A   1      28.921  26.619  24.886  1.00  0.00     0.211 HD
ENDBRANCH  10  24
ENDBRANCH   4   7
ENDBRANCH   2   3
ENDBRANCH   1   2
BRANCH   1  26
ATOM     26  C   UNL A   1      36.853  21.895  25.481  1.00  0.00     0.002 C 
BRANCH  26  27
ATOM     27  C   UNL A   1      36.611  20.470  24.963  1.00  0.00     0.002 C 
BRANCH  27  28
ATOM     28  C   UNL A   1      37.869  19.605  24.877  1.00  0.00     0.021 C 
BRANCH  28  29
ATOM     29  C   UNL A   1      39.034  20.153  25.689  1.00  0.00     0.116 C 
BRANCH  29  30
ATOM     30  N   UNL A   1      40.074  19.150  25.871  1.00  0.00    -0.352 N 
ATOM     31  C   UNL A   1      41.401  19.340  26.165  1.00  0.00     0.251 C 
ATOM     32  H   UNL A   1      39.788  18.214  25.771  1.00  0.00     0.163 HD
ATOM     33  O   UNL A   1      42.209  18.426  26.053  1.00  0.00    -0.269 OA
BRANCH  31  34
ATOM     34  C   UNL A   1      41.840  20.677  26.603  1.00  0.00     0.039 A 
ATOM     35  C   UNL A   1      42.339  21.581  25.664  1.00  0.00     0.014 A 
ATOM     36  C   UNL A   1      41.702  21.044  27.945  1.00  0.00     0.014 A 
ATOM     37  C   UNL A   1      42.642  22.884  26.063  1.00  0.00     0.010 A 
ATOM     38  C   UNL A   1      41.915  22.362  28.318  1.00  0.00     0.010 A 
ATOM     39  C   UNL A   1      42.396  23.294  27.384  1.00  0.00    -0.014 A 
BRANCH  39  40
ATOM     40  C   UNL A   1      42.662  24.680  27.841  1.00  0.00     0.031 A 
ATOM     41  C   UNL A   1      44.065  25.072  28.217  1.00  0.00     0.074 A 
ATOM     42  C   UNL A   1      41.648  25.552  27.992  1.00  0.00     0.049 A 
ATOM     43  N   UNL A   1      44.494  26.169  28.786  1.00  0.00    -0.248 NA
ATOM     44  C   UNL A   1      45.123  24.083  27.943  1.00  0.00     0.031 C 
ATOM     45  C   UNL A   1      40.242  25.289  27.679  1.00  0.00     0.029 A 
ATOM     46  N   UNL A   1      41.643  26.840  28.470  1.00  0.00    -0.354 N 
ATOM     47  C   UNL A   1      45.864  25.999  28.938  1.00  0.00     0.074 A 
ATOM     48  C   UNL A   1      46.185  24.668  28.475  1.00  0.00     0.031 C 
ATOM     49  C   UNL A   1      39.515  26.383  27.958  1.00  0.00     0.029 A 
ATOM     50  C   UNL A   1      40.391  27.406  28.522  1.00  0.00     0.049 A 
ATOM     51  H   UNL A   1      42.458  27.313  28.751  1.00  0.00     0.167 HD
ATOM     52  C   UNL A   1      46.780  26.886  29.392  1.00  0.00     0.037 A 
ATOM     53  C   UNL A   1      39.995  28.604  28.993  1.00  0.00     0.037 A 
ATOM     54  C   UNL A   1      46.460  28.213  29.844  1.00  0.00     0.049 A 
ATOM     55  C   UNL A   1      41.027  29.541  29.568  1.00  0.00     0.074 A 
ATOM     56  C   UNL A   1      47.316  29.191  30.317  1.00  0.00     0.029 A 
ATOM     57  N   UNL A   1      45.181  28.748  29.876  1.00  0.00    -0.354 N 
ATOM     58  N   UNL A   1      42.324  29.382  29.675  1.00  0.00    -0.248 NA
ATOM     59  C   UNL A   1      40.540  30.827  30.090  1.00  0.00     0.031 C 
ATOM     60  C   UNL A   1      46.550  30.300  30.683  1.00  0.00     0.029 A 
ATOM     61  C   UNL A   1      45.225  30.039  30.372  1.00  0.00     0.049 A 
ATOM     62  H   UNL A   1      44.365  28.279  29.589  1.00  0.00     0.167 HD
ATOM     63  C   UNL A   1      42.810  30.565  30.217  1.00  0.00     0.074 A 
ATOM     64  C   UNL A   1      41.671  31.434  30.417  1.00  0.00     0.031 C 
ATOM     65  C   UNL A   1      44.086  30.906  30.522  1.00  0.00     0.037 A 
BRANCH  52  66
ATOM     66  C   UNL A   1      48.218  26.457  29.403  1.00  0.00     0.057 A 
ATOM     67  C   UNL A   1      48.776  25.791  30.503  1.00  0.00     0.134 A 
ATOM     68  C   UNL A   1      49.039  26.660  28.287  1.00  0.00     0.134 A 
ATOM     69  F   UNL A   1      48.047  25.575  31.608  1.00  0.00    -0.206 F 
ATOM     70  C   UNL A   1      50.104  25.362  30.500  1.00  0.00     0.040 A 
ATOM     71  C   UNL A   1      50.359  26.207  28.261  1.00  0.00     0.040 A 
ATOM     72  F   UNL A   1      48.567  27.286  27.198  1.00  0.00    -0.206 F 
ATOM     73  C   UNL A   1      50.896  25.561  29.373  1.00  0.00     0.006 A 
ENDBRANCH  52  66
BRANCH  53  74
ATOM     74  C   UNL A   1      38.561  29.004  28.958  1.00  0.00     0.057 A 
ATOM     75  C   UNL A   1      38.015  29.632  27.830  1.00  0.00     0.134 A 
ATOM     76  C   UNL A   1      37.725  28.841  30.069  1.00  0.00     0.134 A 
ATOM     77  F   UNL A   1      38.766  29.832  26.738  1.00  0.00    -0.206 F 
ATOM     78  C   UNL A   1      36.711  30.130  27.828  1.00  0.00     0.040 A 
ATOM     79  C   UNL A   1      36.407  29.301  30.067  1.00  0.00     0.040 A 
ATOM     80  F   UNL A   1      38.177  28.237  31.177  1.00  0.00    -0.206 F 
ATOM     81  C   UNL A   1      35.903  29.965  28.951  1.00  0.00     0.006 A 
ENDBRANCH  53  74
BRANCH  65  82
ATOM     82  C   UNL A   1      44.340  32.301  31.015  1.00  0.00     0.057 A 
ATOM     83  C   UNL A   1      44.367  32.622  32.378  1.00  0.00     0.134 A 
ATOM     84  C   UNL A   1      44.637  33.325  30.104  1.00  0.00     0.134 A 
ATOM     85  F   UNL A   1      44.081  31.692  33.302  1.00  0.00    -0.206 F 
ATOM     86  C   UNL A   1      44.659  33.915  32.815  1.00  0.00     0.040 A 
ATOM     87  C   UNL A   1      44.965  34.611  30.531  1.00  0.00     0.040 A 
ATOM     88  F   UNL A   1      44.641  33.082  28.785  1.00  0.00    -0.206 F 
ATOM     89  C   UNL A   1      44.971  34.911  31.891  1.00  0.00     0.006 A 
ENDBRANCH  65  82
ENDBRANCH  39  40
ENDBRANCH  31  34
ENDBRANCH  29  30
ENDBRANCH  28  29
ENDBRANCH  27  28
ENDBRANCH  26  27
ENDBRANCH   1  26
TORSDOF 18
ENDMDL
MODEL 3
REMARK VINA RESULT:     -11.6      5.524     10.881
REMARK SMILES N#Cc1ccc(/C=C/C(=O)N2C[C@@H](O)C[C@H]2C(=O)NCCCCCCNC(=O)c2ccc(-c3c4nc(c(-c5c(F)cccc5F)c5ccc([nH]5)c(-c5c(F)cccc5F)c5nc(c(-c6c(F)cccc6F)c6ccc3[nH]6)C=C5)C=C4)cc2)cc1
REMARK SMILES IDX 21 1 20 2 19 3 17 4 18 5 16 7 11 8 12 9 13 10 15 11 9 12
REMARK SMILES IDX 10 13 8 14 7 15 6 16 3 17 4 18 84 19 5 20 83 21 2 22 1 23
REMARK SMILES IDX 14 24 22 26 23 27 24 28 25 29 26 30 27 31 28 33 29 34 30 35
REMARK SMILES IDX 82 36 31 37 81 38 32 39 33 40 34 41 75 42 35 43 80 44 74 45
REMARK SMILES IDX 76 46 36 47 79 48 73 49 72 50 37 52 63 53 46 54 62 55 47 56
REMARK SMILES IDX 50 57 61 58 77 59 48 60 49 61 60 63 78 64 51 65 38 66 39 67
REMARK SMILES IDX 44 68 40 69 41 70 43 71 45 72 42 73 64 74 65 75 70 76 66 77
REMARK SMILES IDX 67 78 69 79 71 80 68 81 52 82 53 83 58 84 54 85 55 86 57 87
REMARK SMILES IDX 59 88 56 89
REMARK H PARENT 19 6 14 25 26 32 76 51 50 62
REMARK Flexibility Score: inf
ROOT
ATOM      1  C   UNL A   1      33.203  29.326  24.664  1.00  0.00     0.021 C 
ENDROOT
BRANCH   1   2
ATOM      2  C   UNL A   1      33.731  27.901  24.706  1.00  0.00     0.116 C 
BRANCH   2   3
ATOM      3  N   UNL A   1      33.908  27.354  23.386  1.00  0.00    -0.354 N 
ATOM      4  C   UNL A   1      33.491  26.164  22.867  1.00  0.00     0.242 C 
ATOM      5  O   UNL A   1      33.597  26.023  21.643  1.00  0.00    -0.273 OA
ATOM      6  H   UNL A   1      34.408  27.927  22.761  1.00  0.00     0.163 HD
BRANCH   4   7
ATOM      7  C   UNL A   1      32.724  25.125  23.714  1.00  0.00     0.177 C 
ATOM      8  N   UNL A   1      31.256  25.150  23.667  1.00  0.00    -0.324 N 
ATOM      9  C   UNL A   1      30.706  23.885  23.204  1.00  0.00     0.152 C 
ATOM     10  C   UNL A   1      31.836  22.880  23.397  1.00  0.00     0.136 C 
ATOM     11  C   UNL A   1      33.123  23.699  23.309  1.00  0.00     0.069 C 
BRANCH   8  12
ATOM     12  C   UNL A   1      30.601  26.196  24.275  1.00  0.00     0.247 C 
ATOM     13  O   UNL A   1      30.425  26.257  25.488  1.00  0.00    -0.270 OA
BRANCH  12  14
ATOM     14  C   UNL A   1      30.043  27.280  23.430  1.00  0.00     0.072 C 
ATOM     15  C   UNL A   1      29.871  28.510  23.943  1.00  0.00     0.014 C 
BRANCH  15  16
ATOM     16  C   UNL A   1      29.446  29.704  23.206  1.00  0.00    -0.025 A 
ATOM     17  C   UNL A   1      28.351  31.865  21.780  1.00  0.00     0.052 A 
ATOM     18  C   UNL A   1      28.740  32.024  23.113  1.00  0.00     0.020 A 
ATOM     19  C   UNL A   1      28.532  30.632  21.150  1.00  0.00     0.020 A 
ATOM     20  C   UNL A   1      29.284  30.947  23.824  1.00  0.00     0.009 A 
ATOM     21  C   UNL A   1      29.074  29.558  21.861  1.00  0.00     0.009 A 
BRANCH  17  22
ATOM     22  C   UNL A   1      27.736  32.951  21.072  1.00  0.00     0.099 C 
ATOM     23  N   UNL A   1      27.252  33.836  20.504  1.00  0.00    -0.192 NA
ENDBRANCH  17  22
ENDBRANCH  15  16
ENDBRANCH  12  14
ENDBRANCH   8  12
BRANCH  10  24
ATOM     24  O   UNL A   1      31.808  21.848  22.425  1.00  0.00    -0.391 OA
ATOM     25  H   UNL A   1      30.958  21.868  21.956  1.00  0.00     0.211 HD
ENDBRANCH  10  24
ENDBRANCH   4   7
ENDBRANCH   2   3
ENDBRANCH   1   2
BRANCH   1  26
ATOM     26  C   UNL A   1      33.188  29.987  26.046  1.00  0.00     0.002 C 
BRANCH  26  27
ATOM     27  C   UNL A   1      31.788  30.343  26.564  1.00  0.00     0.002 C 
BRANCH  27  28
ATOM     28  C   UNL A   1      31.545  31.841  26.754  1.00  0.00     0.021 C 
BRANCH  28  29
ATOM     29  C   UNL A   1      32.728  32.571  27.375  1.00  0.00     0.116 C 
BRANCH  29  30
ATOM     30  N   UNL A   1      32.439  33.985  27.568  1.00  0.00    -0.352 N 
ATOM     31  C   UNL A   1      32.976  34.848  28.490  1.00  0.00     0.251 C 
ATOM     32  H   UNL A   1      31.772  34.373  26.958  1.00  0.00     0.163 HD
ATOM     33  O   UNL A   1      32.472  35.945  28.698  1.00  0.00    -0.269 OA
BRANCH  31  34
ATOM     34  C   UNL A   1      34.170  34.419  29.241  1.00  0.00     0.039 A 
ATOM     35  C   UNL A   1      34.024  33.897  30.527  1.00  0.00     0.014 A 
ATOM     36  C   UNL A   1      35.429  34.491  28.638  1.00  0.00     0.014 A 
ATOM     37  C   UNL A   1      35.142  33.384  31.188  1.00  0.00     0.010 A 
ATOM     38  C   UNL A   1      36.518  33.898  29.257  1.00  0.00     0.010 A 
ATOM     39  C   UNL A   1      36.389  33.347  30.542  1.00  0.00    -0.014 A 
BRANCH  39  40
ATOM     40  C   UNL A   1      37.594  32.772  31.189  1.00  0.00     0.031 A 
ATOM     41  C   UNL A   1      38.263  31.579  30.565  1.00  0.00     0.074 A 
ATOM     42  C   UNL A   1      38.035  33.263  32.363  1.00  0.00     0.049 A 
ATOM     43  N   UNL A   1      39.222  30.824  31.039  1.00  0.00    -0.248 NA
ATOM     44  C   UNL A   1      37.766  31.159  29.243  1.00  0.00     0.031 C 
ATOM     45  C   UNL A   1      37.462  34.405  33.079  1.00  0.00     0.029 A 
ATOM     46  N   UNL A   1      39.061  32.847  33.175  1.00  0.00    -0.354 N 
ATOM     47  C   UNL A   1      39.438  29.846  30.077  1.00  0.00     0.074 A 
ATOM     48  C   UNL A   1      38.462  30.053  29.030  1.00  0.00     0.031 C 
ATOM     49  C   UNL A   1      38.154  34.608  34.212  1.00  0.00     0.029 A 
ATOM     50  C   UNL A   1      39.181  33.578  34.334  1.00  0.00     0.049 A 
ATOM     51  H   UNL A   1      39.655  32.096  32.950  1.00  0.00     0.167 HD
ATOM     52  C   UNL A   1      40.386  28.882  30.051  1.00  0.00     0.037 A 
ATOM     53  C   UNL A   1      40.011  33.418  35.383  1.00  0.00     0.037 A 
ATOM     54  C   UNL A   1      41.361  28.684  31.089  1.00  0.00     0.049 A 
ATOM     55  C   UNL A   1      41.004  32.284  35.363  1.00  0.00     0.074 A 
ATOM     56  C   UNL A   1      42.369  27.738  31.154  1.00  0.00     0.029 A 
ATOM     57  N   UNL A   1      41.450  29.447  32.243  1.00  0.00    -0.354 N 
ATOM     58  N   UNL A   1      41.221  31.387  34.432  1.00  0.00    -0.248 NA
ATOM     59  C   UNL A   1      41.871  32.140  36.542  1.00  0.00     0.031 C 
ATOM     60  C   UNL A   1      43.036  27.897  32.371  1.00  0.00     0.029 A 
ATOM     61  C   UNL A   1      42.490  28.986  33.031  1.00  0.00     0.049 A 
ATOM     62  H   UNL A   1      40.862  30.204  32.467  1.00  0.00     0.167 HD
ATOM     63  C   UNL A   1      42.283  30.614  34.887  1.00  0.00     0.074 A 
ATOM     64  C   UNL A   1      42.668  31.147  36.175  1.00  0.00     0.031 C 
ATOM     65  C   UNL A   1      42.888  29.558  34.291  1.00  0.00     0.037 A 
BRANCH  52  66
ATOM     66  C   UNL A   1      40.428  27.979  28.853  1.00  0.00     0.057 A 
ATOM     67  C   UNL A   1      39.700  26.783  28.810  1.00  0.00     0.134 A 
ATOM     68  C   UNL A   1      41.157  28.333  27.710  1.00  0.00     0.134 A 
ATOM     69  F   UNL A   1      38.992  26.379  29.876  1.00  0.00    -0.206 F 
ATOM     70  C   UNL A   1      39.713  25.960  27.683  1.00  0.00     0.040 A 
ATOM     71  C   UNL A   1      41.151  27.534  26.565  1.00  0.00     0.040 A 
ATOM     72  F   UNL A   1      41.871  29.468  27.680  1.00  0.00    -0.206 F 
ATOM     73  C   UNL A   1      40.432  26.340  26.553  1.00  0.00     0.006 A 
ENDBRANCH  52  66
BRANCH  53  74
ATOM     74  C   UNL A   1      39.951  34.337  36.553  1.00  0.00     0.057 A 
ATOM     75  C   UNL A   1      39.174  34.025  37.677  1.00  0.00     0.134 A 
ATOM     76  C   UNL A   1      40.602  35.577  36.548  1.00  0.00     0.134 A 
ATOM     77  F   UNL A   1      38.513  32.860  37.738  1.00  0.00    -0.206 F 
ATOM     78  C   UNL A   1      39.002  34.931  38.724  1.00  0.00     0.040 A 
ATOM     79  C   UNL A   1      40.469  36.477  37.607  1.00  0.00     0.040 A 
ATOM     80  F   UNL A   1      41.372  35.935  35.512  1.00  0.00    -0.206 F 
ATOM     81  C   UNL A   1      39.651  36.162  38.690  1.00  0.00     0.006 A 
ENDBRANCH  53  74
BRANCH  65  82
ATOM     82  C   UNL A   1      44.087  28.962  34.972  1.00  0.00     0.057 A 
ATOM     83  C   UNL A   1      45.381  29.463  34.787  1.00  0.00     0.134 A 
ATOM     84  C   UNL A   1      43.925  27.911  35.886  1.00  0.00     0.134 A 
ATOM     85  F   UNL A   1      45.607  30.460  33.918  1.00  0.00    -0.206 F 
ATOM     86  C   UNL A   1      46.473  28.928  35.472  1.00  0.00     0.040 A 
ATOM     87  C   UNL A   1      45.003  27.393  36.602  1.00  0.00     0.040 A 
ATOM     88  F   UNL A   1      42.710  27.392  36.119  1.00  0.00    -0.206 F 
ATOM     89  C   UNL A   1      46.283  27.898  36.392  1.00  0.00     0.006 A 
ENDBRANCH  65  82
ENDBRANCH  39  40
ENDBRANCH  31  34
ENDBRANCH  29  30
ENDBRANCH  28  29
ENDBRANCH  27  28
ENDBRANCH  26  27
ENDBRANCH   1  26
TORSDOF 18
ENDMDL
