MODEL 1
REMARK VINA RESULT:      -9.3      0.000      0.000
REMARK SMILES Cc1ccc(N2C(=O)[NH+]=C(NCCCCCCNC(=O)c3ccc(-c4c5nc(c(-c6c(F)cccc6F)c6ccc([nH]6)c(-c6c(F)cccc6F)c6nc(c(-c7c(F)cccc7F)c7ccc4[nH]7)C=C6)C=C5)cc3)/C(=C\c3ccccc3OCc3cccc(C(=O)[O-])c3)C2=O)cc1
REMARK SMILES IDX 13 1 12 2 11 3 6 4 7 5 94 6 8 7 9 8 75 9 95 10 10 11 76 13
REMARK SMILES IDX 5 15 1 16 2 17 3 18 97 19 4 20 96 21 77 22 78 23 82 24 79 25
REMARK SMILES IDX 81 26 80 27 83 28 84 29 85 30 86 31 93 32 87 33 89 34 88 35
REMARK SMILES IDX 90 36 91 37 92 38 14 39 15 40 16 41 17 42 18 43 19 44 20 46
REMARK SMILES IDX 21 47 22 48 74 49 23 50 73 51 24 52 25 53 26 54 67 55 27 56
REMARK SMILES IDX 72 57 66 58 68 59 28 60 71 61 65 62 64 63 29 65 55 66 38 67
REMARK SMILES IDX 54 68 39 69 42 70 53 71 69 72 40 73 41 74 52 76 70 77 43 78
REMARK SMILES IDX 30 79 31 80 36 81 32 82 33 83 35 84 37 85 34 86 56 87 57 88
REMARK SMILES IDX 62 89 58 90 59 91 61 92 63 93 60 94 44 95 45 96 50 97 46 98
REMARK SMILES IDX 47 99 49 100 51 101 48 102
REMARK H PARENT 9 12 11 14 18 45 68 64 42 75
REMARK Flexibility Score: inf
ROOT
ATOM      1  C   UNL A   1      39.222  27.450  31.429  1.00  0.00     0.037 C 
ENDROOT
BRANCH   1   2
ATOM      2  C   UNL A   1      38.155  27.699  32.494  1.00  0.00     0.194 C 
BRANCH   2   3
ATOM      3  N   UNL A   1      37.730  29.090  32.512  1.00  0.00    -0.305 N 
ATOM      4  N   UNL A   1      39.873  32.005  34.559  1.00  0.00    -0.155 N 
ATOM      5  C   UNL A   1      40.045  30.626  34.763  1.00  0.00     0.448 C 
ATOM      6  C   UNL A   1      38.948  32.517  33.652  1.00  0.00     0.328 C 
ATOM      7  O   UNL A   1      40.848  30.175  35.579  1.00  0.00    -0.212 OA
ATOM      8  N   UNL A   1      39.261  29.735  34.086  1.00  0.00    -0.209 N 
ATOM      9  C   UNL A   1      38.388  31.505  32.715  1.00  0.00     0.129 C 
ATOM     10  O   UNL A   1      38.674  33.708  33.490  1.00  0.00    -0.249 OA
ATOM     11  C   UNL A   1      38.471  30.080  33.120  1.00  0.00     0.236 C 
ATOM     12  H   UNL A   1      39.299  28.786  34.345  1.00  0.00     0.270 HD
ATOM     13  C   UNL A   1      38.060  31.969  31.489  1.00  0.00     0.034 C 
ATOM     14  H   UNL A   1      36.882  29.333  32.073  1.00  0.00     0.256 HD
BRANCH   4  15
ATOM     15  C   UNL A   1      40.698  32.923  35.304  1.00  0.00     0.111 A 
ATOM     16  C   UNL A   1      43.207  35.668  37.527  1.00  0.00     0.044 C 
ATOM     17  C   UNL A   1      42.331  34.722  36.760  1.00  0.00    -0.051 A 
ATOM     18  C   UNL A   1      42.801  34.131  35.586  1.00  0.00     0.007 A 
ATOM     19  C   UNL A   1      41.036  34.429  37.191  1.00  0.00     0.007 A 
ATOM     20  C   UNL A   1      41.998  33.235  34.874  1.00  0.00     0.044 A 
ATOM     21  C   UNL A   1      40.226  33.546  36.468  1.00  0.00     0.044 A 
ENDBRANCH   4  15
BRANCH  13  22
ATOM     22  C   UNL A   1      37.801  31.231  30.242  1.00  0.00     0.018 A 
ATOM     23  C   UNL A   1      38.929  30.817  29.512  1.00  0.00     0.012 A 
ATOM     24  C   UNL A   1      36.526  30.878  29.766  1.00  0.00     0.127 A 
ATOM     25  C   UNL A   1      38.795  30.147  28.293  1.00  0.00     0.001 A 
ATOM     26  C   UNL A   1      36.403  30.204  28.544  1.00  0.00     0.047 A 
ATOM     27  C   UNL A   1      37.529  29.855  27.800  1.00  0.00     0.004 A 
BRANCH  24  28
ATOM     28  O   UNL A   1      35.337  31.279  30.318  1.00  0.00    -0.488 OA
BRANCH  28  29
ATOM     29  C   UNL A   1      34.812  32.515  29.830  1.00  0.00     0.265 C 
BRANCH  29  30
ATOM     30  C   UNL A   1      34.571  33.467  30.984  1.00  0.00    -0.010 A 
ATOM     31  C   UNL A   1      34.785  33.035  32.303  1.00  0.00     0.007 A 
ATOM     32  C   UNL A   1      34.055  34.754  30.770  1.00  0.00     0.017 A 
ATOM     33  C   UNL A   1      34.491  33.868  33.384  1.00  0.00     0.001 A 
ATOM     34  C   UNL A   1      33.735  35.582  31.854  1.00  0.00    -0.002 A 
ATOM     35  C   UNL A   1      33.955  35.134  33.162  1.00  0.00     0.010 A 
BRANCH  34  36
ATOM     36  C   UNL A   1      33.111  36.908  31.656  1.00  0.00     0.071 C 
ATOM     37  O   UNL A   1      33.004  37.498  30.586  1.00  0.00    -0.545 OA
ATOM     38  O   UNL A   1      32.662  37.458  32.796  1.00  0.00    -0.545 OA
ENDBRANCH  34  36
ENDBRANCH  29  30
ENDBRANCH  28  29
ENDBRANCH  24  28
ENDBRANCH  13  22
ENDBRANCH   2   3
ENDBRANCH   1   2
BRANCH   1  39
ATOM     39  C   UNL A   1      38.688  27.191  30.015  1.00  0.00     0.003 C 
BRANCH  39  40
ATOM     40  C   UNL A   1      39.533  26.251  29.144  1.00  0.00     0.002 C 
BRANCH  40  41
ATOM     41  C   UNL A   1      40.526  26.892  28.181  1.00  0.00     0.021 C 
BRANCH  41  42
ATOM     42  C   UNL A   1      41.873  26.204  28.121  1.00  0.00     0.116 C 
BRANCH  42  43
ATOM     43  N   UNL A   1      42.218  25.597  26.843  1.00  0.00    -0.352 N 
ATOM     44  C   UNL A   1      42.644  26.182  25.661  1.00  0.00     0.251 C 
ATOM     45  H   UNL A   1      42.136  24.616  26.815  1.00  0.00     0.163 HD
ATOM     46  O   UNL A   1      42.752  25.479  24.658  1.00  0.00    -0.269 OA
BRANCH  44  47
ATOM     47  C   UNL A   1      43.167  27.583  25.627  1.00  0.00     0.039 A 
ATOM     48  C   UNL A   1      44.441  27.787  26.182  1.00  0.00     0.014 A 
ATOM     49  C   UNL A   1      42.285  28.643  25.570  1.00  0.00     0.014 A 
ATOM     50  C   UNL A   1      44.651  28.889  27.000  1.00  0.00     0.010 A 
ATOM     51  C   UNL A   1      42.368  29.566  26.570  1.00  0.00     0.010 A 
ATOM     52  C   UNL A   1      43.547  29.662  27.310  1.00  0.00    -0.014 A 
BRANCH  52  53
ATOM     53  C   UNL A   1      43.496  30.725  28.282  1.00  0.00     0.031 A 
ATOM     54  C   UNL A   1      43.941  32.046  27.817  1.00  0.00     0.074 A 
ATOM     55  C   UNL A   1      42.765  30.531  29.400  1.00  0.00     0.049 A 
ATOM     56  N   UNL A   1      44.088  33.060  28.582  1.00  0.00    -0.248 NA
ATOM     57  C   UNL A   1      44.295  32.326  26.425  1.00  0.00     0.031 C 
ATOM     58  C   UNL A   1      42.149  31.533  30.261  1.00  0.00     0.029 A 
ATOM     59  N   UNL A   1      42.584  29.328  30.094  1.00  0.00    -0.354 N 
ATOM     60  C   UNL A   1      44.232  34.168  27.779  1.00  0.00     0.074 A 
ATOM     61  C   UNL A   1      44.485  33.646  26.463  1.00  0.00     0.031 C 
ATOM     62  C   UNL A   1      41.925  30.987  31.469  1.00  0.00     0.029 A 
ATOM     63  C   UNL A   1      42.561  29.681  31.466  1.00  0.00     0.049 A 
ATOM     64  H   UNL A   1      42.491  28.427  29.709  1.00  0.00     0.167 HD
ATOM     65  C   UNL A   1      43.975  35.383  28.339  1.00  0.00     0.037 A 
ATOM     66  C   UNL A   1      43.604  29.320  32.278  1.00  0.00     0.037 A 
ATOM     67  C   UNL A   1      43.701  35.216  29.769  1.00  0.00     0.049 A 
ATOM     68  C   UNL A   1      44.399  30.494  32.826  1.00  0.00     0.074 A 
ATOM     69  C   UNL A   1      42.558  35.165  30.547  1.00  0.00     0.029 A 
ATOM     70  N   UNL A   1      44.715  34.715  30.557  1.00  0.00    -0.354 N 
ATOM     71  N   UNL A   1      44.240  31.732  32.442  1.00  0.00    -0.248 NA
ATOM     72  C   UNL A   1      45.477  30.362  33.804  1.00  0.00     0.031 C 
ATOM     73  C   UNL A   1      42.923  34.640  31.827  1.00  0.00     0.029 A 
ATOM     74  C   UNL A   1      44.286  34.398  31.822  1.00  0.00     0.049 A 
ATOM     75  H   UNL A   1      45.643  34.596  30.247  1.00  0.00     0.167 HD
ATOM     76  C   UNL A   1      45.176  32.536  33.038  1.00  0.00     0.074 A 
ATOM     77  C   UNL A   1      45.935  31.626  33.878  1.00  0.00     0.031 C 
ATOM     78  C   UNL A   1      45.269  33.873  32.756  1.00  0.00     0.037 A 
BRANCH  65  79
ATOM     79  C   UNL A   1      43.788  36.703  27.630  1.00  0.00     0.057 A 
ATOM     80  C   UNL A   1      44.918  37.498  27.343  1.00  0.00     0.134 A 
ATOM     81  C   UNL A   1      42.569  37.288  27.244  1.00  0.00     0.134 A 
ATOM     82  F   UNL A   1      46.164  37.063  27.577  1.00  0.00    -0.206 F 
ATOM     83  C   UNL A   1      44.835  38.783  26.797  1.00  0.00     0.040 A 
ATOM     84  C   UNL A   1      42.470  38.575  26.699  1.00  0.00     0.040 A 
ATOM     85  F   UNL A   1      41.399  36.655  27.341  1.00  0.00    -0.206 F 
ATOM     86  C   UNL A   1      43.606  39.337  26.486  1.00  0.00     0.006 A 
ENDBRANCH  65  79
BRANCH  66  87
ATOM     87  C   UNL A   1      44.165  27.995  31.868  1.00  0.00     0.057 A 
ATOM     88  C   UNL A   1      45.350  28.002  31.103  1.00  0.00     0.134 A 
ATOM     89  C   UNL A   1      43.905  26.848  32.624  1.00  0.00     0.134 A 
ATOM     90  F   UNL A   1      45.649  29.060  30.334  1.00  0.00    -0.206 F 
ATOM     91  C   UNL A   1      46.325  27.010  31.250  1.00  0.00     0.040 A 
ATOM     92  C   UNL A   1      44.864  25.834  32.751  1.00  0.00     0.040 A 
ATOM     93  F   UNL A   1      42.797  26.762  33.373  1.00  0.00    -0.206 F 
ATOM     94  C   UNL A   1      46.102  25.949  32.120  1.00  0.00     0.006 A 
ENDBRANCH  66  87
BRANCH  78  95
ATOM     95  C   UNL A   1      46.335  34.811  33.284  1.00  0.00     0.057 A 
ATOM     96  C   UNL A   1      47.697  34.654  33.010  1.00  0.00     0.134 A 
ATOM     97  C   UNL A   1      46.030  35.867  34.179  1.00  0.00     0.134 A 
ATOM     98  F   UNL A   1      48.144  33.624  32.279  1.00  0.00    -0.206 F 
ATOM     99  C   UNL A   1      48.669  35.533  33.513  1.00  0.00     0.040 A 
ATOM    100  C   UNL A   1      46.993  36.713  34.731  1.00  0.00     0.040 A 
ATOM    101  F   UNL A   1      44.779  36.163  34.553  1.00  0.00    -0.206 F 
ATOM    102  C   UNL A   1      48.320  36.565  34.377  1.00  0.00     0.006 A 
ENDBRANCH  78  95
ENDBRANCH  52  53
ENDBRANCH  44  47
ENDBRANCH  42  43
ENDBRANCH  41  42
ENDBRANCH  40  41
ENDBRANCH  39  40
ENDBRANCH   1  39
TORSDOF 18
ENDMDL
MODEL 2
REMARK VINA RESULT:      -9.3      4.742     12.143
REMARK SMILES Cc1ccc(N2C(=O)[NH+]=C(NCCCCCCNC(=O)c3ccc(-c4c5nc(c(-c6c(F)cccc6F)c6ccc([nH]6)c(-c6c(F)cccc6F)c6nc(c(-c7c(F)cccc7F)c7ccc4[nH]7)C=C6)C=C5)cc3)/C(=C\c3ccccc3OCc3cccc(C(=O)[O-])c3)C2=O)cc1
REMARK SMILES IDX 13 1 12 2 11 3 6 4 7 5 94 6 8 7 9 8 75 9 95 10 10 11 76 13
REMARK SMILES IDX 5 15 1 16 2 17 3 18 97 19 4 20 96 21 77 22 78 23 82 24 79 25
REMARK SMILES IDX 81 26 80 27 83 28 84 29 85 30 86 31 93 32 87 33 89 34 88 35
REMARK SMILES IDX 90 36 91 37 92 38 14 39 15 40 16 41 17 42 18 43 19 44 20 46
REMARK SMILES IDX 21 47 22 48 74 49 23 50 73 51 24 52 25 53 26 54 67 55 27 56
REMARK SMILES IDX 72 57 66 58 68 59 28 60 71 61 65 62 64 63 29 65 55 66 38 67
REMARK SMILES IDX 54 68 39 69 42 70 53 71 69 72 40 73 41 74 52 76 70 77 43 78
REMARK SMILES IDX 30 79 31 80 36 81 32 82 33 83 35 84 37 85 34 86 56 87 57 88
REMARK SMILES IDX 62 89 58 90 59 91 61 92 63 93 60 94 44 95 45 96 50 97 46 98
REMARK SMILES IDX 47 99 49 100 51 101 48 102
REMARK H PARENT 9 12 11 14 18 45 68 64 42 75
REMARK Flexibility Score: inf
ROOT
ATOM      1  C   UNL A   1      48.371  26.179  30.086  1.00  0.00     0.037 C 
ENDROOT
BRANCH   1   2
ATOM      2  C   UNL A   1      48.614  25.775  28.633  1.00  0.00     0.194 C 
BRANCH   2   3
ATOM      3  N   UNL A   1      47.870  26.619  27.710  1.00  0.00    -0.305 N 
ATOM      4  N   UNL A   1      49.058  27.114  23.757  1.00  0.00    -0.155 N 
ATOM      5  C   UNL A   1      49.889  26.585  24.759  1.00  0.00     0.448 C 
ATOM      6  C   UNL A   1      47.755  27.534  24.012  1.00  0.00     0.328 C 
ATOM      7  O   UNL A   1      51.048  26.235  24.537  1.00  0.00    -0.212 OA
ATOM      8  N   UNL A   1      49.438  26.507  26.046  1.00  0.00    -0.209 N 
ATOM      9  C   UNL A   1      47.222  27.102  25.332  1.00  0.00     0.129 C 
ATOM     10  O   UNL A   1      47.004  28.093  23.210  1.00  0.00    -0.249 OA
ATOM     11  C   UNL A   1      48.206  26.731  26.378  1.00  0.00     0.236 C 
ATOM     12  H   UNL A   1      50.079  26.268  26.754  1.00  0.00     0.270 HD
ATOM     13  C   UNL A   1      45.890  26.878  25.374  1.00  0.00     0.034 C 
ATOM     14  H   UNL A   1      47.098  27.128  28.049  1.00  0.00     0.256 HD
BRANCH   4  15
ATOM     15  C   UNL A   1      49.569  27.207  22.412  1.00  0.00     0.111 A 
ATOM     16  C   UNL A   1      51.111  27.524  18.376  1.00  0.00     0.044 C 
ATOM     17  C   UNL A   1      50.577  27.406  19.772  1.00  0.00    -0.051 A 
ATOM     18  C   UNL A   1      50.910  28.364  20.731  1.00  0.00     0.007 A 
ATOM     19  C   UNL A   1      49.758  26.338  20.142  1.00  0.00     0.007 A 
ATOM     20  C   UNL A   1      50.403  28.270  22.031  1.00  0.00     0.044 A 
ATOM     21  C   UNL A   1      49.266  26.236  21.449  1.00  0.00     0.044 A 
ENDBRANCH   4  15
BRANCH  13  22
ATOM     22  C   UNL A   1      45.089  26.151  26.373  1.00  0.00     0.018 A 
ATOM     23  C   UNL A   1      44.339  26.936  27.267  1.00  0.00     0.012 A 
ATOM     24  C   UNL A   1      44.987  24.751  26.460  1.00  0.00     0.127 A 
ATOM     25  C   UNL A   1      43.577  26.347  28.281  1.00  0.00     0.001 A 
ATOM     26  C   UNL A   1      44.219  24.172  27.478  1.00  0.00     0.047 A 
ATOM     27  C   UNL A   1      43.532  24.964  28.397  1.00  0.00     0.004 A 
BRANCH  24  28
ATOM     28  O   UNL A   1      45.718  23.858  25.719  1.00  0.00    -0.488 OA
BRANCH  28  29
ATOM     29  C   UNL A   1      45.004  23.184  24.681  1.00  0.00     0.265 C 
BRANCH  29  30
ATOM     30  C   UNL A   1      44.971  21.695  24.956  1.00  0.00    -0.010 A 
ATOM     31  C   UNL A   1      46.106  20.910  24.692  1.00  0.00     0.007 A 
ATOM     32  C   UNL A   1      43.799  21.062  25.396  1.00  0.00     0.017 A 
ATOM     33  C   UNL A   1      46.071  19.525  24.860  1.00  0.00     0.001 A 
ATOM     34  C   UNL A   1      43.755  19.669  25.541  1.00  0.00    -0.002 A 
ATOM     35  C   UNL A   1      44.895  18.902  25.272  1.00  0.00     0.010 A 
BRANCH  34  36
ATOM     36  C   UNL A   1      42.507  18.970  25.920  1.00  0.00     0.071 C 
ATOM     37  O   UNL A   1      41.492  19.502  26.357  1.00  0.00    -0.545 OA
ATOM     38  O   UNL A   1      42.576  17.639  25.761  1.00  0.00    -0.545 OA
ENDBRANCH  34  36
ENDBRANCH  29  30
ENDBRANCH  28  29
ENDBRANCH  24  28
ENDBRANCH  13  22
ENDBRANCH   2   3
ENDBRANCH   1   2
BRANCH   1  39
ATOM     39  C   UNL A   1      46.917  26.069  30.561  1.00  0.00     0.003 C 
BRANCH  39  40
ATOM     40  C   UNL A   1      46.163  27.397  30.714  1.00  0.00     0.002 C 
BRANCH  40  41
ATOM     41  C   UNL A   1      46.513  28.268  31.915  1.00  0.00     0.021 C 
BRANCH  41  42
ATOM     42  C   UNL A   1      46.692  29.736  31.594  1.00  0.00     0.116 C 
BRANCH  42  43
ATOM     43  N   UNL A   1      47.691  30.441  32.385  1.00  0.00    -0.352 N 
ATOM     44  C   UNL A   1      47.534  31.386  33.386  1.00  0.00     0.251 C 
ATOM     45  H   UNL A   1      48.625  30.208  32.175  1.00  0.00     0.163 HD
ATOM     46  O   UNL A   1      48.534  31.950  33.830  1.00  0.00    -0.269 OA
BRANCH  44  47
ATOM     47  C   UNL A   1      46.223  31.584  34.076  1.00  0.00     0.039 A 
ATOM     48  C   UNL A   1      45.688  30.465  34.735  1.00  0.00     0.014 A 
ATOM     49  C   UNL A   1      45.367  32.580  33.650  1.00  0.00     0.014 A 
ATOM     50  C   UNL A   1      44.336  30.184  34.598  1.00  0.00     0.010 A 
ATOM     51  C   UNL A   1      44.116  32.194  33.268  1.00  0.00     0.010 A 
ATOM     52  C   UNL A   1      43.615  30.971  33.718  1.00  0.00    -0.014 A 
BRANCH  52  53
ATOM     53  C   UNL A   1      42.262  30.742  33.280  1.00  0.00     0.031 A 
ATOM     54  C   UNL A   1      42.102  30.265  31.899  1.00  0.00     0.074 A 
ATOM     55  C   UNL A   1      41.295  30.657  34.219  1.00  0.00     0.049 A 
ATOM     56  N   UNL A   1      40.972  30.143  31.313  1.00  0.00    -0.248 NA
ATOM     57  C   UNL A   1      43.232  29.912  31.040  1.00  0.00     0.031 C 
ATOM     58  C   UNL A   1      40.011  29.972  34.133  1.00  0.00     0.029 A 
ATOM     59  N   UNL A   1      41.225  31.362  35.426  1.00  0.00    -0.354 N 
ATOM     60  C   UNL A   1      41.179  29.417  30.162  1.00  0.00     0.074 A 
ATOM     61  C   UNL A   1      42.605  29.413  29.973  1.00  0.00     0.031 C 
ATOM     62  C   UNL A   1      39.178  30.496  35.050  1.00  0.00     0.029 A 
ATOM     63  C   UNL A   1      39.850  31.653  35.617  1.00  0.00     0.049 A 
ATOM     64  H   UNL A   1      41.972  31.605  36.019  1.00  0.00     0.167 HD
ATOM     65  C   UNL A   1      40.097  28.803  29.608  1.00  0.00     0.037 A 
ATOM     66  C   UNL A   1      39.408  32.944  35.506  1.00  0.00     0.037 A 
ATOM     67  C   UNL A   1      38.889  29.176  30.349  1.00  0.00     0.049 A 
ATOM     68  C   UNL A   1      38.459  33.177  34.341  1.00  0.00     0.074 A 
ATOM     69  C   UNL A   1      38.114  28.575  31.325  1.00  0.00     0.029 A 
ATOM     70  N   UNL A   1      38.528  30.507  30.350  1.00  0.00    -0.354 N 
ATOM     71  N   UNL A   1      38.207  32.295  33.412  1.00  0.00    -0.248 NA
ATOM     72  C   UNL A   1      37.767  34.440  34.094  1.00  0.00     0.031 C 
ATOM     73  C   UNL A   1      37.267  29.578  31.892  1.00  0.00     0.029 A 
ATOM     74  C   UNL A   1      37.519  30.774  31.241  1.00  0.00     0.049 A 
ATOM     75  H   UNL A   1      38.949  31.189  29.777  1.00  0.00     0.167 HD
ATOM     76  C   UNL A   1      37.402  32.841  32.447  1.00  0.00     0.074 A 
ATOM     77  C   UNL A   1      37.160  34.194  32.917  1.00  0.00     0.031 C 
ATOM     78  C   UNL A   1      37.039  32.145  31.325  1.00  0.00     0.037 A 
BRANCH  65  79
ATOM     79  C   UNL A   1      40.089  27.742  28.533  1.00  0.00     0.057 A 
ATOM     80  C   UNL A   1      39.619  26.448  28.845  1.00  0.00     0.134 A 
ATOM     81  C   UNL A   1      40.554  27.875  27.213  1.00  0.00     0.134 A 
ATOM     82  F   UNL A   1      39.073  26.164  30.035  1.00  0.00    -0.206 F 
ATOM     83  C   UNL A   1      39.681  25.372  27.953  1.00  0.00     0.040 A 
ATOM     84  C   UNL A   1      40.625  26.805  26.310  1.00  0.00     0.040 A 
ATOM     85  F   UNL A   1      40.947  29.040  26.698  1.00  0.00    -0.206 F 
ATOM     86  C   UNL A   1      40.201  25.542  26.683  1.00  0.00     0.006 A 
ENDBRANCH  65  79
BRANCH  66  87
ATOM     87  C   UNL A   1      40.439  33.908  36.003  1.00  0.00     0.057 A 
ATOM     88  C   UNL A   1      41.213  34.584  35.038  1.00  0.00     0.134 A 
ATOM     89  C   UNL A   1      40.290  34.530  37.247  1.00  0.00     0.134 A 
ATOM     90  F   UNL A   1      41.419  34.031  33.832  1.00  0.00    -0.206 F 
ATOM     91  C   UNL A   1      41.636  35.903  35.228  1.00  0.00     0.040 A 
ATOM     92  C   UNL A   1      40.739  35.841  37.455  1.00  0.00     0.040 A 
ATOM     93  F   UNL A   1      39.573  33.949  38.219  1.00  0.00    -0.206 F 
ATOM     94  C   UNL A   1      41.350  36.552  36.424  1.00  0.00     0.006 A 
ENDBRANCH  66  87
BRANCH  78  95
ATOM     95  C   UNL A   1      36.245  32.702  30.162  1.00  0.00     0.057 A 
ATOM     96  C   UNL A   1      36.838  33.195  28.997  1.00  0.00     0.134 A 
ATOM     97  C   UNL A   1      34.836  32.851  30.217  1.00  0.00     0.134 A 
ATOM     98  F   UNL A   1      38.170  33.233  28.858  1.00  0.00    -0.206 F 
ATOM     99  C   UNL A   1      36.083  33.711  27.931  1.00  0.00     0.040 A 
ATOM    100  C   UNL A   1      34.079  33.415  29.188  1.00  0.00     0.040 A 
ATOM    101  F   UNL A   1      34.102  32.436  31.256  1.00  0.00    -0.206 F 
ATOM    102  C   UNL A   1      34.700  33.824  28.024  1.00  0.00     0.006 A 
ENDBRANCH  78  95
ENDBRANCH  52  53
ENDBRANCH  44  47
ENDBRANCH  42  43
ENDBRANCH  41  42
ENDBRANCH  40  41
ENDBRANCH  39  40
ENDBRANCH   1  39
TORSDOF 18
ENDMDL
MODEL 3
REMARK VINA RESULT:      -9.0      3.888     11.329
REMARK SMILES Cc1ccc(N2C(=O)[NH+]=C(NCCCCCCNC(=O)c3ccc(-c4c5nc(c(-c6c(F)cccc6F)c6ccc([nH]6)c(-c6c(F)cccc6F)c6nc(c(-c7c(F)cccc7F)c7ccc4[nH]7)C=C6)C=C5)cc3)/C(=C\c3ccccc3OCc3cccc(C(=O)[O-])c3)C2=O)cc1
REMARK SMILES IDX 13 1 12 2 11 3 6 4 7 5 94 6 8 7 9 8 75 9 95 10 10 11 76 13
REMARK SMILES IDX 5 15 1 16 2 17 3 18 97 19 4 20 96 21 77 22 78 23 82 24 79 25
REMARK SMILES IDX 81 26 80 27 83 28 84 29 85 30 86 31 93 32 87 33 89 34 88 35
REMARK SMILES IDX 90 36 91 37 92 38 14 39 15 40 16 41 17 42 18 43 19 44 20 46
REMARK SMILES IDX 21 47 22 48 74 49 23 50 73 51 24 52 25 53 26 54 67 55 27 56
REMARK SMILES IDX 72 57 66 58 68 59 28 60 71 61 65 62 64 63 29 65 55 66 38 67
REMARK SMILES IDX 54 68 39 69 42 70 53 71 69 72 40 73 41 74 52 76 70 77 43 78
REMARK SMILES IDX 30 79 31 80 36 81 32 82 33 83 35 84 37 85 34 86 56 87 57 88
REMARK SMILES IDX 62 89 58 90 59 91 61 92 63 93 60 94 44 95 45 96 50 97 46 98
REMARK SMILES IDX 47 99 49 100 51 101 48 102
REMARK H PARENT 9 12 11 14 18 45 68 64 42 75
REMARK Flexibility Score: inf
ROOT
ATOM      1  C   UNL A   1      41.322  28.012  25.601  1.00  0.00     0.037 C 
ENDROOT
BRANCH   1   2
ATOM      2  C   UNL A   1      42.756  28.037  25.073  1.00  0.00     0.194 C 
BRANCH   2   3
ATOM      3  N   UNL A   1      43.363  26.715  25.108  1.00  0.00    -0.305 N 
ATOM      4  N   UNL A   1      47.391  26.179  25.982  1.00  0.00    -0.155 N 
ATOM      5  C   UNL A   1      46.830  27.417  25.625  1.00  0.00     0.448 C 
ATOM      6  C   UNL A   1      46.636  25.012  26.060  1.00  0.00     0.328 C 
ATOM      7  O   UNL A   1      47.502  28.444  25.535  1.00  0.00    -0.212 OA
ATOM      8  N   UNL A   1      45.506  27.495  25.300  1.00  0.00    -0.209 N 
ATOM      9  C   UNL A   1      45.165  25.233  26.036  1.00  0.00     0.129 C 
ATOM     10  O   UNL A   1      47.074  23.879  26.271  1.00  0.00    -0.249 OA
ATOM     11  C   UNL A   1      44.677  26.515  25.471  1.00  0.00     0.236 C 
ATOM     12  H   UNL A   1      45.165  28.337  24.919  1.00  0.00     0.270 HD
ATOM     13  C   UNL A   1      44.433  24.338  26.736  1.00  0.00     0.034 C 
ATOM     14  H   UNL A   1      42.814  25.934  24.862  1.00  0.00     0.256 HD
BRANCH   4  15
ATOM     15  C   UNL A   1      48.797  26.122  26.296  1.00  0.00     0.111 A 
ATOM     16  C   UNL A   1      53.015  25.964  27.274  1.00  0.00     0.044 C 
ATOM     17  C   UNL A   1      51.556  26.014  26.928  1.00  0.00    -0.051 A 
ATOM     18  C   UNL A   1      50.602  26.123  27.941  1.00  0.00     0.007 A 
ATOM     19  C   UNL A   1      51.127  25.936  25.602  1.00  0.00     0.007 A 
ATOM     20  C   UNL A   1      49.241  26.187  27.627  1.00  0.00     0.044 A 
ATOM     21  C   UNL A   1      49.763  25.982  25.291  1.00  0.00     0.044 A 
ENDBRANCH   4  15
BRANCH  13  22
ATOM     22  C   UNL A   1      43.038  24.421  27.198  1.00  0.00     0.018 A 
ATOM     23  C   UNL A   1      42.767  25.360  28.209  1.00  0.00     0.012 A 
ATOM     24  C   UNL A   1      41.970  23.671  26.674  1.00  0.00     0.127 A 
ATOM     25  C   UNL A   1      41.484  25.490  28.749  1.00  0.00     0.001 A 
ATOM     26  C   UNL A   1      40.688  23.811  27.222  1.00  0.00     0.047 A 
ATOM     27  C   UNL A   1      40.447  24.701  28.267  1.00  0.00     0.004 A 
BRANCH  24  28
ATOM     28  O   UNL A   1      42.090  22.663  25.752  1.00  0.00    -0.488 OA
BRANCH  28  29
ATOM     29  C   UNL A   1      41.397  21.453  26.063  1.00  0.00     0.265 C 
BRANCH  29  30
ATOM     30  C   UNL A   1      42.351  20.278  25.995  1.00  0.00    -0.010 A 
ATOM     31  C   UNL A   1      42.113  19.139  26.782  1.00  0.00     0.007 A 
ATOM     32  C   UNL A   1      43.520  20.332  25.222  1.00  0.00     0.017 A 
ATOM     33  C   UNL A   1      43.021  18.078  26.797  1.00  0.00     0.001 A 
ATOM     34  C   UNL A   1      44.446  19.281  25.255  1.00  0.00    -0.002 A 
ATOM     35  C   UNL A   1      44.192  18.153  26.045  1.00  0.00     0.010 A 
BRANCH  34  36
ATOM     36  C   UNL A   1      45.725  19.352  24.516  1.00  0.00     0.071 C 
ATOM     37  O   UNL A   1      45.980  18.771  23.467  1.00  0.00    -0.545 OA
ATOM     38  O   UNL A   1      46.642  20.125  25.118  1.00  0.00    -0.545 OA
ENDBRANCH  34  36
ENDBRANCH  29  30
ENDBRANCH  28  29
ENDBRANCH  24  28
ENDBRANCH  13  22
ENDBRANCH   2   3
ENDBRANCH   1   2
BRANCH   1  39
ATOM     39  C   UNL A   1      41.040  28.959  26.774  1.00  0.00     0.003 C 
BRANCH  39  40
ATOM     40  C   UNL A   1      39.953  28.500  27.755  1.00  0.00     0.002 C 
BRANCH  40  41
ATOM     41  C   UNL A   1      38.719  29.384  27.896  1.00  0.00     0.021 C 
BRANCH  41  42
ATOM     42  C   UNL A   1      38.883  30.542  28.856  1.00  0.00     0.116 C 
BRANCH  42  43
ATOM     43  N   UNL A   1      37.703  30.896  29.631  1.00  0.00    -0.352 N 
ATOM     44  C   UNL A   1      37.323  30.510  30.908  1.00  0.00     0.251 C 
ATOM     45  H   UNL A   1      37.076  31.505  29.178  1.00  0.00     0.163 HD
ATOM     46  O   UNL A   1      36.207  30.831  31.315  1.00  0.00    -0.269 OA
BRANCH  44  47
ATOM     47  C   UNL A   1      38.298  29.903  31.864  1.00  0.00     0.039 A 
ATOM     48  C   UNL A   1      39.205  30.785  32.475  1.00  0.00     0.014 A 
ATOM     49  C   UNL A   1      38.641  28.572  31.741  1.00  0.00     0.014 A 
ATOM     50  C   UNL A   1      40.539  30.416  32.577  1.00  0.00     0.010 A 
ATOM     51  C   UNL A   1      39.965  28.291  31.573  1.00  0.00     0.010 A 
ATOM     52  C   UNL A   1      40.915  29.236  31.961  1.00  0.00    -0.014 A 
BRANCH  52  53
ATOM     53  C   UNL A   1      42.264  28.762  31.778  1.00  0.00     0.031 A 
ATOM     54  C   UNL A   1      42.786  27.879  32.831  1.00  0.00     0.074 A 
ATOM     55  C   UNL A   1      42.817  28.875  30.552  1.00  0.00     0.049 A 
ATOM     56  N   UNL A   1      44.000  27.482  32.891  1.00  0.00    -0.248 NA
ATOM     57  C   UNL A   1      41.969  27.388  33.940  1.00  0.00     0.031 C 
ATOM     58  C   UNL A   1      43.892  28.082  29.969  1.00  0.00     0.029 A 
ATOM     59  N   UNL A   1      42.611  29.902  29.623  1.00  0.00    -0.354 N 
ATOM     60  C   UNL A   1      44.058  26.465  33.817  1.00  0.00     0.074 A 
ATOM     61  C   UNL A   1      42.810  26.536  34.529  1.00  0.00     0.031 C 
ATOM     62  C   UNL A   1      44.450  28.778  28.964  1.00  0.00     0.029 A 
ATOM     63  C   UNL A   1      43.867  30.108  29.000  1.00  0.00     0.049 A 
ATOM     64  H   UNL A   1      41.770  30.380  29.440  1.00  0.00     0.167 HD
ATOM     65  C   UNL A   1      45.120  25.616  33.746  1.00  0.00     0.037 A 
ATOM     66  C   UNL A   1      44.566  31.260  29.247  1.00  0.00     0.037 A 
ATOM     67  C   UNL A   1      46.053  26.082  32.717  1.00  0.00     0.049 A 
ATOM     68  C   UNL A   1      45.880  31.043  29.980  1.00  0.00     0.074 A 
ATOM     69  C   UNL A   1      46.315  25.734  31.404  1.00  0.00     0.029 A 
ATOM     70  N   UNL A   1      46.646  27.312  32.906  1.00  0.00    -0.354 N 
ATOM     71  N   UNL A   1      46.254  29.902  30.494  1.00  0.00    -0.248 NA
ATOM     72  C   UNL A   1      46.850  32.103  30.246  1.00  0.00     0.031 C 
ATOM     73  C   UNL A   1      47.099  26.780  30.822  1.00  0.00     0.029 A 
ATOM     74  C   UNL A   1      47.324  27.741  31.792  1.00  0.00     0.049 A 
ATOM     75  H   UNL A   1      46.589  27.825  33.744  1.00  0.00     0.167 HD
ATOM     76  C   UNL A   1      47.430  30.056  31.181  1.00  0.00     0.074 A 
ATOM     77  C   UNL A   1      47.759  31.459  31.003  1.00  0.00     0.031 C 
ATOM     78  C   UNL A   1      48.007  29.023  31.871  1.00  0.00     0.037 A 
BRANCH  65  79
ATOM     79  C   UNL A   1      45.283  24.284  34.440  1.00  0.00     0.057 A 
ATOM     80  C   UNL A   1      44.865  23.108  33.782  1.00  0.00     0.134 A 
ATOM     81  C   UNL A   1      45.780  24.064  35.737  1.00  0.00     0.134 A 
ATOM     82  F   UNL A   1      44.433  23.125  32.513  1.00  0.00    -0.206 F 
ATOM     83  C   UNL A   1      44.868  21.846  34.387  1.00  0.00     0.040 A 
ATOM     84  C   UNL A   1      45.786  22.806  36.356  1.00  0.00     0.040 A 
ATOM     85  F   UNL A   1      46.313  25.032  36.482  1.00  0.00    -0.206 F 
ATOM     86  C   UNL A   1      45.315  21.691  35.686  1.00  0.00     0.006 A 
ENDBRANCH  65  79
BRANCH  66  87
ATOM     87  C   UNL A   1      43.639  32.419  29.434  1.00  0.00     0.057 A 
ATOM     88  C   UNL A   1      43.357  32.816  30.758  1.00  0.00     0.134 A 
ATOM     89  C   UNL A   1      43.505  33.391  28.438  1.00  0.00     0.134 A 
ATOM     90  F   UNL A   1      43.439  31.926  31.760  1.00  0.00    -0.206 F 
ATOM     91  C   UNL A   1      43.161  34.158  31.096  1.00  0.00     0.040 A 
ATOM     92  C   UNL A   1      43.277  34.734  28.767  1.00  0.00     0.040 A 
ATOM     93  F   UNL A   1      43.750  33.091  27.155  1.00  0.00    -0.206 F 
ATOM     94  C   UNL A   1      43.175  35.129  30.100  1.00  0.00     0.006 A 
ENDBRANCH  66  87
BRANCH  78  95
ATOM     95  C   UNL A   1      49.243  29.128  32.741  1.00  0.00     0.057 A 
ATOM     96  C   UNL A   1      50.478  28.580  32.385  1.00  0.00     0.134 A 
ATOM     97  C   UNL A   1      49.205  29.711  34.033  1.00  0.00     0.134 A 
ATOM     98  F   UNL A   1      50.630  27.890  31.247  1.00  0.00    -0.206 F 
ATOM     99  C   UNL A   1      51.611  28.686  33.209  1.00  0.00     0.040 A 
ATOM    100  C   UNL A   1      50.309  29.771  34.885  1.00  0.00     0.040 A 
ATOM    101  F   UNL A   1      48.105  30.283  34.538  1.00  0.00    -0.206 F 
ATOM    102  C   UNL A   1      51.529  29.281  34.463  1.00  0.00     0.006 A 
ENDBRANCH  78  95
ENDBRANCH  52  53
ENDBRANCH  44  47
ENDBRANCH  42  43
ENDBRANCH  41  42
ENDBRANCH  40  41
ENDBRANCH  39  40
ENDBRANCH   1  39
TORSDOF 18
ENDMDL
