MODEL 1
REMARK VINA RESULT:     -11.5      0.000      0.000
REMARK SMILES O=C(NCCCCCCNC(=O)c1cc(SCC(=O)N2CCOCC2)ccn1)c1ccc(-c2c3nc(c(-c4c(F)cccc4F)c4ccc([nH]4)c(-c4c(F)cccc4F)c4nc(c(-c5c(F)cccc5F)c5ccc2[nH]5)C=C4)C=C3)cc1
REMARK SMILES IDX 7 1 6 2 5 3 4 4 3 5 1 6 2 7 29 9 30 10 82 11 31 12 81 13
REMARK SMILES IDX 32 14 33 15 34 16 75 17 35 18 80 19 74 20 76 21 36 22 79 23
REMARK SMILES IDX 73 24 72 25 37 27 63 28 46 29 62 30 47 31 50 32 61 33 77 34
REMARK SMILES IDX 48 35 49 36 60 38 78 39 51 40 38 41 39 42 44 43 40 44 41 45
REMARK SMILES IDX 43 46 45 47 42 48 64 49 65 50 70 51 66 52 67 53 69 54 71 55
REMARK SMILES IDX 68 56 52 57 53 58 58 59 54 60 55 61 57 62 59 63 56 64 8 65
REMARK SMILES IDX 9 66 10 67 11 68 12 70 13 71 14 72 28 73 15 74 27 75 26 76
REMARK SMILES IDX 16 77 17 78 18 79 19 80 20 81 21 82 25 83 22 84 24 85 23 86
REMARK H PARENT 3 8 76 26 50 37 10 69
REMARK Flexibility Score: inf
ROOT
ATOM      1  C   UNL A   1      32.137  29.753  27.046  1.00  0.00     0.002 C 
ENDROOT
BRANCH   1   2
ATOM      2  C   UNL A   1      31.529  30.716  26.021  1.00  0.00     0.002 C 
BRANCH   2   3
ATOM      3  C   UNL A   1      31.347  32.159  26.492  1.00  0.00     0.021 C 
BRANCH   3   4
ATOM      4  C   UNL A   1      32.558  32.775  27.180  1.00  0.00     0.116 C 
BRANCH   4   5
ATOM      5  N   UNL A   1      32.325  34.137  27.628  1.00  0.00    -0.352 N 
ATOM      6  O   UNL A   1      32.565  35.966  28.930  1.00  0.00    -0.269 OA
ATOM      7  C   UNL A   1      32.985  34.865  28.589  1.00  0.00     0.251 C 
ATOM      8  H   UNL A   1      31.587  34.608  27.178  1.00  0.00     0.163 HD
BRANCH   7   9
ATOM      9  C   UNL A   1      34.190  34.304  29.238  1.00  0.00     0.039 A 
ATOM     10  C   UNL A   1      35.467  34.606  28.760  1.00  0.00     0.014 A 
ATOM     11  C   UNL A   1      34.038  33.464  30.346  1.00  0.00     0.014 A 
ATOM     12  C   UNL A   1      36.575  33.954  29.291  1.00  0.00     0.010 A 
ATOM     13  C   UNL A   1      35.161  32.876  30.934  1.00  0.00     0.010 A 
ATOM     14  C   UNL A   1      36.436  33.088  30.388  1.00  0.00    -0.014 A 
BRANCH  14  15
ATOM     15  C   UNL A   1      37.648  32.458  30.973  1.00  0.00     0.031 A 
ATOM     16  C   UNL A   1      38.231  32.945  32.269  1.00  0.00     0.074 A 
ATOM     17  C   UNL A   1      38.199  31.406  30.338  1.00  0.00     0.049 A 
ATOM     18  N   UNL A   1      39.250  32.471  32.944  1.00  0.00    -0.248 NA
ATOM     19  C   UNL A   1      37.599  34.119  32.890  1.00  0.00     0.031 C 
ATOM     20  C   UNL A   1      37.729  30.852  29.066  1.00  0.00     0.029 A 
ATOM     21  N   UNL A   1      39.253  30.600  30.683  1.00  0.00    -0.354 N 
ATOM     22  C   UNL A   1      39.394  33.298  34.051  1.00  0.00     0.074 A 
ATOM     23  C   UNL A   1      38.373  34.318  33.948  1.00  0.00     0.031 C 
ATOM     24  C   UNL A   1      38.452  29.763  28.767  1.00  0.00     0.029 A 
ATOM     25  C   UNL A   1      39.471  29.576  29.794  1.00  0.00     0.049 A 
ATOM     26  H   UNL A   1      39.798  30.742  31.489  1.00  0.00     0.167 HD
ATOM     27  C   UNL A   1      40.292  33.208  35.062  1.00  0.00     0.037 A 
ATOM     28  C   UNL A   1      40.394  28.596  29.800  1.00  0.00     0.037 A 
ATOM     29  C   UNL A   1      41.296  32.180  35.169  1.00  0.00     0.049 A 
ATOM     30  C   UNL A   1      41.383  28.531  30.924  1.00  0.00     0.074 A 
ATOM     31  C   UNL A   1      42.222  31.979  36.180  1.00  0.00     0.029 A 
ATOM     32  N   UNL A   1      41.512  31.183  34.229  1.00  0.00    -0.354 N 
ATOM     33  N   UNL A   1      41.479  29.295  31.986  1.00  0.00    -0.248 NA
ATOM     34  C   UNL A   1      42.398  27.472  30.849  1.00  0.00     0.031 C 
ATOM     35  C   UNL A   1      43.024  30.887  35.830  1.00  0.00     0.029 A 
ATOM     36  C   UNL A   1      42.571  30.380  34.624  1.00  0.00     0.049 A 
ATOM     37  H   UNL A   1      40.990  31.064  33.404  1.00  0.00     0.167 HD
ATOM     38  C   UNL A   1      42.551  28.798  32.714  1.00  0.00     0.074 A 
ATOM     39  C   UNL A   1      43.061  27.657  31.981  1.00  0.00     0.031 C 
ATOM     40  C   UNL A   1      43.068  29.249  33.883  1.00  0.00     0.037 A 
BRANCH  27  41
ATOM     41  C   UNL A   1      40.244  34.265  36.128  1.00  0.00     0.057 A 
ATOM     42  C   UNL A   1      40.982  35.452  36.033  1.00  0.00     0.134 A 
ATOM     43  C   UNL A   1      39.415  34.109  37.247  1.00  0.00     0.134 A 
ATOM     44  F   UNL A   1      41.805  35.659  34.994  1.00  0.00    -0.206 F 
ATOM     45  C   UNL A   1      40.915  36.435  37.023  1.00  0.00     0.040 A 
ATOM     46  C   UNL A   1      39.322  35.095  38.231  1.00  0.00     0.040 A 
ATOM     47  F   UNL A   1      38.675  33.000  37.398  1.00  0.00    -0.206 F 
ATOM     48  C   UNL A   1      40.078  36.260  38.124  1.00  0.00     0.006 A 
ENDBRANCH  27  41
BRANCH  28  49
ATOM     49  C   UNL A   1      40.410  27.593  28.708  1.00  0.00     0.057 A 
ATOM     50  C   UNL A   1      39.646  26.423  28.793  1.00  0.00     0.134 A 
ATOM     51  C   UNL A   1      41.172  27.784  27.550  1.00  0.00     0.134 A 
ATOM     52  F   UNL A   1      38.908  26.177  29.886  1.00  0.00    -0.206 F 
ATOM     53  C   UNL A   1      39.650  25.474  27.771  1.00  0.00     0.040 A 
ATOM     54  C   UNL A   1      41.166  26.857  26.509  1.00  0.00     0.040 A 
ATOM     55  F   UNL A   1      41.918  28.890  27.407  1.00  0.00    -0.206 F 
ATOM     56  C   UNL A   1      40.407  25.694  26.621  1.00  0.00     0.006 A 
ENDBRANCH  28  49
BRANCH  40  57
ATOM     57  C   UNL A   1      44.227  28.485  34.449  1.00  0.00     0.057 A 
ATOM     58  C   UNL A   1      44.043  27.368  35.273  1.00  0.00     0.134 A 
ATOM     59  C   UNL A   1      45.543  28.866  34.159  1.00  0.00     0.134 A 
ATOM     60  F   UNL A   1      42.807  26.963  35.602  1.00  0.00    -0.206 F 
ATOM     61  C   UNL A   1      45.127  26.671  35.809  1.00  0.00     0.040 A 
ATOM     62  C   UNL A   1      46.634  28.163  34.669  1.00  0.00     0.040 A 
ATOM     63  F   UNL A   1      45.788  29.925  33.372  1.00  0.00    -0.206 F 
ATOM     64  C   UNL A   1      46.428  27.066  35.503  1.00  0.00     0.006 A 
ENDBRANCH  40  57
ENDBRANCH  14  15
ENDBRANCH   7   9
ENDBRANCH   4   5
ENDBRANCH   3   4
ENDBRANCH   2   3
ENDBRANCH   1   2
BRANCH   1  65
ATOM     65  C   UNL A   1      33.202  28.792  26.509  1.00  0.00     0.021 C 
BRANCH  65  66
ATOM     66  C   UNL A   1      32.990  27.326  26.872  1.00  0.00     0.116 C 
BRANCH  66  67
ATOM     67  N   UNL A   1      31.591  26.939  26.851  1.00  0.00    -0.351 N 
ATOM     68  C   UNL A   1      30.985  25.951  26.108  1.00  0.00     0.269 C 
ATOM     69  H   UNL A   1      30.999  27.450  27.447  1.00  0.00     0.163 HD
ATOM     70  O   UNL A   1      29.775  25.768  26.202  1.00  0.00    -0.268 OA
BRANCH  68  71
ATOM     71  C   UNL A   1      31.812  25.111  25.200  1.00  0.00     0.129 A 
ATOM     72  C   UNL A   1      32.434  23.968  25.691  1.00  0.00     0.049 A 
ATOM     73  N   UNL A   1      31.937  25.564  23.928  1.00  0.00    -0.251 NA
ATOM     74  C   UNL A   1      33.289  23.280  24.841  1.00  0.00     0.012 A 
ATOM     75  C   UNL A   1      32.722  24.844  23.109  1.00  0.00     0.113 A 
ATOM     76  C   UNL A   1      33.416  23.719  23.518  1.00  0.00     0.035 A 
BRANCH  74  77
ATOM     77  S   UNL A   1      34.250  21.848  25.275  1.00  0.00    -0.116 SA
BRANCH  77  78
ATOM     78  C   UNL A   1      33.071  20.501  25.538  1.00  0.00     0.175 C 
BRANCH  78  79
ATOM     79  C   UNL A   1      32.565  19.699  24.349  1.00  0.00     0.233 C 
ATOM     80  O   UNL A   1      32.238  20.314  23.326  1.00  0.00    -0.274 OA
ATOM     81  N   UNL A   1      32.672  18.323  24.322  1.00  0.00    -0.337 N 
ATOM     82  C   UNL A   1      32.554  17.397  25.449  1.00  0.00     0.148 C 
ATOM     83  C   UNL A   1      32.839  17.639  23.034  1.00  0.00     0.148 C 
ATOM     84  C   UNL A   1      33.716  16.404  25.461  1.00  0.00     0.181 C 
ATOM     85  C   UNL A   1      34.019  16.659  23.127  1.00  0.00     0.181 C 
ATOM     86  O   UNL A   1      33.823  15.725  24.201  1.00  0.00    -0.378 OA
ENDBRANCH  78  79
ENDBRANCH  77  78
ENDBRANCH  74  77
ENDBRANCH  68  71
ENDBRANCH  66  67
ENDBRANCH  65  66
ENDBRANCH   1  65
TORSDOF 16
ENDMDL
MODEL 2
REMARK VINA RESULT:     -11.4      3.840      8.030
REMARK SMILES O=C(NCCCCCCNC(=O)c1cc(SCC(=O)N2CCOCC2)ccn1)c1ccc(-c2c3nc(c(-c4c(F)cccc4F)c4ccc([nH]4)c(-c4c(F)cccc4F)c4nc(c(-c5c(F)cccc5F)c5ccc2[nH]5)C=C4)C=C3)cc1
REMARK SMILES IDX 7 1 6 2 5 3 4 4 3 5 1 6 2 7 29 9 30 10 82 11 31 12 81 13
REMARK SMILES IDX 32 14 33 15 34 16 75 17 35 18 80 19 74 20 76 21 36 22 79 23
REMARK SMILES IDX 73 24 72 25 37 27 63 28 46 29 62 30 47 31 50 32 61 33 77 34
REMARK SMILES IDX 48 35 49 36 60 38 78 39 51 40 38 41 39 42 44 43 40 44 41 45
REMARK SMILES IDX 43 46 45 47 42 48 64 49 65 50 70 51 66 52 67 53 69 54 71 55
REMARK SMILES IDX 68 56 52 57 53 58 58 59 54 60 55 61 57 62 59 63 56 64 8 65
REMARK SMILES IDX 9 66 10 67 11 68 12 70 13 71 14 72 28 73 15 74 27 75 26 76
REMARK SMILES IDX 16 77 17 78 18 79 19 80 20 81 21 82 25 83 22 84 24 85 23 86
REMARK H PARENT 3 8 76 26 50 37 10 69
REMARK Flexibility Score: inf
ROOT
ATOM      1  C   UNL A   1      35.010  32.893  29.079  1.00  0.00     0.002 C 
ENDROOT
BRANCH   1   2
ATOM      2  C   UNL A   1      35.422  34.337  28.774  1.00  0.00     0.002 C 
BRANCH   2   3
ATOM      3  C   UNL A   1      34.345  35.397  29.004  1.00  0.00     0.021 C 
BRANCH   3   4
ATOM      4  C   UNL A   1      33.017  34.870  29.532  1.00  0.00     0.116 C 
BRANCH   4   5
ATOM      5  N   UNL A   1      32.461  35.691  30.594  1.00  0.00    -0.352 N 
ATOM      6  O   UNL A   1      32.151  36.426  32.706  1.00  0.00    -0.269 OA
ATOM      7  C   UNL A   1      32.822  35.768  31.917  1.00  0.00     0.251 C 
ATOM      8  H   UNL A   1      31.718  36.279  30.326  1.00  0.00     0.163 HD
BRANCH   7   9
ATOM      9  C   UNL A   1      34.007  35.027  32.402  1.00  0.00     0.039 A 
ATOM     10  C   UNL A   1      35.262  35.638  32.453  1.00  0.00     0.014 A 
ATOM     11  C   UNL A   1      33.858  33.699  32.814  1.00  0.00     0.014 A 
ATOM     12  C   UNL A   1      36.386  34.882  32.770  1.00  0.00     0.010 A 
ATOM     13  C   UNL A   1      34.977  32.964  33.216  1.00  0.00     0.010 A 
ATOM     14  C   UNL A   1      36.256  33.539  33.162  1.00  0.00    -0.014 A 
BRANCH  14  15
ATOM     15  C   UNL A   1      37.469  32.778  33.558  1.00  0.00     0.031 A 
ATOM     16  C   UNL A   1      38.082  31.758  32.640  1.00  0.00     0.074 A 
ATOM     17  C   UNL A   1      38.041  33.047  34.747  1.00  0.00     0.049 A 
ATOM     18  N   UNL A   1      39.172  31.048  32.809  1.00  0.00    -0.248 NA
ATOM     19  C   UNL A   1      37.386  31.491  31.373  1.00  0.00     0.031 C 
ATOM     20  C   UNL A   1      37.528  34.007  35.728  1.00  0.00     0.029 A 
ATOM     21  N   UNL A   1      39.186  32.562  35.323  1.00  0.00    -0.354 N 
ATOM     22  C   UNL A   1      39.278  30.239  31.685  1.00  0.00     0.074 A 
ATOM     23  C   UNL A   1      38.131  30.527  30.850  1.00  0.00     0.031 C 
ATOM     24  C   UNL A   1      38.385  34.084  36.756  1.00  0.00     0.029 A 
ATOM     25  C   UNL A   1      39.475  33.140  36.535  1.00  0.00     0.049 A 
ATOM     26  H   UNL A   1      39.747  31.869  34.907  1.00  0.00     0.167 HD
ATOM     27  C   UNL A   1      40.247  29.343  31.377  1.00  0.00     0.037 A 
ATOM     28  C   UNL A   1      40.501  32.930  37.380  1.00  0.00     0.037 A 
ATOM     29  C   UNL A   1      41.396  29.071  32.204  1.00  0.00     0.049 A 
ATOM     30  C   UNL A   1      41.551  31.922  37.019  1.00  0.00     0.074 A 
ATOM     31  C   UNL A   1      42.455  28.214  31.955  1.00  0.00     0.029 A 
ATOM     32  N   UNL A   1      41.633  29.647  33.443  1.00  0.00    -0.354 N 
ATOM     33  N   UNL A   1      41.660  31.196  35.933  1.00  0.00    -0.248 NA
ATOM     34  C   UNL A   1      42.616  31.699  38.004  1.00  0.00     0.031 C 
ATOM     35  C   UNL A   1      43.310  28.240  33.062  1.00  0.00     0.029 A 
ATOM     36  C   UNL A   1      42.809  29.146  33.982  1.00  0.00     0.049 A 
ATOM     37  H   UNL A   1      41.053  30.314  33.875  1.00  0.00     0.167 HD
ATOM     38  C   UNL A   1      42.815  30.444  36.095  1.00  0.00     0.074 A 
ATOM     39  C   UNL A   1      43.379  30.816  37.377  1.00  0.00     0.031 C 
ATOM     40  C   UNL A   1      43.356  29.525  35.259  1.00  0.00     0.037 A 
BRANCH  27  41
ATOM     41  C   UNL A   1      40.097  28.571  30.097  1.00  0.00     0.057 A 
ATOM     42  C   UNL A   1      40.728  28.969  28.911  1.00  0.00     0.134 A 
ATOM     43  C   UNL A   1      39.342  27.392  30.062  1.00  0.00     0.134 A 
ATOM     44  F   UNL A   1      41.455  30.095  28.872  1.00  0.00    -0.206 F 
ATOM     45  C   UNL A   1      40.595  28.232  27.732  1.00  0.00     0.040 A 
ATOM     46  C   UNL A   1      39.220  26.636  28.895  1.00  0.00     0.040 A 
ATOM     47  F   UNL A   1      38.716  26.949  31.164  1.00  0.00    -0.206 F 
ATOM     48  C   UNL A   1      39.843  27.059  27.723  1.00  0.00     0.006 A 
ENDBRANCH  27  41
BRANCH  28  49
ATOM     49  C   UNL A   1      40.586  33.704  38.642  1.00  0.00     0.057 A 
ATOM     50  C   UNL A   1      39.845  33.330  39.769  1.00  0.00     0.134 A 
ATOM     51  C   UNL A   1      41.419  34.823  38.758  1.00  0.00     0.134 A 
ATOM     52  F   UNL A   1      39.018  32.276  39.712  1.00  0.00    -0.206 F 
ATOM     53  C   UNL A   1      39.920  34.048  40.962  1.00  0.00     0.040 A 
ATOM     54  C   UNL A   1      41.524  35.535  39.952  1.00  0.00     0.040 A 
ATOM     55  F   UNL A   1      42.160  35.226  37.715  1.00  0.00    -0.206 F 
ATOM     56  C   UNL A   1      40.768  35.151  41.058  1.00  0.00     0.006 A 
ENDBRANCH  28  49
BRANCH  40  57
ATOM     57  C   UNL A   1      44.639  28.884  35.697  1.00  0.00     0.057 A 
ATOM     58  C   UNL A   1      44.655  27.695  36.436  1.00  0.00     0.134 A 
ATOM     59  C   UNL A   1      45.873  29.459  35.367  1.00  0.00     0.134 A 
ATOM     60  F   UNL A   1      43.506  27.104  36.798  1.00  0.00    -0.206 F 
ATOM     61  C   UNL A   1      45.853  27.112  36.854  1.00  0.00     0.040 A 
ATOM     62  C   UNL A   1      47.077  28.873  35.758  1.00  0.00     0.040 A 
ATOM     63  F   UNL A   1      45.927  30.596  34.657  1.00  0.00    -0.206 F 
ATOM     64  C   UNL A   1      47.069  27.700  36.510  1.00  0.00     0.006 A 
ENDBRANCH  40  57
ENDBRANCH  14  15
ENDBRANCH   7   9
ENDBRANCH   4   5
ENDBRANCH   3   4
ENDBRANCH   2   3
ENDBRANCH   1   2
BRANCH   1  65
ATOM     65  C   UNL A   1      35.497  31.836  28.083  1.00  0.00     0.021 C 
BRANCH  65  66
ATOM     66  C   UNL A   1      34.407  30.930  27.520  1.00  0.00     0.116 C 
BRANCH  66  67
ATOM     67  N   UNL A   1      33.165  31.636  27.266  1.00  0.00    -0.351 N 
ATOM     68  C   UNL A   1      31.981  31.139  26.770  1.00  0.00     0.269 C 
ATOM     69  H   UNL A   1      33.171  32.597  27.477  1.00  0.00     0.163 HD
ATOM     70  O   UNL A   1      31.024  31.890  26.600  1.00  0.00    -0.268 OA
BRANCH  68  71
ATOM     71  C   UNL A   1      31.875  29.690  26.451  1.00  0.00     0.129 A 
ATOM     72  C   UNL A   1      31.906  29.270  25.125  1.00  0.00     0.049 A 
ATOM     73  N   UNL A   1      31.707  28.862  27.512  1.00  0.00    -0.251 NA
ATOM     74  C   UNL A   1      31.687  27.924  24.867  1.00  0.00     0.012 A 
ATOM     75  C   UNL A   1      31.559  27.556  27.236  1.00  0.00     0.113 A 
ATOM     76  C   UNL A   1      31.532  27.050  25.950  1.00  0.00     0.035 A 
BRANCH  74  77
ATOM     77  S   UNL A   1      31.600  27.179  23.254  1.00  0.00    -0.116 SA
BRANCH  77  78
ATOM     78  C   UNL A   1      30.523  28.239  22.259  1.00  0.00     0.175 C 
BRANCH  78  79
ATOM     79  C   UNL A   1      29.072  28.436  22.668  1.00  0.00     0.233 C 
ATOM     80  O   UNL A   1      28.549  27.582  23.395  1.00  0.00    -0.274 OA
ATOM     81  N   UNL A   1      28.421  29.629  22.427  1.00  0.00    -0.337 N 
ATOM     82  C   UNL A   1      28.588  30.520  21.278  1.00  0.00     0.148 C 
ATOM     83  C   UNL A   1      27.365  30.072  23.346  1.00  0.00     0.148 C 
ATOM     84  C   UNL A   1      28.780  31.966  21.735  1.00  0.00     0.181 C 
ATOM     85  C   UNL A   1      27.625  31.530  23.755  1.00  0.00     0.181 C 
ATOM     86  O   UNL A   1      27.709  32.378  22.598  1.00  0.00    -0.378 OA
ENDBRANCH  78  79
ENDBRANCH  77  78
ENDBRANCH  74  77
ENDBRANCH  68  71
ENDBRANCH  66  67
ENDBRANCH  65  66
ENDBRANCH   1  65
TORSDOF 16
ENDMDL
MODEL 3
REMARK VINA RESULT:     -11.3      3.818      5.539
REMARK SMILES O=C(NCCCCCCNC(=O)c1cc(SCC(=O)N2CCOCC2)ccn1)c1ccc(-c2c3nc(c(-c4c(F)cccc4F)c4ccc([nH]4)c(-c4c(F)cccc4F)c4nc(c(-c5c(F)cccc5F)c5ccc2[nH]5)C=C4)C=C3)cc1
REMARK SMILES IDX 7 1 6 2 5 3 4 4 3 5 1 6 2 7 29 9 30 10 82 11 31 12 81 13
REMARK SMILES IDX 32 14 33 15 34 16 75 17 35 18 80 19 74 20 76 21 36 22 79 23
REMARK SMILES IDX 73 24 72 25 37 27 63 28 46 29 62 30 47 31 50 32 61 33 77 34
REMARK SMILES IDX 48 35 49 36 60 38 78 39 51 40 38 41 39 42 44 43 40 44 41 45
REMARK SMILES IDX 43 46 45 47 42 48 64 49 65 50 70 51 66 52 67 53 69 54 71 55
REMARK SMILES IDX 68 56 52 57 53 58 58 59 54 60 55 61 57 62 59 63 56 64 8 65
REMARK SMILES IDX 9 66 10 67 11 68 12 70 13 71 14 72 28 73 15 74 27 75 26 76
REMARK SMILES IDX 16 77 17 78 18 79 19 80 20 81 21 82 25 83 22 84 24 85 23 86
REMARK H PARENT 3 8 76 26 50 37 10 69
REMARK Flexibility Score: inf
ROOT
ATOM      1  C   UNL A   1      35.069  32.894  29.117  1.00  0.00     0.002 C 
ENDROOT
BRANCH   1   2
ATOM      2  C   UNL A   1      35.386  34.352  28.769  1.00  0.00     0.002 C 
BRANCH   2   3
ATOM      3  C   UNL A   1      34.252  35.351  29.000  1.00  0.00     0.021 C 
BRANCH   3   4
ATOM      4  C   UNL A   1      32.982  34.763  29.602  1.00  0.00     0.116 C 
BRANCH   4   5
ATOM      5  N   UNL A   1      32.452  35.557  30.698  1.00  0.00    -0.352 N 
ATOM      6  O   UNL A   1      32.229  36.271  32.828  1.00  0.00    -0.269 OA
ATOM      7  C   UNL A   1      32.883  35.644  32.000  1.00  0.00     0.251 C 
ATOM      8  H   UNL A   1      31.671  36.114  30.476  1.00  0.00     0.163 HD
BRANCH   7   9
ATOM      9  C   UNL A   1      34.123  34.952  32.413  1.00  0.00     0.039 A 
ATOM     10  C   UNL A   1      35.356  35.607  32.376  1.00  0.00     0.014 A 
ATOM     11  C   UNL A   1      34.049  33.625  32.848  1.00  0.00     0.014 A 
ATOM     12  C   UNL A   1      36.524  34.896  32.627  1.00  0.00     0.010 A 
ATOM     13  C   UNL A   1      35.218  32.935  33.184  1.00  0.00     0.010 A 
ATOM     14  C   UNL A   1      36.469  33.554  33.041  1.00  0.00    -0.014 A 
BRANCH  14  15
ATOM     15  C   UNL A   1      37.732  32.842  33.364  1.00  0.00     0.031 A 
ATOM     16  C   UNL A   1      38.463  33.098  34.651  1.00  0.00     0.074 A 
ATOM     17  C   UNL A   1      38.196  31.925  32.494  1.00  0.00     0.049 A 
ATOM     18  N   UNL A   1      39.547  32.521  35.112  1.00  0.00    -0.248 NA
ATOM     19  C   UNL A   1      37.917  34.137  35.537  1.00  0.00     0.031 C 
ATOM     20  C   UNL A   1      37.580  31.600  31.206  1.00  0.00     0.029 A 
ATOM     21  N   UNL A   1      39.273  31.081  32.570  1.00  0.00    -0.354 N 
ATOM     22  C   UNL A   1      39.823  33.140  36.324  1.00  0.00     0.074 A 
ATOM     23  C   UNL A   1      38.808  34.154  36.520  1.00  0.00     0.031 C 
ATOM     24  C   UNL A   1      38.253  30.589  30.639  1.00  0.00     0.029 A 
ATOM     25  C   UNL A   1      39.379  30.232  31.494  1.00  0.00     0.049 A 
ATOM     26  H   UNL A   1      39.908  31.082  33.321  1.00  0.00     0.167 HD
ATOM     27  C   UNL A   1      40.829  32.882  37.195  1.00  0.00     0.037 A 
ATOM     28  C   UNL A   1      40.286  29.276  31.223  1.00  0.00     0.037 A 
ATOM     29  C   UNL A   1      41.828  31.861  37.004  1.00  0.00     0.049 A 
ATOM     30  C   UNL A   1      41.395  29.022  32.199  1.00  0.00     0.074 A 
ATOM     31  C   UNL A   1      42.859  31.493  37.852  1.00  0.00     0.029 A 
ATOM     32  N   UNL A   1      41.925  31.048  35.884  1.00  0.00    -0.354 N 
ATOM     33  N   UNL A   1      41.619  29.586  33.361  1.00  0.00    -0.248 NA
ATOM     34  C   UNL A   1      42.383  28.003  31.822  1.00  0.00     0.031 C 
ATOM     35  C   UNL A   1      43.605  30.488  37.227  1.00  0.00     0.029 A 
ATOM     36  C   UNL A   1      43.013  30.198  36.008  1.00  0.00     0.049 A 
ATOM     37  H   UNL A   1      41.312  31.072  35.115  1.00  0.00     0.167 HD
ATOM     38  C   UNL A   1      42.761  28.979  33.863  1.00  0.00     0.074 A 
ATOM     39  C   UNL A   1      43.172  27.991  32.887  1.00  0.00     0.031 C 
ATOM     40  C   UNL A   1      43.411  29.221  35.028  1.00  0.00     0.037 A 
BRANCH  27  41
ATOM     41  C   UNL A   1      40.912  33.733  38.430  1.00  0.00     0.057 A 
ATOM     42  C   UNL A   1      40.164  33.449  39.580  1.00  0.00     0.134 A 
ATOM     43  C   UNL A   1      41.785  34.827  38.482  1.00  0.00     0.134 A 
ATOM     44  F   UNL A   1      39.300  32.423  39.594  1.00  0.00    -0.206 F 
ATOM     45  C   UNL A   1      40.264  34.238  40.729  1.00  0.00     0.040 A 
ATOM     46  C   UNL A   1      41.910  35.609  39.632  1.00  0.00     0.040 A 
ATOM     47  F   UNL A   1      42.537  35.151  37.418  1.00  0.00    -0.206 F 
ATOM     48  C   UNL A   1      41.144  35.319  40.759  1.00  0.00     0.006 A 
ENDBRANCH  27  41
BRANCH  28  49
ATOM     49  C   UNL A   1      40.167  28.482  29.976  1.00  0.00     0.057 A 
ATOM     50  C   UNL A   1      40.862  28.850  28.818  1.00  0.00     0.134 A 
ATOM     51  C   UNL A   1      39.373  27.331  29.915  1.00  0.00     0.134 A 
ATOM     52  F   UNL A   1      41.627  29.952  28.812  1.00  0.00    -0.206 F 
ATOM     53  C   UNL A   1      40.762  28.108  27.641  1.00  0.00     0.040 A 
ATOM     54  C   UNL A   1      39.283  26.566  28.753  1.00  0.00     0.040 A 
ATOM     55  F   UNL A   1      38.689  26.923  30.994  1.00  0.00    -0.206 F 
ATOM     56  C   UNL A   1      39.975  26.958  27.609  1.00  0.00     0.006 A 
ENDBRANCH  28  49
BRANCH  40  57
ATOM     57  C   UNL A   1      44.618  28.380  35.315  1.00  0.00     0.057 A 
ATOM     58  C   UNL A   1      45.904  28.777  34.929  1.00  0.00     0.134 A 
ATOM     59  C   UNL A   1      44.494  27.162  35.996  1.00  0.00     0.134 A 
ATOM     60  F   UNL A   1      46.088  29.924  34.258  1.00  0.00    -0.206 F 
ATOM     61  C   UNL A   1      47.021  27.981  35.186  1.00  0.00     0.040 A 
ATOM     62  C   UNL A   1      45.606  26.370  36.281  1.00  0.00     0.040 A 
ATOM     63  F   UNL A   1      43.290  26.726  36.399  1.00  0.00    -0.206 F 
ATOM     64  C   UNL A   1      46.874  26.775  35.869  1.00  0.00     0.006 A 
ENDBRANCH  40  57
ENDBRANCH  14  15
ENDBRANCH   7   9
ENDBRANCH   4   5
ENDBRANCH   3   4
ENDBRANCH   2   3
ENDBRANCH   1   2
BRANCH   1  65
ATOM     65  C   UNL A   1      35.531  31.849  28.097  1.00  0.00     0.021 C 
BRANCH  65  66
ATOM     66  C   UNL A   1      34.429  30.944  27.556  1.00  0.00     0.116 C 
BRANCH  66  67
ATOM     67  N   UNL A   1      33.200  31.662  27.273  1.00  0.00    -0.351 N 
ATOM     68  C   UNL A   1      32.021  31.175  26.757  1.00  0.00     0.269 C 
ATOM     69  H   UNL A   1      33.213  32.624  27.478  1.00  0.00     0.163 HD
ATOM     70  O   UNL A   1      31.076  31.935  26.564  1.00  0.00    -0.268 OA
BRANCH  68  71
ATOM     71  C   UNL A   1      31.905  29.725  26.445  1.00  0.00     0.129 A 
ATOM     72  C   UNL A   1      31.926  29.300  25.120  1.00  0.00     0.049 A 
ATOM     73  N   UNL A   1      31.738  28.904  27.511  1.00  0.00    -0.251 NA
ATOM     74  C   UNL A   1      31.699  27.953  24.869  1.00  0.00     0.012 A 
ATOM     75  C   UNL A   1      31.581  27.597  27.241  1.00  0.00     0.113 A 
ATOM     76  C   UNL A   1      31.544  27.086  25.957  1.00  0.00     0.035 A 
BRANCH  74  77
ATOM     77  S   UNL A   1      31.598  27.202  23.260  1.00  0.00    -0.116 SA
BRANCH  77  78
ATOM     78  C   UNL A   1      30.532  28.271  22.264  1.00  0.00     0.175 C 
BRANCH  78  79
ATOM     79  C   UNL A   1      29.073  28.458  22.654  1.00  0.00     0.233 C 
ATOM     80  O   UNL A   1      28.544  27.593  23.363  1.00  0.00    -0.274 OA
ATOM     81  N   UNL A   1      28.422  29.651  22.418  1.00  0.00    -0.337 N 
ATOM     82  C   UNL A   1      28.602  30.557  21.283  1.00  0.00     0.148 C 
ATOM     83  C   UNL A   1      27.352  30.080  23.327  1.00  0.00     0.148 C 
ATOM     84  C   UNL A   1      28.782  31.998  21.760  1.00  0.00     0.181 C 
ATOM     85  C   UNL A   1      27.601  31.533  23.758  1.00  0.00     0.181 C 
ATOM     86  O   UNL A   1      27.698  32.396  22.612  1.00  0.00    -0.378 OA
ENDBRANCH  78  79
ENDBRANCH  77  78
ENDBRANCH  74  77
ENDBRANCH  68  71
ENDBRANCH  66  67
ENDBRANCH  65  66
ENDBRANCH   1  65
TORSDOF 16
ENDMDL
