MODEL 1
REMARK VINA RESULT:     -12.6      0.000      0.000
REMARK SMILES O=C(NCCCCCCNC(=O)[C@H]1CC2(CCN(C(=O)C3CC3)CC2)CN1C(=O)CCn1cccn1)c1ccc(-c2c3nc(c(-c4c(F)cccc4F)c4ccc([nH]4)c(-c4c(F)cccc4F)c4nc(c(-c5c(F)cccc5F)c5ccc2[nH]5)C=C4)C=C3)cc1
REMARK SMILES IDX 7 1 6 2 5 3 4 4 3 5 1 6 2 7 37 9 38 10 90 11 39 12 89 13
REMARK SMILES IDX 40 14 41 15 42 16 83 17 43 18 88 19 82 20 84 21 44 22 87 23
REMARK SMILES IDX 81 24 80 25 45 27 71 28 54 29 70 30 55 31 58 32 69 33 85 34
REMARK SMILES IDX 56 35 57 36 68 38 86 39 59 40 46 41 47 42 52 43 48 44 49 45
REMARK SMILES IDX 51 46 53 47 50 48 72 49 73 50 78 51 74 52 75 53 77 54 79 55
REMARK SMILES IDX 76 56 60 57 61 58 66 59 62 60 63 61 65 62 67 63 64 64 8 65
REMARK SMILES IDX 9 66 10 67 11 68 12 70 13 71 14 72 27 73 15 74 26 75 16 76
REMARK SMILES IDX 25 77 17 78 24 79 18 80 19 81 20 82 28 83 29 84 30 85 31 86
REMARK SMILES IDX 32 87 33 88 36 89 34 90 35 91 21 92 22 93 23 94
REMARK H PARENT 3 8 84 26 58 37 10 69
REMARK Flexibility Score: inf
ROOT
ATOM      1  C   UNL A   1      40.207  21.610  26.974  1.00  0.00     0.002 C 
ENDROOT
BRANCH   1   2
ATOM      2  C   UNL A   1      41.298  20.582  27.289  1.00  0.00     0.002 C 
BRANCH   2   3
ATOM      3  C   UNL A   1      41.567  19.540  26.198  1.00  0.00     0.021 C 
BRANCH   3   4
ATOM      4  C   UNL A   1      42.985  18.975  26.192  1.00  0.00     0.116 C 
BRANCH   4   5
ATOM      5  N   UNL A   1      43.767  19.352  25.038  1.00  0.00    -0.352 N 
ATOM      6  O   UNL A   1      45.043  20.462  23.614  1.00  0.00    -0.269 OA
ATOM      7  C   UNL A   1      44.319  20.523  24.610  1.00  0.00     0.251 C 
ATOM      8  H   UNL A   1      43.938  18.599  24.427  1.00  0.00     0.163 HD
BRANCH   7   9
ATOM      9  C   UNL A   1      44.047  21.853  25.216  1.00  0.00     0.039 A 
ATOM     10  C   UNL A   1      43.067  22.758  24.803  1.00  0.00     0.014 A 
ATOM     11  C   UNL A   1      44.871  22.202  26.303  1.00  0.00     0.014 A 
ATOM     12  C   UNL A   1      42.964  24.009  25.403  1.00  0.00     0.010 A 
ATOM     13  C   UNL A   1      44.761  23.441  26.920  1.00  0.00     0.010 A 
ATOM     14  C   UNL A   1      43.823  24.354  26.449  1.00  0.00    -0.014 A 
BRANCH  14  15
ATOM     15  C   UNL A   1      43.572  25.604  27.157  1.00  0.00     0.031 A 
ATOM     16  C   UNL A   1      44.560  26.682  26.859  1.00  0.00     0.074 A 
ATOM     17  C   UNL A   1      42.471  25.848  27.894  1.00  0.00     0.049 A 
ATOM     18  N   UNL A   1      45.378  27.263  27.675  1.00  0.00    -0.248 NA
ATOM     19  C   UNL A   1      44.736  27.082  25.453  1.00  0.00     0.031 C 
ATOM     20  C   UNL A   1      41.274  25.017  28.030  1.00  0.00     0.029 A 
ATOM     21  N   UNL A   1      42.153  26.963  28.612  1.00  0.00    -0.354 N 
ATOM     22  C   UNL A   1      46.047  28.231  26.925  1.00  0.00     0.074 A 
ATOM     23  C   UNL A   1      45.719  27.977  25.548  1.00  0.00     0.031 C 
ATOM     24  C   UNL A   1      40.286  25.749  28.595  1.00  0.00     0.029 A 
ATOM     25  C   UNL A   1      40.816  27.047  28.978  1.00  0.00     0.049 A 
ATOM     26  H   UNL A   1      42.816  27.651  28.851  1.00  0.00     0.167 HD
ATOM     27  C   UNL A   1      46.653  29.297  27.516  1.00  0.00     0.037 A 
ATOM     28  C   UNL A   1      40.185  28.128  29.504  1.00  0.00     0.037 A 
ATOM     29  C   UNL A   1      46.856  29.076  28.922  1.00  0.00     0.049 A 
ATOM     30  C   UNL A   1      41.221  29.039  30.047  1.00  0.00     0.074 A 
ATOM     31  C   UNL A   1      47.561  28.161  29.678  1.00  0.00     0.029 A 
ATOM     32  N   UNL A   1      45.989  29.690  29.792  1.00  0.00    -0.354 N 
ATOM     33  N   UNL A   1      41.938  28.782  31.103  1.00  0.00    -0.248 NA
ATOM     34  C   UNL A   1      41.757  30.061  29.162  1.00  0.00     0.031 C 
ATOM     35  C   UNL A   1      46.750  27.932  30.828  1.00  0.00     0.029 A 
ATOM     36  C   UNL A   1      45.631  28.760  30.729  1.00  0.00     0.049 A 
ATOM     37  H   UNL A   1      45.683  30.625  29.750  1.00  0.00     0.167 HD
ATOM     38  C   UNL A   1      43.201  29.263  30.792  1.00  0.00     0.074 A 
ATOM     39  C   UNL A   1      43.004  30.128  29.631  1.00  0.00     0.031 C 
ATOM     40  C   UNL A   1      44.320  28.692  31.327  1.00  0.00     0.037 A 
BRANCH  27  41
ATOM     41  C   UNL A   1      46.721  30.682  26.916  1.00  0.00     0.057 A 
ATOM     42  C   UNL A   1      47.948  31.373  26.923  1.00  0.00     0.134 A 
ATOM     43  C   UNL A   1      45.590  31.474  26.634  1.00  0.00     0.134 A 
ATOM     44  F   UNL A   1      49.097  30.734  27.189  1.00  0.00    -0.206 F 
ATOM     45  C   UNL A   1      48.030  32.760  26.748  1.00  0.00     0.040 A 
ATOM     46  C   UNL A   1      45.667  32.850  26.407  1.00  0.00     0.040 A 
ATOM     47  F   UNL A   1      44.345  30.983  26.666  1.00  0.00    -0.206 F 
ATOM     48  C   UNL A   1      46.884  33.505  26.500  1.00  0.00     0.006 A 
ENDBRANCH  27  41
BRANCH  28  49
ATOM     49  C   UNL A   1      38.783  28.575  29.328  1.00  0.00     0.057 A 
ATOM     50  C   UNL A   1      37.897  28.637  30.415  1.00  0.00     0.134 A 
ATOM     51  C   UNL A   1      38.364  29.226  28.156  1.00  0.00     0.134 A 
ATOM     52  F   UNL A   1      38.223  28.082  31.592  1.00  0.00    -0.206 F 
ATOM     53  C   UNL A   1      36.681  29.331  30.350  1.00  0.00     0.040 A 
ATOM     54  C   UNL A   1      37.149  29.917  28.075  1.00  0.00     0.040 A 
ATOM     55  F   UNL A   1      39.160  29.296  27.080  1.00  0.00    -0.206 F 
ATOM     56  C   UNL A   1      36.310  29.986  29.180  1.00  0.00     0.006 A 
ENDBRANCH  28  49
BRANCH  40  57
ATOM     57  C   UNL A   1      44.143  27.730  32.467  1.00  0.00     0.057 A 
ATOM     58  C   UNL A   1      44.025  26.341  32.317  1.00  0.00     0.134 A 
ATOM     59  C   UNL A   1      44.248  28.222  33.773  1.00  0.00     0.134 A 
ATOM     60  F   UNL A   1      44.019  25.768  31.107  1.00  0.00    -0.206 F 
ATOM     61  C   UNL A   1      43.967  25.486  33.422  1.00  0.00     0.040 A 
ATOM     62  C   UNL A   1      44.228  27.374  34.882  1.00  0.00     0.040 A 
ATOM     63  F   UNL A   1      44.420  29.535  33.990  1.00  0.00    -0.206 F 
ATOM     64  C   UNL A   1      44.076  26.002  34.709  1.00  0.00     0.006 A 
ENDBRANCH  40  57
ENDBRANCH  14  15
ENDBRANCH   7   9
ENDBRANCH   4   5
ENDBRANCH   3   4
ENDBRANCH   2   3
ENDBRANCH   1   2
BRANCH   1  65
ATOM     65  C   UNL A   1      39.213  21.223  25.872  1.00  0.00     0.021 C 
BRANCH  65  66
ATOM     66  C   UNL A   1      38.149  22.262  25.561  1.00  0.00     0.116 C 
BRANCH  66  67
ATOM     67  N   UNL A   1      37.387  21.950  24.382  1.00  0.00    -0.354 N 
ATOM     68  C   UNL A   1      36.450  22.781  23.853  1.00  0.00     0.242 C 
ATOM     69  H   UNL A   1      37.552  21.089  23.933  1.00  0.00     0.163 HD
ATOM     70  O   UNL A   1      36.626  23.150  22.688  1.00  0.00    -0.273 OA
BRANCH  68  71
ATOM     71  C   UNL A   1      35.391  23.433  24.761  1.00  0.00     0.175 C 
ATOM     72  C   UNL A   1      34.382  24.174  23.891  1.00  0.00     0.044 C 
ATOM     73  N   UNL A   1      34.502  22.886  25.805  1.00  0.00    -0.330 N 
ATOM     74  C   UNL A   1      33.430  24.843  24.900  1.00  0.00    -0.006 C 
ATOM     75  C   UNL A   1      33.567  23.963  26.168  1.00  0.00     0.127 C 
ATOM     76  C   UNL A   1      31.988  24.839  24.372  1.00  0.00     0.030 C 
ATOM     77  C   UNL A   1      33.843  26.307  25.145  1.00  0.00     0.030 C 
ATOM     78  C   UNL A   1      31.858  25.682  23.107  1.00  0.00     0.120 C 
ATOM     79  C   UNL A   1      33.658  27.178  23.894  1.00  0.00     0.120 C 
ATOM     80  N   UNL A   1      32.311  27.052  23.327  1.00  0.00    -0.342 N 
ATOM     81  C   UNL A   1      31.720  28.231  22.852  1.00  0.00     0.225 C 
ATOM     82  O   UNL A   1      32.344  29.281  22.845  1.00  0.00    -0.275 OA
BRANCH  73  83
ATOM     83  C   UNL A   1      34.110  21.591  26.087  1.00  0.00     0.225 C 
ATOM     84  O   UNL A   1      33.917  21.220  27.252  1.00  0.00    -0.275 OA
BRANCH  83  85
ATOM     85  C   UNL A   1      33.973  20.547  25.010  1.00  0.00     0.124 C 
BRANCH  85  86
ATOM     86  C   UNL A   1      32.898  19.521  25.333  1.00  0.00     0.154 C 
BRANCH  86  87
ATOM     87  N   UNL A   1      33.299  18.158  25.050  1.00  0.00    -0.272 N 
ATOM     88  C   UNL A   1      34.343  17.760  24.268  1.00  0.00     0.108 A 
ATOM     89  N   UNL A   1      32.614  17.134  25.593  1.00  0.00    -0.182 NA
ATOM     90  C   UNL A   1      34.375  16.387  24.351  1.00  0.00     0.042 A 
ATOM     91  C   UNL A   1      33.284  16.055  25.176  1.00  0.00     0.135 A 
ENDBRANCH  86  87
ENDBRANCH  85  86
ENDBRANCH  83  85
ENDBRANCH  73  83
BRANCH  81  92
ATOM     92  C   UNL A   1      30.295  28.331  22.408  1.00  0.00     0.079 C 
ATOM     93  C   UNL A   1      29.023  28.074  23.162  1.00  0.00     0.014 C 
ATOM     94  C   UNL A   1      29.413  29.487  22.807  1.00  0.00     0.014 C 
ENDBRANCH  81  92
ENDBRANCH  68  71
ENDBRANCH  66  67
ENDBRANCH  65  66
ENDBRANCH   1  65
TORSDOF 18
ENDMDL
MODEL 2
REMARK VINA RESULT:     -11.8      2.577      8.965
REMARK SMILES O=C(NCCCCCCNC(=O)[C@H]1CC2(CCN(C(=O)C3CC3)CC2)CN1C(=O)CCn1cccn1)c1ccc(-c2c3nc(c(-c4c(F)cccc4F)c4ccc([nH]4)c(-c4c(F)cccc4F)c4nc(c(-c5c(F)cccc5F)c5ccc2[nH]5)C=C4)C=C3)cc1
REMARK SMILES IDX 7 1 6 2 5 3 4 4 3 5 1 6 2 7 37 9 38 10 90 11 39 12 89 13
REMARK SMILES IDX 40 14 41 15 42 16 83 17 43 18 88 19 82 20 84 21 44 22 87 23
REMARK SMILES IDX 81 24 80 25 45 27 71 28 54 29 70 30 55 31 58 32 69 33 85 34
REMARK SMILES IDX 56 35 57 36 68 38 86 39 59 40 46 41 47 42 52 43 48 44 49 45
REMARK SMILES IDX 51 46 53 47 50 48 72 49 73 50 78 51 74 52 75 53 77 54 79 55
REMARK SMILES IDX 76 56 60 57 61 58 66 59 62 60 63 61 65 62 67 63 64 64 8 65
REMARK SMILES IDX 9 66 10 67 11 68 12 70 13 71 14 72 27 73 15 74 26 75 16 76
REMARK SMILES IDX 25 77 17 78 24 79 18 80 19 81 20 82 28 83 29 84 30 85 31 86
REMARK SMILES IDX 32 87 33 88 36 89 34 90 35 91 21 92 22 93 23 94
REMARK H PARENT 3 8 84 26 58 37 10 69
REMARK Flexibility Score: inf
ROOT
ATOM      1  C   UNL A   1      35.323  29.417  27.615  1.00  0.00     0.002 C 
ENDROOT
BRANCH   1   2
ATOM      2  C   UNL A   1      35.467  30.941  27.666  1.00  0.00     0.002 C 
BRANCH   2   3
ATOM      3  C   UNL A   1      34.227  31.713  28.128  1.00  0.00     0.021 C 
BRANCH   3   4
ATOM      4  C   UNL A   1      34.523  32.969  28.943  1.00  0.00     0.116 C 
BRANCH   4   5
ATOM      5  N   UNL A   1      34.382  32.794  30.370  1.00  0.00    -0.352 N 
ATOM      6  O   UNL A   1      34.793  32.413  32.509  1.00  0.00    -0.269 OA
ATOM      7  C   UNL A   1      35.195  32.302  31.348  1.00  0.00     0.251 C 
ATOM      8  H   UNL A   1      33.509  33.096  30.709  1.00  0.00     0.163 HD
BRANCH   7   9
ATOM      9  C   UNL A   1      36.476  31.589  31.100  1.00  0.00     0.039 A 
ATOM     10  C   UNL A   1      37.712  32.188  30.851  1.00  0.00     0.014 A 
ATOM     11  C   UNL A   1      36.400  30.184  31.125  1.00  0.00     0.014 A 
ATOM     12  C   UNL A   1      38.826  31.408  30.555  1.00  0.00     0.010 A 
ATOM     13  C   UNL A   1      37.511  29.399  30.849  1.00  0.00     0.010 A 
ATOM     14  C   UNL A   1      38.718  30.015  30.538  1.00  0.00    -0.014 A 
BRANCH  14  15
ATOM     15  C   UNL A   1      39.942  29.236  30.388  1.00  0.00     0.031 A 
ATOM     16  C   UNL A   1      40.701  29.043  31.658  1.00  0.00     0.074 A 
ATOM     17  C   UNL A   1      40.300  28.601  29.254  1.00  0.00     0.049 A 
ATOM     18  N   UNL A   1      41.894  29.451  31.945  1.00  0.00    -0.248 NA
ATOM     19  C   UNL A   1      39.999  28.413  32.788  1.00  0.00     0.031 C 
ATOM     20  C   UNL A   1      39.520  28.436  28.028  1.00  0.00     0.029 A 
ATOM     21  N   UNL A   1      41.426  27.874  29.002  1.00  0.00    -0.354 N 
ATOM     22  C   UNL A   1      42.166  28.975  33.227  1.00  0.00     0.074 A 
ATOM     23  C   UNL A   1      40.922  28.473  33.748  1.00  0.00     0.031 C 
ATOM     24  C   UNL A   1      40.096  27.484  27.258  1.00  0.00     0.029 A 
ATOM     25  C   UNL A   1      41.348  27.070  27.872  1.00  0.00     0.049 A 
ATOM     26  H   UNL A   1      42.227  27.916  29.572  1.00  0.00     0.167 HD
ATOM     27  C   UNL A   1      43.442  28.839  33.682  1.00  0.00     0.037 A 
ATOM     28  C   UNL A   1      42.222  26.099  27.505  1.00  0.00     0.037 A 
ATOM     29  C   UNL A   1      44.369  29.593  32.883  1.00  0.00     0.049 A 
ATOM     30  C   UNL A   1      43.492  26.333  28.232  1.00  0.00     0.074 A 
ATOM     31  C   UNL A   1      44.540  30.928  32.578  1.00  0.00     0.029 A 
ATOM     32  N   UNL A   1      45.125  28.902  31.968  1.00  0.00    -0.354 N 
ATOM     33  N   UNL A   1      44.297  27.329  27.995  1.00  0.00    -0.248 NA
ATOM     34  C   UNL A   1      43.662  25.687  29.524  1.00  0.00     0.031 C 
ATOM     35  C   UNL A   1      44.980  30.943  31.222  1.00  0.00     0.029 A 
ATOM     36  C   UNL A   1      45.103  29.618  30.802  1.00  0.00     0.049 A 
ATOM     37  H   UNL A   1      45.597  28.051  32.123  1.00  0.00     0.167 HD
ATOM     38  C   UNL A   1      44.751  27.716  29.246  1.00  0.00     0.074 A 
ATOM     39  C   UNL A   1      44.409  26.610  30.136  1.00  0.00     0.031 C 
ATOM     40  C   UNL A   1      45.103  29.012  29.493  1.00  0.00     0.037 A 
BRANCH  27  41
ATOM     41  C   UNL A   1      43.908  27.738  34.605  1.00  0.00     0.057 A 
ATOM     42  C   UNL A   1      43.772  26.397  34.197  1.00  0.00     0.134 A 
ATOM     43  C   UNL A   1      44.179  27.921  35.975  1.00  0.00     0.134 A 
ATOM     44  F   UNL A   1      43.502  26.090  32.919  1.00  0.00    -0.206 F 
ATOM     45  C   UNL A   1      43.815  25.328  35.101  1.00  0.00     0.040 A 
ATOM     46  C   UNL A   1      44.275  26.858  36.877  1.00  0.00     0.040 A 
ATOM     47  F   UNL A   1      44.260  29.135  36.534  1.00  0.00    -0.206 F 
ATOM     48  C   UNL A   1      44.056  25.559  36.448  1.00  0.00     0.006 A 
ENDBRANCH  27  41
BRANCH  28  49
ATOM     49  C   UNL A   1      41.966  24.825  26.794  1.00  0.00     0.057 A 
ATOM     50  C   UNL A   1      42.808  24.385  25.761  1.00  0.00     0.134 A 
ATOM     51  C   UNL A   1      41.068  23.871  27.302  1.00  0.00     0.134 A 
ATOM     52  F   UNL A   1      43.729  25.208  25.236  1.00  0.00    -0.206 F 
ATOM     53  C   UNL A   1      42.780  23.068  25.282  1.00  0.00     0.040 A 
ATOM     54  C   UNL A   1      41.025  22.554  26.828  1.00  0.00     0.040 A 
ATOM     55  F   UNL A   1      40.268  24.156  28.339  1.00  0.00    -0.206 F 
ATOM     56  C   UNL A   1      41.895  22.144  25.826  1.00  0.00     0.006 A 
ENDBRANCH  28  49
BRANCH  40  57
ATOM     57  C   UNL A   1      45.259  29.936  28.319  1.00  0.00     0.057 A 
ATOM     58  C   UNL A   1      44.212  30.672  27.748  1.00  0.00     0.134 A 
ATOM     59  C   UNL A   1      46.551  30.199  27.848  1.00  0.00     0.134 A 
ATOM     60  F   UNL A   1      42.956  30.563  28.200  1.00  0.00    -0.206 F 
ATOM     61  C   UNL A   1      44.436  31.595  26.721  1.00  0.00     0.040 A 
ATOM     62  C   UNL A   1      46.792  31.144  26.850  1.00  0.00     0.040 A 
ATOM     63  F   UNL A   1      47.609  29.573  28.388  1.00  0.00    -0.206 F 
ATOM     64  C   UNL A   1      45.732  31.839  26.275  1.00  0.00     0.006 A 
ENDBRANCH  40  57
ENDBRANCH  14  15
ENDBRANCH   7   9
ENDBRANCH   4   5
ENDBRANCH   3   4
ENDBRANCH   2   3
ENDBRANCH   1   2
BRANCH   1  65
ATOM     65  C   UNL A   1      33.905  28.881  27.386  1.00  0.00     0.021 C 
BRANCH  65  66
ATOM     66  C   UNL A   1      33.784  27.788  26.338  1.00  0.00     0.116 C 
BRANCH  66  67
ATOM     67  N   UNL A   1      32.436  27.315  26.172  1.00  0.00    -0.354 N 
ATOM     68  C   UNL A   1      32.128  26.039  25.818  1.00  0.00     0.242 C 
ATOM     69  H   UNL A   1      31.697  27.947  26.325  1.00  0.00     0.163 HD
ATOM     70  O   UNL A   1      31.423  25.397  26.603  1.00  0.00    -0.273 OA
BRANCH  68  71
ATOM     71  C   UNL A   1      32.855  25.363  24.641  1.00  0.00     0.175 C 
ATOM     72  C   UNL A   1      32.518  23.877  24.639  1.00  0.00     0.044 C 
ATOM     73  N   UNL A   1      32.874  25.642  23.192  1.00  0.00    -0.330 N 
ATOM     74  C   UNL A   1      33.354  23.300  23.481  1.00  0.00    -0.006 C 
ATOM     75  C   UNL A   1      33.588  24.522  22.558  1.00  0.00     0.127 C 
ATOM     76  C   UNL A   1      32.581  22.191  22.753  1.00  0.00     0.030 C 
ATOM     77  C   UNL A   1      34.669  22.695  24.011  1.00  0.00     0.030 C 
ATOM     78  C   UNL A   1      32.326  20.999  23.670  1.00  0.00     0.120 C 
ATOM     79  C   UNL A   1      34.424  21.458  24.886  1.00  0.00     0.120 C 
ATOM     80  N   UNL A   1      33.570  20.470  24.220  1.00  0.00    -0.342 N 
ATOM     81  C   UNL A   1      33.921  19.123  24.391  1.00  0.00     0.225 C 
ATOM     82  O   UNL A   1      34.844  18.809  25.127  1.00  0.00    -0.275 OA
BRANCH  73  83
ATOM     83  C   UNL A   1      32.024  26.380  22.390  1.00  0.00     0.225 C 
ATOM     84  O   UNL A   1      31.684  25.974  21.272  1.00  0.00    -0.275 OA
BRANCH  83  85
ATOM     85  C   UNL A   1      31.531  27.745  22.795  1.00  0.00     0.124 C 
BRANCH  85  86
ATOM     86  C   UNL A   1      30.016  27.852  22.736  1.00  0.00     0.154 C 
BRANCH  86  87
ATOM     87  N   UNL A   1      29.540  29.215  22.609  1.00  0.00    -0.272 N 
ATOM     88  C   UNL A   1      29.529  30.170  23.583  1.00  0.00     0.108 A 
ATOM     89  N   UNL A   1      29.052  29.645  21.431  1.00  0.00    -0.182 NA
ATOM     90  C   UNL A   1      29.056  31.314  22.984  1.00  0.00     0.042 A 
ATOM     91  C   UNL A   1      28.772  30.933  21.660  1.00  0.00     0.135 A 
ENDBRANCH  86  87
ENDBRANCH  85  86
ENDBRANCH  83  85
ENDBRANCH  73  83
BRANCH  81  92
ATOM     92  C   UNL A   1      33.281  17.993  23.649  1.00  0.00     0.079 C 
ATOM     93  C   UNL A   1      33.895  16.914  22.806  1.00  0.00     0.014 C 
ATOM     94  C   UNL A   1      33.323  16.575  24.160  1.00  0.00     0.014 C 
ENDBRANCH  81  92
ENDBRANCH  68  71
ENDBRANCH  66  67
ENDBRANCH  65  66
ENDBRANCH   1  65
TORSDOF 18
ENDMDL
MODEL 3
REMARK VINA RESULT:     -11.7      2.240      3.190
REMARK SMILES O=C(NCCCCCCNC(=O)[C@H]1CC2(CCN(C(=O)C3CC3)CC2)CN1C(=O)CCn1cccn1)c1ccc(-c2c3nc(c(-c4c(F)cccc4F)c4ccc([nH]4)c(-c4c(F)cccc4F)c4nc(c(-c5c(F)cccc5F)c5ccc2[nH]5)C=C4)C=C3)cc1
REMARK SMILES IDX 7 1 6 2 5 3 4 4 3 5 1 6 2 7 37 9 38 10 90 11 39 12 89 13
REMARK SMILES IDX 40 14 41 15 42 16 83 17 43 18 88 19 82 20 84 21 44 22 87 23
REMARK SMILES IDX 81 24 80 25 45 27 71 28 54 29 70 30 55 31 58 32 69 33 85 34
REMARK SMILES IDX 56 35 57 36 68 38 86 39 59 40 46 41 47 42 52 43 48 44 49 45
REMARK SMILES IDX 51 46 53 47 50 48 72 49 73 50 78 51 74 52 75 53 77 54 79 55
REMARK SMILES IDX 76 56 60 57 61 58 66 59 62 60 63 61 65 62 67 63 64 64 8 65
REMARK SMILES IDX 9 66 10 67 11 68 12 70 13 71 14 72 27 73 15 74 26 75 16 76
REMARK SMILES IDX 25 77 17 78 24 79 18 80 19 81 20 82 28 83 29 84 30 85 31 86
REMARK SMILES IDX 32 87 33 88 36 89 34 90 35 91 21 92 22 93 23 94
REMARK H PARENT 3 8 84 26 58 37 10 69
REMARK Flexibility Score: inf
ROOT
ATOM      1  C   UNL A   1      37.345  21.452  25.067  1.00  0.00     0.002 C 
ENDROOT
BRANCH   1   2
ATOM      2  C   UNL A   1      38.707  20.993  25.596  1.00  0.00     0.002 C 
BRANCH   2   3
ATOM      3  C   UNL A   1      39.561  22.073  26.268  1.00  0.00     0.021 C 
BRANCH   3   4
ATOM      4  C   UNL A   1      41.021  21.689  26.486  1.00  0.00     0.116 C 
BRANCH   4   5
ATOM      5  N   UNL A   1      41.926  22.217  25.492  1.00  0.00    -0.352 N 
ATOM      6  O   UNL A   1      43.414  23.460  24.429  1.00  0.00    -0.269 OA
ATOM      7  C   UNL A   1      42.622  23.384  25.371  1.00  0.00     0.251 C 
ATOM      8  H   UNL A   1      42.071  21.602  24.738  1.00  0.00     0.163 HD
BRANCH   7   9
ATOM      9  C   UNL A   1      42.434  24.572  26.245  1.00  0.00     0.039 A 
ATOM     10  C   UNL A   1      43.117  24.832  27.434  1.00  0.00     0.014 A 
ATOM     11  C   UNL A   1      41.472  25.500  25.803  1.00  0.00     0.014 A 
ATOM     12  C   UNL A   1      42.792  25.944  28.205  1.00  0.00     0.010 A 
ATOM     13  C   UNL A   1      41.157  26.623  26.557  1.00  0.00     0.010 A 
ATOM     14  C   UNL A   1      41.801  26.828  27.772  1.00  0.00    -0.014 A 
BRANCH  14  15
ATOM     15  C   UNL A   1      41.610  28.064  28.523  1.00  0.00     0.031 A 
ATOM     16  C   UNL A   1      42.672  29.086  28.293  1.00  0.00     0.074 A 
ATOM     17  C   UNL A   1      40.507  28.350  29.242  1.00  0.00     0.049 A 
ATOM     18  N   UNL A   1      43.503  29.581  29.152  1.00  0.00    -0.248 NA
ATOM     19  C   UNL A   1      42.912  29.528  26.910  1.00  0.00     0.031 C 
ATOM     20  C   UNL A   1      39.256  27.593  29.314  1.00  0.00     0.029 A 
ATOM     21  N   UNL A   1      40.241  29.454  29.995  1.00  0.00    -0.354 N 
ATOM     22  C   UNL A   1      44.253  30.532  28.459  1.00  0.00     0.074 A 
ATOM     23  C   UNL A   1      43.947  30.353  27.065  1.00  0.00     0.031 C 
ATOM     24  C   UNL A   1      38.302  28.365  29.883  1.00  0.00     0.029 A 
ATOM     25  C   UNL A   1      38.902  29.611  30.332  1.00  0.00     0.049 A 
ATOM     26  H   UNL A   1      40.940  30.088  30.278  1.00  0.00     0.167 HD
ATOM     27  C   UNL A   1      44.909  31.533  29.107  1.00  0.00     0.037 A 
ATOM     28  C   UNL A   1      38.328  30.709  30.884  1.00  0.00     0.037 A 
ATOM     29  C   UNL A   1      45.059  31.245  30.508  1.00  0.00     0.049 A 
ATOM     30  C   UNL A   1      39.404  31.529  31.490  1.00  0.00     0.074 A 
ATOM     31  C   UNL A   1      45.683  30.258  31.243  1.00  0.00     0.029 A 
ATOM     32  N   UNL A   1      44.210  31.880  31.380  1.00  0.00    -0.354 N 
ATOM     33  N   UNL A   1      40.074  31.186  32.552  1.00  0.00    -0.248 NA
ATOM     34  C   UNL A   1      40.028  32.548  30.660  1.00  0.00     0.031 C 
ATOM     35  C   UNL A   1      44.827  30.037  32.363  1.00  0.00     0.029 A 
ATOM     36  C   UNL A   1      43.767  30.939  32.269  1.00  0.00     0.049 A 
ATOM     37  H   UNL A   1      43.965  32.834  31.368  1.00  0.00     0.167 HD
ATOM     38  C   UNL A   1      41.373  31.596  32.292  1.00  0.00     0.074 A 
ATOM     39  C   UNL A   1      41.264  32.516  31.163  1.00  0.00     0.031 C 
ATOM     40  C   UNL A   1      42.438  30.934  32.831  1.00  0.00     0.037 A 
BRANCH  27  41
ATOM     41  C   UNL A   1      45.082  32.933  28.566  1.00  0.00     0.057 A 
ATOM     42  C   UNL A   1      43.941  33.723  28.332  1.00  0.00     0.134 A 
ATOM     43  C   UNL A   1      46.270  33.407  27.974  1.00  0.00     0.134 A 
ATOM     44  F   UNL A   1      42.745  33.374  28.832  1.00  0.00    -0.206 F 
ATOM     45  C   UNL A   1      43.964  34.850  27.500  1.00  0.00     0.040 A 
ATOM     46  C   UNL A   1      46.314  34.559  27.185  1.00  0.00     0.040 A 
ATOM     47  F   UNL A   1      47.422  32.730  28.039  1.00  0.00    -0.206 F 
ATOM     48  C   UNL A   1      45.153  35.265  26.915  1.00  0.00     0.006 A 
ENDBRANCH  27  41
BRANCH  28  49
ATOM     49  C   UNL A   1      36.962  31.252  30.692  1.00  0.00     0.057 A 
ATOM     50  C   UNL A   1      36.111  31.485  31.783  1.00  0.00     0.134 A 
ATOM     51  C   UNL A   1      36.569  31.828  29.472  1.00  0.00     0.134 A 
ATOM     52  F   UNL A   1      36.419  31.013  33.001  1.00  0.00    -0.206 F 
ATOM     53  C   UNL A   1      34.953  32.268  31.675  1.00  0.00     0.040 A 
ATOM     54  C   UNL A   1      35.412  32.606  29.349  1.00  0.00     0.040 A 
ATOM     55  F   UNL A   1      37.342  31.735  28.382  1.00  0.00    -0.206 F 
ATOM     56  C   UNL A   1      34.608  32.843  30.457  1.00  0.00     0.006 A 
ENDBRANCH  28  49
BRANCH  40  57
ATOM     57  C   UNL A   1      42.170  29.942  33.927  1.00  0.00     0.057 A 
ATOM     58  C   UNL A   1      41.838  28.597  33.711  1.00  0.00     0.134 A 
ATOM     59  C   UNL A   1      42.404  30.334  35.250  1.00  0.00     0.134 A 
ATOM     60  F   UNL A   1      41.694  28.104  32.474  1.00  0.00    -0.206 F 
ATOM     61  C   UNL A   1      41.700  27.695  34.771  1.00  0.00     0.040 A 
ATOM     62  C   UNL A   1      42.305  29.434  36.313  1.00  0.00     0.040 A 
ATOM     63  F   UNL A   1      42.780  31.593  35.527  1.00  0.00    -0.206 F 
ATOM     64  C   UNL A   1      41.942  28.112  36.076  1.00  0.00     0.006 A 
ENDBRANCH  40  57
ENDBRANCH  14  15
ENDBRANCH   7   9
ENDBRANCH   4   5
ENDBRANCH   3   4
ENDBRANCH   2   3
ENDBRANCH   1   2
BRANCH   1  65
ATOM     65  C   UNL A   1      37.084  22.963  25.097  1.00  0.00     0.021 C 
BRANCH  65  66
ATOM     66  C   UNL A   1      36.430  23.535  23.851  1.00  0.00     0.116 C 
BRANCH  66  67
ATOM     67  N   UNL A   1      35.253  22.812  23.451  1.00  0.00    -0.354 N 
ATOM     68  C   UNL A   1      34.063  23.409  23.178  1.00  0.00     0.242 C 
ATOM     69  H   UNL A   1      35.312  21.832  23.371  1.00  0.00     0.163 HD
ATOM     70  O   UNL A   1      33.599  23.233  22.047  1.00  0.00    -0.273 OA
BRANCH  68  71
ATOM     71  C   UNL A   1      33.485  24.463  24.139  1.00  0.00     0.175 C 
ATOM     72  C   UNL A   1      32.248  25.087  23.502  1.00  0.00     0.044 C 
ATOM     73  N   UNL A   1      33.061  24.396  25.551  1.00  0.00    -0.330 N 
ATOM     74  C   UNL A   1      31.809  26.168  24.508  1.00  0.00    -0.006 C 
ATOM     75  C   UNL A   1      32.399  25.675  25.853  1.00  0.00     0.127 C 
ATOM     76  C   UNL A   1      30.277  26.261  24.571  1.00  0.00     0.030 C 
ATOM     77  C   UNL A   1      32.353  27.549  24.091  1.00  0.00     0.030 C 
ATOM     78  C   UNL A   1      29.694  26.720  23.238  1.00  0.00     0.120 C 
ATOM     79  C   UNL A   1      31.725  28.046  22.781  1.00  0.00     0.120 C 
ATOM     80  N   UNL A   1      30.260  27.997  22.816  1.00  0.00    -0.342 N 
ATOM     81  C   UNL A   1      29.584  29.075  22.229  1.00  0.00     0.225 C 
ATOM     82  O   UNL A   1      30.201  29.957  21.651  1.00  0.00    -0.275 OA
BRANCH  73  83
ATOM     83  C   UNL A   1      32.754  23.321  26.365  1.00  0.00     0.225 C 
ATOM     84  O   UNL A   1      32.054  23.462  27.375  1.00  0.00    -0.275 OA
BRANCH  83  85
ATOM     85  C   UNL A   1      33.314  21.945  26.114  1.00  0.00     0.124 C 
BRANCH  85  86
ATOM     86  C   UNL A   1      32.332  21.047  25.380  1.00  0.00     0.154 C 
BRANCH  86  87
ATOM     87  N   UNL A   1      32.901  19.775  24.983  1.00  0.00    -0.272 N 
ATOM     88  C   UNL A   1      34.198  19.532  24.640  1.00  0.00     0.108 A 
ATOM     89  N   UNL A   1      32.120  18.680  24.936  1.00  0.00    -0.182 NA
ATOM     90  C   UNL A   1      34.281  18.179  24.408  1.00  0.00     0.042 A 
ATOM     91  C   UNL A   1      32.970  17.704  24.600  1.00  0.00     0.135 A 
ENDBRANCH  86  87
ENDBRANCH  85  86
ENDBRANCH  83  85
ENDBRANCH  73  83
BRANCH  81  92
ATOM     92  C   UNL A   1      28.106  29.288  22.326  1.00  0.00     0.079 C 
ATOM     93  C   UNL A   1      27.151  28.969  23.438  1.00  0.00     0.014 C 
ATOM     94  C   UNL A   1      27.511  30.404  23.146  1.00  0.00     0.014 C 
ENDBRANCH  81  92
ENDBRANCH  68  71
ENDBRANCH  66  67
ENDBRANCH  65  66
ENDBRANCH   1  65
TORSDOF 18
ENDMDL
