MODEL 1
REMARK VINA RESULT:     -12.2      0.000      0.000
REMARK SMILES C[C@@H](C(=O)NCCCCCCNC(=O)c1ccc(-c2c3nc(c(-c4c(F)cccc4F)c4ccc([nH]4)c(-c4c(F)cccc4F)c4nc(c(-c5c(F)cccc5F)c5ccc2[nH]5)C=C4)C=C3)cc1)c1ccc(-c2ccc3[nH]ccc3c2)cc1
REMARK SMILES IDX 8 1 7 2 6 3 5 4 3 5 4 6 2 8 1 9 69 10 70 11 83 12 71 13
REMARK SMILES IDX 82 14 72 15 73 16 74 17 81 18 75 19 80 20 76 21 79 22 77 23
REMARK SMILES IDX 78 24 9 26 10 27 11 28 12 29 13 30 14 32 15 33 16 34 68 35
REMARK SMILES IDX 17 36 67 37 18 38 19 39 20 40 61 41 21 42 66 43 60 44 62 45
REMARK SMILES IDX 22 46 65 47 59 48 58 49 23 51 49 52 32 53 48 54 33 55 36 56
REMARK SMILES IDX 47 57 63 58 34 59 35 60 46 62 64 63 37 64 24 65 25 66 30 67
REMARK SMILES IDX 26 68 27 69 29 70 31 71 28 72 50 73 51 74 56 75 52 76 53 77
REMARK SMILES IDX 55 78 57 79 54 80 38 81 39 82 44 83 40 84 41 85 43 86 45 87
REMARK SMILES IDX 42 88
REMARK H PARENT 5 7 77 25 12 31 62 50 36 61
REMARK Flexibility Score: inf
ROOT
ATOM      1  C   UNL A   1      36.906  22.543  24.499  1.00  0.00     0.002 C 
ENDROOT
BRANCH   1   2
ATOM      2  C   UNL A   1      35.888  23.026  23.457  1.00  0.00     0.021 C 
BRANCH   2   3
ATOM      3  C   UNL A   1      34.432  22.864  23.897  1.00  0.00     0.116 C 
BRANCH   3   4
ATOM      4  N   UNL A   1      33.636  23.953  23.379  1.00  0.00    -0.356 N 
ATOM      5  C   UNL A   1      32.811  24.820  24.030  1.00  0.00     0.227 C 
ATOM      6  O   UNL A   1      32.092  25.521  23.315  1.00  0.00    -0.274 OA
ATOM      7  H   UNL A   1      33.700  24.090  22.406  1.00  0.00     0.163 HD
BRANCH   5   8
ATOM      8  C   UNL A   1      32.854  24.914  25.564  1.00  0.00     0.105 C 
ATOM      9  C   UNL A   1      31.703  24.175  26.257  1.00  0.00     0.023 C 
BRANCH   8  10
ATOM     10  C   UNL A   1      32.859  26.357  26.055  1.00  0.00    -0.036 A 
ATOM     11  C   UNL A   1      33.985  27.168  25.850  1.00  0.00     0.005 A 
ATOM     12  C   UNL A   1      31.729  26.910  26.671  1.00  0.00     0.005 A 
ATOM     13  C   UNL A   1      33.976  28.504  26.231  1.00  0.00     0.009 A 
ATOM     14  C   UNL A   1      31.720  28.256  27.049  1.00  0.00     0.009 A 
ATOM     15  C   UNL A   1      32.837  29.069  26.816  1.00  0.00    -0.018 A 
BRANCH  15  16
ATOM     16  C   UNL A   1      32.827  30.498  27.118  1.00  0.00    -0.018 A 
ATOM     17  C   UNL A   1      31.733  31.279  26.719  1.00  0.00     0.011 A 
ATOM     18  C   UNL A   1      33.930  31.113  27.735  1.00  0.00     0.019 A 
ATOM     19  C   UNL A   1      31.694  32.658  26.932  1.00  0.00     0.027 A 
ATOM     20  C   UNL A   1      33.936  32.509  27.913  1.00  0.00    -0.000 A 
ATOM     21  C   UNL A   1      32.814  33.242  27.528  1.00  0.00     0.045 A 
ATOM     22  C   UNL A   1      34.897  33.439  28.396  1.00  0.00     0.028 A 
ATOM     23  N   UNL A   1      33.065  34.558  27.839  1.00  0.00    -0.361 N 
ATOM     24  C   UNL A   1      34.342  34.695  28.315  1.00  0.00     0.083 A 
ATOM     25  H   UNL A   1      32.420  35.295  27.734  1.00  0.00     0.166 HD
ENDBRANCH  15  16
ENDBRANCH   8  10
ENDBRANCH   5   8
ENDBRANCH   3   4
ENDBRANCH   2   3
ENDBRANCH   1   2
BRANCH   1  26
ATOM     26  C   UNL A   1      36.602  21.171  25.108  1.00  0.00     0.002 C 
BRANCH  26  27
ATOM     27  C   UNL A   1      37.729  20.147  24.962  1.00  0.00     0.021 C 
BRANCH  27  28
ATOM     28  C   UNL A   1      38.972  20.462  25.788  1.00  0.00     0.116 C 
BRANCH  28  29
ATOM     29  N   UNL A   1      39.893  19.338  25.836  1.00  0.00    -0.352 N 
ATOM     30  C   UNL A   1      41.248  19.332  26.053  1.00  0.00     0.251 C 
ATOM     31  H   UNL A   1      39.485  18.453  25.693  1.00  0.00     0.163 HD
ATOM     32  O   UNL A   1      41.906  18.319  25.851  1.00  0.00    -0.269 OA
BRANCH  30  33
ATOM     33  C   UNL A   1      41.917  20.569  26.507  1.00  0.00     0.039 A 
ATOM     34  C   UNL A   1      42.463  21.431  25.551  1.00  0.00     0.014 A 
ATOM     35  C   UNL A   1      41.981  20.891  27.866  1.00  0.00     0.014 A 
ATOM     36  C   UNL A   1      42.994  22.657  25.954  1.00  0.00     0.010 A 
ATOM     37  C   UNL A   1      42.449  22.142  28.258  1.00  0.00     0.010 A 
ATOM     38  C   UNL A   1      42.942  23.044  27.303  1.00  0.00    -0.014 A 
BRANCH  38  39
ATOM     39  C   UNL A   1      43.334  24.415  27.724  1.00  0.00     0.031 A 
ATOM     40  C   UNL A   1      42.288  25.433  28.081  1.00  0.00     0.074 A 
ATOM     41  C   UNL A   1      44.636  24.763  27.692  1.00  0.00     0.049 A 
ATOM     42  N   UNL A   1      42.439  26.699  28.376  1.00  0.00    -0.248 NA
ATOM     43  C   UNL A   1      40.888  24.979  28.089  1.00  0.00     0.031 C 
ATOM     44  C   UNL A   1      45.739  23.877  27.313  1.00  0.00     0.029 A 
ATOM     45  N   UNL A   1      45.253  25.960  27.961  1.00  0.00    -0.354 N 
ATOM     46  C   UNL A   1      41.160  27.195  28.588  1.00  0.00     0.074 A 
ATOM     47  C   UNL A   1      40.239  26.104  28.356  1.00  0.00     0.031 C 
ATOM     48  C   UNL A   1      46.895  24.558  27.379  1.00  0.00     0.029 A 
ATOM     49  C   UNL A   1      46.613  25.937  27.757  1.00  0.00     0.049 A 
ATOM     50  H   UNL A   1      44.767  26.759  28.271  1.00  0.00     0.167 HD
ATOM     51  C   UNL A   1      40.791  28.446  28.954  1.00  0.00     0.037 A 
ATOM     52  C   UNL A   1      47.527  26.924  27.837  1.00  0.00     0.037 A 
ATOM     53  C   UNL A   1      41.715  29.519  29.212  1.00  0.00     0.049 A 
ATOM     54  C   UNL A   1      47.081  28.308  28.223  1.00  0.00     0.074 A 
ATOM     55  C   UNL A   1      41.440  30.792  29.684  1.00  0.00     0.029 A 
ATOM     56  N   UNL A   1      43.084  29.455  29.006  1.00  0.00    -0.354 N 
ATOM     57  N   UNL A   1      45.877  28.734  28.524  1.00  0.00    -0.248 NA
ATOM     58  C   UNL A   1      48.116  29.350  28.277  1.00  0.00     0.031 C 
ATOM     59  C   UNL A   1      42.634  31.518  29.700  1.00  0.00     0.029 A 
ATOM     60  C   UNL A   1      43.660  30.682  29.293  1.00  0.00     0.049 A 
ATOM     61  H   UNL A   1      43.574  28.657  28.702  1.00  0.00     0.167 HD
ATOM     62  C   UNL A   1      46.015  30.084  28.820  1.00  0.00     0.074 A 
ATOM     63  C   UNL A   1      47.421  30.401  28.689  1.00  0.00     0.031 C 
ATOM     64  C   UNL A   1      45.061  30.984  29.160  1.00  0.00     0.037 A 
BRANCH  51  65
ATOM     65  C   UNL A   1      39.329  28.742  29.099  1.00  0.00     0.057 A 
ATOM     66  C   UNL A   1      38.661  28.600  30.321  1.00  0.00     0.134 A 
ATOM     67  C   UNL A   1      38.604  29.275  28.024  1.00  0.00     0.134 A 
ATOM     68  F   UNL A   1      39.296  28.089  31.387  1.00  0.00    -0.206 F 
ATOM     69  C   UNL A   1      37.324  28.973  30.470  1.00  0.00     0.040 A 
ATOM     70  C   UNL A   1      37.274  29.676  28.167  1.00  0.00     0.040 A 
ATOM     71  F   UNL A   1      39.186  29.444  26.827  1.00  0.00    -0.206 F 
ATOM     72  C   UNL A   1      36.631  29.524  29.394  1.00  0.00     0.006 A 
ENDBRANCH  51  65
BRANCH  52  73
ATOM     73  C   UNL A   1      48.953  26.657  27.513  1.00  0.00     0.057 A 
ATOM     74  C   UNL A   1      49.461  26.876  26.228  1.00  0.00     0.134 A 
ATOM     75  C   UNL A   1      49.831  26.128  28.469  1.00  0.00     0.134 A 
ATOM     76  F   UNL A   1      48.667  27.362  25.262  1.00  0.00    -0.206 F 
ATOM     77  C   UNL A   1      50.776  26.548  25.893  1.00  0.00     0.040 A 
ATOM     78  C   UNL A   1      51.158  25.825  28.157  1.00  0.00     0.040 A 
ATOM     79  F   UNL A   1      49.412  25.900  29.722  1.00  0.00    -0.206 F 
ATOM     80  C   UNL A   1      51.629  26.023  26.862  1.00  0.00     0.006 A 
ENDBRANCH  52  73
BRANCH  64  81
ATOM     81  C   UNL A   1      45.505  32.392  29.426  1.00  0.00     0.057 A 
ATOM     82  C   UNL A   1      45.505  33.365  28.418  1.00  0.00     0.134 A 
ATOM     83  C   UNL A   1      45.883  32.793  30.713  1.00  0.00     0.134 A 
ATOM     84  F   UNL A   1      45.167  33.042  27.161  1.00  0.00    -0.206 F 
ATOM     85  C   UNL A   1      45.883  34.683  28.678  1.00  0.00     0.040 A 
ATOM     86  C   UNL A   1      46.234  34.114  30.991  1.00  0.00     0.040 A 
ATOM     87  F   UNL A   1      45.896  31.913  31.725  1.00  0.00    -0.206 F 
ATOM     88  C   UNL A   1      46.239  35.062  29.971  1.00  0.00     0.006 A 
ENDBRANCH  64  81
ENDBRANCH  38  39
ENDBRANCH  30  33
ENDBRANCH  28  29
ENDBRANCH  27  28
ENDBRANCH  26  27
ENDBRANCH   1  26
TORSDOF 15
ENDMDL
MODEL 2
REMARK VINA RESULT:     -12.1      2.190      5.563
REMARK SMILES C[C@@H](C(=O)NCCCCCCNC(=O)c1ccc(-c2c3nc(c(-c4c(F)cccc4F)c4ccc([nH]4)c(-c4c(F)cccc4F)c4nc(c(-c5c(F)cccc5F)c5ccc2[nH]5)C=C4)C=C3)cc1)c1ccc(-c2ccc3[nH]ccc3c2)cc1
REMARK SMILES IDX 8 1 7 2 6 3 5 4 3 5 4 6 2 8 1 9 69 10 70 11 83 12 71 13
REMARK SMILES IDX 82 14 72 15 73 16 74 17 81 18 75 19 80 20 76 21 79 22 77 23
REMARK SMILES IDX 78 24 9 26 10 27 11 28 12 29 13 30 14 32 15 33 16 34 68 35
REMARK SMILES IDX 17 36 67 37 18 38 19 39 20 40 61 41 21 42 66 43 60 44 62 45
REMARK SMILES IDX 22 46 65 47 59 48 58 49 23 51 49 52 32 53 48 54 33 55 36 56
REMARK SMILES IDX 47 57 63 58 34 59 35 60 46 62 64 63 37 64 24 65 25 66 30 67
REMARK SMILES IDX 26 68 27 69 29 70 31 71 28 72 50 73 51 74 56 75 52 76 53 77
REMARK SMILES IDX 55 78 57 79 54 80 38 81 39 82 44 83 40 84 41 85 43 86 45 87
REMARK SMILES IDX 42 88
REMARK H PARENT 5 7 77 25 12 31 62 50 36 61
REMARK Flexibility Score: inf
ROOT
ATOM      1  C   UNL A   1      35.393  22.894  25.477  1.00  0.00     0.002 C 
ENDROOT
BRANCH   1   2
ATOM      2  C   UNL A   1      35.364  24.344  24.972  1.00  0.00     0.021 C 
BRANCH   2   3
ATOM      3  C   UNL A   1      34.312  25.215  25.662  1.00  0.00     0.116 C 
BRANCH   3   4
ATOM      4  N   UNL A   1      33.947  26.319  24.805  1.00  0.00    -0.356 N 
ATOM      5  C   UNL A   1      32.765  26.592  24.185  1.00  0.00     0.227 C 
ATOM      6  O   UNL A   1      32.792  27.492  23.343  1.00  0.00    -0.274 OA
ATOM      7  H   UNL A   1      34.663  26.976  24.644  1.00  0.00     0.163 HD
BRANCH   5   8
ATOM      8  C   UNL A   1      31.493  25.828  24.590  1.00  0.00     0.105 C 
ATOM      9  C   UNL A   1      31.040  26.111  26.027  1.00  0.00     0.023 C 
BRANCH   8  10
ATOM     10  C   UNL A   1      31.646  24.321  24.425  1.00  0.00    -0.036 A 
ATOM     11  C   UNL A   1      32.088  23.786  23.206  1.00  0.00     0.005 A 
ATOM     12  C   UNL A   1      31.398  23.453  25.496  1.00  0.00     0.005 A 
ATOM     13  C   UNL A   1      32.297  22.420  23.065  1.00  0.00     0.009 A 
ATOM     14  C   UNL A   1      31.614  22.079  25.353  1.00  0.00     0.009 A 
ATOM     15  C   UNL A   1      32.083  21.553  24.142  1.00  0.00    -0.018 A 
BRANCH  15  16
ATOM     16  C   UNL A   1      32.402  20.136  23.990  1.00  0.00    -0.018 A 
ATOM     17  C   UNL A   1      32.283  19.534  22.728  1.00  0.00     0.011 A 
ATOM     18  C   UNL A   1      32.753  19.351  25.102  1.00  0.00     0.019 A 
ATOM     19  C   UNL A   1      32.521  18.172  22.535  1.00  0.00     0.027 A 
ATOM     20  C   UNL A   1      32.947  17.967  24.940  1.00  0.00    -0.000 A 
ATOM     21  C   UNL A   1      32.848  17.416  23.663  1.00  0.00     0.045 A 
ATOM     22  C   UNL A   1      33.207  16.895  25.837  1.00  0.00     0.028 A 
ATOM     23  N   UNL A   1      33.112  16.072  23.780  1.00  0.00    -0.361 N 
ATOM     24  C   UNL A   1      33.278  15.737  25.098  1.00  0.00     0.083 A 
ATOM     25  H   UNL A   1      33.172  15.441  23.026  1.00  0.00     0.166 HD
ENDBRANCH  15  16
ENDBRANCH   8  10
ENDBRANCH   5   8
ENDBRANCH   3   4
ENDBRANCH   2   3
ENDBRANCH   1   2
BRANCH   1  26
ATOM     26  C   UNL A   1      35.900  21.869  24.458  1.00  0.00     0.002 C 
BRANCH  26  27
ATOM     27  C   UNL A   1      36.709  20.719  25.061  1.00  0.00     0.021 C 
BRANCH  27  28
ATOM     28  C   UNL A   1      38.155  21.077  25.389  1.00  0.00     0.116 C 
BRANCH  28  29
ATOM     29  N   UNL A   1      38.999  19.897  25.486  1.00  0.00    -0.352 N 
ATOM     30  C   UNL A   1      40.311  19.794  25.875  1.00  0.00     0.251 C 
ATOM     31  H   UNL A   1      38.565  19.047  25.236  1.00  0.00     0.163 HD
ATOM     32  O   UNL A   1      40.934  18.755  25.696  1.00  0.00    -0.269 OA
BRANCH  30  33
ATOM     33  C   UNL A   1      40.981  20.961  26.486  1.00  0.00     0.039 A 
ATOM     34  C   UNL A   1      41.598  21.898  25.654  1.00  0.00     0.014 A 
ATOM     35  C   UNL A   1      40.975  21.143  27.872  1.00  0.00     0.014 A 
ATOM     36  C   UNL A   1      42.133  23.063  26.207  1.00  0.00     0.010 A 
ATOM     37  C   UNL A   1      41.448  22.335  28.414  1.00  0.00     0.010 A 
ATOM     38  C   UNL A   1      42.014  23.315  27.584  1.00  0.00    -0.014 A 
BRANCH  38  39
ATOM     39  C   UNL A   1      42.412  24.625  28.161  1.00  0.00     0.031 A 
ATOM     40  C   UNL A   1      41.390  25.704  28.385  1.00  0.00     0.074 A 
ATOM     41  C   UNL A   1      43.717  24.868  28.396  1.00  0.00     0.049 A 
ATOM     42  N   UNL A   1      41.569  26.936  28.788  1.00  0.00    -0.248 NA
ATOM     43  C   UNL A   1      39.986  25.364  28.100  1.00  0.00     0.031 C 
ATOM     44  C   UNL A   1      44.809  23.917  28.171  1.00  0.00     0.029 A 
ATOM     45  N   UNL A   1      44.352  25.996  28.856  1.00  0.00    -0.354 N 
ATOM     46  C   UNL A   1      40.311  27.522  28.789  1.00  0.00     0.074 A 
ATOM     47  C   UNL A   1      39.377  26.522  28.316  1.00  0.00     0.031 C 
ATOM     48  C   UNL A   1      45.974  24.498  28.498  1.00  0.00     0.029 A 
ATOM     49  C   UNL A   1      45.721  25.874  28.909  1.00  0.00     0.049 A 
ATOM     50  H   UNL A   1      43.873  26.813  29.123  1.00  0.00     0.167 HD
ATOM     51  C   UNL A   1      39.966  28.777  29.163  1.00  0.00     0.037 A 
ATOM     52  C   UNL A   1      46.669  26.778  29.224  1.00  0.00     0.037 A 
ATOM     53  C   UNL A   1      40.895  29.757  29.661  1.00  0.00     0.049 A 
ATOM     54  C   UNL A   1      46.254  28.171  29.612  1.00  0.00     0.074 A 
ATOM     55  C   UNL A   1      40.624  31.020  30.158  1.00  0.00     0.029 A 
ATOM     56  N   UNL A   1      42.270  29.594  29.711  1.00  0.00    -0.354 N 
ATOM     57  N   UNL A   1      45.048  28.676  29.711  1.00  0.00    -0.248 NA
ATOM     58  C   UNL A   1      47.329  29.122  29.929  1.00  0.00     0.031 C 
ATOM     59  C   UNL A   1      41.839  31.647  30.446  1.00  0.00     0.029 A 
ATOM     60  C   UNL A   1      42.864  30.753  30.182  1.00  0.00     0.049 A 
ATOM     61  H   UNL A   1      42.753  28.776  29.450  1.00  0.00     0.167 HD
ATOM     62  C   UNL A   1      45.219  29.993  30.118  1.00  0.00     0.074 A 
ATOM     63  C   UNL A   1      46.643  30.202  30.274  1.00  0.00     0.031 C 
ATOM     64  C   UNL A   1      44.283  30.947  30.334  1.00  0.00     0.037 A 
BRANCH  51  65
ATOM     65  C   UNL A   1      38.527  29.181  29.052  1.00  0.00     0.057 A 
ATOM     66  C   UNL A   1      37.661  29.152  30.152  1.00  0.00     0.134 A 
ATOM     67  C   UNL A   1      38.029  29.706  27.851  1.00  0.00     0.134 A 
ATOM     68  F   UNL A   1      38.073  28.656  31.328  1.00  0.00    -0.206 F 
ATOM     69  C   UNL A   1      36.351  29.625  30.063  1.00  0.00     0.040 A 
ATOM     70  C   UNL A   1      36.729  30.206  27.755  1.00  0.00     0.040 A 
ATOM     71  F   UNL A   1      38.808  29.770  26.761  1.00  0.00    -0.206 F 
ATOM     72  C   UNL A   1      35.886  30.165  28.864  1.00  0.00     0.006 A 
ENDBRANCH  51  65
BRANCH  52  73
ATOM     73  C   UNL A   1      48.109  26.415  29.155  1.00  0.00     0.057 A 
ATOM     74  C   UNL A   1      48.852  26.603  27.985  1.00  0.00     0.134 A 
ATOM     75  C   UNL A   1      48.764  25.822  30.243  1.00  0.00     0.134 A 
ATOM     76  F   UNL A   1      48.278  27.147  26.901  1.00  0.00    -0.206 F 
ATOM     77  C   UNL A   1      50.181  26.187  27.884  1.00  0.00     0.040 A 
ATOM     78  C   UNL A   1      50.102  25.430  30.168  1.00  0.00     0.040 A 
ATOM     79  F   UNL A   1      48.113  25.619  31.398  1.00  0.00    -0.206 F 
ATOM     80  C   UNL A   1      50.810  25.600  28.981  1.00  0.00     0.006 A 
ENDBRANCH  52  73
BRANCH  64  81
ATOM     81  C   UNL A   1      44.763  32.299  30.772  1.00  0.00     0.057 A 
ATOM     82  C   UNL A   1      44.971  32.603  32.123  1.00  0.00     0.134 A 
ATOM     83  C   UNL A   1      45.072  33.290  29.831  1.00  0.00     0.134 A 
ATOM     84  F   UNL A   1      44.681  31.703  33.075  1.00  0.00    -0.206 F 
ATOM     85  C   UNL A   1      45.454  33.849  32.524  1.00  0.00     0.040 A 
ATOM     86  C   UNL A   1      45.583  34.529  30.218  1.00  0.00     0.040 A 
ATOM     87  F   UNL A   1      44.904  33.061  28.520  1.00  0.00    -0.206 F 
ATOM     88  C   UNL A   1      45.770  34.813  31.569  1.00  0.00     0.006 A 
ENDBRANCH  64  81
ENDBRANCH  38  39
ENDBRANCH  30  33
ENDBRANCH  28  29
ENDBRANCH  27  28
ENDBRANCH  26  27
ENDBRANCH   1  26
TORSDOF 15
ENDMDL
MODEL 3
REMARK VINA RESULT:     -12.0      4.543     10.786
REMARK SMILES C[C@@H](C(=O)NCCCCCCNC(=O)c1ccc(-c2c3nc(c(-c4c(F)cccc4F)c4ccc([nH]4)c(-c4c(F)cccc4F)c4nc(c(-c5c(F)cccc5F)c5ccc2[nH]5)C=C4)C=C3)cc1)c1ccc(-c2ccc3[nH]ccc3c2)cc1
REMARK SMILES IDX 8 1 7 2 6 3 5 4 3 5 4 6 2 8 1 9 69 10 70 11 83 12 71 13
REMARK SMILES IDX 82 14 72 15 73 16 74 17 81 18 75 19 80 20 76 21 79 22 77 23
REMARK SMILES IDX 78 24 9 26 10 27 11 28 12 29 13 30 14 32 15 33 16 34 68 35
REMARK SMILES IDX 17 36 67 37 18 38 19 39 20 40 61 41 21 42 66 43 60 44 62 45
REMARK SMILES IDX 22 46 65 47 59 48 58 49 23 51 49 52 32 53 48 54 33 55 36 56
REMARK SMILES IDX 47 57 63 58 34 59 35 60 46 62 64 63 37 64 24 65 25 66 30 67
REMARK SMILES IDX 26 68 27 69 29 70 31 71 28 72 50 73 51 74 56 75 52 76 53 77
REMARK SMILES IDX 55 78 57 79 54 80 38 81 39 82 44 83 40 84 41 85 43 86 45 87
REMARK SMILES IDX 42 88
REMARK H PARENT 5 7 77 25 12 31 62 50 36 61
REMARK Flexibility Score: inf
ROOT
ATOM      1  C   UNL A   1      32.018  29.326  27.250  1.00  0.00     0.002 C 
ENDROOT
BRANCH   1   2
ATOM      2  C   UNL A   1      31.482  27.941  26.860  1.00  0.00     0.021 C 
BRANCH   2   3
ATOM      3  C   UNL A   1      32.211  27.311  25.672  1.00  0.00     0.116 C 
BRANCH   3   4
ATOM      4  N   UNL A   1      31.764  25.949  25.485  1.00  0.00    -0.356 N 
ATOM      5  C   UNL A   1      32.189  25.003  24.603  1.00  0.00     0.227 C 
ATOM      6  O   UNL A   1      31.492  23.991  24.519  1.00  0.00    -0.274 OA
ATOM      7  H   UNL A   1      31.040  25.662  26.087  1.00  0.00     0.163 HD
BRANCH   5   8
ATOM      8  C   UNL A   1      33.500  25.213  23.825  1.00  0.00     0.105 C 
ATOM      9  C   UNL A   1      33.337  25.089  22.306  1.00  0.00     0.023 C 
BRANCH   8  10
ATOM     10  C   UNL A   1      34.596  24.253  24.269  1.00  0.00    -0.036 A 
ATOM     11  C   UNL A   1      35.206  23.399  23.337  1.00  0.00     0.005 A 
ATOM     12  C   UNL A   1      35.046  24.240  25.595  1.00  0.00     0.005 A 
ATOM     13  C   UNL A   1      36.253  22.569  23.716  1.00  0.00     0.009 A 
ATOM     14  C   UNL A   1      36.104  23.407  25.972  1.00  0.00     0.009 A 
ATOM     15  C   UNL A   1      36.728  22.577  25.032  1.00  0.00    -0.018 A 
BRANCH  15  16
ATOM     16  C   UNL A   1      37.891  21.762  25.374  1.00  0.00    -0.018 A 
ATOM     17  C   UNL A   1      37.915  20.408  25.011  1.00  0.00     0.011 A 
ATOM     18  C   UNL A   1      38.951  22.298  26.127  1.00  0.00     0.019 A 
ATOM     19  C   UNL A   1      38.974  19.569  25.361  1.00  0.00     0.027 A 
ATOM     20  C   UNL A   1      40.004  21.458  26.534  1.00  0.00    -0.000 A 
ATOM     21  C   UNL A   1      40.002  20.125  26.126  1.00  0.00     0.045 A 
ATOM     22  C   UNL A   1      41.149  21.639  27.358  1.00  0.00     0.028 A 
ATOM     23  N   UNL A   1      41.144  19.546  26.626  1.00  0.00    -0.361 N 
ATOM     24  C   UNL A   1      41.818  20.438  27.417  1.00  0.00     0.083 A 
ATOM     25  H   UNL A   1      41.435  18.623  26.443  1.00  0.00     0.166 HD
ENDBRANCH  15  16
ENDBRANCH   8  10
ENDBRANCH   5   8
ENDBRANCH   3   4
ENDBRANCH   2   3
ENDBRANCH   1   2
BRANCH   1  26
ATOM     26  C   UNL A   1      31.862  30.403  26.172  1.00  0.00     0.002 C 
BRANCH  26  27
ATOM     27  C   UNL A   1      31.548  31.800  26.711  1.00  0.00     0.021 C 
BRANCH  27  28
ATOM     28  C   UNL A   1      32.744  32.514  27.331  1.00  0.00     0.116 C 
BRANCH  28  29
ATOM     29  N   UNL A   1      32.465  33.917  27.592  1.00  0.00    -0.352 N 
ATOM     30  C   UNL A   1      33.027  34.759  28.520  1.00  0.00     0.251 C 
ATOM     31  H   UNL A   1      31.772  34.322  27.021  1.00  0.00     0.163 HD
ATOM     32  O   UNL A   1      32.528  35.853  28.751  1.00  0.00    -0.269 OA
BRANCH  30  33
ATOM     33  C   UNL A   1      34.228  34.322  29.264  1.00  0.00     0.039 A 
ATOM     34  C   UNL A   1      34.065  33.723  30.516  1.00  0.00     0.014 A 
ATOM     35  C   UNL A   1      35.504  34.478  28.716  1.00  0.00     0.014 A 
ATOM     36  C   UNL A   1      35.177  33.202  31.178  1.00  0.00     0.010 A 
ATOM     37  C   UNL A   1      36.601  33.898  29.346  1.00  0.00     0.010 A 
ATOM     38  C   UNL A   1      36.445  33.237  30.574  1.00  0.00    -0.014 A 
BRANCH  38  39
ATOM     39  C   UNL A   1      37.603  32.528  31.178  1.00  0.00     0.031 A 
ATOM     40  C   UNL A   1      38.247  31.371  30.467  1.00  0.00     0.074 A 
ATOM     41  C   UNL A   1      38.011  32.875  32.415  1.00  0.00     0.049 A 
ATOM     42  N   UNL A   1      39.201  30.577  30.883  1.00  0.00    -0.248 NA
ATOM     43  C   UNL A   1      37.743  31.050  29.121  1.00  0.00     0.031 C 
ATOM     44  C   UNL A   1      37.431  33.947  33.228  1.00  0.00     0.029 A 
ATOM     45  N   UNL A   1      38.994  32.350  33.218  1.00  0.00    -0.354 N 
ATOM     46  C   UNL A   1      39.400  29.656  29.864  1.00  0.00     0.074 A 
ATOM     47  C   UNL A   1      38.447  29.967  28.820  1.00  0.00     0.031 C 
ATOM     48  C   UNL A   1      38.071  34.004  34.407  1.00  0.00     0.029 A 
ATOM     49  C   UNL A   1      39.071  32.944  34.455  1.00  0.00     0.049 A 
ATOM     50  H   UNL A   1      39.587  31.616  32.934  1.00  0.00     0.167 HD
ATOM     51  C   UNL A   1      40.304  28.650  29.802  1.00  0.00     0.037 A 
ATOM     52  C   UNL A   1      39.841  32.651  35.521  1.00  0.00     0.037 A 
ATOM     53  C   UNL A   1      41.269  28.365  30.831  1.00  0.00     0.049 A 
ATOM     54  C   UNL A   1      40.820  31.512  35.428  1.00  0.00     0.074 A 
ATOM     55  C   UNL A   1      42.291  27.431  30.813  1.00  0.00     0.029 A 
ATOM     56  N   UNL A   1      41.325  28.996  32.063  1.00  0.00    -0.354 N 
ATOM     57  N   UNL A   1      41.069  30.718  34.414  1.00  0.00    -0.248 NA
ATOM     58  C   UNL A   1      41.622  31.224  36.626  1.00  0.00     0.031 C 
ATOM     59  C   UNL A   1      42.921  27.450  32.060  1.00  0.00     0.029 A 
ATOM     60  C   UNL A   1      42.331  28.435  32.833  1.00  0.00     0.049 A 
ATOM     61  H   UNL A   1      40.738  29.733  32.349  1.00  0.00     0.167 HD
ATOM     62  C   UNL A   1      42.065  29.852  34.846  1.00  0.00     0.074 A 
ATOM     63  C   UNL A   1      42.395  30.234  36.202  1.00  0.00     0.031 C 
ATOM     64  C   UNL A   1      42.649  28.826  34.182  1.00  0.00     0.037 A 
BRANCH  51  65
ATOM     65  C   UNL A   1      40.306  27.770  28.588  1.00  0.00     0.057 A 
ATOM     66  C   UNL A   1      41.054  28.082  27.447  1.00  0.00     0.134 A 
ATOM     67  C   UNL A   1      39.632  26.541  28.604  1.00  0.00     0.134 A 
ATOM     68  F   UNL A   1      41.716  29.245  27.365  1.00  0.00    -0.206 F 
ATOM     69  C   UNL A   1      41.129  27.207  26.362  1.00  0.00     0.040 A 
ATOM     70  C   UNL A   1      39.719  25.646  27.536  1.00  0.00     0.040 A 
ATOM     71  F   UNL A   1      38.903  26.177  29.670  1.00  0.00    -0.206 F 
ATOM     72  C   UNL A   1      40.469  25.979  26.410  1.00  0.00     0.006 A 
ENDBRANCH  51  65
BRANCH  52  73
ATOM     73  C   UNL A   1      39.702  33.420  36.786  1.00  0.00     0.057 A 
ATOM     74  C   UNL A   1      38.771  33.051  37.764  1.00  0.00     0.134 A 
ATOM     75  C   UNL A   1      40.461  34.574  37.025  1.00  0.00     0.134 A 
ATOM     76  F   UNL A   1      38.000  31.968  37.586  1.00  0.00    -0.206 F 
ATOM     77  C   UNL A   1      38.574  33.816  38.915  1.00  0.00     0.040 A 
ATOM     78  C   UNL A   1      40.297  35.331  38.187  1.00  0.00     0.040 A 
ATOM     79  F   UNL A   1      41.376  34.980  36.133  1.00  0.00    -0.206 F 
ATOM     80  C   UNL A   1      39.342  34.959  39.129  1.00  0.00     0.006 A 
ENDBRANCH  52  73
BRANCH  64  81
ATOM     81  C   UNL A   1      43.711  28.050  34.905  1.00  0.00     0.057 A 
ATOM     82  C   UNL A   1      43.430  26.832  35.536  1.00  0.00     0.134 A 
ATOM     83  C   UNL A   1      45.037  28.499  34.926  1.00  0.00     0.134 A 
ATOM     84  F   UNL A   1      42.176  26.354  35.565  1.00  0.00    -0.206 F 
ATOM     85  C   UNL A   1      44.427  26.096  36.176  1.00  0.00     0.040 A 
ATOM     86  C   UNL A   1      46.048  27.757  35.537  1.00  0.00     0.040 A 
ATOM     87  F   UNL A   1      45.376  29.653  34.333  1.00  0.00    -0.206 F 
ATOM     88  C   UNL A   1      45.743  26.553  36.169  1.00  0.00     0.006 A 
ENDBRANCH  64  81
ENDBRANCH  38  39
ENDBRANCH  30  33
ENDBRANCH  28  29
ENDBRANCH  27  28
ENDBRANCH  26  27
ENDBRANCH   1  26
TORSDOF 15
ENDMDL
