MODEL 1
REMARK VINA RESULT:     -12.8      0.000      0.000
REMARK SMILES CCC(=O)N1CCC[C@](C[C@H]2CC(c3ccc(C)cc3)=NO2)(C(=O)NCCCCCCNC(=O)c2ccc(-c3c4nc(c(-c5c(F)cccc5F)c5ccc([nH]5)c(-c5c(F)cccc5F)c5nc(c(-c6c(F)cccc6F)c6ccc3[nH]6)C=C5)C=C4)cc2)C1
REMARK SMILES IDX 28 1 27 2 26 3 25 4 23 5 24 6 9 8 5 9 6 10 89 11 7 12 8 13
REMARK SMILES IDX 3 14 4 15 2 16 1 17 10 18 11 19 12 20 22 21 13 22 21 23
REMARK SMILES IDX 14 24 15 25 20 26 16 27 19 28 17 29 18 30 29 31 30 32 31 33
REMARK SMILES IDX 32 34 33 35 34 37 35 38 36 39 88 40 37 41 87 42 38 43 39 44
REMARK SMILES IDX 40 45 81 46 41 47 86 48 80 49 82 50 42 51 85 52 79 53 78 54
REMARK SMILES IDX 43 56 69 57 52 58 68 59 53 60 56 61 67 62 83 63 54 64 55 65
REMARK SMILES IDX 66 67 84 68 57 69 44 70 45 71 50 72 46 73 47 74 49 75 51 76
REMARK SMILES IDX 48 77 70 78 71 79 76 80 72 81 73 82 75 83 77 84 74 85 58 86
REMARK SMILES IDX 59 87 64 88 60 89 61 90 63 91 65 92 62 93
REMARK H PARENT 25 7 32 36 82 55 56 66
REMARK Flexibility Score: inf
ROOT
ATOM      1  C   UNL A   1      31.299  27.367  26.407  1.00  0.00     0.002 C 
ENDROOT
BRANCH   1   2
ATOM      2  C   UNL A   1      32.340  26.252  26.533  1.00  0.00     0.021 C 
BRANCH   2   3
ATOM      3  C   UNL A   1      31.858  24.851  26.172  1.00  0.00     0.116 C 
BRANCH   3   4
ATOM      4  N   UNL A   1      32.718  23.797  26.676  1.00  0.00    -0.356 N 
ATOM      5  C   UNL A   1      33.973  23.394  26.332  1.00  0.00     0.228 C 
ATOM      6  O   UNL A   1      34.663  23.078  27.309  1.00  0.00    -0.274 OA
ATOM      7  H   UNL A   1      32.318  23.271  27.406  1.00  0.00     0.163 HD
BRANCH   5   8
ATOM      8  C   UNL A   1      34.514  23.236  24.865  1.00  0.00     0.070 C 
ATOM      9  N   UNL A   1      33.873  20.797  24.622  1.00  0.00    -0.342 N 
ATOM     10  C   UNL A   1      35.264  20.355  24.659  1.00  0.00     0.119 C 
ATOM     11  C   UNL A   1      33.647  22.165  24.146  1.00  0.00     0.136 C 
ATOM     12  C   UNL A   1      36.155  21.302  25.438  1.00  0.00     0.023 C 
ATOM     13  C   UNL A   1      35.982  22.741  24.949  1.00  0.00     0.021 C 
BRANCH   9  14
ATOM     14  C   UNL A   1      32.901  19.838  24.866  1.00  0.00     0.222 C 
ATOM     15  O   UNL A   1      31.812  20.138  25.367  1.00  0.00    -0.275 OA
BRANCH  14  16
ATOM     16  C   UNL A   1      33.245  18.362  24.713  1.00  0.00     0.097 C 
ATOM     17  C   UNL A   1      32.595  17.364  25.647  1.00  0.00     0.014 C 
ENDBRANCH  14  16
ENDBRANCH   9  14
BRANCH   8  18
ATOM     18  C   UNL A   1      34.430  24.606  24.128  1.00  0.00     0.067 C 
BRANCH  18  19
ATOM     19  C   UNL A   1      33.522  24.937  22.936  1.00  0.00     0.211 C 
ATOM     20  C   UNL A   1      32.089  25.333  23.183  1.00  0.00     0.108 C 
ATOM     21  O   UNL A   1      34.118  25.952  22.124  1.00  0.00    -0.392 OA
ATOM     22  C   UNL A   1      32.143  26.712  22.636  1.00  0.00     0.091 C 
ATOM     23  N   UNL A   1      33.236  27.043  22.033  1.00  0.00    -0.090 NA
BRANCH  22  24
ATOM     24  C   UNL A   1      30.986  27.601  22.728  1.00  0.00    -0.001 A 
ATOM     25  C   UNL A   1      31.102  28.949  22.392  1.00  0.00     0.010 A 
ATOM     26  C   UNL A   1      29.767  27.067  23.147  1.00  0.00     0.010 A 
ATOM     27  C   UNL A   1      29.981  29.773  22.477  1.00  0.00     0.004 A 
ATOM     28  C   UNL A   1      28.656  27.900  23.253  1.00  0.00     0.004 A 
ATOM     29  C   UNL A   1      28.752  29.256  22.911  1.00  0.00    -0.051 A 
ATOM     30  C   UNL A   1      27.549  30.143  23.035  1.00  0.00     0.044 C 
ENDBRANCH  22  24
ENDBRANCH  18  19
ENDBRANCH   8  18
ENDBRANCH   5   8
ENDBRANCH   3   4
ENDBRANCH   2   3
ENDBRANCH   1   2
BRANCH   1  31
ATOM     31  C   UNL A   1      31.822  28.794  26.161  1.00  0.00     0.002 C 
BRANCH  31  32
ATOM     32  C   UNL A   1      32.439  29.534  27.352  1.00  0.00     0.021 C 
BRANCH  32  33
ATOM     33  C   UNL A   1      33.668  30.367  27.021  1.00  0.00     0.116 C 
BRANCH  33  34
ATOM     34  N   UNL A   1      34.069  31.295  28.068  1.00  0.00    -0.352 N 
ATOM     35  C   UNL A   1      35.136  31.217  28.955  1.00  0.00     0.251 C 
ATOM     36  H   UNL A   1      33.502  32.094  28.160  1.00  0.00     0.163 HD
ATOM     37  O   UNL A   1      35.297  32.070  29.793  1.00  0.00    -0.269 OA
BRANCH  35  38
ATOM     38  C   UNL A   1      36.149  30.147  28.766  1.00  0.00     0.039 A 
ATOM     39  C   UNL A   1      36.477  29.362  29.880  1.00  0.00     0.014 A 
ATOM     40  C   UNL A   1      36.910  30.049  27.600  1.00  0.00     0.014 A 
ATOM     41  C   UNL A   1      37.698  28.696  29.914  1.00  0.00     0.010 A 
ATOM     42  C   UNL A   1      38.163  29.466  27.662  1.00  0.00     0.010 A 
ATOM     43  C   UNL A   1      38.581  28.855  28.847  1.00  0.00    -0.014 A 
BRANCH  43  44
ATOM     44  C   UNL A   1      40.003  28.544  28.953  1.00  0.00     0.031 A 
ATOM     45  C   UNL A   1      40.549  27.283  28.421  1.00  0.00     0.074 A 
ATOM     46  C   UNL A   1      40.836  29.439  29.528  1.00  0.00     0.049 A 
ATOM     47  N   UNL A   1      41.575  26.677  28.918  1.00  0.00    -0.248 NA
ATOM     48  C   UNL A   1      39.955  26.585  27.288  1.00  0.00     0.031 C 
ATOM     49  C   UNL A   1      42.296  29.411  29.535  1.00  0.00     0.029 A 
ATOM     50  N   UNL A   1      40.500  30.463  30.423  1.00  0.00    -0.354 N 
ATOM     51  C   UNL A   1      41.939  25.686  28.038  1.00  0.00     0.074 A 
ATOM     52  C   UNL A   1      40.861  25.625  27.075  1.00  0.00     0.031 C 
ATOM     53  C   UNL A   1      42.736  30.148  30.567  1.00  0.00     0.029 A 
ATOM     54  C   UNL A   1      41.572  30.559  31.334  1.00  0.00     0.049 A 
ATOM     55  H   UNL A   1      39.679  31.007  30.418  1.00  0.00     0.167 HD
ATOM     56  C   UNL A   1      43.177  25.118  28.128  1.00  0.00     0.037 A 
ATOM     57  C   UNL A   1      41.400  30.350  32.670  1.00  0.00     0.037 A 
ATOM     58  C   UNL A   1      43.955  25.700  29.217  1.00  0.00     0.049 A 
ATOM     59  C   UNL A   1      42.255  29.240  33.233  1.00  0.00     0.074 A 
ATOM     60  C   UNL A   1      44.913  26.702  29.238  1.00  0.00     0.029 A 
ATOM     61  N   UNL A   1      43.587  25.480  30.538  1.00  0.00    -0.354 N 
ATOM     62  N   UNL A   1      42.802  28.306  32.508  1.00  0.00    -0.248 NA
ATOM     63  C   UNL A   1      42.529  29.074  34.657  1.00  0.00     0.031 C 
ATOM     64  C   UNL A   1      45.105  27.104  30.580  1.00  0.00     0.029 A 
ATOM     65  C   UNL A   1      44.270  26.340  31.377  1.00  0.00     0.049 A 
ATOM     66  H   UNL A   1      42.931  24.807  30.835  1.00  0.00     0.167 HD
ATOM     67  C   UNL A   1      43.455  27.416  33.324  1.00  0.00     0.074 A 
ATOM     68  C   UNL A   1      43.277  27.956  34.657  1.00  0.00     0.031 C 
ATOM     69  C   UNL A   1      44.072  26.306  32.818  1.00  0.00     0.037 A 
BRANCH  56  70
ATOM     70  C   UNL A   1      43.779  24.284  27.022  1.00  0.00     0.057 A 
ATOM     71  C   UNL A   1      44.478  24.877  25.952  1.00  0.00     0.134 A 
ATOM     72  C   UNL A   1      43.658  22.887  26.932  1.00  0.00     0.134 A 
ATOM     73  F   UNL A   1      44.794  26.178  25.947  1.00  0.00    -0.206 F 
ATOM     74  C   UNL A   1      44.888  24.163  24.820  1.00  0.00     0.040 A 
ATOM     75  C   UNL A   1      44.016  22.166  25.782  1.00  0.00     0.040 A 
ATOM     76  F   UNL A   1      43.221  22.159  27.969  1.00  0.00    -0.206 F 
ATOM     77  C   UNL A   1      44.616  22.809  24.710  1.00  0.00     0.006 A 
ENDBRANCH  56  70
BRANCH  57  78
ATOM     78  C   UNL A   1      40.042  30.701  33.158  1.00  0.00     0.057 A 
ATOM     79  C   UNL A   1      39.708  32.057  33.310  1.00  0.00     0.134 A 
ATOM     80  C   UNL A   1      38.989  29.783  33.122  1.00  0.00     0.134 A 
ATOM     81  F   UNL A   1      40.674  32.989  33.347  1.00  0.00    -0.206 F 
ATOM     82  C   UNL A   1      38.381  32.494  33.317  1.00  0.00     0.040 A 
ATOM     83  C   UNL A   1      37.656  30.208  33.140  1.00  0.00     0.040 A 
ATOM     84  F   UNL A   1      39.227  28.475  32.956  1.00  0.00    -0.206 F 
ATOM     85  C   UNL A   1      37.350  31.569  33.199  1.00  0.00     0.006 A 
ENDBRANCH  57  78
BRANCH  69  86
ATOM     86  C   UNL A   1      44.635  25.141  33.601  1.00  0.00     0.057 A 
ATOM     87  C   UNL A   1      45.991  24.784  33.635  1.00  0.00     0.134 A 
ATOM     88  C   UNL A   1      43.808  24.408  34.485  1.00  0.00     0.134 A 
ATOM     89  F   UNL A   1      46.914  25.460  32.941  1.00  0.00    -0.206 F 
ATOM     90  C   UNL A   1      46.477  23.743  34.440  1.00  0.00     0.040 A 
ATOM     91  C   UNL A   1      44.291  23.406  35.333  1.00  0.00     0.040 A 
ATOM     92  F   UNL A   1      42.492  24.647  34.587  1.00  0.00    -0.206 F 
ATOM     93  C   UNL A   1      45.630  23.059  35.302  1.00  0.00     0.006 A 
ENDBRANCH  69  86
ENDBRANCH  43  44
ENDBRANCH  35  38
ENDBRANCH  33  34
ENDBRANCH  32  33
ENDBRANCH  31  32
ENDBRANCH   1  31
TORSDOF 18
ENDMDL
MODEL 2
REMARK VINA RESULT:     -12.6      2.450      5.685
REMARK SMILES CCC(=O)N1CCC[C@](C[C@H]2CC(c3ccc(C)cc3)=NO2)(C(=O)NCCCCCCNC(=O)c2ccc(-c3c4nc(c(-c5c(F)cccc5F)c5ccc([nH]5)c(-c5c(F)cccc5F)c5nc(c(-c6c(F)cccc6F)c6ccc3[nH]6)C=C5)C=C4)cc2)C1
REMARK SMILES IDX 28 1 27 2 26 3 25 4 23 5 24 6 9 8 5 9 6 10 89 11 7 12 8 13
REMARK SMILES IDX 3 14 4 15 2 16 1 17 10 18 11 19 12 20 22 21 13 22 21 23
REMARK SMILES IDX 14 24 15 25 20 26 16 27 19 28 17 29 18 30 29 31 30 32 31 33
REMARK SMILES IDX 32 34 33 35 34 37 35 38 36 39 88 40 37 41 87 42 38 43 39 44
REMARK SMILES IDX 40 45 81 46 41 47 86 48 80 49 82 50 42 51 85 52 79 53 78 54
REMARK SMILES IDX 43 56 69 57 52 58 68 59 53 60 56 61 67 62 83 63 54 64 55 65
REMARK SMILES IDX 66 67 84 68 57 69 44 70 45 71 50 72 46 73 47 74 49 75 51 76
REMARK SMILES IDX 48 77 70 78 71 79 76 80 72 81 73 82 75 83 77 84 74 85 58 86
REMARK SMILES IDX 59 87 64 88 60 89 61 90 63 91 65 92 62 93
REMARK H PARENT 25 7 32 36 82 55 56 66
REMARK Flexibility Score: inf
ROOT
ATOM      1  C   UNL A   1      34.603  30.310  27.984  1.00  0.00     0.002 C 
ENDROOT
BRANCH   1   2
ATOM      2  C   UNL A   1      34.230  29.883  26.562  1.00  0.00     0.021 C 
BRANCH   2   3
ATOM      3  C   UNL A   1      32.790  30.154  26.143  1.00  0.00     0.116 C 
BRANCH   3   4
ATOM      4  N   UNL A   1      31.834  29.233  26.730  1.00  0.00    -0.356 N 
ATOM      5  C   UNL A   1      31.799  27.874  26.807  1.00  0.00     0.228 C 
ATOM      6  O   UNL A   1      31.378  27.463  27.894  1.00  0.00    -0.274 OA
ATOM      7  H   UNL A   1      31.063  29.676  27.153  1.00  0.00     0.163 HD
BRANCH   5   8
ATOM      8  C   UNL A   1      32.152  26.881  25.640  1.00  0.00     0.070 C 
ATOM      9  N   UNL A   1      30.442  27.793  24.008  1.00  0.00    -0.342 N 
ATOM     10  C   UNL A   1      29.605  26.601  24.111  1.00  0.00     0.119 C 
ATOM     11  C   UNL A   1      31.867  27.603  24.293  1.00  0.00     0.136 C 
ATOM     12  C   UNL A   1      29.752  25.900  25.447  1.00  0.00     0.023 C 
ATOM     13  C   UNL A   1      31.225  25.644  25.770  1.00  0.00     0.021 C 
BRANCH   9  14
ATOM     14  C   UNL A   1      29.851  28.934  23.487  1.00  0.00     0.222 C 
ATOM     15  O   UNL A   1      30.164  30.061  23.885  1.00  0.00    -0.275 OA
BRANCH  14  16
ATOM     16  C   UNL A   1      28.650  28.803  22.558  1.00  0.00     0.097 C 
ATOM     17  C   UNL A   1      27.266  29.041  23.122  1.00  0.00     0.014 C 
ENDBRANCH  14  16
ENDBRANCH   9  14
BRANCH   8  18
ATOM     18  C   UNL A   1      33.650  26.467  25.743  1.00  0.00     0.067 C 
BRANCH  18  19
ATOM     19  C   UNL A   1      34.389  25.507  24.802  1.00  0.00     0.211 C 
ATOM     20  C   UNL A   1      34.626  24.082  25.232  1.00  0.00     0.108 C 
ATOM     21  O   UNL A   1      33.750  25.473  23.523  1.00  0.00    -0.392 OA
ATOM     22  C   UNL A   1      33.832  23.399  24.180  1.00  0.00     0.091 C 
ATOM     23  N   UNL A   1      33.378  24.148  23.232  1.00  0.00    -0.090 NA
BRANCH  22  24
ATOM     24  C   UNL A   1      33.648  21.948  24.203  1.00  0.00    -0.001 A 
ATOM     25  C   UNL A   1      32.525  21.368  23.614  1.00  0.00     0.010 A 
ATOM     26  C   UNL A   1      34.626  21.162  24.814  1.00  0.00     0.010 A 
ATOM     27  C   UNL A   1      32.379  19.983  23.639  1.00  0.00     0.004 A 
ATOM     28  C   UNL A   1      34.463  19.780  24.856  1.00  0.00     0.004 A 
ATOM     29  C   UNL A   1      33.344  19.179  24.262  1.00  0.00    -0.051 A 
ATOM     30  C   UNL A   1      33.179  17.690  24.320  1.00  0.00     0.044 C 
ENDBRANCH  22  24
ENDBRANCH  18  19
ENDBRANCH   8  18
ENDBRANCH   5   8
ENDBRANCH   3   4
ENDBRANCH   2   3
ENDBRANCH   1   2
BRANCH   1  31
ATOM     31  C   UNL A   1      34.994  31.784  28.196  1.00  0.00     0.002 C 
BRANCH  31  32
ATOM     32  C   UNL A   1      34.786  32.375  29.594  1.00  0.00     0.021 C 
BRANCH  32  33
ATOM     33  C   UNL A   1      34.538  33.876  29.624  1.00  0.00     0.116 C 
BRANCH  33  34
ATOM     34  N   UNL A   1      33.728  34.332  30.743  1.00  0.00    -0.352 N 
ATOM     35  C   UNL A   1      34.004  34.297  32.105  1.00  0.00     0.251 C 
ATOM     36  H   UNL A   1      32.857  34.721  30.501  1.00  0.00     0.163 HD
ATOM     37  O   UNL A   1      33.190  34.690  32.904  1.00  0.00    -0.269 OA
BRANCH  35  38
ATOM     38  C   UNL A   1      35.365  33.902  32.551  1.00  0.00     0.039 A 
ATOM     39  C   UNL A   1      36.439  34.702  32.140  1.00  0.00     0.014 A 
ATOM     40  C   UNL A   1      35.611  32.676  33.172  1.00  0.00     0.014 A 
ATOM     41  C   UNL A   1      37.722  34.166  32.108  1.00  0.00     0.010 A 
ATOM     42  C   UNL A   1      36.866  32.104  33.057  1.00  0.00     0.010 A 
ATOM     43  C   UNL A   1      37.900  32.828  32.457  1.00  0.00    -0.014 A 
BRANCH  43  44
ATOM     44  C   UNL A   1      39.091  32.072  32.084  1.00  0.00     0.031 A 
ATOM     45  C   UNL A   1      39.003  30.895  31.201  1.00  0.00     0.074 A 
ATOM     46  C   UNL A   1      40.300  32.472  32.538  1.00  0.00     0.049 A 
ATOM     47  N   UNL A   1      39.809  29.889  31.260  1.00  0.00    -0.248 NA
ATOM     48  C   UNL A   1      37.965  30.749  30.188  1.00  0.00     0.031 C 
ATOM     49  C   UNL A   1      41.610  31.989  32.111  1.00  0.00     0.029 A 
ATOM     50  N   UNL A   1      40.568  33.269  33.658  1.00  0.00    -0.354 N 
ATOM     51  C   UNL A   1      39.582  29.108  30.152  1.00  0.00     0.074 A 
ATOM     52  C   UNL A   1      38.380  29.649  29.552  1.00  0.00     0.031 C 
ATOM     53  C   UNL A   1      42.501  32.245  33.081  1.00  0.00     0.029 A 
ATOM     54  C   UNL A   1      41.766  32.777  34.216  1.00  0.00     0.049 A 
ATOM     55  H   UNL A   1      40.028  34.023  33.990  1.00  0.00     0.167 HD
ATOM     56  C   UNL A   1      40.507  28.180  29.773  1.00  0.00     0.037 A 
ATOM     57  C   UNL A   1      41.816  32.281  35.484  1.00  0.00     0.037 A 
ATOM     58  C   UNL A   1      41.658  28.174  30.670  1.00  0.00     0.049 A 
ATOM     59  C   UNL A   1      42.294  30.852  35.566  1.00  0.00     0.074 A 
ATOM     60  C   UNL A   1      42.902  28.782  30.585  1.00  0.00     0.029 A 
ATOM     61  N   UNL A   1      41.524  27.734  31.981  1.00  0.00    -0.354 N 
ATOM     62  N   UNL A   1      42.287  30.025  34.559  1.00  0.00    -0.248 NA
ATOM     63  C   UNL A   1      42.782  30.232  36.795  1.00  0.00     0.031 C 
ATOM     64  C   UNL A   1      43.509  28.728  31.860  1.00  0.00     0.029 A 
ATOM     65  C   UNL A   1      42.640  28.078  32.720  1.00  0.00     0.049 A 
ATOM     66  H   UNL A   1      40.745  27.246  32.333  1.00  0.00     0.167 HD
ATOM     67  C   UNL A   1      42.718  28.790  34.978  1.00  0.00     0.074 A 
ATOM     68  C   UNL A   1      43.042  28.980  36.378  1.00  0.00     0.031 C 
ATOM     69  C   UNL A   1      42.755  27.723  34.126  1.00  0.00     0.037 A 
BRANCH  56  70
ATOM     70  C   UNL A   1      40.506  27.529  28.409  1.00  0.00     0.057 A 
ATOM     71  C   UNL A   1      39.892  26.279  28.194  1.00  0.00     0.134 A 
ATOM     72  C   UNL A   1      41.141  28.066  27.277  1.00  0.00     0.134 A 
ATOM     73  F   UNL A   1      39.135  25.691  29.129  1.00  0.00    -0.206 F 
ATOM     74  C   UNL A   1      40.026  25.559  27.001  1.00  0.00     0.040 A 
ATOM     75  C   UNL A   1      41.329  27.336  26.094  1.00  0.00     0.040 A 
ATOM     76  F   UNL A   1      41.574  29.334  27.259  1.00  0.00    -0.206 F 
ATOM     77  C   UNL A   1      40.787  26.066  25.960  1.00  0.00     0.006 A 
ENDBRANCH  56  70
BRANCH  57  78
ATOM     78  C   UNL A   1      40.824  32.894  36.403  1.00  0.00     0.057 A 
ATOM     79  C   UNL A   1      41.136  34.120  37.015  1.00  0.00     0.134 A 
ATOM     80  C   UNL A   1      39.482  32.504  36.401  1.00  0.00     0.134 A 
ATOM     81  F   UNL A   1      42.406  34.554  37.046  1.00  0.00    -0.206 F 
ATOM     82  C   UNL A   1      40.145  34.973  37.507  1.00  0.00     0.040 A 
ATOM     83  C   UNL A   1      38.481  33.345  36.902  1.00  0.00     0.040 A 
ATOM     84  F   UNL A   1      39.103  31.360  35.816  1.00  0.00    -0.206 F 
ATOM     85  C   UNL A   1      38.808  34.599  37.421  1.00  0.00     0.006 A 
ENDBRANCH  57  78
BRANCH  69  86
ATOM     86  C   UNL A   1      42.995  26.274  34.490  1.00  0.00     0.057 A 
ATOM     87  C   UNL A   1      42.044  25.432  35.083  1.00  0.00     0.134 A 
ATOM     88  C   UNL A   1      44.196  25.631  34.106  1.00  0.00     0.134 A 
ATOM     89  F   UNL A   1      40.817  25.868  35.397  1.00  0.00    -0.206 F 
ATOM     90  C   UNL A   1      42.287  24.073  35.329  1.00  0.00     0.040 A 
ATOM     91  C   UNL A   1      44.428  24.265  34.296  1.00  0.00     0.040 A 
ATOM     92  F   UNL A   1      45.195  26.295  33.505  1.00  0.00    -0.206 F 
ATOM     93  C   UNL A   1      43.476  23.481  34.923  1.00  0.00     0.006 A 
ENDBRANCH  69  86
ENDBRANCH  43  44
ENDBRANCH  35  38
ENDBRANCH  33  34
ENDBRANCH  32  33
ENDBRANCH  31  32
ENDBRANCH   1  31
TORSDOF 18
ENDMDL
MODEL 3
REMARK VINA RESULT:     -12.6      3.422      9.278
REMARK SMILES CCC(=O)N1CCC[C@](C[C@H]2CC(c3ccc(C)cc3)=NO2)(C(=O)NCCCCCCNC(=O)c2ccc(-c3c4nc(c(-c5c(F)cccc5F)c5ccc([nH]5)c(-c5c(F)cccc5F)c5nc(c(-c6c(F)cccc6F)c6ccc3[nH]6)C=C5)C=C4)cc2)C1
REMARK SMILES IDX 28 1 27 2 26 3 25 4 23 5 24 6 9 8 5 9 6 10 89 11 7 12 8 13
REMARK SMILES IDX 3 14 4 15 2 16 1 17 10 18 11 19 12 20 22 21 13 22 21 23
REMARK SMILES IDX 14 24 15 25 20 26 16 27 19 28 17 29 18 30 29 31 30 32 31 33
REMARK SMILES IDX 32 34 33 35 34 37 35 38 36 39 88 40 37 41 87 42 38 43 39 44
REMARK SMILES IDX 40 45 81 46 41 47 86 48 80 49 82 50 42 51 85 52 79 53 78 54
REMARK SMILES IDX 43 56 69 57 52 58 68 59 53 60 56 61 67 62 83 63 54 64 55 65
REMARK SMILES IDX 66 67 84 68 57 69 44 70 45 71 50 72 46 73 47 74 49 75 51 76
REMARK SMILES IDX 48 77 70 78 71 79 76 80 72 81 73 82 75 83 77 84 74 85 58 86
REMARK SMILES IDX 59 87 64 88 60 89 61 90 63 91 65 92 62 93
REMARK H PARENT 25 7 32 36 82 55 56 66
REMARK Flexibility Score: inf
ROOT
ATOM      1  C   UNL A   1      35.856  23.666  24.243  1.00  0.00     0.002 C 
ENDROOT
BRANCH   1   2
ATOM      2  C   UNL A   1      35.083  24.721  25.040  1.00  0.00     0.021 C 
BRANCH   2   3
ATOM      3  C   UNL A   1      33.988  24.188  25.957  1.00  0.00     0.116 C 
BRANCH   3   4
ATOM      4  N   UNL A   1      32.906  25.131  26.172  1.00  0.00    -0.356 N 
ATOM      5  C   UNL A   1      31.644  25.212  25.665  1.00  0.00     0.228 C 
ATOM      6  O   UNL A   1      30.808  25.564  26.505  1.00  0.00    -0.274 OA
ATOM      7  H   UNL A   1      33.126  25.851  26.807  1.00  0.00     0.163 HD
BRANCH   5   8
ATOM      8  C   UNL A   1      31.246  24.984  24.162  1.00  0.00     0.070 C 
ATOM      9  N   UNL A   1      32.323  27.105  23.292  1.00  0.00    -0.342 N 
ATOM     10  C   UNL A   1      31.033  27.736  23.027  1.00  0.00     0.119 C 
ATOM     11  C   UNL A   1      32.338  25.640  23.271  1.00  0.00     0.136 C 
ATOM     12  C   UNL A   1      29.935  27.218  23.936  1.00  0.00     0.023 C 
ATOM     13  C   UNL A   1      29.886  25.690  23.917  1.00  0.00     0.021 C 
BRANCH   9  14
ATOM     14  C   UNL A   1      33.429  27.940  23.360  1.00  0.00     0.222 C 
ATOM     15  O   UNL A   1      34.029  28.297  22.341  1.00  0.00    -0.275 OA
BRANCH  14  16
ATOM     16  C   UNL A   1      34.047  28.262  24.714  1.00  0.00     0.097 C 
ATOM     17  C   UNL A   1      33.151  28.784  25.817  1.00  0.00     0.014 C 
ENDBRANCH  14  16
ENDBRANCH   9  14
BRANCH   8  18
ATOM     18  C   UNL A   1      31.139  23.456  23.876  1.00  0.00     0.067 C 
BRANCH  18  19
ATOM     19  C   UNL A   1      32.274  22.546  23.390  1.00  0.00     0.211 C 
ATOM     20  C   UNL A   1      32.807  21.472  24.303  1.00  0.00     0.108 C 
ATOM     21  O   UNL A   1      31.918  21.924  22.152  1.00  0.00    -0.392 OA
ATOM     22  C   UNL A   1      32.441  20.287  23.488  1.00  0.00     0.091 C 
ATOM     23  N   UNL A   1      31.984  20.527  22.305  1.00  0.00    -0.090 NA
BRANCH  22  24
ATOM     24  C   UNL A   1      32.660  18.932  23.995  1.00  0.00    -0.001 A 
ATOM     25  C   UNL A   1      32.543  18.659  25.357  1.00  0.00     0.010 A 
ATOM     26  C   UNL A   1      32.975  17.923  23.083  1.00  0.00     0.010 A 
ATOM     27  C   UNL A   1      32.746  17.357  25.812  1.00  0.00     0.004 A 
ATOM     28  C   UNL A   1      33.198  16.629  23.547  1.00  0.00     0.004 A 
ATOM     29  C   UNL A   1      33.078  16.335  24.912  1.00  0.00    -0.051 A 
ATOM     30  C   UNL A   1      33.328  14.938  25.398  1.00  0.00     0.044 C 
ENDBRANCH  22  24
ENDBRANCH  18  19
ENDBRANCH   8  18
ENDBRANCH   5   8
ENDBRANCH   3   4
ENDBRANCH   2   3
ENDBRANCH   1   2
BRANCH   1  31
ATOM     31  C   UNL A   1      36.900  22.832  25.008  1.00  0.00     0.002 C 
BRANCH  31  32
ATOM     32  C   UNL A   1      38.174  23.547  25.469  1.00  0.00     0.021 C 
BRANCH  32  33
ATOM     33  C   UNL A   1      38.944  22.835  26.571  1.00  0.00     0.116 C 
BRANCH  33  34
ATOM     34  N   UNL A   1      40.374  23.102  26.579  1.00  0.00    -0.352 N 
ATOM     35  C   UNL A   1      41.045  24.307  26.747  1.00  0.00     0.251 C 
ATOM     36  H   UNL A   1      40.949  22.315  26.445  1.00  0.00     0.163 HD
ATOM     37  O   UNL A   1      42.250  24.349  26.686  1.00  0.00    -0.269 OA
BRANCH  35  38
ATOM     38  C   UNL A   1      40.270  25.512  27.141  1.00  0.00     0.039 A 
ATOM     39  C   UNL A   1      40.514  26.698  26.436  1.00  0.00     0.014 A 
ATOM     40  C   UNL A   1      39.488  25.539  28.297  1.00  0.00     0.014 A 
ATOM     41  C   UNL A   1      40.206  27.921  27.024  1.00  0.00     0.010 A 
ATOM     42  C   UNL A   1      39.262  26.750  28.927  1.00  0.00     0.010 A 
ATOM     43  C   UNL A   1      39.690  27.934  28.319  1.00  0.00    -0.014 A 
BRANCH  43  44
ATOM     44  C   UNL A   1      39.710  29.127  29.158  1.00  0.00     0.031 A 
ATOM     45  C   UNL A   1      38.659  30.154  29.049  1.00  0.00     0.074 A 
ATOM     46  C   UNL A   1      40.696  29.281  30.069  1.00  0.00     0.049 A 
ATOM     47  N   UNL A   1      38.851  31.408  29.285  1.00  0.00    -0.248 NA
ATOM     48  C   UNL A   1      37.297  29.844  28.630  1.00  0.00     0.031 C 
ATOM     49  C   UNL A   1      40.771  30.279  31.133  1.00  0.00     0.029 A 
ATOM     50  N   UNL A   1      41.958  28.673  30.069  1.00  0.00    -0.354 N 
ATOM     51  C   UNL A   1      37.620  32.019  29.319  1.00  0.00     0.074 A 
ATOM     52  C   UNL A   1      36.691  31.017  28.839  1.00  0.00     0.031 C 
ATOM     53  C   UNL A   1      42.055  30.426  31.495  1.00  0.00     0.029 A 
ATOM     54  C   UNL A   1      42.858  29.629  30.584  1.00  0.00     0.049 A 
ATOM     55  H   UNL A   1      42.175  27.760  29.769  1.00  0.00     0.167 HD
ATOM     56  C   UNL A   1      37.489  33.254  29.884  1.00  0.00     0.037 A 
ATOM     57  C   UNL A   1      43.906  30.097  29.849  1.00  0.00     0.037 A 
ATOM     58  C   UNL A   1      38.764  33.750  30.389  1.00  0.00     0.049 A 
ATOM     59  C   UNL A   1      43.898  31.594  29.652  1.00  0.00     0.074 A 
ATOM     60  C   UNL A   1      39.329  33.732  31.655  1.00  0.00     0.029 A 
ATOM     61  N   UNL A   1      39.784  34.089  29.508  1.00  0.00    -0.354 N 
ATOM     62  N   UNL A   1      42.840  32.340  29.797  1.00  0.00    -0.248 NA
ATOM     63  C   UNL A   1      45.071  32.360  29.240  1.00  0.00     0.031 C 
ATOM     64  C   UNL A   1      40.703  34.039  31.532  1.00  0.00     0.029 A 
ATOM     65  C   UNL A   1      40.974  34.253  30.192  1.00  0.00     0.049 A 
ATOM     66  H   UNL A   1      39.675  34.196  28.535  1.00  0.00     0.167 HD
ATOM     67  C   UNL A   1      43.149  33.639  29.481  1.00  0.00     0.074 A 
ATOM     68  C   UNL A   1      44.563  33.604  29.165  1.00  0.00     0.031 C 
ATOM     69  C   UNL A   1      42.199  34.621  29.498  1.00  0.00     0.037 A 
BRANCH  56  70
ATOM     70  C   UNL A   1      36.151  33.844  30.265  1.00  0.00     0.057 A 
ATOM     71  C   UNL A   1      35.249  34.310  29.288  1.00  0.00     0.134 A 
ATOM     72  C   UNL A   1      35.717  34.026  31.589  1.00  0.00     0.134 A 
ATOM     73  F   UNL A   1      35.448  34.098  27.981  1.00  0.00    -0.206 F 
ATOM     74  C   UNL A   1      34.089  35.028  29.603  1.00  0.00     0.040 A 
ATOM     75  C   UNL A   1      34.586  34.788  31.920  1.00  0.00     0.040 A 
ATOM     76  F   UNL A   1      36.352  33.443  32.615  1.00  0.00    -0.206 F 
ATOM     77  C   UNL A   1      33.777  35.311  30.923  1.00  0.00     0.006 A 
ENDBRANCH  56  70
BRANCH  57  78
ATOM     78  C   UNL A   1      44.426  29.117  28.862  1.00  0.00     0.057 A 
ATOM     79  C   UNL A   1      43.990  29.204  27.529  1.00  0.00     0.134 A 
ATOM     80  C   UNL A   1      45.578  28.366  29.110  1.00  0.00     0.134 A 
ATOM     81  F   UNL A   1      42.892  29.914  27.225  1.00  0.00    -0.206 F 
ATOM     82  C   UNL A   1      44.725  28.658  26.474  1.00  0.00     0.040 A 
ATOM     83  C   UNL A   1      46.317  27.805  28.062  1.00  0.00     0.040 A 
ATOM     84  F   UNL A   1      46.069  28.257  30.352  1.00  0.00    -0.206 F 
ATOM     85  C   UNL A   1      45.912  27.983  26.738  1.00  0.00     0.006 A 
ENDBRANCH  57  78
BRANCH  69  86
ATOM     86  C   UNL A   1      42.338  36.033  28.973  1.00  0.00     0.057 A 
ATOM     87  C   UNL A   1      43.073  37.049  29.601  1.00  0.00     0.134 A 
ATOM     88  C   UNL A   1      41.829  36.374  27.697  1.00  0.00     0.134 A 
ATOM     89  F   UNL A   1      43.713  36.842  30.759  1.00  0.00    -0.206 F 
ATOM     90  C   UNL A   1      43.240  38.321  29.033  1.00  0.00     0.040 A 
ATOM     91  C   UNL A   1      42.036  37.620  27.097  1.00  0.00     0.040 A 
ATOM     92  F   UNL A   1      41.125  35.503  26.959  1.00  0.00    -0.206 F 
ATOM     93  C   UNL A   1      42.733  38.607  27.773  1.00  0.00     0.006 A 
ENDBRANCH  69  86
ENDBRANCH  43  44
ENDBRANCH  35  38
ENDBRANCH  33  34
ENDBRANCH  32  33
ENDBRANCH  31  32
ENDBRANCH   1  31
TORSDOF 18
ENDMDL
