MODEL 1
REMARK VINA RESULT:     -12.6      0.000      0.000
REMARK SMILES O=C(NCCCCCCNC(=O)c1nn(Cc2ccc(F)cc2)c2c1CN(C(=O)[C@H]1CC1(F)F)CC2)c1ccc(-c2c3nc(c(-c4c(F)cccc4F)c4ccc([nH]4)c(-c4c(F)cccc4F)c4nc(c(-c5c(F)cccc5F)c5ccc2[nH]5)C=C4)C=C3)cc1
REMARK SMILES IDX 6 1 5 2 4 3 3 4 1 5 2 6 37 8 38 9 90 10 39 11 89 12 40 13
REMARK SMILES IDX 41 14 42 15 83 16 43 17 88 18 82 19 84 20 44 21 87 22 81 23
REMARK SMILES IDX 80 24 45 26 71 27 54 28 70 29 55 30 58 31 69 32 85 33 56 34
REMARK SMILES IDX 57 35 68 37 86 38 59 39 46 40 47 41 52 42 48 43 49 44 51 45
REMARK SMILES IDX 53 46 50 47 72 48 73 49 78 50 74 51 75 52 77 53 79 54 76 55
REMARK SMILES IDX 60 56 61 57 66 58 62 59 63 60 65 61 67 62 64 63 7 64 8 65
REMARK SMILES IDX 9 66 10 67 11 68 12 70 13 71 14 72 25 73 15 74 24 75 26 76
REMARK SMILES IDX 36 77 27 78 35 79 16 80 17 81 18 82 23 83 19 84 22 85 20 86
REMARK SMILES IDX 21 87 28 88 29 89 30 90 31 91 32 92 33 93 34 94
REMARK H PARENT 3 7 84 25 58 36 10 69
REMARK Flexibility Score: inf
ROOT
ATOM      1  C   UNL A   1      39.462  21.893  26.112  1.00  0.00     0.002 C 
ENDROOT
BRANCH   1   2
ATOM      2  C   UNL A   1      40.409  20.757  26.525  1.00  0.00     0.021 C 
BRANCH   2   3
ATOM      3  C   UNL A   1      41.856  21.175  26.786  1.00  0.00     0.116 C 
BRANCH   3   4
ATOM      4  N   UNL A   1      42.501  21.792  25.644  1.00  0.00    -0.352 N 
ATOM      5  O   UNL A   1      43.518  23.164  24.252  1.00  0.00    -0.269 OA
ATOM      6  C   UNL A   1      42.907  23.057  25.320  1.00  0.00     0.251 C 
ATOM      7  H   UNL A   1      42.693  21.144  24.929  1.00  0.00     0.163 HD
BRANCH   6   8
ATOM      8  C   UNL A   1      42.656  24.293  26.120  1.00  0.00     0.039 A 
ATOM      9  C   UNL A   1      43.092  24.537  27.422  1.00  0.00     0.014 A 
ATOM     10  C   UNL A   1      41.896  25.295  25.480  1.00  0.00     0.014 A 
ATOM     11  C   UNL A   1      42.757  25.728  28.074  1.00  0.00     0.010 A 
ATOM     12  C   UNL A   1      41.565  26.488  26.124  1.00  0.00     0.010 A 
ATOM     13  C   UNL A   1      41.980  26.700  27.436  1.00  0.00    -0.014 A 
BRANCH  13  14
ATOM     14  C   UNL A   1      41.693  27.945  28.157  1.00  0.00     0.031 A 
ATOM     15  C   UNL A   1      42.701  29.046  28.051  1.00  0.00     0.074 A 
ATOM     16  C   UNL A   1      40.522  28.216  28.770  1.00  0.00     0.049 A 
ATOM     17  N   UNL A   1      43.325  29.673  28.999  1.00  0.00    -0.248 NA
ATOM     18  C   UNL A   1      43.058  29.504  26.700  1.00  0.00     0.031 C 
ATOM     19  C   UNL A   1      39.269  27.461  28.714  1.00  0.00     0.029 A 
ATOM     20  N   UNL A   1      40.194  29.314  29.515  1.00  0.00    -0.354 N 
ATOM     21  C   UNL A   1      44.054  30.693  28.385  1.00  0.00     0.074 A 
ATOM     22  C   UNL A   1      43.901  30.503  26.964  1.00  0.00     0.031 C 
ATOM     23  C   UNL A   1      38.272  28.220  29.224  1.00  0.00     0.029 A 
ATOM     24  C   UNL A   1      38.839  29.444  29.766  1.00  0.00     0.049 A 
ATOM     25  H   UNL A   1      40.863  29.956  29.844  1.00  0.00     0.167 HD
ATOM     26  C   UNL A   1      44.641  31.711  29.074  1.00  0.00     0.037 A 
ATOM     27  C   UNL A   1      38.219  30.507  30.329  1.00  0.00     0.037 A 
ATOM     28  C   UNL A   1      44.771  31.423  30.473  1.00  0.00     0.049 A 
ATOM     29  C   UNL A   1      39.230  31.294  31.074  1.00  0.00     0.074 A 
ATOM     30  C   UNL A   1      45.453  30.486  31.222  1.00  0.00     0.029 A 
ATOM     31  N   UNL A   1      43.909  32.035  31.345  1.00  0.00    -0.354 N 
ATOM     32  N   UNL A   1      39.825  30.904  32.164  1.00  0.00    -0.248 NA
ATOM     33  C   UNL A   1      39.825  32.447  30.416  1.00  0.00     0.031 C 
ATOM     34  C   UNL A   1      44.641  30.261  32.370  1.00  0.00     0.029 A 
ATOM     35  C   UNL A   1      43.515  31.077  32.242  1.00  0.00     0.049 A 
ATOM     36  H   UNL A   1      43.627  32.978  31.329  1.00  0.00     0.167 HD
ATOM     37  C   UNL A   1      41.076  31.498  32.118  1.00  0.00     0.074 A 
ATOM     38  C   UNL A   1      40.967  32.534  31.099  1.00  0.00     0.031 C 
ATOM     39  C   UNL A   1      42.158  30.919  32.712  1.00  0.00     0.037 A 
BRANCH  26  40
ATOM     40  C   UNL A   1      44.904  33.090  28.529  1.00  0.00     0.057 A 
ATOM     41  C   UNL A   1      46.132  33.471  27.955  1.00  0.00     0.134 A 
ATOM     42  C   UNL A   1      43.839  33.985  28.319  1.00  0.00     0.134 A 
ATOM     43  F   UNL A   1      47.201  32.664  27.982  1.00  0.00    -0.206 F 
ATOM     44  C   UNL A   1      46.294  34.663  27.240  1.00  0.00     0.040 A 
ATOM     45  C   UNL A   1      43.978  35.159  27.566  1.00  0.00     0.040 A 
ATOM     46  F   UNL A   1      42.610  33.715  28.784  1.00  0.00    -0.206 F 
ATOM     47  C   UNL A   1      45.210  35.500  27.024  1.00  0.00     0.006 A 
ENDBRANCH  26  40
BRANCH  27  48
ATOM     48  C   UNL A   1      36.866  31.037  30.053  1.00  0.00     0.057 A 
ATOM     49  C   UNL A   1      36.458  31.355  28.746  1.00  0.00     0.134 A 
ATOM     50  C   UNL A   1      36.043  31.501  31.088  1.00  0.00     0.134 A 
ATOM     51  F   UNL A   1      37.210  31.028  27.686  1.00  0.00    -0.206 F 
ATOM     52  C   UNL A   1      35.307  32.105  28.483  1.00  0.00     0.040 A 
ATOM     53  C   UNL A   1      34.893  32.262  30.839  1.00  0.00     0.040 A 
ATOM     54  F   UNL A   1      36.371  31.285  32.370  1.00  0.00    -0.206 F 
ATOM     55  C   UNL A   1      34.528  32.575  29.533  1.00  0.00     0.006 A 
ENDBRANCH  27  48
BRANCH  39  56
ATOM     56  C   UNL A   1      41.920  29.803  33.686  1.00  0.00     0.057 A 
ATOM     57  C   UNL A   1      42.002  30.072  35.058  1.00  0.00     0.134 A 
ATOM     58  C   UNL A   1      41.809  28.458  33.306  1.00  0.00     0.134 A 
ATOM     59  F   UNL A   1      42.171  31.332  35.491  1.00  0.00    -0.206 F 
ATOM     60  C   UNL A   1      41.976  29.051  36.010  1.00  0.00     0.040 A 
ATOM     61  C   UNL A   1      41.751  27.429  34.251  1.00  0.00     0.040 A 
ATOM     62  F   UNL A   1      41.826  28.099  32.016  1.00  0.00    -0.206 F 
ATOM     63  C   UNL A   1      41.845  27.725  35.609  1.00  0.00     0.006 A 
ENDBRANCH  39  56
ENDBRANCH  13  14
ENDBRANCH   6   8
ENDBRANCH   3   4
ENDBRANCH   2   3
ENDBRANCH   1   2
BRANCH   1  64
ATOM     64  C   UNL A   1      39.485  23.152  26.987  1.00  0.00     0.002 C 
BRANCH  64  65
ATOM     65  C   UNL A   1      38.425  24.211  26.661  1.00  0.00     0.021 C 
BRANCH  65  66
ATOM     66  C   UNL A   1      37.128  23.674  26.049  1.00  0.00     0.116 C 
BRANCH  66  67
ATOM     67  N   UNL A   1      37.168  23.698  24.595  1.00  0.00    -0.351 N 
ATOM     68  C   UNL A   1      36.215  23.292  23.684  1.00  0.00     0.272 C 
ATOM     69  H   UNL A   1      37.998  24.056  24.204  1.00  0.00     0.163 HD
ATOM     70  O   UNL A   1      36.553  23.185  22.503  1.00  0.00    -0.267 OA
BRANCH  68  71
ATOM     71  C   UNL A   1      34.852  22.952  24.126  1.00  0.00     0.155 A 
ATOM     72  N   UNL A   1      34.439  21.684  24.338  1.00  0.00    -0.167 NA
ATOM     73  C   UNL A   1      33.812  23.868  24.447  1.00  0.00     0.026 A 
ATOM     74  N   UNL A   1      33.132  21.787  24.670  1.00  0.00    -0.264 N 
ATOM     75  C   UNL A   1      32.705  23.079  24.689  1.00  0.00     0.046 A 
ATOM     76  C   UNL A   1      33.796  25.364  24.463  1.00  0.00     0.159 C 
ATOM     77  C   UNL A   1      31.337  23.601  24.936  1.00  0.00     0.078 C 
ATOM     78  N   UNL A   1      32.455  25.826  24.893  1.00  0.00    -0.337 N 
ATOM     79  C   UNL A   1      31.295  25.052  24.406  1.00  0.00     0.126 C 
BRANCH  74  80
ATOM     80  C   UNL A   1      32.396  20.596  25.078  1.00  0.00     0.180 C 
BRANCH  80  81
ATOM     81  C   UNL A   1      32.912  19.338  24.420  1.00  0.00    -0.026 A 
ATOM     82  C   UNL A   1      32.331  18.878  23.225  1.00  0.00     0.008 A 
ATOM     83  C   UNL A   1      33.986  18.622  24.973  1.00  0.00     0.008 A 
ATOM     84  C   UNL A   1      32.814  17.733  22.593  1.00  0.00     0.039 A 
ATOM     85  C   UNL A   1      34.471  17.478  24.336  1.00  0.00     0.039 A 
ATOM     86  C   UNL A   1      33.882  17.046  23.153  1.00  0.00     0.123 A 
ATOM     87  F   UNL A   1      34.354  15.950  22.544  1.00  0.00    -0.207 F 
ENDBRANCH  80  81
ENDBRANCH  74  80
BRANCH  78  88
ATOM     88  C   UNL A   1      32.369  26.966  25.684  1.00  0.00     0.232 C 
ATOM     89  O   UNL A   1      31.326  27.377  26.170  1.00  0.00    -0.274 OA
BRANCH  88  90
ATOM     90  C   UNL A   1      33.635  27.669  25.986  1.00  0.00     0.154 C 
ATOM     91  C   UNL A   1      33.812  29.136  25.621  1.00  0.00     0.097 C 
ATOM     92  C   UNL A   1      33.682  28.716  27.035  1.00  0.00     0.260 C 
ATOM     93  F   UNL A   1      32.586  29.136  27.747  1.00  0.00    -0.206 F 
ATOM     94  F   UNL A   1      34.778  28.835  27.862  1.00  0.00    -0.206 F 
ENDBRANCH  88  90
ENDBRANCH  78  88
ENDBRANCH  68  71
ENDBRANCH  66  67
ENDBRANCH  65  66
ENDBRANCH  64  65
ENDBRANCH   1  64
TORSDOF 17
ENDMDL
MODEL 2
REMARK VINA RESULT:     -12.5      1.949      5.117
REMARK SMILES O=C(NCCCCCCNC(=O)c1nn(Cc2ccc(F)cc2)c2c1CN(C(=O)[C@H]1CC1(F)F)CC2)c1ccc(-c2c3nc(c(-c4c(F)cccc4F)c4ccc([nH]4)c(-c4c(F)cccc4F)c4nc(c(-c5c(F)cccc5F)c5ccc2[nH]5)C=C4)C=C3)cc1
REMARK SMILES IDX 6 1 5 2 4 3 3 4 1 5 2 6 37 8 38 9 90 10 39 11 89 12 40 13
REMARK SMILES IDX 41 14 42 15 83 16 43 17 88 18 82 19 84 20 44 21 87 22 81 23
REMARK SMILES IDX 80 24 45 26 71 27 54 28 70 29 55 30 58 31 69 32 85 33 56 34
REMARK SMILES IDX 57 35 68 37 86 38 59 39 46 40 47 41 52 42 48 43 49 44 51 45
REMARK SMILES IDX 53 46 50 47 72 48 73 49 78 50 74 51 75 52 77 53 79 54 76 55
REMARK SMILES IDX 60 56 61 57 66 58 62 59 63 60 65 61 67 62 64 63 7 64 8 65
REMARK SMILES IDX 9 66 10 67 11 68 12 70 13 71 14 72 25 73 15 74 24 75 26 76
REMARK SMILES IDX 36 77 27 78 35 79 16 80 17 81 18 82 23 83 19 84 22 85 20 86
REMARK SMILES IDX 21 87 28 88 29 89 30 90 31 91 32 92 33 93 34 94
REMARK H PARENT 3 7 84 25 58 36 10 69
REMARK Flexibility Score: inf
ROOT
ATOM      1  C   UNL A   1      40.729  21.031  27.470  1.00  0.00     0.002 C 
ENDROOT
BRANCH   1   2
ATOM      2  C   UNL A   1      41.695  19.859  27.246  1.00  0.00     0.021 C 
BRANCH   2   3
ATOM      3  C   UNL A   1      41.867  19.421  25.791  1.00  0.00     0.116 C 
BRANCH   3   4
ATOM      4  N   UNL A   1      43.180  19.705  25.247  1.00  0.00    -0.352 N 
ATOM      5  O   UNL A   1      45.130  20.589  24.731  1.00  0.00    -0.269 OA
ATOM      6  C   UNL A   1      44.025  20.779  25.249  1.00  0.00     0.251 C 
ATOM      7  H   UNL A   1      43.552  18.938  24.756  1.00  0.00     0.163 HD
BRANCH   6   8
ATOM      8  C   UNL A   1      43.720  22.137  25.790  1.00  0.00     0.039 A 
ATOM      9  C   UNL A   1      42.887  23.090  25.205  1.00  0.00     0.014 A 
ATOM     10  C   UNL A   1      44.351  22.470  27.007  1.00  0.00     0.014 A 
ATOM     11  C   UNL A   1      42.714  24.345  25.799  1.00  0.00     0.010 A 
ATOM     12  C   UNL A   1      44.174  23.717  27.608  1.00  0.00     0.010 A 
ATOM     13  C   UNL A   1      43.366  24.669  26.992  1.00  0.00    -0.014 A 
BRANCH  13  14
ATOM     14  C   UNL A   1      43.115  25.986  27.588  1.00  0.00     0.031 A 
ATOM     15  C   UNL A   1      44.095  27.074  27.279  1.00  0.00     0.074 A 
ATOM     16  C   UNL A   1      41.992  26.316  28.257  1.00  0.00     0.049 A 
ATOM     17  N   UNL A   1      44.780  27.810  28.098  1.00  0.00    -0.248 NA
ATOM     18  C   UNL A   1      44.339  27.379  25.861  1.00  0.00     0.031 C 
ATOM     19  C   UNL A   1      40.750  25.551  28.386  1.00  0.00     0.029 A 
ATOM     20  N   UNL A   1      41.705  27.490  28.896  1.00  0.00    -0.354 N 
ATOM     21  C   UNL A   1      45.443  28.759  27.317  1.00  0.00     0.074 A 
ATOM     22  C   UNL A   1      45.184  28.407  25.943  1.00  0.00     0.031 C 
ATOM     23  C   UNL A   1      39.784  26.356  28.883  1.00  0.00     0.029 A 
ATOM     24  C   UNL A   1      40.371  27.638  29.237  1.00  0.00     0.049 A 
ATOM     25  H   UNL A   1      42.387  28.171  29.097  1.00  0.00     0.167 HD
ATOM     26  C   UNL A   1      46.065  29.853  27.839  1.00  0.00     0.037 A 
ATOM     27  C   UNL A   1      39.780  28.754  29.723  1.00  0.00     0.037 A 
ATOM     28  C   UNL A   1      46.307  29.727  29.246  1.00  0.00     0.049 A 
ATOM     29  C   UNL A   1      40.832  29.628  30.292  1.00  0.00     0.074 A 
ATOM     30  C   UNL A   1      47.060  28.887  30.040  1.00  0.00     0.029 A 
ATOM     31  N   UNL A   1      45.505  30.429  30.109  1.00  0.00    -0.354 N 
ATOM     32  N   UNL A   1      41.517  29.369  31.370  1.00  0.00    -0.248 NA
ATOM     33  C   UNL A   1      41.356  30.703  29.463  1.00  0.00     0.031 C 
ATOM     34  C   UNL A   1      46.343  28.789  31.267  1.00  0.00     0.029 A 
ATOM     35  C   UNL A   1      45.198  29.576  31.136  1.00  0.00     0.049 A 
ATOM     36  H   UNL A   1      45.208  31.362  30.008  1.00  0.00     0.167 HD
ATOM     37  C   UNL A   1      42.750  29.963  31.158  1.00  0.00     0.074 A 
ATOM     38  C   UNL A   1      42.546  30.876  30.040  1.00  0.00     0.031 C 
ATOM     39  C   UNL A   1      43.884  29.464  31.726  1.00  0.00     0.037 A 
BRANCH  26  40
ATOM     40  C   UNL A   1      46.262  31.163  27.122  1.00  0.00     0.057 A 
ATOM     41  C   UNL A   1      45.200  32.019  26.775  1.00  0.00     0.134 A 
ATOM     42  C   UNL A   1      47.548  31.723  27.009  1.00  0.00     0.134 A 
ATOM     43  F   UNL A   1      43.921  31.655  26.938  1.00  0.00    -0.206 F 
ATOM     44  C   UNL A   1      45.401  33.331  26.330  1.00  0.00     0.040 A 
ATOM     45  C   UNL A   1      47.759  33.050  26.610  1.00  0.00     0.040 A 
ATOM     46  F   UNL A   1      48.639  31.019  27.347  1.00  0.00    -0.206 F 
ATOM     47  C   UNL A   1      46.682  33.858  26.268  1.00  0.00     0.006 A 
ENDBRANCH  26  40
BRANCH  27  48
ATOM     48  C   UNL A   1      38.401  29.239  29.497  1.00  0.00     0.057 A 
ATOM     49  C   UNL A   1      38.001  29.751  28.250  1.00  0.00     0.134 A 
ATOM     50  C   UNL A   1      37.527  29.469  30.567  1.00  0.00     0.134 A 
ATOM     51  F   UNL A   1      38.797  29.655  27.174  1.00  0.00    -0.206 F 
ATOM     52  C   UNL A   1      36.810  30.462  28.079  1.00  0.00     0.040 A 
ATOM     53  C   UNL A   1      36.335  30.189  30.412  1.00  0.00     0.040 A 
ATOM     54  F   UNL A   1      37.840  29.057  31.804  1.00  0.00    -0.206 F 
ATOM     55  C   UNL A   1      35.979  30.697  29.167  1.00  0.00     0.006 A 
ENDBRANCH  27  48
BRANCH  39  56
ATOM     56  C   UNL A   1      43.741  28.464  32.836  1.00  0.00     0.057 A 
ATOM     57  C   UNL A   1      43.591  27.110  32.513  1.00  0.00     0.134 A 
ATOM     58  C   UNL A   1      43.555  28.823  34.179  1.00  0.00     0.134 A 
ATOM     59  F   UNL A   1      43.694  26.704  31.237  1.00  0.00    -0.206 F 
ATOM     60  C   UNL A   1      43.269  26.154  33.479  1.00  0.00     0.040 A 
ATOM     61  C   UNL A   1      43.264  27.871  35.161  1.00  0.00     0.040 A 
ATOM     62  F   UNL A   1      43.580  30.106  34.562  1.00  0.00    -0.206 F 
ATOM     63  C   UNL A   1      43.110  26.532  34.809  1.00  0.00     0.006 A 
ENDBRANCH  39  56
ENDBRANCH  13  14
ENDBRANCH   6   8
ENDBRANCH   3   4
ENDBRANCH   2   3
ENDBRANCH   1   2
BRANCH   1  64
ATOM     64  C   UNL A   1      39.881  21.456  26.264  1.00  0.00     0.002 C 
BRANCH  64  65
ATOM     65  C   UNL A   1      39.023  22.711  26.461  1.00  0.00     0.021 C 
BRANCH  65  66
ATOM     66  C   UNL A   1      37.623  22.651  25.844  1.00  0.00     0.116 C 
BRANCH  66  67
ATOM     67  N   UNL A   1      37.657  22.869  24.407  1.00  0.00    -0.351 N 
ATOM     68  C   UNL A   1      36.614  22.993  23.512  1.00  0.00     0.272 C 
ATOM     69  H   UNL A   1      38.557  22.941  24.014  1.00  0.00     0.163 HD
ATOM     70  O   UNL A   1      36.875  22.939  22.309  1.00  0.00    -0.267 OA
BRANCH  68  71
ATOM     71  C   UNL A   1      35.228  23.132  23.992  1.00  0.00     0.155 A 
ATOM     72  N   UNL A   1      34.516  24.273  23.873  1.00  0.00    -0.167 NA
ATOM     73  C   UNL A   1      34.429  22.113  24.579  1.00  0.00     0.026 A 
ATOM     74  N   UNL A   1      33.334  24.019  24.478  1.00  0.00    -0.264 N 
ATOM     75  C   UNL A   1      33.266  22.750  24.966  1.00  0.00     0.046 A 
ATOM     76  C   UNL A   1      34.721  20.669  24.842  1.00  0.00     0.159 C 
ATOM     77  C   UNL A   1      32.177  22.113  25.748  1.00  0.00     0.078 C 
ATOM     78  N   UNL A   1      33.528  20.041  25.460  1.00  0.00    -0.337 N 
ATOM     79  C   UNL A   1      32.770  20.860  26.428  1.00  0.00     0.126 C 
BRANCH  74  80
ATOM     80  C   UNL A   1      32.272  25.018  24.432  1.00  0.00     0.180 C 
BRANCH  80  81
ATOM     81  C   UNL A   1      32.536  26.192  25.344  1.00  0.00    -0.026 A 
ATOM     82  C   UNL A   1      31.566  26.590  26.281  1.00  0.00     0.008 A 
ATOM     83  C   UNL A   1      33.753  26.890  25.288  1.00  0.00     0.008 A 
ATOM     84  C   UNL A   1      31.808  27.656  27.146  1.00  0.00     0.039 A 
ATOM     85  C   UNL A   1      33.995  27.955  26.159  1.00  0.00     0.039 A 
ATOM     86  C   UNL A   1      33.022  28.326  27.079  1.00  0.00     0.123 A 
ATOM     87  F   UNL A   1      33.259  29.346  27.914  1.00  0.00    -0.207 F 
ENDBRANCH  80  81
ENDBRANCH  74  80
BRANCH  78  88
ATOM     88  C   UNL A   1      33.223  18.728  25.124  1.00  0.00     0.232 C 
ATOM     89  O   UNL A   1      32.190  18.165  25.457  1.00  0.00    -0.274 OA
BRANCH  88  90
ATOM     90  C   UNL A   1      34.193  18.011  24.268  1.00  0.00     0.154 C 
ATOM     91  C   UNL A   1      35.037  16.879  24.834  1.00  0.00     0.097 C 
ATOM     92  C   UNL A   1      33.948  16.605  23.868  1.00  0.00     0.260 C 
ATOM     93  F   UNL A   1      32.869  15.866  24.287  1.00  0.00    -0.206 F 
ATOM     94  F   UNL A   1      34.282  16.164  22.606  1.00  0.00    -0.206 F 
ENDBRANCH  88  90
ENDBRANCH  78  88
ENDBRANCH  68  71
ENDBRANCH  66  67
ENDBRANCH  65  66
ENDBRANCH  64  65
ENDBRANCH   1  64
TORSDOF 17
ENDMDL
MODEL 3
REMARK VINA RESULT:     -12.3      1.754      2.388
REMARK SMILES O=C(NCCCCCCNC(=O)c1nn(Cc2ccc(F)cc2)c2c1CN(C(=O)[C@H]1CC1(F)F)CC2)c1ccc(-c2c3nc(c(-c4c(F)cccc4F)c4ccc([nH]4)c(-c4c(F)cccc4F)c4nc(c(-c5c(F)cccc5F)c5ccc2[nH]5)C=C4)C=C3)cc1
REMARK SMILES IDX 6 1 5 2 4 3 3 4 1 5 2 6 37 8 38 9 90 10 39 11 89 12 40 13
REMARK SMILES IDX 41 14 42 15 83 16 43 17 88 18 82 19 84 20 44 21 87 22 81 23
REMARK SMILES IDX 80 24 45 26 71 27 54 28 70 29 55 30 58 31 69 32 85 33 56 34
REMARK SMILES IDX 57 35 68 37 86 38 59 39 46 40 47 41 52 42 48 43 49 44 51 45
REMARK SMILES IDX 53 46 50 47 72 48 73 49 78 50 74 51 75 52 77 53 79 54 76 55
REMARK SMILES IDX 60 56 61 57 66 58 62 59 63 60 65 61 67 62 64 63 7 64 8 65
REMARK SMILES IDX 9 66 10 67 11 68 12 70 13 71 14 72 25 73 15 74 24 75 26 76
REMARK SMILES IDX 36 77 27 78 35 79 16 80 17 81 18 82 23 83 19 84 22 85 20 86
REMARK SMILES IDX 21 87 28 88 29 89 30 90 31 91 32 92 33 93 34 94
REMARK H PARENT 3 7 84 25 58 36 10 69
REMARK Flexibility Score: inf
ROOT
ATOM      1  C   UNL A   1      40.859  20.852  27.498  1.00  0.00     0.002 C 
ENDROOT
BRANCH   1   2
ATOM      2  C   UNL A   1      41.874  19.733  27.226  1.00  0.00     0.021 C 
BRANCH   2   3
ATOM      3  C   UNL A   1      42.000  19.306  25.763  1.00  0.00     0.116 C 
BRANCH   3   4
ATOM      4  N   UNL A   1      43.283  19.626  25.170  1.00  0.00    -0.352 N 
ATOM      5  O   UNL A   1      45.187  20.565  24.581  1.00  0.00    -0.269 OA
ATOM      6  C   UNL A   1      44.097  20.724  25.140  1.00  0.00     0.251 C 
ATOM      7  H   UNL A   1      43.659  18.869  24.666  1.00  0.00     0.163 HD
BRANCH   6   8
ATOM      8  C   UNL A   1      43.773  22.073  25.691  1.00  0.00     0.039 A 
ATOM      9  C   UNL A   1      42.924  23.018  25.116  1.00  0.00     0.014 A 
ATOM     10  C   UNL A   1      44.405  22.408  26.907  1.00  0.00     0.014 A 
ATOM     11  C   UNL A   1      42.733  24.265  25.719  1.00  0.00     0.010 A 
ATOM     12  C   UNL A   1      44.211  23.648  27.517  1.00  0.00     0.010 A 
ATOM     13  C   UNL A   1      43.386  24.592  26.911  1.00  0.00    -0.014 A 
BRANCH  13  14
ATOM     14  C   UNL A   1      43.118  25.901  27.517  1.00  0.00     0.031 A 
ATOM     15  C   UNL A   1      44.091  27.001  27.227  1.00  0.00     0.074 A 
ATOM     16  C   UNL A   1      41.985  26.215  28.178  1.00  0.00     0.049 A 
ATOM     17  N   UNL A   1      44.761  27.735  28.060  1.00  0.00    -0.248 NA
ATOM     18  C   UNL A   1      44.345  27.321  25.814  1.00  0.00     0.031 C 
ATOM     19  C   UNL A   1      40.749  25.438  28.288  1.00  0.00     0.029 A 
ATOM     20  N   UNL A   1      41.682  27.380  28.825  1.00  0.00    -0.354 N 
ATOM     21  C   UNL A   1      45.423  28.697  27.294  1.00  0.00     0.074 A 
ATOM     22  C   UNL A   1      45.180  28.355  25.914  1.00  0.00     0.031 C 
ATOM     23  C   UNL A   1      39.771  26.230  28.783  1.00  0.00     0.029 A 
ATOM     24  C   UNL A   1      40.344  27.513  29.154  1.00  0.00     0.049 A 
ATOM     25  H   UNL A   1      42.355  28.065  29.038  1.00  0.00     0.167 HD
ATOM     26  C   UNL A   1      46.030  29.792  27.831  1.00  0.00     0.037 A 
ATOM     27  C   UNL A   1      39.738  28.619  29.645  1.00  0.00     0.037 A 
ATOM     28  C   UNL A   1      46.260  29.655  29.240  1.00  0.00     0.049 A 
ATOM     29  C   UNL A   1      40.776  29.497  30.232  1.00  0.00     0.074 A 
ATOM     30  C   UNL A   1      47.013  28.814  30.033  1.00  0.00     0.029 A 
ATOM     31  N   UNL A   1      45.444  30.341  30.101  1.00  0.00    -0.354 N 
ATOM     32  N   UNL A   1      41.453  29.234  31.314  1.00  0.00    -0.248 NA
ATOM     33  C   UNL A   1      41.299  30.585  29.418  1.00  0.00     0.031 C 
ATOM     34  C   UNL A   1      46.285  28.698  31.252  1.00  0.00     0.029 A 
ATOM     35  C   UNL A   1      45.134  29.477  31.118  1.00  0.00     0.049 A 
ATOM     36  H   UNL A   1      45.140  31.273  30.006  1.00  0.00     0.167 HD
ATOM     37  C   UNL A   1      42.683  29.842  31.120  1.00  0.00     0.074 A 
ATOM     38  C   UNL A   1      42.481  30.763  30.008  1.00  0.00     0.031 C 
ATOM     39  C   UNL A   1      43.816  29.347  31.694  1.00  0.00     0.037 A 
BRANCH  26  40
ATOM     40  C   UNL A   1      46.223  31.110  27.129  1.00  0.00     0.057 A 
ATOM     41  C   UNL A   1      45.159  31.973  26.804  1.00  0.00     0.134 A 
ATOM     42  C   UNL A   1      47.508  31.669  27.008  1.00  0.00     0.134 A 
ATOM     43  F   UNL A   1      43.881  31.610  26.977  1.00  0.00    -0.206 F 
ATOM     44  C   UNL A   1      45.358  33.289  26.373  1.00  0.00     0.040 A 
ATOM     45  C   UNL A   1      47.719  33.000  26.623  1.00  0.00     0.040 A 
ATOM     46  F   UNL A   1      48.601  30.958  27.325  1.00  0.00    -0.206 F 
ATOM     47  C   UNL A   1      46.640  33.814  26.303  1.00  0.00     0.006 A 
ENDBRANCH  26  40
BRANCH  27  48
ATOM     48  C   UNL A   1      38.357  29.094  29.410  1.00  0.00     0.057 A 
ATOM     49  C   UNL A   1      37.972  29.642  28.173  1.00  0.00     0.134 A 
ATOM     50  C   UNL A   1      37.460  29.277  30.471  1.00  0.00     0.134 A 
ATOM     51  F   UNL A   1      38.788  29.594  27.110  1.00  0.00    -0.206 F 
ATOM     52  C   UNL A   1      36.775  30.344  28.005  1.00  0.00     0.040 A 
ATOM     53  C   UNL A   1      36.262  29.987  30.319  1.00  0.00     0.040 A 
ATOM     54  F   UNL A   1      37.757  28.828  31.699  1.00  0.00    -0.206 F 
ATOM     55  C   UNL A   1      35.922  30.532  29.085  1.00  0.00     0.006 A 
ENDBRANCH  27  48
BRANCH  39  56
ATOM     56  C   UNL A   1      43.671  28.335  32.793  1.00  0.00     0.057 A 
ATOM     57  C   UNL A   1      43.781  28.760  34.123  1.00  0.00     0.134 A 
ATOM     58  C   UNL A   1      43.621  26.952  32.567  1.00  0.00     0.134 A 
ATOM     59  F   UNL A   1      43.896  30.067  34.408  1.00  0.00    -0.206 F 
ATOM     60  C   UNL A   1      43.842  27.852  35.182  1.00  0.00     0.040 A 
ATOM     61  C   UNL A   1      43.649  26.034  33.622  1.00  0.00     0.040 A 
ATOM     62  F   UNL A   1      43.616  26.453  31.325  1.00  0.00    -0.206 F 
ATOM     63  C   UNL A   1      43.770  26.484  34.934  1.00  0.00     0.006 A 
ENDBRANCH  39  56
ENDBRANCH  13  14
ENDBRANCH   6   8
ENDBRANCH   3   4
ENDBRANCH   2   3
ENDBRANCH   1   2
BRANCH   1  64
ATOM     64  C   UNL A   1      39.997  21.295  26.310  1.00  0.00     0.002 C 
BRANCH  64  65
ATOM     65  C   UNL A   1      39.233  22.612  26.494  1.00  0.00     0.021 C 
BRANCH  65  66
ATOM     66  C   UNL A   1      37.803  22.622  25.947  1.00  0.00     0.116 C 
BRANCH  66  67
ATOM     67  N   UNL A   1      37.733  23.238  24.631  1.00  0.00    -0.351 N 
ATOM     68  C   UNL A   1      36.676  23.307  23.748  1.00  0.00     0.272 C 
ATOM     69  H   UNL A   1      38.564  23.671  24.326  1.00  0.00     0.163 HD
ATOM     70  O   UNL A   1      36.908  23.673  22.595  1.00  0.00    -0.267 OA
BRANCH  68  71
ATOM     71  C   UNL A   1      35.322  22.905  24.168  1.00  0.00     0.155 A 
ATOM     72  N   UNL A   1      35.016  21.655  24.574  1.00  0.00    -0.167 NA
ATOM     73  C   UNL A   1      34.180  23.747  24.266  1.00  0.00     0.026 A 
ATOM     74  N   UNL A   1      33.685  21.673  24.812  1.00  0.00    -0.264 N 
ATOM     75  C   UNL A   1      33.138  22.898  24.581  1.00  0.00     0.046 A 
ATOM     76  C   UNL A   1      34.022  25.215  24.020  1.00  0.00     0.159 C 
ATOM     77  C   UNL A   1      31.713  23.308  24.658  1.00  0.00     0.078 C 
ATOM     78  N   UNL A   1      32.616  25.599  24.289  1.00  0.00    -0.337 N 
ATOM     79  C   UNL A   1      31.573  24.636  23.882  1.00  0.00     0.126 C 
BRANCH  74  80
ATOM     80  C   UNL A   1      33.037  20.497  25.379  1.00  0.00     0.180 C 
BRANCH  80  81
ATOM     81  C   UNL A   1      33.370  19.229  24.631  1.00  0.00    -0.026 A 
ATOM     82  C   UNL A   1      32.577  18.824  23.542  1.00  0.00     0.008 A 
ATOM     83  C   UNL A   1      34.481  18.449  24.990  1.00  0.00     0.008 A 
ATOM     84  C   UNL A   1      32.889  17.669  22.826  1.00  0.00     0.039 A 
ATOM     85  C   UNL A   1      34.793  17.295  24.268  1.00  0.00     0.039 A 
ATOM     86  C   UNL A   1      33.997  16.918  23.193  1.00  0.00     0.123 A 
ATOM     87  F   UNL A   1      34.303  15.812  22.502  1.00  0.00    -0.207 F 
ENDBRANCH  80  81
ENDBRANCH  74  80
BRANCH  78  88
ATOM     88  C   UNL A   1      32.367  26.840  24.863  1.00  0.00     0.232 C 
ATOM     89  O   UNL A   1      31.861  27.776  24.261  1.00  0.00    -0.274 OA
BRANCH  88  90
ATOM     90  C   UNL A   1      32.689  26.993  26.299  1.00  0.00     0.154 C 
ATOM     91  C   UNL A   1      33.663  28.065  26.764  1.00  0.00     0.097 C 
ATOM     92  C   UNL A   1      32.214  28.176  27.055  1.00  0.00     0.260 C 
ATOM     93  F   UNL A   1      31.510  29.212  26.492  1.00  0.00    -0.206 F 
ATOM     94  F   UNL A   1      31.792  28.055  28.360  1.00  0.00    -0.206 F 
ENDBRANCH  88  90
ENDBRANCH  78  88
ENDBRANCH  68  71
ENDBRANCH  66  67
ENDBRANCH  65  66
ENDBRANCH  64  65
ENDBRANCH   1  64
TORSDOF 17
ENDMDL
