MODEL 1
REMARK VINA RESULT:     -11.9      0.000      0.000
REMARK SMILES C/C(=N\Nc1ccccc1C(=O)NCCCCCCNC(=O)c1ccc(-c2c3nc(c(-c4c(F)cccc4F)c4ccc([nH]4)c(-c4c(F)cccc4F)c4nc(c(-c5c(F)cccc5F)c5ccc2[nH]5)C=C4)C=C3)cc1)c1ccc(S(C)(=O)=O)cc1
REMARK SMILES IDX 15 1 14 2 13 3 11 4 12 5 10 7 5 8 6 9 7 10 9 11 8 12 4 13
REMARK SMILES IDX 3 15 1 16 2 17 77 18 78 19 86 20 79 21 85 22 80 23 81 24
REMARK SMILES IDX 82 25 83 26 84 27 16 28 17 29 18 30 19 31 20 32 21 33 22 35
REMARK SMILES IDX 23 36 24 37 76 38 25 39 75 40 26 41 27 42 28 43 69 44 29 45
REMARK SMILES IDX 74 46 68 47 70 48 30 49 73 50 67 51 66 52 31 54 57 55 40 56
REMARK SMILES IDX 56 57 41 58 44 59 55 60 71 61 42 62 43 63 54 65 72 66 45 67
REMARK SMILES IDX 32 68 33 69 38 70 34 71 35 72 37 73 39 74 36 75 58 76 59 77
REMARK SMILES IDX 64 78 60 79 61 80 63 81 65 82 62 83 46 84 47 85 52 86 48 87
REMARK SMILES IDX 49 88 51 89 53 90 50 91
REMARK H PARENT 13 6 4 14 20 34 70 53 44 64
REMARK Flexibility Score: inf
ROOT
ATOM      1  C   UNL A   1      33.675  28.167  26.431  1.00  0.00     0.021 C 
ENDROOT
BRANCH   1   2
ATOM      2  C   UNL A   1      33.880  26.925  25.564  1.00  0.00     0.116 C 
BRANCH   2   3
ATOM      3  N   UNL A   1      33.174  25.760  26.061  1.00  0.00    -0.352 N 
ATOM      4  C   UNL A   1      33.511  24.430  25.966  1.00  0.00     0.253 C 
ATOM      5  O   UNL A   1      32.800  23.600  26.532  1.00  0.00    -0.269 OA
ATOM      6  H   UNL A   1      32.332  25.948  26.535  1.00  0.00     0.163 HD
BRANCH   4   7
ATOM      7  C   UNL A   1      34.620  23.961  25.099  1.00  0.00     0.064 A 
ATOM      8  C   UNL A   1      34.514  23.607  23.745  1.00  0.00     0.069 A 
ATOM      9  C   UNL A   1      35.658  23.057  23.120  1.00  0.00     0.028 A 
ATOM     10  C   UNL A   1      36.886  22.959  23.778  1.00  0.00     0.002 A 
ATOM     11  C   UNL A   1      35.877  23.905  25.741  1.00  0.00     0.016 A 
ATOM     12  C   UNL A   1      37.005  23.422  25.079  1.00  0.00     0.001 A 
BRANCH   8  13
ATOM     13  N   UNL A   1      33.447  23.923  22.874  1.00  0.00    -0.277 N 
ATOM     14  H   UNL A   1      33.199  23.250  22.201  1.00  0.00     0.190 HD
BRANCH  13  15
ATOM     15  N   UNL A   1      32.740  25.072  22.889  1.00  0.00    -0.180 NA
ATOM     16  C   UNL A   1      30.615  23.814  23.377  1.00  0.00     0.069 C 
ATOM     17  C   UNL A   1      31.461  25.043  23.137  1.00  0.00     0.065 C 
BRANCH  17  18
ATOM     18  C   UNL A   1      30.755  26.348  23.188  1.00  0.00    -0.002 A 
ATOM     19  C   UNL A   1      29.457  26.408  23.702  1.00  0.00     0.011 A 
ATOM     20  C   UNL A   1      31.353  27.487  22.643  1.00  0.00     0.011 A 
ATOM     21  C   UNL A   1      28.729  27.595  23.636  1.00  0.00     0.021 A 
ATOM     22  C   UNL A   1      30.636  28.685  22.593  1.00  0.00     0.021 A 
ATOM     23  C   UNL A   1      29.320  28.725  23.067  1.00  0.00     0.067 A 
BRANCH  23  24
ATOM     24  S   UNL A   1      28.400  30.245  22.994  1.00  0.00     0.175 S 
ATOM     25  C   UNL A   1      28.535  30.737  21.295  1.00  0.00     0.163 C 
ATOM     26  O   UNL A   1      27.007  29.915  23.259  1.00  0.00    -0.224 OA
ATOM     27  O   UNL A   1      29.099  31.218  23.801  1.00  0.00    -0.224 OA
ENDBRANCH  23  24
ENDBRANCH  17  18
ENDBRANCH  13  15
ENDBRANCH   8  13
ENDBRANCH   4   7
ENDBRANCH   2   3
ENDBRANCH   1   2
BRANCH   1  28
ATOM     28  C   UNL A   1      33.041  29.380  25.733  1.00  0.00     0.002 C 
BRANCH  28  29
ATOM     29  C   UNL A   1      31.750  29.935  26.340  1.00  0.00     0.002 C 
BRANCH  29  30
ATOM     30  C   UNL A   1      31.616  31.450  26.435  1.00  0.00     0.021 C 
BRANCH  30  31
ATOM     31  C   UNL A   1      32.743  32.168  27.155  1.00  0.00     0.116 C 
BRANCH  31  32
ATOM     32  N   UNL A   1      32.413  33.523  27.567  1.00  0.00    -0.352 N 
ATOM     33  C   UNL A   1      33.096  34.361  28.417  1.00  0.00     0.251 C 
ATOM     34  H   UNL A   1      31.584  33.891  27.184  1.00  0.00     0.163 HD
ATOM     35  O   UNL A   1      32.623  35.453  28.717  1.00  0.00    -0.269 OA
BRANCH  33  36
ATOM     36  C   UNL A   1      34.382  33.924  29.006  1.00  0.00     0.039 A 
ATOM     37  C   UNL A   1      34.362  33.135  30.160  1.00  0.00     0.014 A 
ATOM     38  C   UNL A   1      35.600  34.268  28.417  1.00  0.00     0.014 A 
ATOM     39  C   UNL A   1      35.558  32.633  30.677  1.00  0.00     0.010 A 
ATOM     40  C   UNL A   1      36.779  33.688  28.873  1.00  0.00     0.010 A 
ATOM     41  C   UNL A   1      36.772  32.874  30.015  1.00  0.00    -0.014 A 
BRANCH  41  42
ATOM     42  C   UNL A   1      38.053  32.311  30.512  1.00  0.00     0.031 A 
ATOM     43  C   UNL A   1      38.589  31.038  29.917  1.00  0.00     0.074 A 
ATOM     44  C   UNL A   1      38.693  32.901  31.541  1.00  0.00     0.049 A 
ATOM     45  N   UNL A   1      39.641  30.341  30.263  1.00  0.00    -0.248 NA
ATOM     46  C   UNL A   1      37.820  30.450  28.807  1.00  0.00     0.031 C 
ATOM     47  C   UNL A   1      38.242  34.106  32.241  1.00  0.00     0.029 A 
ATOM     48  N   UNL A   1      39.856  32.560  32.184  1.00  0.00    -0.354 N 
ATOM     49  C   UNL A   1      39.645  29.226  29.432  1.00  0.00     0.074 A 
ATOM     50  C   UNL A   1      38.460  29.307  28.610  1.00  0.00     0.031 C 
ATOM     51  C   UNL A   1      39.133  34.418  33.195  1.00  0.00     0.029 A 
ATOM     52  C   UNL A   1      40.197  33.419  33.200  1.00  0.00     0.049 A 
ATOM     53  H   UNL A   1      40.395  31.773  31.940  1.00  0.00     0.167 HD
ATOM     54  C   UNL A   1      40.567  28.240  29.343  1.00  0.00     0.037 A 
ATOM     55  C   UNL A   1      41.250  33.401  34.039  1.00  0.00     0.037 A 
ATOM     56  C   UNL A   1      41.766  28.185  30.135  1.00  0.00     0.049 A 
ATOM     57  C   UNL A   1      42.272  32.306  33.906  1.00  0.00     0.074 A 
ATOM     58  C   UNL A   1      42.798  27.266  30.078  1.00  0.00     0.029 A 
ATOM     59  N   UNL A   1      42.095  29.096  31.130  1.00  0.00    -0.354 N 
ATOM     60  N   UNL A   1      42.298  31.296  33.071  1.00  0.00    -0.248 NA
ATOM     61  C   UNL A   1      43.418  32.354  34.826  1.00  0.00     0.031 C 
ATOM     62  C   UNL A   1      43.734  27.599  31.062  1.00  0.00     0.029 A 
ATOM     63  C   UNL A   1      43.307  28.751  31.702  1.00  0.00     0.049 A 
ATOM     64  H   UNL A   1      41.546  29.871  31.388  1.00  0.00     0.167 HD
ATOM     65  C   UNL A   1      43.473  30.607  33.341  1.00  0.00     0.074 A 
ATOM     66  C   UNL A   1      44.138  31.322  34.411  1.00  0.00     0.031 C 
ATOM     67  C   UNL A   1      43.958  29.484  32.758  1.00  0.00     0.037 A 
BRANCH  54  68
ATOM     68  C   UNL A   1      40.317  27.148  28.343  1.00  0.00     0.057 A 
ATOM     69  C   UNL A   1      40.906  27.162  27.071  1.00  0.00     0.134 A 
ATOM     70  C   UNL A   1      39.495  26.060  28.661  1.00  0.00     0.134 A 
ATOM     71  F   UNL A   1      41.692  28.183  26.696  1.00  0.00    -0.206 F 
ATOM     72  C   UNL A   1      40.663  26.149  26.142  1.00  0.00     0.040 A 
ATOM     73  C   UNL A   1      39.268  25.026  27.750  1.00  0.00     0.040 A 
ATOM     74  F   UNL A   1      38.904  25.980  29.862  1.00  0.00    -0.206 F 
ATOM     75  C   UNL A   1      39.845  25.073  26.483  1.00  0.00     0.006 A 
ENDBRANCH  54  68
BRANCH  55  76
ATOM     76  C   UNL A   1      41.411  34.472  35.055  1.00  0.00     0.057 A 
ATOM     77  C   UNL A   1      42.061  35.670  34.740  1.00  0.00     0.134 A 
ATOM     78  C   UNL A   1      40.925  34.325  36.359  1.00  0.00     0.134 A 
ATOM     79  F   UNL A   1      42.563  35.863  33.512  1.00  0.00    -0.206 F 
ATOM     80  C   UNL A   1      42.243  36.677  35.691  1.00  0.00     0.040 A 
ATOM     81  C   UNL A   1      41.077  35.333  37.313  1.00  0.00     0.040 A 
ATOM     82  F   UNL A   1      40.285  33.204  36.722  1.00  0.00    -0.206 F 
ATOM     83  C   UNL A   1      41.745  36.511  36.982  1.00  0.00     0.006 A 
ENDBRANCH  55  76
BRANCH  67  84
ATOM     84  C   UNL A   1      45.289  28.983  33.234  1.00  0.00     0.057 A 
ATOM     85  C   UNL A   1      46.491  29.419  32.664  1.00  0.00     0.134 A 
ATOM     86  C   UNL A   1      45.367  28.089  34.309  1.00  0.00     0.134 A 
ATOM     87  F   UNL A   1      46.482  30.266  31.623  1.00  0.00    -0.206 F 
ATOM     88  C   UNL A   1      47.725  28.965  33.131  1.00  0.00     0.040 A 
ATOM     89  C   UNL A   1      46.596  27.648  34.802  1.00  0.00     0.040 A 
ATOM     90  F   UNL A   1      44.253  27.640  34.906  1.00  0.00    -0.206 F 
ATOM     91  C   UNL A   1      47.779  28.083  34.208  1.00  0.00     0.006 A 
ENDBRANCH  67  84
ENDBRANCH  41  42
ENDBRANCH  33  36
ENDBRANCH  31  32
ENDBRANCH  30  31
ENDBRANCH  29  30
ENDBRANCH  28  29
ENDBRANCH   1  28
TORSDOF 17
ENDMDL
MODEL 2
REMARK VINA RESULT:     -11.9      0.870      6.092
REMARK SMILES C/C(=N\Nc1ccccc1C(=O)NCCCCCCNC(=O)c1ccc(-c2c3nc(c(-c4c(F)cccc4F)c4ccc([nH]4)c(-c4c(F)cccc4F)c4nc(c(-c5c(F)cccc5F)c5ccc2[nH]5)C=C4)C=C3)cc1)c1ccc(S(C)(=O)=O)cc1
REMARK SMILES IDX 15 1 14 2 13 3 11 4 12 5 10 7 5 8 6 9 7 10 9 11 8 12 4 13
REMARK SMILES IDX 3 15 1 16 2 17 77 18 78 19 86 20 79 21 85 22 80 23 81 24
REMARK SMILES IDX 82 25 83 26 84 27 16 28 17 29 18 30 19 31 20 32 21 33 22 35
REMARK SMILES IDX 23 36 24 37 76 38 25 39 75 40 26 41 27 42 28 43 69 44 29 45
REMARK SMILES IDX 74 46 68 47 70 48 30 49 73 50 67 51 66 52 31 54 57 55 40 56
REMARK SMILES IDX 56 57 41 58 44 59 55 60 71 61 42 62 43 63 54 65 72 66 45 67
REMARK SMILES IDX 32 68 33 69 38 70 34 71 35 72 37 73 39 74 36 75 58 76 59 77
REMARK SMILES IDX 64 78 60 79 61 80 63 81 65 82 62 83 46 84 47 85 52 86 48 87
REMARK SMILES IDX 49 88 51 89 53 90 50 91
REMARK H PARENT 13 6 4 14 20 34 70 53 44 64
REMARK Flexibility Score: inf
ROOT
ATOM      1  C   UNL A   1      31.387  27.968  26.849  1.00  0.00     0.021 C 
ENDROOT
BRANCH   1   2
ATOM      2  C   UNL A   1      32.042  26.651  26.430  1.00  0.00     0.116 C 
BRANCH   2   3
ATOM      3  N   UNL A   1      31.339  25.483  26.924  1.00  0.00    -0.352 N 
ATOM      4  C   UNL A   1      31.679  24.154  26.821  1.00  0.00     0.253 C 
ATOM      5  O   UNL A   1      30.971  23.319  27.385  1.00  0.00    -0.269 OA
ATOM      6  H   UNL A   1      30.499  25.667  27.402  1.00  0.00     0.163 HD
BRANCH   4   7
ATOM      7  C   UNL A   1      32.784  23.691  25.947  1.00  0.00     0.064 A 
ATOM      8  C   UNL A   1      32.669  23.322  24.597  1.00  0.00     0.069 A 
ATOM      9  C   UNL A   1      33.813  22.781  23.965  1.00  0.00     0.028 A 
ATOM     10  C   UNL A   1      35.049  22.707  24.610  1.00  0.00     0.002 A 
ATOM     11  C   UNL A   1      34.049  23.659  26.575  1.00  0.00     0.016 A 
ATOM     12  C   UNL A   1      35.176  23.185  25.906  1.00  0.00     0.001 A 
BRANCH   8  13
ATOM     13  N   UNL A   1      31.588  23.614  23.735  1.00  0.00    -0.277 N 
ATOM     14  H   UNL A   1      31.296  22.903  23.119  1.00  0.00     0.190 HD
BRANCH  13  15
ATOM     15  N   UNL A   1      30.921  24.785  23.686  1.00  0.00    -0.180 NA
ATOM     16  C   UNL A   1      32.719  25.803  22.248  1.00  0.00     0.069 C 
ATOM     17  C   UNL A   1      31.407  25.780  22.998  1.00  0.00     0.065 C 
BRANCH  17  18
ATOM     18  C   UNL A   1      30.596  27.023  22.945  1.00  0.00    -0.002 A 
ATOM     19  C   UNL A   1      31.143  28.177  22.377  1.00  0.00     0.011 A 
ATOM     20  C   UNL A   1      29.332  27.057  23.539  1.00  0.00     0.011 A 
ATOM     21  C   UNL A   1      30.450  29.385  22.437  1.00  0.00     0.021 A 
ATOM     22  C   UNL A   1      28.625  28.261  23.585  1.00  0.00     0.021 A 
ATOM     23  C   UNL A   1      29.199  29.423  23.055  1.00  0.00     0.067 A 
BRANCH  23  24
ATOM     24  S   UNL A   1      28.306  30.959  23.121  1.00  0.00     0.175 S 
ATOM     25  C   UNL A   1      28.121  31.410  21.416  1.00  0.00     0.163 C 
ATOM     26  O   UNL A   1      26.984  30.662  23.655  1.00  0.00    -0.224 OA
ATOM     27  O   UNL A   1      29.162  31.935  23.755  1.00  0.00    -0.224 OA
ENDBRANCH  23  24
ENDBRANCH  17  18
ENDBRANCH  13  15
ENDBRANCH   8  13
ENDBRANCH   4   7
ENDBRANCH   2   3
ENDBRANCH   1   2
BRANCH   1  28
ATOM     28  C   UNL A   1      32.244  29.231  26.680  1.00  0.00     0.002 C 
BRANCH  28  29
ATOM     29  C   UNL A   1      31.628  30.388  25.889  1.00  0.00     0.002 C 
BRANCH  29  30
ATOM     30  C   UNL A   1      31.399  31.700  26.629  1.00  0.00     0.021 C 
BRANCH  30  31
ATOM     31  C   UNL A   1      32.652  32.453  27.039  1.00  0.00     0.116 C 
BRANCH  31  32
ATOM     32  N   UNL A   1      32.396  33.791  27.549  1.00  0.00    -0.352 N 
ATOM     33  C   UNL A   1      33.124  34.527  28.453  1.00  0.00     0.251 C 
ATOM     34  H   UNL A   1      31.588  34.230  27.198  1.00  0.00     0.163 HD
ATOM     35  O   UNL A   1      32.712  35.619  28.834  1.00  0.00    -0.269 OA
BRANCH  33  36
ATOM     36  C   UNL A   1      34.386  33.980  29.004  1.00  0.00     0.039 A 
ATOM     37  C   UNL A   1      34.328  33.149  30.126  1.00  0.00     0.014 A 
ATOM     38  C   UNL A   1      35.616  34.261  28.406  1.00  0.00     0.014 A 
ATOM     39  C   UNL A   1      35.493  32.546  30.603  1.00  0.00     0.010 A 
ATOM     40  C   UNL A   1      36.758  33.584  28.820  1.00  0.00     0.010 A 
ATOM     41  C   UNL A   1      36.712  32.729  29.930  1.00  0.00    -0.014 A 
BRANCH  41  42
ATOM     42  C   UNL A   1      37.957  32.060  30.383  1.00  0.00     0.031 A 
ATOM     43  C   UNL A   1      38.797  32.694  31.458  1.00  0.00     0.074 A 
ATOM     44  C   UNL A   1      38.367  30.926  29.781  1.00  0.00     0.049 A 
ATOM     45  N   UNL A   1      39.955  32.315  31.934  1.00  0.00    -0.248 NA
ATOM     46  C   UNL A   1      38.284  33.940  32.051  1.00  0.00     0.031 C 
ATOM     47  C   UNL A   1      37.671  30.245  28.687  1.00  0.00     0.029 A 
ATOM     48  N   UNL A   1      39.478  30.150  30.000  1.00  0.00    -0.354 N 
ATOM     49  C   UNL A   1      40.317  33.286  32.861  1.00  0.00     0.074 A 
ATOM     50  C   UNL A   1      39.288  34.300  32.836  1.00  0.00     0.031 C 
ATOM     51  C   UNL A   1      38.355  29.141  28.351  1.00  0.00     0.029 A 
ATOM     52  C   UNL A   1      39.554  29.052  29.178  1.00  0.00     0.049 A 
ATOM     53  H   UNL A   1      40.157  30.361  30.681  1.00  0.00     0.167 HD
ATOM     54  C   UNL A   1      41.393  33.315  33.681  1.00  0.00     0.037 A 
ATOM     55  C   UNL A   1      40.487  28.084  29.101  1.00  0.00     0.037 A 
ATOM     56  C   UNL A   1      42.393  32.282  33.733  1.00  0.00     0.049 A 
ATOM     57  C   UNL A   1      41.663  28.127  30.037  1.00  0.00     0.074 A 
ATOM     58  C   UNL A   1      43.488  32.182  34.572  1.00  0.00     0.029 A 
ATOM     59  N   UNL A   1      42.416  31.166  32.908  1.00  0.00    -0.354 N 
ATOM     60  N   UNL A   1      41.957  29.015  30.956  1.00  0.00    -0.248 NA
ATOM     61  C   UNL A   1      42.633  27.028  29.933  1.00  0.00     0.031 C 
ATOM     62  C   UNL A   1      44.193  31.023  34.232  1.00  0.00     0.029 A 
ATOM     63  C   UNL A   1      43.513  30.379  33.211  1.00  0.00     0.049 A 
ATOM     64  H   UNL A   1      41.749  30.965  32.213  1.00  0.00     0.167 HD
ATOM     65  C   UNL A   1      43.125  28.568  31.559  1.00  0.00     0.074 A 
ATOM     66  C   UNL A   1      43.479  27.323  30.909  1.00  0.00     0.031 C 
ATOM     67  C   UNL A   1      43.841  29.136  32.561  1.00  0.00     0.037 A 
BRANCH  54  68
ATOM     68  C   UNL A   1      41.534  34.497  34.596  1.00  0.00     0.057 A 
ATOM     69  C   UNL A   1      42.207  35.662  34.201  1.00  0.00     0.134 A 
ATOM     70  C   UNL A   1      40.975  34.480  35.880  1.00  0.00     0.134 A 
ATOM     71  F   UNL A   1      42.779  35.738  32.990  1.00  0.00    -0.206 F 
ATOM     72  C   UNL A   1      42.343  36.753  35.059  1.00  0.00     0.040 A 
ATOM     73  C   UNL A   1      41.079  35.578  36.736  1.00  0.00     0.040 A 
ATOM     74  F   UNL A   1      40.313  33.400  36.321  1.00  0.00    -0.206 F 
ATOM     75  C   UNL A   1      41.773  36.716  36.330  1.00  0.00     0.006 A 
ENDBRANCH  54  68
BRANCH  55  76
ATOM     76  C   UNL A   1      40.330  26.973  28.129  1.00  0.00     0.057 A 
ATOM     77  C   UNL A   1      39.589  25.832  28.454  1.00  0.00     0.134 A 
ATOM     78  C   UNL A   1      40.915  27.021  26.859  1.00  0.00     0.134 A 
ATOM     79  F   UNL A   1      39.017  25.720  29.663  1.00  0.00    -0.206 F 
ATOM     80  C   UNL A   1      39.451  24.767  27.560  1.00  0.00     0.040 A 
ATOM     81  C   UNL A   1      40.766  25.976  25.945  1.00  0.00     0.040 A 
ATOM     82  F   UNL A   1      41.631  28.091  26.482  1.00  0.00    -0.206 F 
ATOM     83  C   UNL A   1      40.038  24.841  26.299  1.00  0.00     0.006 A 
ENDBRANCH  55  76
BRANCH  67  84
ATOM     84  C   UNL A   1      45.053  28.396  33.043  1.00  0.00     0.057 A 
ATOM     85  C   UNL A   1      46.328  28.646  32.523  1.00  0.00     0.134 A 
ATOM     86  C   UNL A   1      44.945  27.454  34.073  1.00  0.00     0.134 A 
ATOM     87  F   UNL A   1      46.495  29.529  31.526  1.00  0.00    -0.206 F 
ATOM     88  C   UNL A   1      47.453  27.969  32.997  1.00  0.00     0.040 A 
ATOM     89  C   UNL A   1      46.065  26.789  34.573  1.00  0.00     0.040 A 
ATOM     90  F   UNL A   1      43.752  27.174  34.621  1.00  0.00    -0.206 F 
ATOM     91  C   UNL A   1      47.323  27.043  34.030  1.00  0.00     0.006 A 
ENDBRANCH  67  84
ENDBRANCH  41  42
ENDBRANCH  33  36
ENDBRANCH  31  32
ENDBRANCH  30  31
ENDBRANCH  29  30
ENDBRANCH  28  29
ENDBRANCH   1  28
TORSDOF 17
ENDMDL
MODEL 3
REMARK VINA RESULT:     -11.8      3.942      8.956
REMARK SMILES C/C(=N\Nc1ccccc1C(=O)NCCCCCCNC(=O)c1ccc(-c2c3nc(c(-c4c(F)cccc4F)c4ccc([nH]4)c(-c4c(F)cccc4F)c4nc(c(-c5c(F)cccc5F)c5ccc2[nH]5)C=C4)C=C3)cc1)c1ccc(S(C)(=O)=O)cc1
REMARK SMILES IDX 15 1 14 2 13 3 11 4 12 5 10 7 5 8 6 9 7 10 9 11 8 12 4 13
REMARK SMILES IDX 3 15 1 16 2 17 77 18 78 19 86 20 79 21 85 22 80 23 81 24
REMARK SMILES IDX 82 25 83 26 84 27 16 28 17 29 18 30 19 31 20 32 21 33 22 35
REMARK SMILES IDX 23 36 24 37 76 38 25 39 75 40 26 41 27 42 28 43 69 44 29 45
REMARK SMILES IDX 74 46 68 47 70 48 30 49 73 50 67 51 66 52 31 54 57 55 40 56
REMARK SMILES IDX 56 57 41 58 44 59 55 60 71 61 42 62 43 63 54 65 72 66 45 67
REMARK SMILES IDX 32 68 33 69 38 70 34 71 35 72 37 73 39 74 36 75 58 76 59 77
REMARK SMILES IDX 64 78 60 79 61 80 63 81 65 82 62 83 46 84 47 85 52 86 48 87
REMARK SMILES IDX 49 88 51 89 53 90 50 91
REMARK H PARENT 13 6 4 14 20 34 70 53 44 64
REMARK Flexibility Score: inf
ROOT
ATOM      1  C   UNL A   1      35.137  23.000  25.531  1.00  0.00     0.021 C 
ENDROOT
BRANCH   1   2
ATOM      2  C   UNL A   1      35.134  24.528  25.461  1.00  0.00     0.116 C 
BRANCH   2   3
ATOM      3  N   UNL A   1      34.471  25.043  24.279  1.00  0.00    -0.352 N 
ATOM      4  C   UNL A   1      33.603  26.103  24.159  1.00  0.00     0.253 C 
ATOM      5  O   UNL A   1      33.212  26.420  23.036  1.00  0.00    -0.269 OA
ATOM      6  H   UNL A   1      34.673  24.566  23.442  1.00  0.00     0.163 HD
BRANCH   4   7
ATOM      7  C   UNL A   1      33.024  26.781  25.345  1.00  0.00     0.064 A 
ATOM      8  C   UNL A   1      31.776  26.504  25.925  1.00  0.00     0.069 A 
ATOM      9  C   UNL A   1      31.339  27.348  26.973  1.00  0.00     0.028 A 
ATOM     10  C   UNL A   1      32.148  28.359  27.496  1.00  0.00     0.002 A 
ATOM     11  C   UNL A   1      33.855  27.772  25.911  1.00  0.00     0.016 A 
ATOM     12  C   UNL A   1      33.426  28.544  26.990  1.00  0.00     0.001 A 
BRANCH   8  13
ATOM     13  N   UNL A   1      30.988  25.350  25.715  1.00  0.00    -0.277 N 
ATOM     14  H   UNL A   1      30.012  25.469  25.685  1.00  0.00     0.190 HD
BRANCH  13  15
ATOM     15  N   UNL A   1      31.463  24.098  25.553  1.00  0.00    -0.180 NA
ATOM     16  C   UNL A   1      30.515  23.988  23.224  1.00  0.00     0.069 C 
ATOM     17  C   UNL A   1      31.278  23.475  24.423  1.00  0.00     0.065 C 
BRANCH  17  18
ATOM     18  C   UNL A   1      31.871  22.120  24.296  1.00  0.00    -0.002 A 
ATOM     19  C   UNL A   1      32.090  21.582  23.025  1.00  0.00     0.011 A 
ATOM     20  C   UNL A   1      32.124  21.358  25.439  1.00  0.00     0.011 A 
ATOM     21  C   UNL A   1      32.521  20.264  22.885  1.00  0.00     0.021 A 
ATOM     22  C   UNL A   1      32.575  20.042  25.305  1.00  0.00     0.021 A 
ATOM     23  C   UNL A   1      32.747  19.496  24.028  1.00  0.00     0.067 A 
BRANCH  23  24
ATOM     24  S   UNL A   1      33.310  17.818  23.854  1.00  0.00     0.175 S 
ATOM     25  C   UNL A   1      32.495  16.962  25.176  1.00  0.00     0.163 C 
ATOM     26  O   UNL A   1      32.777  17.317  22.595  1.00  0.00    -0.224 OA
ATOM     27  O   UNL A   1      34.731  17.805  24.117  1.00  0.00    -0.224 OA
ENDBRANCH  23  24
ENDBRANCH  17  18
ENDBRANCH  13  15
ENDBRANCH   8  13
ENDBRANCH   4   7
ENDBRANCH   2   3
ENDBRANCH   1   2
BRANCH   1  28
ATOM     28  C   UNL A   1      35.570  22.267  24.252  1.00  0.00     0.002 C 
BRANCH  28  29
ATOM     29  C   UNL A   1      37.062  21.962  24.097  1.00  0.00     0.002 C 
BRANCH  29  30
ATOM     30  C   UNL A   1      37.563  20.627  24.632  1.00  0.00     0.021 C 
BRANCH  30  31
ATOM     31  C   UNL A   1      38.595  20.706  25.743  1.00  0.00     0.116 C 
BRANCH  31  32
ATOM     32  N   UNL A   1      39.606  19.663  25.685  1.00  0.00    -0.352 N 
ATOM     33  C   UNL A   1      40.935  19.724  26.035  1.00  0.00     0.251 C 
ATOM     34  H   UNL A   1      39.297  18.791  25.348  1.00  0.00     0.163 HD
ATOM     35  O   UNL A   1      41.668  18.759  25.843  1.00  0.00    -0.269 OA
BRANCH  33  36
ATOM     36  C   UNL A   1      41.491  20.974  26.602  1.00  0.00     0.039 A 
ATOM     37  C   UNL A   1      41.995  21.944  25.730  1.00  0.00     0.014 A 
ATOM     38  C   UNL A   1      41.496  21.203  27.979  1.00  0.00     0.014 A 
ATOM     39  C   UNL A   1      42.436  23.168  26.237  1.00  0.00     0.010 A 
ATOM     40  C   UNL A   1      41.841  22.456  28.472  1.00  0.00     0.010 A 
ATOM     41  C   UNL A   1      42.327  23.449  27.608  1.00  0.00    -0.014 A 
BRANCH  41  42
ATOM     42  C   UNL A   1      42.739  24.760  28.168  1.00  0.00     0.031 A 
ATOM     43  C   UNL A   1      41.705  25.827  28.409  1.00  0.00     0.074 A 
ATOM     44  C   UNL A   1      44.043  25.016  28.392  1.00  0.00     0.049 A 
ATOM     45  N   UNL A   1      41.868  27.061  28.812  1.00  0.00    -0.248 NA
ATOM     46  C   UNL A   1      40.305  25.469  28.123  1.00  0.00     0.031 C 
ATOM     47  C   UNL A   1      45.145  24.085  28.142  1.00  0.00     0.029 A 
ATOM     48  N   UNL A   1      44.663  26.143  28.870  1.00  0.00    -0.354 N 
ATOM     49  C   UNL A   1      40.599  27.630  28.805  1.00  0.00     0.074 A 
ATOM     50  C   UNL A   1      39.689  26.628  28.300  1.00  0.00     0.031 C 
ATOM     51  C   UNL A   1      46.301  24.667  28.497  1.00  0.00     0.029 A 
ATOM     52  C   UNL A   1      46.028  26.023  28.964  1.00  0.00     0.049 A 
ATOM     53  H   UNL A   1      44.175  26.960  29.123  1.00  0.00     0.167 HD
ATOM     54  C   UNL A   1      40.223  28.865  29.211  1.00  0.00     0.037 A 
ATOM     55  C   UNL A   1      46.954  26.908  29.380  1.00  0.00     0.037 A 
ATOM     56  C   UNL A   1      41.127  29.844  29.752  1.00  0.00     0.049 A 
ATOM     57  C   UNL A   1      46.508  28.267  29.846  1.00  0.00     0.074 A 
ATOM     58  C   UNL A   1      40.839  31.101  30.254  1.00  0.00     0.029 A 
ATOM     59  N   UNL A   1      42.499  29.671  29.865  1.00  0.00    -0.354 N 
ATOM     60  N   UNL A   1      45.298  28.767  29.897  1.00  0.00    -0.248 NA
ATOM     61  C   UNL A   1      47.557  29.181  30.320  1.00  0.00     0.031 C 
ATOM     62  C   UNL A   1      42.042  31.703  30.637  1.00  0.00     0.029 A 
ATOM     63  C   UNL A   1      43.073  30.804  30.416  1.00  0.00     0.049 A 
ATOM     64  H   UNL A   1      42.990  28.862  29.594  1.00  0.00     0.167 HD
ATOM     65  C   UNL A   1      45.434  30.039  30.438  1.00  0.00     0.074 A 
ATOM     66  C   UNL A   1      46.844  30.229  30.707  1.00  0.00     0.031 C 
ATOM     67  C   UNL A   1      44.478  30.968  30.688  1.00  0.00     0.037 A 
BRANCH  54  68
ATOM     68  C   UNL A   1      38.768  29.217  29.095  1.00  0.00     0.057 A 
ATOM     69  C   UNL A   1      38.202  29.625  27.879  1.00  0.00     0.134 A 
ATOM     70  C   UNL A   1      37.919  29.129  30.204  1.00  0.00     0.134 A 
ATOM     71  F   UNL A   1      38.962  29.745  26.781  1.00  0.00    -0.206 F 
ATOM     72  C   UNL A   1      36.851  29.961  27.779  1.00  0.00     0.040 A 
ATOM     73  C   UNL A   1      36.560  29.434  30.110  1.00  0.00     0.040 A 
ATOM     74  F   UNL A   1      38.394  28.740  31.397  1.00  0.00    -0.206 F 
ATOM     75  C   UNL A   1      36.023  29.860  28.896  1.00  0.00     0.006 A 
ENDBRANCH  54  68
BRANCH  55  76
ATOM     76  C   UNL A   1      48.388  26.527  29.410  1.00  0.00     0.057 A 
ATOM     77  C   UNL A   1      49.227  26.795  28.323  1.00  0.00     0.134 A 
ATOM     78  C   UNL A   1      48.954  25.886  30.518  1.00  0.00     0.134 A 
ATOM     79  F   UNL A   1      48.739  27.392  27.225  1.00  0.00    -0.206 F 
ATOM     80  C   UNL A   1      50.573  26.422  28.326  1.00  0.00     0.040 A 
ATOM     81  C   UNL A   1      50.304  25.529  30.546  1.00  0.00     0.040 A 
ATOM     82  F   UNL A   1      48.207  25.609  31.597  1.00  0.00    -0.206 F 
ATOM     83  C   UNL A   1      51.116  25.791  29.443  1.00  0.00     0.006 A 
ENDBRANCH  55  76
BRANCH  67  84
ATOM     84  C   UNL A   1      44.920  32.253  31.322  1.00  0.00     0.057 A 
ATOM     85  C   UNL A   1      45.274  33.371  30.558  1.00  0.00     0.134 A 
ATOM     86  C   UNL A   1      44.945  32.385  32.716  1.00  0.00     0.134 A 
ATOM     87  F   UNL A   1      45.282  33.305  29.218  1.00  0.00    -0.206 F 
ATOM     88  C   UNL A   1      45.660  34.570  31.159  1.00  0.00     0.040 A 
ATOM     89  C   UNL A   1      45.303  33.586  33.328  1.00  0.00     0.040 A 
ATOM     90  F   UNL A   1      44.607  31.353  33.505  1.00  0.00    -0.206 F 
ATOM     91  C   UNL A   1      45.668  34.682  32.548  1.00  0.00     0.006 A 
ENDBRANCH  67  84
ENDBRANCH  41  42
ENDBRANCH  33  36
ENDBRANCH  31  32
ENDBRANCH  30  31
ENDBRANCH  29  30
ENDBRANCH  28  29
ENDBRANCH   1  28
TORSDOF 17
ENDMDL
