MODEL 1
REMARK VINA RESULT:     -11.8      0.000      0.000
REMARK SMILES Cc1ccc(C#N)cc1S(=O)(=O)Nc1cccc(C(=O)NCCCCCCNC(=O)c2ccc(-c3c4nc(c(-c5c(F)cccc5F)c5ccc([nH]5)c(-c5c(F)cccc5F)c5nc(c(-c6c(F)cccc6F)c6ccc3[nH]6)C=C5)C=C4)cc2)c1
REMARK SMILES IDX 23 1 22 2 21 3 19 4 20 5 18 7 14 8 15 9 85 10 16 11 17 12
REMARK SMILES IDX 13 13 10 15 11 16 12 17 9 18 1 19 2 20 3 21 4 22 8 23 5 24
REMARK SMILES IDX 6 25 7 26 24 27 25 28 26 29 27 30 28 31 29 32 30 34 31 35
REMARK SMILES IDX 32 36 84 37 33 38 83 39 34 40 35 41 36 42 77 43 37 44 82 45
REMARK SMILES IDX 76 46 78 47 38 48 81 49 75 50 74 51 39 53 65 54 48 55 64 56
REMARK SMILES IDX 49 57 52 58 63 59 79 60 50 61 51 62 62 64 80 65 53 66 40 67
REMARK SMILES IDX 41 68 46 69 42 70 43 71 45 72 47 73 44 74 66 75 67 76 72 77
REMARK SMILES IDX 68 78 69 79 71 80 73 81 70 82 54 83 55 84 60 85 56 86 57 87
REMARK SMILES IDX 59 88 61 89 58 90
REMARK H PARENT 21 6 13 14 28 33 78 52 52 63
REMARK Flexibility Score: inf
ROOT
ATOM      1  C   UNL A   1      35.197  21.855  26.274  1.00  0.00     0.021 C 
ENDROOT
BRANCH   1   2
ATOM      2  C   UNL A   1      33.980  21.149  26.861  1.00  0.00     0.116 C 
BRANCH   2   3
ATOM      3  N   UNL A   1      32.951  22.028  27.377  1.00  0.00    -0.352 N 
ATOM      4  C   UNL A   1      32.199  23.020  26.790  1.00  0.00     0.251 C 
ATOM      5  O   UNL A   1      31.340  23.553  27.498  1.00  0.00    -0.269 OA
ATOM      6  H   UNL A   1      32.750  21.888  28.331  1.00  0.00     0.163 HD
BRANCH   4   7
ATOM      7  C   UNL A   1      32.419  23.552  25.403  1.00  0.00     0.041 A 
ATOM      8  C   UNL A   1      32.977  25.323  23.839  1.00  0.00     0.050 A 
ATOM      9  C   UNL A   1      32.294  24.676  22.818  1.00  0.00     0.027 A 
ATOM     10  C   UNL A   1      33.138  24.709  25.087  1.00  0.00     0.040 A 
ATOM     11  C   UNL A   1      31.711  23.437  23.064  1.00  0.00     0.003 A 
ATOM     12  C   UNL A   1      31.740  22.898  24.356  1.00  0.00     0.014 A 
BRANCH   8  13
ATOM     13  N   UNL A   1      33.466  26.643  23.607  1.00  0.00    -0.280 N 
ATOM     14  H   UNL A   1      34.314  26.757  23.118  1.00  0.00     0.180 HD
BRANCH  13  15
ATOM     15  S   UNL A   1      32.633  28.035  24.144  1.00  0.00     0.262 S 
ATOM     16  O   UNL A   1      33.331  29.118  23.475  1.00  0.00    -0.201 OA
ATOM     17  O   UNL A   1      32.630  27.982  25.591  1.00  0.00    -0.201 OA
BRANCH  15  18
ATOM     18  C   UNL A   1      30.920  28.133  23.612  1.00  0.00     0.092 A 
ATOM     19  C   UNL A   1      29.956  26.301  25.165  1.00  0.00     0.046 C 
ATOM     20  C   UNL A   1      29.879  27.296  24.049  1.00  0.00    -0.030 A 
ATOM     21  C   UNL A   1      28.591  27.460  23.493  1.00  0.00     0.006 A 
ATOM     22  C   UNL A   1      28.282  28.553  22.691  1.00  0.00     0.020 A 
ATOM     23  C   UNL A   1      30.580  29.271  22.844  1.00  0.00     0.042 A 
ATOM     24  C   UNL A   1      29.263  29.503  22.426  1.00  0.00     0.053 A 
BRANCH  24  25
ATOM     25  C   UNL A   1      28.896  30.735  21.792  1.00  0.00     0.099 C 
ATOM     26  N   UNL A   1      28.581  31.751  21.320  1.00  0.00    -0.192 NA
ENDBRANCH  24  25
ENDBRANCH  15  18
ENDBRANCH  13  15
ENDBRANCH   8  13
ENDBRANCH   4   7
ENDBRANCH   2   3
ENDBRANCH   1   2
BRANCH   1  27
ATOM     27  C   UNL A   1      35.655  21.416  24.884  1.00  0.00     0.002 C 
BRANCH  27  28
ATOM     28  C   UNL A   1      37.162  21.454  24.622  1.00  0.00     0.002 C 
BRANCH  28  29
ATOM     29  C   UNL A   1      37.939  20.195  25.001  1.00  0.00     0.021 C 
BRANCH  29  30
ATOM     30  C   UNL A   1      39.168  20.425  25.869  1.00  0.00     0.116 C 
BRANCH  30  31
ATOM     31  N   UNL A   1      40.085  19.294  25.877  1.00  0.00    -0.352 N 
ATOM     32  C   UNL A   1      41.444  19.278  26.091  1.00  0.00     0.251 C 
ATOM     33  H   UNL A   1      39.674  18.416  25.704  1.00  0.00     0.163 HD
ATOM     34  O   UNL A   1      42.091  18.249  25.923  1.00  0.00    -0.269 OA
BRANCH  32  35
ATOM     35  C   UNL A   1      42.128  20.528  26.484  1.00  0.00     0.039 A 
ATOM     36  C   UNL A   1      42.182  20.909  27.825  1.00  0.00     0.014 A 
ATOM     37  C   UNL A   1      42.653  21.362  25.494  1.00  0.00     0.014 A 
ATOM     38  C   UNL A   1      42.558  22.204  28.153  1.00  0.00     0.010 A 
ATOM     39  C   UNL A   1      43.140  22.625  25.843  1.00  0.00     0.010 A 
ATOM     40  C   UNL A   1      43.037  23.082  27.167  1.00  0.00    -0.014 A 
BRANCH  40  41
ATOM     41  C   UNL A   1      43.403  24.473  27.544  1.00  0.00     0.031 A 
ATOM     42  C   UNL A   1      44.839  24.932  27.511  1.00  0.00     0.074 A 
ATOM     43  C   UNL A   1      42.428  25.347  27.861  1.00  0.00     0.049 A 
ATOM     44  N   UNL A   1      45.338  26.107  27.803  1.00  0.00    -0.248 NA
ATOM     45  C   UNL A   1      45.845  23.941  27.102  1.00  0.00     0.031 C 
ATOM     46  C   UNL A   1      40.998  25.038  27.906  1.00  0.00     0.029 A 
ATOM     47  N   UNL A   1      42.489  26.679  28.185  1.00  0.00    -0.354 N 
ATOM     48  C   UNL A   1      46.713  25.994  27.626  1.00  0.00     0.074 A 
ATOM     49  C   UNL A   1      46.973  24.622  27.247  1.00  0.00     0.031 C 
ATOM     50  C   UNL A   1      40.314  26.155  28.189  1.00  0.00     0.029 A 
ATOM     51  C   UNL A   1      41.259  27.240  28.426  1.00  0.00     0.049 A 
ATOM     52  H   UNL A   1      43.333  27.183  28.240  1.00  0.00     0.167 HD
ATOM     53  C   UNL A   1      47.669  26.947  27.756  1.00  0.00     0.037 A 
ATOM     54  C   UNL A   1      40.928  28.481  28.824  1.00  0.00     0.037 A 
ATOM     55  C   UNL A   1      47.408  28.311  28.141  1.00  0.00     0.049 A 
ATOM     56  C   UNL A   1      42.018  29.487  29.056  1.00  0.00     0.074 A 
ATOM     57  C   UNL A   1      48.306  29.353  28.292  1.00  0.00     0.029 A 
ATOM     58  N   UNL A   1      46.154  28.819  28.450  1.00  0.00    -0.354 N 
ATOM     59  N   UNL A   1      43.311  29.371  28.868  1.00  0.00    -0.248 NA
ATOM     60  C   UNL A   1      41.600  30.801  29.563  1.00  0.00     0.031 C 
ATOM     61  C   UNL A   1      47.607  30.471  28.761  1.00  0.00     0.029 A 
ATOM     62  C   UNL A   1      46.262  30.150  28.826  1.00  0.00     0.049 A 
ATOM     63  H   UNL A   1      45.312  28.310  28.409  1.00  0.00     0.167 HD
ATOM     64  C   UNL A   1      43.855  30.603  29.206  1.00  0.00     0.074 A 
ATOM     65  C   UNL A   1      42.750  31.458  29.583  1.00  0.00     0.031 C 
ATOM     66  C   UNL A   1      45.155  30.992  29.205  1.00  0.00     0.037 A 
BRANCH  53  67
ATOM     67  C   UNL A   1      49.095  26.535  27.509  1.00  0.00     0.057 A 
ATOM     68  C   UNL A   1      49.642  26.595  26.220  1.00  0.00     0.134 A 
ATOM     69  C   UNL A   1      49.924  26.063  28.536  1.00  0.00     0.134 A 
ATOM     70  F   UNL A   1      48.904  27.022  25.185  1.00  0.00    -0.206 F 
ATOM     71  C   UNL A   1      50.959  26.208  25.964  1.00  0.00     0.040 A 
ATOM     72  C   UNL A   1      51.254  25.706  28.299  1.00  0.00     0.040 A 
ATOM     73  F   UNL A   1      49.470  25.984  29.797  1.00  0.00    -0.206 F 
ATOM     74  C   UNL A   1      51.773  25.774  27.008  1.00  0.00     0.006 A 
ENDBRANCH  53  67
BRANCH  54  75
ATOM     75  C   UNL A   1      39.505  28.839  29.061  1.00  0.00     0.057 A 
ATOM     76  C   UNL A   1      38.699  29.345  28.032  1.00  0.00     0.134 A 
ATOM     77  C   UNL A   1      38.906  28.642  30.309  1.00  0.00     0.134 A 
ATOM     78  F   UNL A   1      39.214  29.567  26.813  1.00  0.00    -0.206 F 
ATOM     79  C   UNL A   1      37.352  29.639  28.236  1.00  0.00     0.040 A 
ATOM     80  C   UNL A   1      37.550  28.897  30.518  1.00  0.00     0.040 A 
ATOM     81  F   UNL A   1      39.620  28.146  31.330  1.00  0.00    -0.206 F 
ATOM     82  C   UNL A   1      36.769  29.400  29.479  1.00  0.00     0.006 A 
ENDBRANCH  54  75
BRANCH  66  83
ATOM     83  C   UNL A   1      45.440  32.419  29.585  1.00  0.00     0.057 A 
ATOM     84  C   UNL A   1      45.731  32.756  30.913  1.00  0.00     0.134 A 
ATOM     85  C   UNL A   1      45.428  33.458  28.645  1.00  0.00     0.134 A 
ATOM     86  F   UNL A   1      45.749  31.814  31.869  1.00  0.00    -0.206 F 
ATOM     87  C   UNL A   1      46.005  34.071  31.292  1.00  0.00     0.040 A 
ATOM     88  C   UNL A   1      45.737  34.771  29.005  1.00  0.00     0.040 A 
ATOM     89  F   UNL A   1      45.170  33.204  27.353  1.00  0.00    -0.206 F 
ATOM     90  C   UNL A   1      46.022  35.081  30.333  1.00  0.00     0.006 A 
ENDBRANCH  66  83
ENDBRANCH  40  41
ENDBRANCH  32  35
ENDBRANCH  30  31
ENDBRANCH  29  30
ENDBRANCH  28  29
ENDBRANCH  27  28
ENDBRANCH   1  27
TORSDOF 17
ENDMDL
MODEL 2
REMARK VINA RESULT:     -11.7      1.994      6.447
REMARK SMILES Cc1ccc(C#N)cc1S(=O)(=O)Nc1cccc(C(=O)NCCCCCCNC(=O)c2ccc(-c3c4nc(c(-c5c(F)cccc5F)c5ccc([nH]5)c(-c5c(F)cccc5F)c5nc(c(-c6c(F)cccc6F)c6ccc3[nH]6)C=C5)C=C4)cc2)c1
REMARK SMILES IDX 23 1 22 2 21 3 19 4 20 5 18 7 14 8 15 9 85 10 16 11 17 12
REMARK SMILES IDX 13 13 10 15 11 16 12 17 9 18 1 19 2 20 3 21 4 22 8 23 5 24
REMARK SMILES IDX 6 25 7 26 24 27 25 28 26 29 27 30 28 31 29 32 30 34 31 35
REMARK SMILES IDX 32 36 84 37 33 38 83 39 34 40 35 41 36 42 77 43 37 44 82 45
REMARK SMILES IDX 76 46 78 47 38 48 81 49 75 50 74 51 39 53 65 54 48 55 64 56
REMARK SMILES IDX 49 57 52 58 63 59 79 60 50 61 51 62 62 64 80 65 53 66 40 67
REMARK SMILES IDX 41 68 46 69 42 70 43 71 45 72 47 73 44 74 66 75 67 76 72 77
REMARK SMILES IDX 68 78 69 79 71 80 73 81 70 82 54 83 55 84 60 85 56 86 57 87
REMARK SMILES IDX 59 88 61 89 58 90
REMARK H PARENT 21 6 13 14 28 33 78 52 52 63
REMARK Flexibility Score: inf
ROOT
ATOM      1  C   UNL A   1      38.172  23.536  26.170  1.00  0.00     0.021 C 
ENDROOT
BRANCH   1   2
ATOM      2  C   UNL A   1      36.684  23.686  25.874  1.00  0.00     0.116 C 
BRANCH   2   3
ATOM      3  N   UNL A   1      35.806  22.947  26.756  1.00  0.00    -0.352 N 
ATOM      4  C   UNL A   1      34.525  22.468  26.602  1.00  0.00     0.251 C 
ATOM      5  O   UNL A   1      34.065  21.808  27.537  1.00  0.00    -0.269 OA
ATOM      6  H   UNL A   1      36.201  22.749  27.637  1.00  0.00     0.163 HD
BRANCH   4   7
ATOM      7  C   UNL A   1      33.633  22.774  25.432  1.00  0.00     0.041 A 
ATOM      8  C   UNL A   1      31.546  23.542  24.458  1.00  0.00     0.050 A 
ATOM      9  C   UNL A   1      31.792  22.825  23.294  1.00  0.00     0.027 A 
ATOM     10  C   UNL A   1      32.513  23.610  25.468  1.00  0.00     0.040 A 
ATOM     11  C   UNL A   1      32.983  22.117  23.166  1.00  0.00     0.003 A 
ATOM     12  C   UNL A   1      33.879  22.061  24.242  1.00  0.00     0.014 A 
BRANCH   8  13
ATOM     13  N   UNL A   1      30.272  24.163  24.623  1.00  0.00    -0.280 N 
ATOM     14  H   UNL A   1      29.460  23.614  24.528  1.00  0.00     0.180 HD
BRANCH  13  15
ATOM     15  S   UNL A   1      30.105  25.825  24.981  1.00  0.00     0.262 S 
ATOM     16  O   UNL A   1      30.026  25.846  26.430  1.00  0.00    -0.201 OA
ATOM     17  O   UNL A   1      28.982  26.305  24.203  1.00  0.00    -0.201 OA
BRANCH  15  18
ATOM     18  C   UNL A   1      31.526  26.831  24.539  1.00  0.00     0.092 A 
ATOM     19  C   UNL A   1      31.580  26.285  22.009  1.00  0.00     0.046 C 
ATOM     20  C   UNL A   1      32.121  26.892  23.267  1.00  0.00    -0.030 A 
ATOM     21  C   UNL A   1      33.273  27.688  23.089  1.00  0.00     0.006 A 
ATOM     22  C   UNL A   1      33.704  28.570  24.074  1.00  0.00     0.020 A 
ATOM     23  C   UNL A   1      31.938  27.773  25.510  1.00  0.00     0.042 A 
ATOM     24  C   UNL A   1      32.988  28.667  25.263  1.00  0.00     0.053 A 
BRANCH  24  25
ATOM     25  C   UNL A   1      33.291  29.722  26.183  1.00  0.00     0.099 C 
ATOM     26  N   UNL A   1      33.508  30.609  26.905  1.00  0.00    -0.192 NA
ENDBRANCH  24  25
ENDBRANCH  15  18
ENDBRANCH  13  15
ENDBRANCH   8  13
ENDBRANCH   4   7
ENDBRANCH   2   3
ENDBRANCH   1   2
BRANCH   1  27
ATOM     27  C   UNL A   1      38.758  22.127  26.108  1.00  0.00     0.002 C 
BRANCH  27  28
ATOM     28  C   UNL A   1      38.141  21.179  25.078  1.00  0.00     0.002 C 
BRANCH  28  29
ATOM     29  C   UNL A   1      38.792  19.802  24.963  1.00  0.00     0.021 C 
BRANCH  29  30
ATOM     30  C   UNL A   1      39.565  19.343  26.191  1.00  0.00     0.116 C 
BRANCH  30  31
ATOM     31  N   UNL A   1      40.906  18.868  25.881  1.00  0.00    -0.352 N 
ATOM     32  C   UNL A   1      42.100  19.554  25.910  1.00  0.00     0.251 C 
ATOM     33  H   UNL A   1      40.968  17.924  25.612  1.00  0.00     0.163 HD
ATOM     34  O   UNL A   1      43.127  19.038  25.482  1.00  0.00    -0.269 OA
BRANCH  32  35
ATOM     35  C   UNL A   1      42.123  20.940  26.423  1.00  0.00     0.039 A 
ATOM     36  C   UNL A   1      42.323  22.010  25.549  1.00  0.00     0.014 A 
ATOM     37  C   UNL A   1      42.018  21.165  27.797  1.00  0.00     0.014 A 
ATOM     38  C   UNL A   1      42.634  23.261  26.063  1.00  0.00     0.010 A 
ATOM     39  C   UNL A   1      42.217  22.452  28.303  1.00  0.00     0.010 A 
ATOM     40  C   UNL A   1      42.590  23.500  27.446  1.00  0.00    -0.014 A 
BRANCH  40  41
ATOM     41  C   UNL A   1      42.959  24.843  27.968  1.00  0.00     0.031 A 
ATOM     42  C   UNL A   1      41.902  25.879  28.252  1.00  0.00     0.074 A 
ATOM     43  C   UNL A   1      44.250  25.110  28.243  1.00  0.00     0.049 A 
ATOM     44  N   UNL A   1      42.041  27.097  28.713  1.00  0.00    -0.248 NA
ATOM     45  C   UNL A   1      40.507  25.500  27.981  1.00  0.00     0.031 C 
ATOM     46  C   UNL A   1      45.367  24.186  28.037  1.00  0.00     0.029 A 
ATOM     47  N   UNL A   1      44.840  26.229  28.775  1.00  0.00    -0.354 N 
ATOM     48  C   UNL A   1      40.759  27.633  28.773  1.00  0.00     0.074 A 
ATOM     49  C   UNL A   1      39.860  26.623  28.258  1.00  0.00     0.031 C 
ATOM     50  C   UNL A   1      46.497  24.754  28.482  1.00  0.00     0.029 A 
ATOM     51  C   UNL A   1      46.199  26.110  28.928  1.00  0.00     0.049 A 
ATOM     52  H   UNL A   1      44.337  27.038  29.022  1.00  0.00     0.167 HD
ATOM     53  C   UNL A   1      40.366  28.850  29.226  1.00  0.00     0.037 A 
ATOM     54  C   UNL A   1      47.112  27.003  29.350  1.00  0.00     0.037 A 
ATOM     55  C   UNL A   1      41.264  29.857  29.731  1.00  0.00     0.049 A 
ATOM     56  C   UNL A   1      46.656  28.377  29.751  1.00  0.00     0.074 A 
ATOM     57  C   UNL A   1      40.963  31.116  30.221  1.00  0.00     0.029 A 
ATOM     58  N   UNL A   1      42.644  29.724  29.798  1.00  0.00    -0.354 N 
ATOM     59  N   UNL A   1      45.441  28.862  29.820  1.00  0.00    -0.248 NA
ATOM     60  C   UNL A   1      47.707  29.331  30.130  1.00  0.00     0.031 C 
ATOM     61  C   UNL A   1      42.163  31.770  30.517  1.00  0.00     0.029 A 
ATOM     62  C   UNL A   1      43.209  30.892  30.287  1.00  0.00     0.049 A 
ATOM     63  H   UNL A   1      43.147  28.919  29.537  1.00  0.00     0.167 HD
ATOM     64  C   UNL A   1      45.579  30.167  30.276  1.00  0.00     0.074 A 
ATOM     65  C   UNL A   1      46.993  30.385  30.494  1.00  0.00     0.031 C 
ATOM     66  C   UNL A   1      44.620  31.102  30.496  1.00  0.00     0.037 A 
BRANCH  53  67
ATOM     67  C   UNL A   1      38.896  29.168  29.164  1.00  0.00     0.057 A 
ATOM     68  C   UNL A   1      38.091  29.045  30.305  1.00  0.00     0.134 A 
ATOM     69  C   UNL A   1      38.271  29.580  27.980  1.00  0.00     0.134 A 
ATOM     70  F   UNL A   1      38.617  28.642  31.471  1.00  0.00    -0.206 F 
ATOM     71  C   UNL A   1      36.724  29.326  30.271  1.00  0.00     0.040 A 
ATOM     72  C   UNL A   1      36.911  29.897  27.941  1.00  0.00     0.040 A 
ATOM     73  F   UNL A   1      38.981  29.727  26.850  1.00  0.00    -0.206 F 
ATOM     74  C   UNL A   1      36.132  29.765  29.089  1.00  0.00     0.006 A 
ENDBRANCH  53  67
BRANCH  54  75
ATOM     75  C   UNL A   1      48.553  26.643  29.388  1.00  0.00     0.057 A 
ATOM     76  C   UNL A   1      49.393  26.881  28.292  1.00  0.00     0.134 A 
ATOM     77  C   UNL A   1      49.134  26.096  30.537  1.00  0.00     0.134 A 
ATOM     78  F   UNL A   1      48.899  27.395  27.155  1.00  0.00    -0.206 F 
ATOM     79  C   UNL A   1      50.756  26.588  28.337  1.00  0.00     0.040 A 
ATOM     80  C   UNL A   1      50.503  25.833  30.610  1.00  0.00     0.040 A 
ATOM     81  F   UNL A   1      48.386  25.860  31.624  1.00  0.00    -0.206 F 
ATOM     82  C   UNL A   1      51.317  26.078  29.506  1.00  0.00     0.006 A 
ENDBRANCH  54  75
BRANCH  66  83
ATOM     83  C   UNL A   1      45.073  32.429  31.037  1.00  0.00     0.057 A 
ATOM     84  C   UNL A   1      45.175  32.635  32.419  1.00  0.00     0.134 A 
ATOM     85  C   UNL A   1      45.408  33.502  30.199  1.00  0.00     0.134 A 
ATOM     86  F   UNL A   1      44.858  31.657  33.281  1.00  0.00    -0.206 F 
ATOM     87  C   UNL A   1      45.598  33.856  32.948  1.00  0.00     0.040 A 
ATOM     88  C   UNL A   1      45.869  34.714  30.716  1.00  0.00     0.040 A 
ATOM     89  F   UNL A   1      45.346  33.369  28.866  1.00  0.00    -0.206 F 
ATOM     90  C   UNL A   1      45.960  34.895  32.094  1.00  0.00     0.006 A 
ENDBRANCH  66  83
ENDBRANCH  40  41
ENDBRANCH  32  35
ENDBRANCH  30  31
ENDBRANCH  29  30
ENDBRANCH  28  29
ENDBRANCH  27  28
ENDBRANCH   1  27
TORSDOF 17
ENDMDL
MODEL 3
REMARK VINA RESULT:     -11.6      2.364      3.510
REMARK SMILES Cc1ccc(C#N)cc1S(=O)(=O)Nc1cccc(C(=O)NCCCCCCNC(=O)c2ccc(-c3c4nc(c(-c5c(F)cccc5F)c5ccc([nH]5)c(-c5c(F)cccc5F)c5nc(c(-c6c(F)cccc6F)c6ccc3[nH]6)C=C5)C=C4)cc2)c1
REMARK SMILES IDX 23 1 22 2 21 3 19 4 20 5 18 7 14 8 15 9 85 10 16 11 17 12
REMARK SMILES IDX 13 13 10 15 11 16 12 17 9 18 1 19 2 20 3 21 4 22 8 23 5 24
REMARK SMILES IDX 6 25 7 26 24 27 25 28 26 29 27 30 28 31 29 32 30 34 31 35
REMARK SMILES IDX 32 36 84 37 33 38 83 39 34 40 35 41 36 42 77 43 37 44 82 45
REMARK SMILES IDX 76 46 78 47 38 48 81 49 75 50 74 51 39 53 65 54 48 55 64 56
REMARK SMILES IDX 49 57 52 58 63 59 79 60 50 61 51 62 62 64 80 65 53 66 40 67
REMARK SMILES IDX 41 68 46 69 42 70 43 71 45 72 47 73 44 74 66 75 67 76 72 77
REMARK SMILES IDX 68 78 69 79 71 80 73 81 70 82 54 83 55 84 60 85 56 86 57 87
REMARK SMILES IDX 59 88 61 89 58 90
REMARK H PARENT 21 6 13 14 28 33 78 52 52 63
REMARK Flexibility Score: inf
ROOT
ATOM      1  C   UNL A   1      39.328  23.203  26.517  1.00  0.00     0.021 C 
ENDROOT
BRANCH   1   2
ATOM      2  C   UNL A   1      38.098  22.449  26.025  1.00  0.00     0.116 C 
BRANCH   2   3
ATOM      3  N   UNL A   1      37.779  22.642  24.626  1.00  0.00    -0.352 N 
ATOM      4  C   UNL A   1      36.582  22.711  23.949  1.00  0.00     0.251 C 
ATOM      5  O   UNL A   1      36.644  22.953  22.741  1.00  0.00    -0.269 OA
ATOM      6  H   UNL A   1      38.570  22.744  24.047  1.00  0.00     0.163 HD
BRANCH   4   7
ATOM      7  C   UNL A   1      35.239  22.419  24.555  1.00  0.00     0.041 A 
ATOM      8  C   UNL A   1      33.294  23.026  25.875  1.00  0.00     0.050 A 
ATOM      9  C   UNL A   1      33.011  21.689  26.125  1.00  0.00     0.027 A 
ATOM     10  C   UNL A   1      34.328  23.381  25.001  1.00  0.00     0.040 A 
ATOM     11  C   UNL A   1      33.807  20.703  25.551  1.00  0.00     0.003 A 
ATOM     12  C   UNL A   1      34.935  21.066  24.804  1.00  0.00     0.014 A 
BRANCH   8  13
ATOM     13  N   UNL A   1      32.544  24.025  26.564  1.00  0.00    -0.280 N 
ATOM     14  H   UNL A   1      32.630  24.092  27.543  1.00  0.00     0.180 HD
BRANCH  13  15
ATOM     15  S   UNL A   1      31.504  25.110  25.752  1.00  0.00     0.262 S 
ATOM     16  O   UNL A   1      31.039  25.981  26.816  1.00  0.00    -0.201 OA
ATOM     17  O   UNL A   1      30.545  24.301  25.029  1.00  0.00    -0.201 OA
BRANCH  15  18
ATOM     18  C   UNL A   1      32.319  26.170  24.553  1.00  0.00     0.092 A 
ATOM     19  C   UNL A   1      33.749  27.553  26.208  1.00  0.00     0.046 C 
ATOM     20  C   UNL A   1      33.192  27.228  24.857  1.00  0.00    -0.030 A 
ATOM     21  C   UNL A   1      33.711  28.011  23.802  1.00  0.00     0.006 A 
ATOM     22  C   UNL A   1      33.551  27.633  22.473  1.00  0.00     0.020 A 
ATOM     23  C   UNL A   1      32.213  25.763  23.202  1.00  0.00     0.042 A 
ATOM     24  C   UNL A   1      32.862  26.462  22.176  1.00  0.00     0.053 A 
BRANCH  24  25
ATOM     25  C   UNL A   1      32.885  25.952  20.836  1.00  0.00     0.099 C 
ATOM     26  N   UNL A   1      32.903  25.493  19.767  1.00  0.00    -0.192 NA
ENDBRANCH  24  25
ENDBRANCH  15  18
ENDBRANCH  13  15
ENDBRANCH   8  13
ENDBRANCH   4   7
ENDBRANCH   2   3
ENDBRANCH   1   2
BRANCH   1  27
ATOM     27  C   UNL A   1      40.448  22.377  27.147  1.00  0.00     0.002 C 
BRANCH  27  28
ATOM     28  C   UNL A   1      41.431  21.715  26.180  1.00  0.00     0.002 C 
BRANCH  28  29
ATOM     29  C   UNL A   1      41.391  20.189  26.126  1.00  0.00     0.021 C 
BRANCH  29  30
ATOM     30  C   UNL A   1      42.704  19.491  26.452  1.00  0.00     0.116 C 
BRANCH  30  31
ATOM     31  N   UNL A   1      43.372  18.946  25.279  1.00  0.00    -0.352 N 
ATOM     32  C   UNL A   1      44.249  19.561  24.415  1.00  0.00     0.251 C 
ATOM     33  H   UNL A   1      43.167  18.006  25.075  1.00  0.00     0.163 HD
ATOM     34  O   UNL A   1      44.614  18.996  23.389  1.00  0.00    -0.269 OA
BRANCH  32  35
ATOM     35  C   UNL A   1      44.714  20.933  24.712  1.00  0.00     0.039 A 
ATOM     36  C   UNL A   1      45.473  21.185  25.856  1.00  0.00     0.014 A 
ATOM     37  C   UNL A   1      44.325  21.984  23.880  1.00  0.00     0.014 A 
ATOM     38  C   UNL A   1      45.653  22.494  26.280  1.00  0.00     0.010 A 
ATOM     39  C   UNL A   1      44.611  23.301  24.252  1.00  0.00     0.010 A 
ATOM     40  C   UNL A   1      45.221  23.570  25.488  1.00  0.00    -0.014 A 
BRANCH  40  41
ATOM     41  C   UNL A   1      45.400  24.961  25.984  1.00  0.00     0.031 A 
ATOM     42  C   UNL A   1      46.738  25.649  25.891  1.00  0.00     0.074 A 
ATOM     43  C   UNL A   1      44.336  25.630  26.468  1.00  0.00     0.049 A 
ATOM     44  N   UNL A   1      47.075  26.857  26.268  1.00  0.00    -0.248 NA
ATOM     45  C   UNL A   1      47.843  24.879  25.301  1.00  0.00     0.031 C 
ATOM     46  C   UNL A   1      42.981  25.088  26.589  1.00  0.00     0.029 A 
ATOM     47  N   UNL A   1      44.219  26.917  26.928  1.00  0.00    -0.354 N 
ATOM     48  C   UNL A   1      48.428  26.987  25.976  1.00  0.00     0.074 A 
ATOM     49  C   UNL A   1      48.861  25.718  25.431  1.00  0.00     0.031 C 
ATOM     50  C   UNL A   1      42.162  26.047  27.043  1.00  0.00     0.029 A 
ATOM     51  C   UNL A   1      42.945  27.244  27.323  1.00  0.00     0.049 A 
ATOM     52  H   UNL A   1      44.977  27.545  26.972  1.00  0.00     0.167 HD
ATOM     53  C   UNL A   1      49.233  28.067  26.134  1.00  0.00     0.037 A 
ATOM     54  C   UNL A   1      42.465  28.370  27.877  1.00  0.00     0.037 A 
ATOM     55  C   UNL A   1      48.800  29.328  26.684  1.00  0.00     0.049 A 
ATOM     56  C   UNL A   1      43.403  29.515  28.132  1.00  0.00     0.074 A 
ATOM     57  C   UNL A   1      49.537  30.484  26.877  1.00  0.00     0.029 A 
ATOM     58  N   UNL A   1      47.518  29.593  27.141  1.00  0.00    -0.354 N 
ATOM     59  N   UNL A   1      44.675  29.630  27.834  1.00  0.00    -0.248 NA
ATOM     60  C   UNL A   1      42.836  30.689  28.809  1.00  0.00     0.031 C 
ATOM     61  C   UNL A   1      48.721  31.422  27.516  1.00  0.00     0.029 A 
ATOM     62  C   UNL A   1      47.453  30.882  27.649  1.00  0.00     0.049 A 
ATOM     63  H   UNL A   1      46.764  28.959  27.110  1.00  0.00     0.167 HD
ATOM     64  C   UNL A   1      45.051  30.897  28.260  1.00  0.00     0.074 A 
ATOM     65  C   UNL A   1      43.867  31.520  28.812  1.00  0.00     0.031 C 
ATOM     66  C   UNL A   1      46.269  31.492  28.201  1.00  0.00     0.037 A 
BRANCH  53  67
ATOM     67  C   UNL A   1      50.676  27.919  25.735  1.00  0.00     0.057 A 
ATOM     68  C   UNL A   1      51.665  27.703  26.705  1.00  0.00     0.134 A 
ATOM     69  C   UNL A   1      51.094  28.005  24.400  1.00  0.00     0.134 A 
ATOM     70  F   UNL A   1      51.342  27.624  28.004  1.00  0.00    -0.206 F 
ATOM     71  C   UNL A   1      53.012  27.571  26.361  1.00  0.00     0.040 A 
ATOM     72  C   UNL A   1      52.434  27.840  24.040  1.00  0.00     0.040 A 
ATOM     73  F   UNL A   1      50.202  28.203  23.417  1.00  0.00    -0.206 F 
ATOM     74  C   UNL A   1      53.398  27.627  25.024  1.00  0.00     0.006 A 
ENDBRANCH  53  67
BRANCH  54  75
ATOM     75  C   UNL A   1      41.032  28.467  28.260  1.00  0.00     0.057 A 
ATOM     76  C   UNL A   1      40.064  28.920  27.354  1.00  0.00     0.134 A 
ATOM     77  C   UNL A   1      40.591  28.067  29.525  1.00  0.00     0.134 A 
ATOM     78  F   UNL A   1      40.420  29.328  26.126  1.00  0.00    -0.206 F 
ATOM     79  C   UNL A   1      38.712  28.969  27.692  1.00  0.00     0.040 A 
ATOM     80  C   UNL A   1      39.237  28.076  29.865  1.00  0.00     0.040 A 
ATOM     81  F   UNL A   1      41.467  27.610  30.432  1.00  0.00    -0.206 F 
ATOM     82  C   UNL A   1      38.294  28.531  28.946  1.00  0.00     0.006 A 
ENDBRANCH  54  75
BRANCH  66  83
ATOM     83  C   UNL A   1      46.364  32.903  28.710  1.00  0.00     0.057 A 
ATOM     84  C   UNL A   1      46.221  33.986  27.832  1.00  0.00     0.134 A 
ATOM     85  C   UNL A   1      46.596  33.196  30.061  1.00  0.00     0.134 A 
ATOM     86  F   UNL A   1      46.009  33.781  26.523  1.00  0.00    -0.206 F 
ATOM     87  C   UNL A   1      46.299  35.306  28.279  1.00  0.00     0.040 A 
ATOM     88  C   UNL A   1      46.638  34.512  30.526  1.00  0.00     0.040 A 
ATOM     89  F   UNL A   1      46.729  32.208  30.958  1.00  0.00    -0.206 F 
ATOM     90  C   UNL A   1      46.494  35.572  29.632  1.00  0.00     0.006 A 
ENDBRANCH  66  83
ENDBRANCH  40  41
ENDBRANCH  32  35
ENDBRANCH  30  31
ENDBRANCH  29  30
ENDBRANCH  28  29
ENDBRANCH  27  28
ENDBRANCH   1  27
TORSDOF 17
ENDMDL
