MODEL 1
REMARK VINA RESULT:     -12.0      0.000      0.000
REMARK SMILES O=C(NCCCCCCNC(=O)[C@@H]1CC[C@H](CNc2c(F)c(F)c(F)c(F)c2F)O1)c1ccc(-c2c3nc(c(-c4c(F)cccc4F)c4ccc([nH]4)c(-c4c(F)cccc4F)c4nc(c(-c5c(F)cccc5F)c5ccc2[nH]5)C=C4)C=C3)cc1
REMARK SMILES IDX 7 1 6 2 5 3 4 4 3 5 1 6 2 7 31 9 32 10 84 11 33 12 83 13
REMARK SMILES IDX 34 14 35 15 36 16 77 17 37 18 82 19 76 20 78 21 38 22 81 23
REMARK SMILES IDX 75 24 74 25 39 27 65 28 48 29 64 30 49 31 52 32 63 33 79 34
REMARK SMILES IDX 50 35 51 36 62 38 80 39 53 40 40 41 41 42 46 43 42 44 43 45
REMARK SMILES IDX 45 46 47 47 44 48 66 49 67 50 72 51 68 52 69 53 71 54 73 55
REMARK SMILES IDX 70 56 54 57 55 58 60 59 56 60 57 61 59 62 61 63 58 64 8 65
REMARK SMILES IDX 9 66 10 67 11 68 12 70 13 71 14 72 30 73 15 74 16 75 17 76
REMARK SMILES IDX 18 77 19 79 20 80 28 81 21 82 22 83 26 84 29 85 23 86 24 87
REMARK SMILES IDX 27 88 25 89
REMARK H PARENT 3 8 78 26 52 37 10 69 18 78
REMARK Flexibility Score: inf
ROOT
ATOM      1  C   UNL A   1      37.295  22.405  25.479  1.00  0.00     0.002 C 
ENDROOT
BRANCH   1   2
ATOM      2  C   UNL A   1      37.003  21.123  24.689  1.00  0.00     0.002 C 
BRANCH   2   3
ATOM      3  C   UNL A   1      37.960  19.961  24.966  1.00  0.00     0.021 C 
BRANCH   3   4
ATOM      4  C   UNL A   1      39.109  20.316  25.899  1.00  0.00     0.116 C 
BRANCH   4   5
ATOM      5  N   UNL A   1      40.104  19.255  25.948  1.00  0.00    -0.352 N 
ATOM      6  O   UNL A   1      42.187  18.389  25.863  1.00  0.00    -0.269 OA
ATOM      7  C   UNL A   1      41.462  19.360  26.073  1.00  0.00     0.251 C 
ATOM      8  H   UNL A   1      39.752  18.338  25.883  1.00  0.00     0.163 HD
BRANCH   7   9
ATOM      9  C   UNL A   1      42.052  20.653  26.469  1.00  0.00     0.039 A 
ATOM     10  C   UNL A   1      42.498  21.546  25.489  1.00  0.00     0.014 A 
ATOM     11  C   UNL A   1      42.126  20.990  27.822  1.00  0.00     0.014 A 
ATOM     12  C   UNL A   1      43.104  22.735  25.864  1.00  0.00     0.010 A 
ATOM     13  C   UNL A   1      42.656  22.224  28.195  1.00  0.00     0.010 A 
ATOM     14  C   UNL A   1      43.147  23.106  27.217  1.00  0.00    -0.014 A 
BRANCH  14  15
ATOM     15  C   UNL A   1      43.561  24.482  27.573  1.00  0.00     0.031 A 
ATOM     16  C   UNL A   1      42.559  25.525  27.965  1.00  0.00     0.074 A 
ATOM     17  C   UNL A   1      44.876  24.776  27.508  1.00  0.00     0.049 A 
ATOM     18  N   UNL A   1      42.762  26.786  28.249  1.00  0.00    -0.248 NA
ATOM     19  C   UNL A   1      41.151  25.109  28.040  1.00  0.00     0.031 C 
ATOM     20  C   UNL A   1      45.931  23.835  27.118  1.00  0.00     0.029 A 
ATOM     21  N   UNL A   1      45.551  25.941  27.760  1.00  0.00    -0.354 N 
ATOM     22  C   UNL A   1      41.509  27.320  28.517  1.00  0.00     0.074 A 
ATOM     23  C   UNL A   1      40.549  26.251  28.349  1.00  0.00     0.031 C 
ATOM     24  C   UNL A   1      47.118  24.454  27.173  1.00  0.00     0.029 A 
ATOM     25  C   UNL A   1      46.903  25.849  27.529  1.00  0.00     0.049 A 
ATOM     26  H   UNL A   1      45.111  26.764  28.074  1.00  0.00     0.167 HD
ATOM     27  C   UNL A   1      41.202  28.591  28.868  1.00  0.00     0.037 A 
ATOM     28  C   UNL A   1      47.859  26.794  27.554  1.00  0.00     0.037 A 
ATOM     29  C   UNL A   1      42.176  29.638  29.049  1.00  0.00     0.049 A 
ATOM     30  C   UNL A   1      47.473  28.200  27.905  1.00  0.00     0.074 A 
ATOM     31  C   UNL A   1      41.970  30.936  29.484  1.00  0.00     0.029 A 
ATOM     32  N   UNL A   1      43.532  29.513  28.790  1.00  0.00    -0.354 N 
ATOM     33  N   UNL A   1      46.296  28.674  28.236  1.00  0.00    -0.248 NA
ATOM     34  C   UNL A   1      48.542  29.206  27.879  1.00  0.00     0.031 C 
ATOM     35  C   UNL A   1      43.190  31.616  29.420  1.00  0.00     0.029 A 
ATOM     36  C   UNL A   1      44.167  30.725  29.004  1.00  0.00     0.049 A 
ATOM     37  H   UNL A   1      43.978  28.685  28.497  1.00  0.00     0.167 HD
ATOM     38  C   UNL A   1      46.485  30.030  28.466  1.00  0.00     0.074 A 
ATOM     39  C   UNL A   1      47.895  30.294  28.270  1.00  0.00     0.031 C 
ATOM     40  C   UNL A   1      45.571  30.972  28.799  1.00  0.00     0.037 A 
BRANCH  27  41
ATOM     41  C   UNL A   1      39.757  28.949  29.062  1.00  0.00     0.057 A 
ATOM     42  C   UNL A   1      38.925  29.298  27.992  1.00  0.00     0.134 A 
ATOM     43  C   UNL A   1      39.167  28.833  30.328  1.00  0.00     0.134 A 
ATOM     44  F   UNL A   1      39.426  29.432  26.755  1.00  0.00    -0.206 F 
ATOM     45  C   UNL A   1      37.558  29.521  28.174  1.00  0.00     0.040 A 
ATOM     46  C   UNL A   1      37.799  29.032  30.520  1.00  0.00     0.040 A 
ATOM     47  F   UNL A   1      39.907  28.495  31.396  1.00  0.00    -0.206 F 
ATOM     48  C   UNL A   1      36.990  29.376  29.439  1.00  0.00     0.006 A 
ENDBRANCH  27  41
BRANCH  28  49
ATOM     49  C   UNL A   1      49.255  26.453  27.182  1.00  0.00     0.057 A 
ATOM     50  C   UNL A   1      49.698  26.539  25.858  1.00  0.00     0.134 A 
ATOM     51  C   UNL A   1      50.174  26.006  28.141  1.00  0.00     0.134 A 
ATOM     52  F   UNL A   1      48.863  26.946  24.891  1.00  0.00    -0.206 F 
ATOM     53  C   UNL A   1      50.994  26.166  25.496  1.00  0.00     0.040 A 
ATOM     54  C   UNL A   1      51.482  25.663  27.798  1.00  0.00     0.040 A 
ATOM     55  F   UNL A   1      49.817  25.910  29.430  1.00  0.00    -0.206 F 
ATOM     56  C   UNL A   1      51.891  25.730  26.469  1.00  0.00     0.006 A 
ENDBRANCH  28  49
BRANCH  40  57
ATOM     57  C   UNL A   1      46.073  32.372  28.982  1.00  0.00     0.057 A 
ATOM     58  C   UNL A   1      46.556  32.823  30.219  1.00  0.00     0.134 A 
ATOM     59  C   UNL A   1      46.113  33.267  27.906  1.00  0.00     0.134 A 
ATOM     60  F   UNL A   1      46.528  32.020  31.293  1.00  0.00    -0.206 F 
ATOM     61  C   UNL A   1      47.046  34.119  30.379  1.00  0.00     0.040 A 
ATOM     62  C   UNL A   1      46.628  34.555  28.047  1.00  0.00     0.040 A 
ATOM     63  F   UNL A   1      45.671  32.895  26.695  1.00  0.00    -0.206 F 
ATOM     64  C   UNL A   1      47.092  34.986  29.289  1.00  0.00     0.006 A 
ENDBRANCH  40  57
ENDBRANCH  14  15
ENDBRANCH   7   9
ENDBRANCH   4   5
ENDBRANCH   3   4
ENDBRANCH   2   3
ENDBRANCH   1   2
BRANCH   1  65
ATOM     65  C   UNL A   1      36.058  23.100  26.048  1.00  0.00     0.021 C 
BRANCH  65  66
ATOM     66  C   UNL A   1      34.763  22.667  25.375  1.00  0.00     0.116 C 
BRANCH  66  67
ATOM     67  N   UNL A   1      33.599  23.297  25.946  1.00  0.00    -0.354 N 
ATOM     68  C   UNL A   1      33.157  24.579  25.786  1.00  0.00     0.249 C 
ATOM     69  H   UNL A   1      33.050  22.727  26.531  1.00  0.00     0.163 HD
ATOM     70  O   UNL A   1      32.117  24.903  26.366  1.00  0.00    -0.272 OA
BRANCH  68  71
ATOM     71  C   UNL A   1      33.869  25.567  24.828  1.00  0.00     0.207 C 
ATOM     72  C   UNL A   1      33.409  26.994  25.077  1.00  0.00     0.045 C 
ATOM     73  O   UNL A   1      33.753  25.353  23.416  1.00  0.00    -0.363 OA
ATOM     74  C   UNL A   1      33.836  27.695  23.810  1.00  0.00     0.037 C 
ATOM     75  C   UNL A   1      33.634  26.631  22.744  1.00  0.00     0.138 C 
BRANCH  75  76
ATOM     76  C   UNL A   1      32.264  26.720  22.034  1.00  0.00     0.145 C 
BRANCH  76  77
ATOM     77  N   UNL A   1      31.603  27.990  22.268  1.00  0.00    -0.378 N 
ATOM     78  H   UNL A   1      32.125  28.814  22.138  1.00  0.00     0.160 HD
BRANCH  77  79
ATOM     79  C   UNL A   1      30.278  28.112  22.668  1.00  0.00     0.113 A 
ATOM     80  C   UNL A   1      29.581  27.183  23.461  1.00  0.00     0.188 A 
ATOM     81  C   UNL A   1      29.536  29.202  22.178  1.00  0.00     0.188 A 
ATOM     82  F   UNL A   1      30.221  26.138  24.013  1.00  0.00    -0.201 F 
ATOM     83  C   UNL A   1      28.215  27.320  23.713  1.00  0.00     0.199 A 
ATOM     84  C   UNL A   1      28.174  29.340  22.426  1.00  0.00     0.199 A 
ATOM     85  F   UNL A   1      30.161  30.124  21.424  1.00  0.00    -0.201 F 
ATOM     86  F   UNL A   1      27.582  26.405  24.462  1.00  0.00    -0.200 F 
ATOM     87  C   UNL A   1      27.512  28.392  23.187  1.00  0.00     0.200 A 
ATOM     88  F   UNL A   1      27.505  30.381  21.913  1.00  0.00    -0.200 F 
ATOM     89  F   UNL A   1      26.196  28.507  23.409  1.00  0.00    -0.200 F 
ENDBRANCH  77  79
ENDBRANCH  76  77
ENDBRANCH  75  76
ENDBRANCH  68  71
ENDBRANCH  66  67
ENDBRANCH  65  66
ENDBRANCH   1  65
TORSDOF 16
ENDMDL
MODEL 2
REMARK VINA RESULT:     -11.9      5.202     10.496
REMARK SMILES O=C(NCCCCCCNC(=O)[C@@H]1CC[C@H](CNc2c(F)c(F)c(F)c(F)c2F)O1)c1ccc(-c2c3nc(c(-c4c(F)cccc4F)c4ccc([nH]4)c(-c4c(F)cccc4F)c4nc(c(-c5c(F)cccc5F)c5ccc2[nH]5)C=C4)C=C3)cc1
REMARK SMILES IDX 7 1 6 2 5 3 4 4 3 5 1 6 2 7 31 9 32 10 84 11 33 12 83 13
REMARK SMILES IDX 34 14 35 15 36 16 77 17 37 18 82 19 76 20 78 21 38 22 81 23
REMARK SMILES IDX 75 24 74 25 39 27 65 28 48 29 64 30 49 31 52 32 63 33 79 34
REMARK SMILES IDX 50 35 51 36 62 38 80 39 53 40 40 41 41 42 46 43 42 44 43 45
REMARK SMILES IDX 45 46 47 47 44 48 66 49 67 50 72 51 68 52 69 53 71 54 73 55
REMARK SMILES IDX 70 56 54 57 55 58 60 59 56 60 57 61 59 62 61 63 58 64 8 65
REMARK SMILES IDX 9 66 10 67 11 68 12 70 13 71 14 72 30 73 15 74 16 75 17 76
REMARK SMILES IDX 18 77 19 79 20 80 28 81 21 82 22 83 26 84 29 85 23 86 24 87
REMARK SMILES IDX 27 88 25 89
REMARK H PARENT 3 8 78 26 52 37 10 69 18 78
REMARK Flexibility Score: inf
ROOT
ATOM      1  C   UNL A   1      31.075  29.935  24.988  1.00  0.00     0.002 C 
ENDROOT
BRANCH   1   2
ATOM      2  C   UNL A   1      31.569  30.440  26.351  1.00  0.00     0.002 C 
BRANCH   2   3
ATOM      3  C   UNL A   1      31.522  31.959  26.532  1.00  0.00     0.021 C 
BRANCH   3   4
ATOM      4  C   UNL A   1      32.750  32.537  27.221  1.00  0.00     0.116 C 
BRANCH   4   5
ATOM      5  N   UNL A   1      32.543  33.925  27.605  1.00  0.00    -0.352 N 
ATOM      6  O   UNL A   1      32.694  35.725  28.960  1.00  0.00    -0.269 OA
ATOM      7  C   UNL A   1      33.143  34.635  28.609  1.00  0.00     0.251 C 
ATOM      8  H   UNL A   1      31.881  34.420  27.071  1.00  0.00     0.163 HD
BRANCH   7   9
ATOM      9  C   UNL A   1      34.343  34.081  29.265  1.00  0.00     0.039 A 
ATOM     10  C   UNL A   1      34.205  33.219  30.358  1.00  0.00     0.014 A 
ATOM     11  C   UNL A   1      35.608  34.395  28.765  1.00  0.00     0.014 A 
ATOM     12  C   UNL A   1      35.334  32.745  31.009  1.00  0.00     0.010 A 
ATOM     13  C   UNL A   1      36.740  33.848  29.367  1.00  0.00     0.010 A 
ATOM     14  C   UNL A   1      36.610  33.018  30.492  1.00  0.00    -0.014 A 
BRANCH  14  15
ATOM     15  C   UNL A   1      37.779  32.298  31.045  1.00  0.00     0.031 A 
ATOM     16  C   UNL A   1      38.473  31.218  30.270  1.00  0.00     0.074 A 
ATOM     17  C   UNL A   1      38.187  32.627  32.287  1.00  0.00     0.049 A 
ATOM     18  N   UNL A   1      39.473  30.461  30.642  1.00  0.00    -0.248 NA
ATOM     19  C   UNL A   1      37.982  30.945  28.912  1.00  0.00     0.031 C 
ATOM     20  C   UNL A   1      37.566  33.652  33.133  1.00  0.00     0.029 A 
ATOM     21  N   UNL A   1      39.209  32.141  33.059  1.00  0.00    -0.354 N 
ATOM     22  C   UNL A   1      39.719  29.608  29.574  1.00  0.00     0.074 A 
ATOM     23  C   UNL A   1      38.756  29.931  28.544  1.00  0.00     0.031 C 
ATOM     24  C   UNL A   1      38.228  33.728  34.295  1.00  0.00     0.029 A 
ATOM     25  C   UNL A   1      39.271  32.711  34.307  1.00  0.00     0.049 A 
ATOM     26  H   UNL A   1      39.838  31.448  32.749  1.00  0.00     0.167 HD
ATOM     27  C   UNL A   1      40.665  28.644  29.477  1.00  0.00     0.037 A 
ATOM     28  C   UNL A   1      40.049  32.419  35.364  1.00  0.00     0.037 A 
ATOM     29  C   UNL A   1      41.629  28.350  30.508  1.00  0.00     0.049 A 
ATOM     30  C   UNL A   1      41.057  31.316  35.232  1.00  0.00     0.074 A 
ATOM     31  C   UNL A   1      42.678  27.449  30.470  1.00  0.00     0.029 A 
ATOM     32  N   UNL A   1      41.650  28.937  31.764  1.00  0.00    -0.354 N 
ATOM     33  N   UNL A   1      41.333  30.572  34.189  1.00  0.00    -0.248 NA
ATOM     34  C   UNL A   1      41.855  31.003  36.424  1.00  0.00     0.031 C 
ATOM     35  C   UNL A   1      43.290  27.439  31.727  1.00  0.00     0.029 A 
ATOM     36  C   UNL A   1      42.661  28.378  32.528  1.00  0.00     0.049 A 
ATOM     37  H   UNL A   1      41.037  29.645  32.068  1.00  0.00     0.167 HD
ATOM     38  C   UNL A   1      42.343  29.710  34.595  1.00  0.00     0.074 A 
ATOM     39  C   UNL A   1      42.652  30.046  35.969  1.00  0.00     0.031 C 
ATOM     40  C   UNL A   1      42.951  28.722  33.897  1.00  0.00     0.037 A 
BRANCH  27  41
ATOM     41  C   UNL A   1      40.708  27.809  28.231  1.00  0.00     0.057 A 
ATOM     42  C   UNL A   1      41.448  28.188  27.105  1.00  0.00     0.134 A 
ATOM     43  C   UNL A   1      40.084  26.554  28.202  1.00  0.00     0.134 A 
ATOM     44  F   UNL A   1      42.063  29.379  27.064  1.00  0.00    -0.206 F 
ATOM     45  C   UNL A   1      41.567  27.348  25.994  1.00  0.00     0.040 A 
ATOM     46  C   UNL A   1      40.213  25.697  27.107  1.00  0.00     0.040 A 
ATOM     47  F   UNL A   1      39.365  26.127  29.251  1.00  0.00    -0.206 F 
ATOM     48  C   UNL A   1      40.958  26.095  26.000  1.00  0.00     0.006 A 
ENDBRANCH  27  41
BRANCH  28  49
ATOM     49  C   UNL A   1      39.865  33.139  36.649  1.00  0.00     0.057 A 
ATOM     50  C   UNL A   1      40.625  34.270  36.966  1.00  0.00     0.134 A 
ATOM     51  C   UNL A   1      38.940  32.696  37.603  1.00  0.00     0.134 A 
ATOM     52  F   UNL A   1      41.537  34.735  36.101  1.00  0.00    -0.206 F 
ATOM     53  C   UNL A   1      40.493  34.916  38.197  1.00  0.00     0.040 A 
ATOM     54  C   UNL A   1      38.773  33.353  38.823  1.00  0.00     0.040 A 
ATOM     55  F   UNL A   1      38.172  31.623  37.358  1.00  0.00    -0.206 F 
ATOM     56  C   UNL A   1      39.562  34.459  39.128  1.00  0.00     0.006 A 
ENDBRANCH  28  49
BRANCH  40  57
ATOM     57  C   UNL A   1      44.018  27.945  34.605  1.00  0.00     0.057 A 
ATOM     58  C   UNL A   1      45.339  28.410  34.680  1.00  0.00     0.134 A 
ATOM     59  C   UNL A   1      43.718  26.742  35.256  1.00  0.00     0.134 A 
ATOM     60  F   UNL A   1      45.695  29.546  34.063  1.00  0.00    -0.206 F 
ATOM     61  C   UNL A   1      46.324  27.696  35.363  1.00  0.00     0.040 A 
ATOM     62  C   UNL A   1      44.687  26.034  35.967  1.00  0.00     0.040 A 
ATOM     63  F   UNL A   1      42.471  26.245  35.228  1.00  0.00    -0.206 F 
ATOM     64  C   UNL A   1      45.996  26.509  36.017  1.00  0.00     0.006 A 
ENDBRANCH  40  57
ENDBRANCH  14  15
ENDBRANCH   7   9
ENDBRANCH   4   5
ENDBRANCH   3   4
ENDBRANCH   2   3
ENDBRANCH   1   2
BRANCH   1  65
ATOM     65  C   UNL A   1      32.148  29.266  24.129  1.00  0.00     0.021 C 
BRANCH  65  66
ATOM     66  C   UNL A   1      31.634  28.816  22.768  1.00  0.00     0.116 C 
BRANCH  66  67
ATOM     67  N   UNL A   1      32.584  28.001  22.054  1.00  0.00    -0.354 N 
ATOM     68  C   UNL A   1      32.828  26.664  22.182  1.00  0.00     0.249 C 
ATOM     69  H   UNL A   1      33.131  28.472  21.385  1.00  0.00     0.163 HD
ATOM     70  O   UNL A   1      33.689  26.166  21.449  1.00  0.00    -0.272 OA
BRANCH  68  71
ATOM     71  C   UNL A   1      31.989  25.774  23.131  1.00  0.00     0.207 C 
ATOM     72  C   UNL A   1      32.636  25.676  24.502  1.00  0.00     0.045 C 
ATOM     73  O   UNL A   1      31.701  24.429  22.731  1.00  0.00    -0.363 OA
ATOM     74  C   UNL A   1      31.958  24.463  25.093  1.00  0.00     0.037 C 
ATOM     75  C   UNL A   1      31.761  23.559  23.887  1.00  0.00     0.138 C 
BRANCH  75  76
ATOM     76  C   UNL A   1      32.893  22.523  23.700  1.00  0.00     0.145 C 
BRANCH  76  77
ATOM     77  N   UNL A   1      33.645  22.303  24.922  1.00  0.00    -0.378 N 
ATOM     78  H   UNL A   1      33.155  22.314  25.775  1.00  0.00     0.160 HD
BRANCH  77  79
ATOM     79  C   UNL A   1      35.016  22.078  24.958  1.00  0.00     0.113 A 
ATOM     80  C   UNL A   1      35.633  20.816  24.888  1.00  0.00     0.188 A 
ATOM     81  C   UNL A   1      35.863  23.182  25.168  1.00  0.00     0.188 A 
ATOM     82  F   UNL A   1      34.908  19.712  24.639  1.00  0.00    -0.201 F 
ATOM     83  C   UNL A   1      37.010  20.668  25.056  1.00  0.00     0.199 A 
ATOM     84  C   UNL A   1      37.236  23.036  25.339  1.00  0.00     0.199 A 
ATOM     85  F   UNL A   1      35.322  24.410  25.232  1.00  0.00    -0.201 F 
ATOM     86  F   UNL A   1      37.560  19.446  24.997  1.00  0.00    -0.200 F 
ATOM     87  C   UNL A   1      37.808  21.777  25.293  1.00  0.00     0.200 A 
ATOM     88  F   UNL A   1      37.997  24.115  25.566  1.00  0.00    -0.200 F 
ATOM     89  F   UNL A   1      39.126  21.629  25.481  1.00  0.00    -0.200 F 
ENDBRANCH  77  79
ENDBRANCH  76  77
ENDBRANCH  75  76
ENDBRANCH  68  71
ENDBRANCH  66  67
ENDBRANCH  65  66
ENDBRANCH   1  65
TORSDOF 16
ENDMDL
MODEL 3
REMARK VINA RESULT:     -11.8      2.685      4.266
REMARK SMILES O=C(NCCCCCCNC(=O)[C@@H]1CC[C@H](CNc2c(F)c(F)c(F)c(F)c2F)O1)c1ccc(-c2c3nc(c(-c4c(F)cccc4F)c4ccc([nH]4)c(-c4c(F)cccc4F)c4nc(c(-c5c(F)cccc5F)c5ccc2[nH]5)C=C4)C=C3)cc1
REMARK SMILES IDX 7 1 6 2 5 3 4 4 3 5 1 6 2 7 31 9 32 10 84 11 33 12 83 13
REMARK SMILES IDX 34 14 35 15 36 16 77 17 37 18 82 19 76 20 78 21 38 22 81 23
REMARK SMILES IDX 75 24 74 25 39 27 65 28 48 29 64 30 49 31 52 32 63 33 79 34
REMARK SMILES IDX 50 35 51 36 62 38 80 39 53 40 40 41 41 42 46 43 42 44 43 45
REMARK SMILES IDX 45 46 47 47 44 48 66 49 67 50 72 51 68 52 69 53 71 54 73 55
REMARK SMILES IDX 70 56 54 57 55 58 60 59 56 60 57 61 59 62 61 63 58 64 8 65
REMARK SMILES IDX 9 66 10 67 11 68 12 70 13 71 14 72 30 73 15 74 16 75 17 76
REMARK SMILES IDX 18 77 19 79 20 80 28 81 21 82 22 83 26 84 29 85 23 86 24 87
REMARK SMILES IDX 27 88 25 89
REMARK H PARENT 3 8 78 26 52 37 10 69 18 78
REMARK Flexibility Score: inf
ROOT
ATOM      1  C   UNL A   1      36.836  22.423  25.108  1.00  0.00     0.002 C 
ENDROOT
BRANCH   1   2
ATOM      2  C   UNL A   1      36.472  20.932  25.098  1.00  0.00     0.002 C 
BRANCH   2   3
ATOM      3  C   UNL A   1      37.661  19.978  24.963  1.00  0.00     0.021 C 
BRANCH   3   4
ATOM      4  C   UNL A   1      38.892  20.411  25.745  1.00  0.00     0.116 C 
BRANCH   4   5
ATOM      5  N   UNL A   1      39.867  19.335  25.846  1.00  0.00    -0.352 N 
ATOM      6  O   UNL A   1      41.937  18.434  25.861  1.00  0.00    -0.269 OA
ATOM      7  C   UNL A   1      41.219  19.418  26.032  1.00  0.00     0.251 C 
ATOM      8  H   UNL A   1      39.503  18.423  25.770  1.00  0.00     0.163 HD
BRANCH   7   9
ATOM      9  C   UNL A   1      41.812  20.704  26.447  1.00  0.00     0.039 A 
ATOM     10  C   UNL A   1      42.204  21.636  25.481  1.00  0.00     0.014 A 
ATOM     11  C   UNL A   1      41.941  20.995  27.807  1.00  0.00     0.014 A 
ATOM     12  C   UNL A   1      42.813  22.820  25.872  1.00  0.00     0.010 A 
ATOM     13  C   UNL A   1      42.474  22.222  28.199  1.00  0.00     0.010 A 
ATOM     14  C   UNL A   1      42.911  23.143  27.233  1.00  0.00    -0.014 A 
BRANCH  14  15
ATOM     15  C   UNL A   1      43.325  24.511  27.619  1.00  0.00     0.031 A 
ATOM     16  C   UNL A   1      42.323  25.547  28.029  1.00  0.00     0.074 A 
ATOM     17  C   UNL A   1      44.640  24.806  27.566  1.00  0.00     0.049 A 
ATOM     18  N   UNL A   1      42.525  26.802  28.340  1.00  0.00    -0.248 NA
ATOM     19  C   UNL A   1      40.914  25.131  28.089  1.00  0.00     0.031 C 
ATOM     20  C   UNL A   1      45.696  23.871  27.161  1.00  0.00     0.029 A 
ATOM     21  N   UNL A   1      45.316  25.964  27.844  1.00  0.00    -0.354 N 
ATOM     22  C   UNL A   1      41.272  27.332  28.613  1.00  0.00     0.074 A 
ATOM     23  C   UNL A   1      40.311  26.267  28.420  1.00  0.00     0.031 C 
ATOM     24  C   UNL A   1      46.883  24.488  27.233  1.00  0.00     0.029 A 
ATOM     25  C   UNL A   1      46.668  25.876  27.617  1.00  0.00     0.049 A 
ATOM     26  H   UNL A   1      44.875  26.781  28.174  1.00  0.00     0.167 HD
ATOM     27  C   UNL A   1      40.965  28.596  28.989  1.00  0.00     0.037 A 
ATOM     28  C   UNL A   1      47.625  26.819  27.665  1.00  0.00     0.037 A 
ATOM     29  C   UNL A   1      41.939  29.638  29.196  1.00  0.00     0.049 A 
ATOM     30  C   UNL A   1      47.239  28.218  28.044  1.00  0.00     0.074 A 
ATOM     31  C   UNL A   1      41.733  30.927  29.656  1.00  0.00     0.029 A 
ATOM     32  N   UNL A   1      43.296  29.516  28.940  1.00  0.00    -0.354 N 
ATOM     33  N   UNL A   1      46.062  28.686  28.379  1.00  0.00    -0.248 NA
ATOM     34  C   UNL A   1      48.309  29.223  28.043  1.00  0.00     0.031 C 
ATOM     35  C   UNL A   1      42.953  31.606  29.611  1.00  0.00     0.029 A 
ATOM     36  C   UNL A   1      43.931  30.723  29.181  1.00  0.00     0.049 A 
ATOM     37  H   UNL A   1      43.742  28.694  28.632  1.00  0.00     0.167 HD
ATOM     38  C   UNL A   1      46.251  30.036  28.638  1.00  0.00     0.074 A 
ATOM     39  C   UNL A   1      47.661  30.304  28.453  1.00  0.00     0.031 C 
ATOM     40  C   UNL A   1      45.337  30.972  28.987  1.00  0.00     0.037 A 
BRANCH  27  41
ATOM     41  C   UNL A   1      39.519  28.950  29.184  1.00  0.00     0.057 A 
ATOM     42  C   UNL A   1      38.702  29.362  28.125  1.00  0.00     0.134 A 
ATOM     43  C   UNL A   1      38.913  28.770  30.436  1.00  0.00     0.134 A 
ATOM     44  F   UNL A   1      39.220  29.561  26.904  1.00  0.00    -0.206 F 
ATOM     45  C   UNL A   1      37.334  29.583  28.303  1.00  0.00     0.040 A 
ATOM     46  C   UNL A   1      37.544  28.966  30.621  1.00  0.00     0.040 A 
ATOM     47  F   UNL A   1      39.637  28.370  31.492  1.00  0.00    -0.206 F 
ATOM     48  C   UNL A   1      36.750  29.373  29.551  1.00  0.00     0.006 A 
ENDBRANCH  27  41
BRANCH  28  49
ATOM     49  C   UNL A   1      49.023  26.484  27.291  1.00  0.00     0.057 A 
ATOM     50  C   UNL A   1      49.494  26.676  25.989  1.00  0.00     0.134 A 
ATOM     51  C   UNL A   1      49.913  25.938  28.225  1.00  0.00     0.134 A 
ATOM     52  F   UNL A   1      48.687  27.180  25.045  1.00  0.00    -0.206 F 
ATOM     53  C   UNL A   1      50.790  26.310  25.620  1.00  0.00     0.040 A 
ATOM     54  C   UNL A   1      51.222  25.601  27.880  1.00  0.00     0.040 A 
ATOM     55  F   UNL A   1      49.528  25.738  29.495  1.00  0.00    -0.206 F 
ATOM     56  C   UNL A   1      51.659  25.774  26.570  1.00  0.00     0.006 A 
ENDBRANCH  28  49
BRANCH  40  57
ATOM     57  C   UNL A   1      45.838  32.368  29.201  1.00  0.00     0.057 A 
ATOM     58  C   UNL A   1      45.814  33.322  28.175  1.00  0.00     0.134 A 
ATOM     59  C   UNL A   1      46.311  32.777  30.455  1.00  0.00     0.134 A 
ATOM     60  F   UNL A   1      45.389  32.988  26.947  1.00  0.00    -0.206 F 
ATOM     61  C   UNL A   1      46.258  34.628  28.384  1.00  0.00     0.040 A 
ATOM     62  C   UNL A   1      46.730  34.087  30.684  1.00  0.00     0.040 A 
ATOM     63  F   UNL A   1      46.355  31.913  31.481  1.00  0.00    -0.206 F 
ATOM     64  C   UNL A   1      46.708  35.016  29.645  1.00  0.00     0.006 A 
ENDBRANCH  40  57
ENDBRANCH  14  15
ENDBRANCH   7   9
ENDBRANCH   4   5
ENDBRANCH   3   4
ENDBRANCH   2   3
ENDBRANCH   1   2
BRANCH   1  65
ATOM     65  C   UNL A   1      36.033  23.269  26.096  1.00  0.00     0.021 C 
BRANCH  65  66
ATOM     66  C   UNL A   1      34.683  23.714  25.548  1.00  0.00     0.116 C 
BRANCH  66  67
ATOM     67  N   UNL A   1      34.732  25.018  24.936  1.00  0.00    -0.354 N 
ATOM     68  C   UNL A   1      33.698  25.808  24.526  1.00  0.00     0.249 C 
ATOM     69  H   UNL A   1      35.633  25.388  24.794  1.00  0.00     0.163 HD
ATOM     70  O   UNL A   1      33.974  26.906  24.035  1.00  0.00    -0.272 OA
BRANCH  68  71
ATOM     71  C   UNL A   1      32.223  25.398  24.762  1.00  0.00     0.207 C 
ATOM     72  C   UNL A   1      31.909  25.321  26.247  1.00  0.00     0.045 C 
ATOM     73  O   UNL A   1      31.756  24.168  24.194  1.00  0.00    -0.363 OA
ATOM     74  C   UNL A   1      30.641  24.501  26.266  1.00  0.00     0.037 C 
ATOM     75  C   UNL A   1      30.848  23.524  25.120  1.00  0.00     0.138 C 
BRANCH  75  76
ATOM     76  C   UNL A   1      31.437  22.165  25.565  1.00  0.00     0.145 C 
BRANCH  76  77
ATOM     77  N   UNL A   1      32.366  21.623  24.592  1.00  0.00    -0.378 N 
ATOM     78  H   UNL A   1      32.923  22.255  24.082  1.00  0.00     0.160 HD
BRANCH  77  79
ATOM     79  C   UNL A   1      32.517  20.265  24.335  1.00  0.00     0.113 A 
ATOM     80  C   UNL A   1      33.007  19.317  25.252  1.00  0.00     0.188 A 
ATOM     81  C   UNL A   1      32.242  19.802  23.036  1.00  0.00     0.188 A 
ATOM     82  F   UNL A   1      33.248  19.660  26.529  1.00  0.00    -0.201 F 
ATOM     83  C   UNL A   1      33.244  17.995  24.875  1.00  0.00     0.199 A 
ATOM     84  C   UNL A   1      32.480  18.484  22.657  1.00  0.00     0.199 A 
ATOM     85  F   UNL A   1      31.761  20.668  22.128  1.00  0.00    -0.201 F 
ATOM     86  F   UNL A   1      33.726  17.124  25.773  1.00  0.00    -0.200 F 
ATOM     87  C   UNL A   1      32.991  17.583  23.575  1.00  0.00     0.200 A 
ATOM     88  F   UNL A   1      32.230  18.098  21.399  1.00  0.00    -0.200 F 
ATOM     89  F   UNL A   1      33.244  16.320  23.209  1.00  0.00    -0.200 F 
ENDBRANCH  77  79
ENDBRANCH  76  77
ENDBRANCH  75  76
ENDBRANCH  68  71
ENDBRANCH  66  67
ENDBRANCH  65  66
ENDBRANCH   1  65
TORSDOF 16
ENDMDL
