MODEL 1
REMARK VINA RESULT:     -11.4      0.000      0.000
REMARK SMILES C[C@H](c1ccncc1)[N@H+]1[C@@H]2CC[C@H]1C[C@H](CC(=O)NCCCCCCNC(=O)c1ccc(-c3c4nc(c(-c5c(F)cccc5F)c5ccc([nH]5)c(-c5c(F)cccc5F)c5nc(c(-c6c(F)cccc6F)c6ccc3[nH]6)C=C5)C=C4)cc1)C2
REMARK SMILES IDX 22 1 21 2 20 3 19 4 17 5 18 6 16 8 15 9 9 10 10 11 13 12
REMARK SMILES IDX 11 14 83 15 12 16 14 17 2 18 1 19 3 20 4 21 8 22 5 23 7 24
REMARK SMILES IDX 6 25 23 26 24 27 25 28 26 29 27 30 28 32 29 33 30 34 82 35
REMARK SMILES IDX 31 36 81 37 32 38 33 39 34 40 75 41 35 42 80 43 74 44 76 45
REMARK SMILES IDX 36 46 79 47 73 48 72 49 37 51 63 52 46 53 62 54 47 55 50 56
REMARK SMILES IDX 61 57 77 58 48 59 49 60 60 62 78 63 51 64 38 65 39 66 44 67
REMARK SMILES IDX 40 68 41 69 43 70 45 71 42 72 64 73 65 74 70 75 66 76 67 77
REMARK SMILES IDX 69 78 71 79 68 80 52 81 53 82 58 83 54 84 55 85 57 86 59 87
REMARK SMILES IDX 56 88
REMARK H PARENT 19 7 9 13 26 31 76 50 50 61
REMARK Flexibility Score: inf
ROOT
ATOM      1  C   UNL A   1      32.713  28.454  23.507  1.00  0.00     0.002 C 
ENDROOT
BRANCH   1   2
ATOM      2  C   UNL A   1      31.228  28.484  23.126  1.00  0.00     0.021 C 
BRANCH   2   3
ATOM      3  C   UNL A   1      30.694  27.200  22.463  1.00  0.00     0.116 C 
BRANCH   3   4
ATOM      4  N   UNL A   1      31.655  26.678  21.497  1.00  0.00    -0.356 N 
ATOM      5  C   UNL A   1      32.442  25.566  21.475  1.00  0.00     0.220 C 
ATOM      6  O   UNL A   1      33.236  25.448  20.539  1.00  0.00    -0.275 OA
ATOM      7  H   UNL A   1      31.754  27.244  20.697  1.00  0.00     0.163 HD
BRANCH   5   8
ATOM      8  C   UNL A   1      32.361  24.487  22.543  1.00  0.00     0.104 C 
BRANCH   8   9
ATOM      9  C   UNL A   1      33.730  23.861  22.918  1.00  0.00     0.010 C 
ATOM     10  N   UNL A   1      34.708  23.254  25.661  1.00  0.00    -0.324 N 
ATOM     11  C   UNL A   1      34.547  22.146  24.712  1.00  0.00     0.185 C 
ATOM     12  C   UNL A   1      35.392  24.275  24.894  1.00  0.00     0.185 C 
ATOM     13  H   UNL A   1      35.286  23.108  26.488  1.00  0.00     0.349 HD
ATOM     14  C   UNL A   1      35.971  22.041  24.153  1.00  0.00     0.071 C 
ATOM     15  C   UNL A   1      33.548  22.474  23.577  1.00  0.00     0.069 C 
ATOM     16  C   UNL A   1      36.525  23.460  24.250  1.00  0.00     0.071 C 
ATOM     17  C   UNL A   1      34.504  24.850  23.795  1.00  0.00     0.069 C 
BRANCH  10  18
ATOM     18  C   UNL A   1      33.700  23.450  26.712  1.00  0.00     0.212 C 
ATOM     19  C   UNL A   1      33.551  22.320  27.746  1.00  0.00     0.081 C 
BRANCH  18  20
ATOM     20  C   UNL A   1      32.274  23.946  26.418  1.00  0.00     0.012 A 
ATOM     21  C   UNL A   1      31.109  23.223  26.671  1.00  0.00     0.030 A 
ATOM     22  C   UNL A   1      32.096  25.320  26.160  1.00  0.00     0.030 A 
ATOM     23  C   UNL A   1      29.882  23.874  26.724  1.00  0.00     0.111 A 
ATOM     24  C   UNL A   1      30.827  25.883  26.222  1.00  0.00     0.111 A 
ATOM     25  N   UNL A   1      29.713  25.189  26.510  1.00  0.00    -0.265 NA
ENDBRANCH  18  20
ENDBRANCH  10  18
ENDBRANCH   8   9
ENDBRANCH   5   8
ENDBRANCH   3   4
ENDBRANCH   2   3
ENDBRANCH   1   2
BRANCH   1  26
ATOM     26  C   UNL A   1      33.074  29.163  24.817  1.00  0.00     0.002 C 
BRANCH  26  27
ATOM     27  C   UNL A   1      34.056  28.425  25.732  1.00  0.00     0.021 C 
BRANCH  27  28
ATOM     28  C   UNL A   1      33.809  28.524  27.236  1.00  0.00     0.116 C 
BRANCH  28  29
ATOM     29  N   UNL A   1      33.755  29.894  27.713  1.00  0.00    -0.352 N 
ATOM     30  C   UNL A   1      34.681  30.661  28.371  1.00  0.00     0.251 C 
ATOM     31  H   UNL A   1      32.903  30.352  27.534  1.00  0.00     0.163 HD
ATOM     32  O   UNL A   1      34.332  31.762  28.811  1.00  0.00    -0.269 OA
BRANCH  30  33
ATOM     33  C   UNL A   1      36.079  30.215  28.588  1.00  0.00     0.039 A 
ATOM     34  C   UNL A   1      36.971  30.281  27.509  1.00  0.00     0.014 A 
ATOM     35  C   UNL A   1      36.511  29.659  29.794  1.00  0.00     0.014 A 
ATOM     36  C   UNL A   1      38.292  29.843  27.653  1.00  0.00     0.010 A 
ATOM     37  C   UNL A   1      37.848  29.288  29.960  1.00  0.00     0.010 A 
ATOM     38  C   UNL A   1      38.753  29.365  28.890  1.00  0.00    -0.014 A 
BRANCH  38  39
ATOM     39  C   UNL A   1      40.162  28.921  29.064  1.00  0.00     0.031 A 
ATOM     40  C   UNL A   1      41.189  29.850  29.656  1.00  0.00     0.074 A 
ATOM     41  C   UNL A   1      40.538  27.695  28.651  1.00  0.00     0.049 A 
ATOM     42  N   UNL A   1      42.474  29.661  29.834  1.00  0.00    -0.248 NA
ATOM     43  C   UNL A   1      40.714  31.175  30.083  1.00  0.00     0.031 C 
ATOM     44  C   UNL A   1      39.658  26.707  28.022  1.00  0.00     0.029 A 
ATOM     45  N   UNL A   1      41.761  27.071  28.692  1.00  0.00    -0.354 N 
ATOM     46  C   UNL A   1      42.961  30.847  30.371  1.00  0.00     0.074 A 
ATOM     47  C   UNL A   1      41.844  31.763  30.451  1.00  0.00     0.031 C 
ATOM     48  C   UNL A   1      40.364  25.596  27.756  1.00  0.00     0.029 A 
ATOM     49  C   UNL A   1      41.751  25.801  28.166  1.00  0.00     0.049 A 
ATOM     50  H   UNL A   1      42.568  27.493  29.063  1.00  0.00     0.167 HD
ATOM     51  C   UNL A   1      44.219  31.141  30.779  1.00  0.00     0.037 A 
ATOM     52  C   UNL A   1      42.745  24.904  28.026  1.00  0.00     0.037 A 
ATOM     53  C   UNL A   1      45.326  30.222  30.738  1.00  0.00     0.049 A 
ATOM     54  C   UNL A   1      44.128  25.247  28.502  1.00  0.00     0.074 A 
ATOM     55  C   UNL A   1      46.622  30.411  31.188  1.00  0.00     0.029 A 
ATOM     56  N   UNL A   1      45.267  28.937  30.222  1.00  0.00    -0.354 N 
ATOM     57  N   UNL A   1      44.560  26.353  29.058  1.00  0.00    -0.248 NA
ATOM     58  C   UNL A   1      45.162  24.214  28.338  1.00  0.00     0.031 C 
ATOM     59  C   UNL A   1      47.355  29.252  30.916  1.00  0.00     0.029 A 
ATOM     60  C   UNL A   1      46.506  28.328  30.329  1.00  0.00     0.049 A 
ATOM     61  H   UNL A   1      44.463  28.520  29.835  1.00  0.00     0.167 HD
ATOM     62  C   UNL A   1      45.904  26.141  29.331  1.00  0.00     0.074 A 
ATOM     63  C   UNL A   1      46.215  24.797  28.892  1.00  0.00     0.031 C 
ATOM     64  C   UNL A   1      46.801  26.987  29.895  1.00  0.00     0.037 A 
BRANCH  51  65
ATOM     65  C   UNL A   1      44.465  32.522  31.315  1.00  0.00     0.057 A 
ATOM     66  C   UNL A   1      44.858  33.576  30.481  1.00  0.00     0.134 A 
ATOM     67  C   UNL A   1      44.276  32.807  32.672  1.00  0.00     0.134 A 
ATOM     68  F   UNL A   1      45.068  33.366  29.173  1.00  0.00    -0.206 F 
ATOM     69  C   UNL A   1      45.078  34.861  30.982  1.00  0.00     0.040 A 
ATOM     70  C   UNL A   1      44.469  34.092  33.182  1.00  0.00     0.040 A 
ATOM     71  F   UNL A   1      43.892  31.844  33.524  1.00  0.00    -0.206 F 
ATOM     72  C   UNL A   1      44.878  35.122  32.336  1.00  0.00     0.006 A 
ENDBRANCH  51  65
BRANCH  52  73
ATOM     73  C   UNL A   1      42.463  23.575  27.428  1.00  0.00     0.057 A 
ATOM     74  C   UNL A   1      42.129  22.481  28.233  1.00  0.00     0.134 A 
ATOM     75  C   UNL A   1      42.528  23.366  26.046  1.00  0.00     0.134 A 
ATOM     76  F   UNL A   1      42.074  22.616  29.567  1.00  0.00    -0.206 F 
ATOM     77  C   UNL A   1      41.883  21.220  27.688  1.00  0.00     0.040 A 
ATOM     78  C   UNL A   1      42.262  22.116  25.484  1.00  0.00     0.040 A 
ATOM     79  F   UNL A   1      42.842  24.376  25.222  1.00  0.00    -0.206 F 
ATOM     80  C   UNL A   1      41.944  21.037  26.307  1.00  0.00     0.006 A 
ENDBRANCH  52  73
BRANCH  64  81
ATOM     81  C   UNL A   1      48.194  26.472  30.098  1.00  0.00     0.057 A 
ATOM     82  C   UNL A   1      49.193  26.648  29.132  1.00  0.00     0.134 A 
ATOM     83  C   UNL A   1      48.549  25.823  31.287  1.00  0.00     0.134 A 
ATOM     84  F   UNL A   1      48.914  27.249  27.966  1.00  0.00    -0.206 F 
ATOM     85  C   UNL A   1      50.492  26.178  29.335  1.00  0.00     0.040 A 
ATOM     86  C   UNL A   1      49.850  25.368  31.510  1.00  0.00     0.040 A 
ATOM     87  F   UNL A   1      47.640  25.629  32.255  1.00  0.00    -0.206 F 
ATOM     88  C   UNL A   1      50.824  25.541  30.529  1.00  0.00     0.006 A 
ENDBRANCH  64  81
ENDBRANCH  38  39
ENDBRANCH  30  33
ENDBRANCH  28  29
ENDBRANCH  27  28
ENDBRANCH  26  27
ENDBRANCH   1  26
TORSDOF 16
ENDMDL
MODEL 2
REMARK VINA RESULT:     -11.2      4.703      7.236
REMARK SMILES C[C@H](c1ccncc1)[N@H+]1[C@@H]2CC[C@H]1C[C@H](CC(=O)NCCCCCCNC(=O)c1ccc(-c3c4nc(c(-c5c(F)cccc5F)c5ccc([nH]5)c(-c5c(F)cccc5F)c5nc(c(-c6c(F)cccc6F)c6ccc3[nH]6)C=C5)C=C4)cc1)C2
REMARK SMILES IDX 22 1 21 2 20 3 19 4 17 5 18 6 16 8 15 9 9 10 10 11 13 12
REMARK SMILES IDX 11 14 83 15 12 16 14 17 2 18 1 19 3 20 4 21 8 22 5 23 7 24
REMARK SMILES IDX 6 25 23 26 24 27 25 28 26 29 27 30 28 32 29 33 30 34 82 35
REMARK SMILES IDX 31 36 81 37 32 38 33 39 34 40 75 41 35 42 80 43 74 44 76 45
REMARK SMILES IDX 36 46 79 47 73 48 72 49 37 51 63 52 46 53 62 54 47 55 50 56
REMARK SMILES IDX 61 57 77 58 48 59 49 60 60 62 78 63 51 64 38 65 39 66 44 67
REMARK SMILES IDX 40 68 41 69 43 70 45 71 42 72 64 73 65 74 70 75 66 76 67 77
REMARK SMILES IDX 69 78 71 79 68 80 52 81 53 82 58 83 54 84 55 85 57 86 59 87
REMARK SMILES IDX 56 88
REMARK H PARENT 19 7 9 13 26 31 76 50 50 61
REMARK Flexibility Score: inf
ROOT
ATOM      1  C   UNL A   1      35.374  33.268  28.005  1.00  0.00     0.002 C 
ENDROOT
BRANCH   1   2
ATOM      2  C   UNL A   1      34.718  32.013  28.593  1.00  0.00     0.021 C 
BRANCH   2   3
ATOM      3  C   UNL A   1      33.632  31.366  27.713  1.00  0.00     0.116 C 
BRANCH   3   4
ATOM      4  N   UNL A   1      33.886  29.939  27.543  1.00  0.00    -0.356 N 
ATOM      5  C   UNL A   1      33.232  28.952  26.868  1.00  0.00     0.220 C 
ATOM      6  O   UNL A   1      33.653  27.799  26.996  1.00  0.00    -0.275 OA
ATOM      7  H   UNL A   1      34.693  29.626  28.012  1.00  0.00     0.163 HD
BRANCH   5   8
ATOM      8  C   UNL A   1      32.035  29.229  25.972  1.00  0.00     0.104 C 
BRANCH   8   9
ATOM      9  C   UNL A   1      31.858  28.209  24.817  1.00  0.00     0.010 C 
ATOM     10  N   UNL A   1      29.486  27.940  23.042  1.00  0.00    -0.324 N 
ATOM     11  C   UNL A   1      30.779  28.283  22.438  1.00  0.00     0.185 C 
ATOM     12  C   UNL A   1      29.800  26.852  23.944  1.00  0.00     0.185 C 
ATOM     13  H   UNL A   1      28.746  27.583  22.437  1.00  0.00     0.349 HD
ATOM     14  C   UNL A   1      31.279  26.894  22.025  1.00  0.00     0.071 C 
ATOM     15  C   UNL A   1      31.758  28.926  23.450  1.00  0.00     0.069 C 
ATOM     16  C   UNL A   1      30.649  25.944  23.040  1.00  0.00     0.071 C 
ATOM     17  C   UNL A   1      30.649  27.319  25.122  1.00  0.00     0.069 C 
BRANCH  10  18
ATOM     18  C   UNL A   1      28.479  28.994  23.225  1.00  0.00     0.212 C 
ATOM     19  C   UNL A   1      27.004  28.564  23.133  1.00  0.00     0.081 C 
BRANCH  18  20
ATOM     20  C   UNL A   1      28.567  30.362  22.529  1.00  0.00     0.012 A 
ATOM     21  C   UNL A   1      28.120  30.630  21.236  1.00  0.00     0.030 A 
ATOM     22  C   UNL A   1      28.834  31.491  23.329  1.00  0.00     0.030 A 
ATOM     23  C   UNL A   1      27.900  31.942  20.833  1.00  0.00     0.111 A 
ATOM     24  C   UNL A   1      28.597  32.769  22.835  1.00  0.00     0.111 A 
ATOM     25  N   UNL A   1      28.123  33.019  21.603  1.00  0.00    -0.265 NA
ENDBRANCH  18  20
ENDBRANCH  10  18
ENDBRANCH   8   9
ENDBRANCH   5   8
ENDBRANCH   3   4
ENDBRANCH   2   3
ENDBRANCH   1   2
BRANCH   1  26
ATOM     26  C   UNL A   1      35.108  34.572  28.766  1.00  0.00     0.002 C 
BRANCH  26  27
ATOM     27  C   UNL A   1      33.638  34.977  28.910  1.00  0.00     0.021 C 
BRANCH  27  28
ATOM     28  C   UNL A   1      33.356  36.387  29.426  1.00  0.00     0.116 C 
BRANCH  28  29
ATOM     29  N   UNL A   1      32.514  36.400  30.609  1.00  0.00    -0.352 N 
ATOM     30  C   UNL A   1      32.627  35.748  31.809  1.00  0.00     0.251 C 
ATOM     31  H   UNL A   1      31.721  36.978  30.535  1.00  0.00     0.163 HD
ATOM     32  O   UNL A   1      31.684  35.807  32.606  1.00  0.00    -0.269 OA
BRANCH  30  33
ATOM     33  C   UNL A   1      33.829  34.962  32.181  1.00  0.00     0.039 A 
ATOM     34  C   UNL A   1      35.056  35.633  32.274  1.00  0.00     0.014 A 
ATOM     35  C   UNL A   1      33.796  33.577  32.358  1.00  0.00     0.014 A 
ATOM     36  C   UNL A   1      36.225  34.931  32.591  1.00  0.00     0.010 A 
ATOM     37  C   UNL A   1      34.949  32.888  32.745  1.00  0.00     0.010 A 
ATOM     38  C   UNL A   1      36.179  33.554  32.856  1.00  0.00    -0.014 A 
BRANCH  38  39
ATOM     39  C   UNL A   1      37.411  32.801  33.220  1.00  0.00     0.031 A 
ATOM     40  C   UNL A   1      38.130  33.089  34.511  1.00  0.00     0.074 A 
ATOM     41  C   UNL A   1      37.915  31.884  32.371  1.00  0.00     0.049 A 
ATOM     42  N   UNL A   1      39.244  32.578  34.972  1.00  0.00    -0.248 NA
ATOM     43  C   UNL A   1      37.528  34.105  35.390  1.00  0.00     0.031 C 
ATOM     44  C   UNL A   1      37.346  31.534  31.068  1.00  0.00     0.029 A 
ATOM     45  N   UNL A   1      39.025  31.083  32.474  1.00  0.00    -0.354 N 
ATOM     46  C   UNL A   1      39.488  33.222  36.179  1.00  0.00     0.074 A 
ATOM     47  C   UNL A   1      38.428  34.192  36.360  1.00  0.00     0.031 C 
ATOM     48  C   UNL A   1      38.098  30.575  30.504  1.00  0.00     0.029 A 
ATOM     49  C   UNL A   1      39.218  30.263  31.388  1.00  0.00     0.049 A 
ATOM     50  H   UNL A   1      39.627  31.094  33.253  1.00  0.00     0.167 HD
ATOM     51  C   UNL A   1      40.490  33.013  37.067  1.00  0.00     0.037 A 
ATOM     52  C   UNL A   1      40.187  29.365  31.130  1.00  0.00     0.037 A 
ATOM     53  C   UNL A   1      41.525  32.025  36.912  1.00  0.00     0.049 A 
ATOM     54  C   UNL A   1      41.278  29.139  32.138  1.00  0.00     0.074 A 
ATOM     55  C   UNL A   1      42.545  31.699  37.790  1.00  0.00     0.029 A 
ATOM     56  N   UNL A   1      41.667  31.199  35.809  1.00  0.00    -0.354 N 
ATOM     57  N   UNL A   1      41.463  29.718  33.300  1.00  0.00    -0.248 NA
ATOM     58  C   UNL A   1      42.292  28.129  31.803  1.00  0.00     0.031 C 
ATOM     59  C   UNL A   1      43.324  30.697  37.204  1.00  0.00     0.029 A 
ATOM     60  C   UNL A   1      42.767  30.373  35.977  1.00  0.00     0.049 A 
ATOM     61  H   UNL A   1      41.076  31.198  35.022  1.00  0.00     0.167 HD
ATOM     62  C   UNL A   1      42.595  29.128  33.842  1.00  0.00     0.074 A 
ATOM     63  C   UNL A   1      43.050  28.136  32.890  1.00  0.00     0.031 C 
ATOM     64  C   UNL A   1      43.205  29.386  35.025  1.00  0.00     0.037 A 
BRANCH  51  65
ATOM     65  C   UNL A   1      40.511  33.874  38.297  1.00  0.00     0.057 A 
ATOM     66  C   UNL A   1      41.259  35.057  38.356  1.00  0.00     0.134 A 
ATOM     67  C   UNL A   1      39.751  33.533  39.422  1.00  0.00     0.134 A 
ATOM     68  F   UNL A   1      42.019  35.433  37.316  1.00  0.00    -0.206 F 
ATOM     69  C   UNL A   1      41.271  35.857  39.500  1.00  0.00     0.040 A 
ATOM     70  C   UNL A   1      39.734  34.338  40.563  1.00  0.00     0.040 A 
ATOM     71  F   UNL A   1      39.005  32.418  39.429  1.00  0.00    -0.206 F 
ATOM     72  C   UNL A   1      40.501  35.501  40.606  1.00  0.00     0.006 A 
ENDBRANCH  51  65
BRANCH  52  73
ATOM     73  C   UNL A   1      40.156  28.586  29.867  1.00  0.00     0.057 A 
ATOM     74  C   UNL A   1      40.868  29.014  28.741  1.00  0.00     0.134 A 
ATOM     75  C   UNL A   1      39.412  27.406  29.753  1.00  0.00     0.134 A 
ATOM     76  F   UNL A   1      41.580  30.150  28.784  1.00  0.00    -0.206 F 
ATOM     77  C   UNL A   1      40.832  28.304  27.540  1.00  0.00     0.040 A 
ATOM     78  C   UNL A   1      39.385  26.674  28.565  1.00  0.00     0.040 A 
ATOM     79  F   UNL A   1      38.710  26.945  30.798  1.00  0.00    -0.206 F 
ATOM     80  C   UNL A   1      40.092  27.126  27.452  1.00  0.00     0.006 A 
ENDBRANCH  52  73
BRANCH  64  81
ATOM     81  C   UNL A   1      44.410  28.563  35.369  1.00  0.00     0.057 A 
ATOM     82  C   UNL A   1      44.307  27.381  36.113  1.00  0.00     0.134 A 
ATOM     83  C   UNL A   1      45.683  28.939  34.923  1.00  0.00     0.134 A 
ATOM     84  F   UNL A   1      43.118  26.973  36.581  1.00  0.00    -0.206 F 
ATOM     85  C   UNL A   1      45.433  26.612  36.417  1.00  0.00     0.040 A 
ATOM     86  C   UNL A   1      46.812  28.168  35.203  1.00  0.00     0.040 A 
ATOM     87  F   UNL A   1      45.848  30.058  34.200  1.00  0.00    -0.206 F 
ATOM     88  C   UNL A   1      46.689  27.003  35.956  1.00  0.00     0.006 A 
ENDBRANCH  64  81
ENDBRANCH  38  39
ENDBRANCH  30  33
ENDBRANCH  28  29
ENDBRANCH  27  28
ENDBRANCH  26  27
ENDBRANCH   1  26
TORSDOF 16
ENDMDL
MODEL 3
REMARK VINA RESULT:     -11.0      2.445      6.956
REMARK SMILES C[C@H](c1ccncc1)[N@H+]1[C@@H]2CC[C@H]1C[C@H](CC(=O)NCCCCCCNC(=O)c1ccc(-c3c4nc(c(-c5c(F)cccc5F)c5ccc([nH]5)c(-c5c(F)cccc5F)c5nc(c(-c6c(F)cccc6F)c6ccc3[nH]6)C=C5)C=C4)cc1)C2
REMARK SMILES IDX 22 1 21 2 20 3 19 4 17 5 18 6 16 8 15 9 9 10 10 11 13 12
REMARK SMILES IDX 11 14 83 15 12 16 14 17 2 18 1 19 3 20 4 21 8 22 5 23 7 24
REMARK SMILES IDX 6 25 23 26 24 27 25 28 26 29 27 30 28 32 29 33 30 34 82 35
REMARK SMILES IDX 31 36 81 37 32 38 33 39 34 40 75 41 35 42 80 43 74 44 76 45
REMARK SMILES IDX 36 46 79 47 73 48 72 49 37 51 63 52 46 53 62 54 47 55 50 56
REMARK SMILES IDX 61 57 77 58 48 59 49 60 60 62 78 63 51 64 38 65 39 66 44 67
REMARK SMILES IDX 40 68 41 69 43 70 45 71 42 72 64 73 65 74 70 75 66 76 67 77
REMARK SMILES IDX 69 78 71 79 68 80 52 81 53 82 58 83 54 84 55 85 57 86 59 87
REMARK SMILES IDX 56 88
REMARK H PARENT 19 7 9 13 26 31 76 50 50 61
REMARK Flexibility Score: inf
ROOT
ATOM      1  C   UNL A   1      31.676  27.339  26.835  1.00  0.00     0.002 C 
ENDROOT
BRANCH   1   2
ATOM      2  C   UNL A   1      30.738  27.232  25.627  1.00  0.00     0.021 C 
BRANCH   2   3
ATOM      3  C   UNL A   1      30.527  25.807  25.083  1.00  0.00     0.116 C 
BRANCH   3   4
ATOM      4  N   UNL A   1      29.893  24.958  26.087  1.00  0.00    -0.356 N 
ATOM      5  C   UNL A   1      30.339  23.909  26.834  1.00  0.00     0.220 C 
ATOM      6  O   UNL A   1      29.517  23.325  27.544  1.00  0.00    -0.275 OA
ATOM      7  H   UNL A   1      28.952  25.191  26.261  1.00  0.00     0.163 HD
BRANCH   5   8
ATOM      8  C   UNL A   1      31.791  23.458  26.824  1.00  0.00     0.104 C 
BRANCH   8   9
ATOM      9  C   UNL A   1      32.036  22.125  26.070  1.00  0.00     0.010 C 
ATOM     10  N   UNL A   1      34.342  21.489  24.301  1.00  0.00    -0.324 N 
ATOM     11  C   UNL A   1      34.140  20.680  25.509  1.00  0.00     0.185 C 
ATOM     12  C   UNL A   1      33.021  21.571  23.711  1.00  0.00     0.185 C 
ATOM     13  H   UNL A   1      34.942  21.122  23.563  1.00  0.00     0.349 HD
ATOM     14  C   UNL A   1      33.342  19.504  24.934  1.00  0.00     0.071 C 
ATOM     15  C   UNL A   1      33.310  21.416  26.588  1.00  0.00     0.069 C 
ATOM     16  C   UNL A   1      32.578  20.100  23.755  1.00  0.00     0.071 C 
ATOM     17  C   UNL A   1      32.070  22.405  24.565  1.00  0.00     0.069 C 
BRANCH  10  18
ATOM     18  C   UNL A   1      35.391  22.518  24.294  1.00  0.00     0.212 C 
ATOM     19  C   UNL A   1      35.923  22.954  22.917  1.00  0.00     0.081 C 
BRANCH  18  20
ATOM     20  C   UNL A   1      36.614  22.467  25.224  1.00  0.00     0.012 A 
ATOM     21  C   UNL A   1      37.577  21.459  25.223  1.00  0.00     0.030 A 
ATOM     22  C   UNL A   1      36.963  23.645  25.916  1.00  0.00     0.030 A 
ATOM     23  C   UNL A   1      38.815  21.677  25.819  1.00  0.00     0.111 A 
ATOM     24  C   UNL A   1      38.222  23.768  26.495  1.00  0.00     0.111 A 
ATOM     25  N   UNL A   1      39.162  22.809  26.451  1.00  0.00    -0.265 NA
ENDBRANCH  18  20
ENDBRANCH  10  18
ENDBRANCH   8   9
ENDBRANCH   5   8
ENDBRANCH   3   4
ENDBRANCH   2   3
ENDBRANCH   1   2
BRANCH   1  26
ATOM     26  C   UNL A   1      33.117  27.756  26.518  1.00  0.00     0.002 C 
BRANCH  26  27
ATOM     27  C   UNL A   1      33.531  29.153  26.991  1.00  0.00     0.021 C 
BRANCH  27  28
ATOM     28  C   UNL A   1      34.977  29.328  27.452  1.00  0.00     0.116 C 
BRANCH  28  29
ATOM     29  N   UNL A   1      35.091  30.074  28.692  1.00  0.00    -0.352 N 
ATOM     30  C   UNL A   1      36.158  30.290  29.525  1.00  0.00     0.251 C 
ATOM     31  H   UNL A   1      34.254  30.500  28.987  1.00  0.00     0.163 HD
ATOM     32  O   UNL A   1      35.958  30.839  30.613  1.00  0.00    -0.269 OA
BRANCH  30  33
ATOM     33  C   UNL A   1      37.540  29.876  29.176  1.00  0.00     0.039 A 
ATOM     34  C   UNL A   1      38.413  29.536  30.218  1.00  0.00     0.014 A 
ATOM     35  C   UNL A   1      38.020  29.893  27.865  1.00  0.00     0.014 A 
ATOM     36  C   UNL A   1      39.735  29.169  29.944  1.00  0.00     0.010 A 
ATOM     37  C   UNL A   1      39.318  29.458  27.584  1.00  0.00     0.010 A 
ATOM     38  C   UNL A   1      40.195  29.101  28.620  1.00  0.00    -0.014 A 
BRANCH  38  39
ATOM     39  C   UNL A   1      41.591  28.687  28.313  1.00  0.00     0.031 A 
ATOM     40  C   UNL A   1      41.906  27.255  27.967  1.00  0.00     0.074 A 
ATOM     41  C   UNL A   1      42.592  29.587  28.386  1.00  0.00     0.049 A 
ATOM     42  N   UNL A   1      43.066  26.696  27.725  1.00  0.00    -0.248 NA
ATOM     43  C   UNL A   1      40.769  26.324  27.909  1.00  0.00     0.031 C 
ATOM     44  C   UNL A   1      42.438  30.996  28.749  1.00  0.00     0.029 A 
ATOM     45  N   UNL A   1      43.940  29.447  28.163  1.00  0.00    -0.354 N 
ATOM     46  C   UNL A   1      42.800  25.349  27.509  1.00  0.00     0.074 A 
ATOM     47  C   UNL A   1      41.376  25.166  27.689  1.00  0.00     0.031 C 
ATOM     48  C   UNL A   1      43.639  31.595  28.704  1.00  0.00     0.029 A 
ATOM     49  C   UNL A   1      44.652  30.609  28.340  1.00  0.00     0.049 A 
ATOM     50  H   UNL A   1      44.357  28.594  27.902  1.00  0.00     0.167 HD
ATOM     51  C   UNL A   1      43.660  24.357  27.171  1.00  0.00     0.037 A 
ATOM     52  C   UNL A   1      45.971  30.853  28.225  1.00  0.00     0.037 A 
ATOM     53  C   UNL A   1      45.071  24.539  26.953  1.00  0.00     0.049 A 
ATOM     54  C   UNL A   1      46.901  29.741  27.832  1.00  0.00     0.074 A 
ATOM     55  C   UNL A   1      46.009  23.604  26.547  1.00  0.00     0.029 A 
ATOM     56  N   UNL A   1      45.746  25.737  27.117  1.00  0.00    -0.354 N 
ATOM     57  N   UNL A   1      46.626  28.484  27.577  1.00  0.00    -0.248 NA
ATOM     58  C   UNL A   1      48.326  30.081  27.703  1.00  0.00     0.031 C 
ATOM     59  C   UNL A   1      47.258  24.231  26.495  1.00  0.00     0.029 A 
ATOM     60  C   UNL A   1      47.091  25.563  26.835  1.00  0.00     0.049 A 
ATOM     61  H   UNL A   1      45.332  26.587  27.394  1.00  0.00     0.167 HD
ATOM     62  C   UNL A   1      47.834  27.893  27.236  1.00  0.00     0.074 A 
ATOM     63  C   UNL A   1      48.844  28.928  27.304  1.00  0.00     0.031 C 
ATOM     64  C   UNL A   1      48.085  26.604  26.898  1.00  0.00     0.037 A 
BRANCH  51  65
ATOM     65  C   UNL A   1      43.091  22.977  27.011  1.00  0.00     0.057 A 
ATOM     66  C   UNL A   1      42.898  22.402  25.748  1.00  0.00     0.134 A 
ATOM     67  C   UNL A   1      42.764  22.203  28.131  1.00  0.00     0.134 A 
ATOM     68  F   UNL A   1      43.181  23.096  24.635  1.00  0.00    -0.206 F 
ATOM     69  C   UNL A   1      42.375  21.115  25.604  1.00  0.00     0.040 A 
ATOM     70  C   UNL A   1      42.263  20.906  28.000  1.00  0.00     0.040 A 
ATOM     71  F   UNL A   1      42.931  22.690  29.369  1.00  0.00    -0.206 F 
ATOM     72  C   UNL A   1      42.062  20.361  26.733  1.00  0.00     0.006 A 
ENDBRANCH  51  65
BRANCH  52  73
ATOM     73  C   UNL A   1      46.493  32.223  28.459  1.00  0.00     0.057 A 
ATOM     74  C   UNL A   1      46.950  32.611  29.723  1.00  0.00     0.134 A 
ATOM     75  C   UNL A   1      46.539  33.173  27.433  1.00  0.00     0.134 A 
ATOM     76  F   UNL A   1      46.909  31.750  30.750  1.00  0.00    -0.206 F 
ATOM     77  C   UNL A   1      47.423  33.902  29.964  1.00  0.00     0.040 A 
ATOM     78  C   UNL A   1      47.030  34.461  27.654  1.00  0.00     0.040 A 
ATOM     79  F   UNL A   1      46.115  32.861  26.200  1.00  0.00    -0.206 F 
ATOM     80  C   UNL A   1      47.469  34.830  28.924  1.00  0.00     0.006 A 
ENDBRANCH  52  73
BRANCH  64  81
ATOM     81  C   UNL A   1      49.498  26.250  26.545  1.00  0.00     0.057 A 
ATOM     82  C   UNL A   1      49.969  26.323  25.229  1.00  0.00     0.134 A 
ATOM     83  C   UNL A   1      50.406  25.863  27.539  1.00  0.00     0.134 A 
ATOM     84  F   UNL A   1      49.146  26.674  24.230  1.00  0.00    -0.206 F 
ATOM     85  C   UNL A   1      51.291  26.006  24.910  1.00  0.00     0.040 A 
ATOM     86  C   UNL A   1      51.735  25.564  27.235  1.00  0.00     0.040 A 
ATOM     87  F   UNL A   1      50.019  25.779  28.821  1.00  0.00    -0.206 F 
ATOM     88  C   UNL A   1      52.179  25.630  25.917  1.00  0.00     0.006 A 
ENDBRANCH  64  81
ENDBRANCH  38  39
ENDBRANCH  30  33
ENDBRANCH  28  29
ENDBRANCH  27  28
ENDBRANCH  26  27
ENDBRANCH   1  26
TORSDOF 16
ENDMDL
