MODEL 1
REMARK VINA RESULT:     -11.2      0.000      0.000
REMARK SMILES Cc1ccc(CNC(=O)NC[C@@H]2CC[C@@H](C(=O)NCCCCCCNC(=O)c3ccc(-c4c5nc(c(-c6c(F)cccc6F)c6ccc([nH]6)c(-c6c(F)cccc6F)c6nc(c(-c7c(F)cccc7F)c7ccc4[nH]7)C=C6)C=C5)cc3)O2)cn1
REMARK SMILES IDX 20 1 19 2 18 3 16 4 17 5 15 7 12 8 13 9 82 10 14 11 11 12
REMARK SMILES IDX 10 13 7 14 8 15 9 17 6 19 5 20 1 21 2 22 3 23 84 24 4 25
REMARK SMILES IDX 83 26 21 27 22 28 23 29 24 30 25 31 26 32 27 34 28 35 29 36
REMARK SMILES IDX 81 37 30 38 80 39 31 40 32 41 33 42 74 43 34 44 79 45 73 46
REMARK SMILES IDX 75 47 35 48 78 49 72 50 71 51 36 53 62 54 45 55 61 56 46 57
REMARK SMILES IDX 49 58 60 59 76 60 47 61 48 62 59 64 77 65 50 66 37 67 38 68
REMARK SMILES IDX 43 69 39 70 40 71 42 72 44 73 41 74 63 75 64 76 69 77 65 78
REMARK SMILES IDX 66 79 68 80 70 81 67 82 51 83 52 84 57 85 53 86 54 87 56 88
REMARK SMILES IDX 58 89 55 90
REMARK H PARENT 18 6 7 16 10 18 25 33 75 52 49 63
REMARK Flexibility Score: inf
ROOT
ATOM      1  C   UNL A   1      37.402  22.928  25.420  1.00  0.00     0.021 C 
ENDROOT
BRANCH   1   2
ATOM      2  C   UNL A   1      36.209  23.802  25.796  1.00  0.00     0.116 C 
BRANCH   2   3
ATOM      3  N   UNL A   1      35.136  23.034  26.395  1.00  0.00    -0.354 N 
ATOM      4  C   UNL A   1      33.792  23.245  26.442  1.00  0.00     0.249 C 
ATOM      5  O   UNL A   1      33.112  22.412  27.053  1.00  0.00    -0.272 OA
ATOM      6  H   UNL A   1      35.432  22.213  26.850  1.00  0.00     0.163 HD
BRANCH   4   7
ATOM      7  C   UNL A   1      33.099  24.413  25.705  1.00  0.00     0.207 C 
ATOM      8  C   UNL A   1      31.082  24.437  24.544  1.00  0.00     0.138 C 
ATOM      9  C   UNL A   1      30.990  25.520  25.594  1.00  0.00     0.037 C 
ATOM     10  O   UNL A   1      32.494  24.162  24.437  1.00  0.00    -0.363 OA
ATOM     11  C   UNL A   1      32.019  25.034  26.591  1.00  0.00     0.045 C 
BRANCH   8  12
ATOM     12  C   UNL A   1      30.516  24.756  23.160  1.00  0.00     0.149 C 
BRANCH  12  13
ATOM     13  N   UNL A   1      31.570  24.807  22.155  1.00  0.00    -0.336 N 
ATOM     14  N   UNL A   1      32.245  27.056  21.928  1.00  0.00    -0.334 N 
ATOM     15  C   UNL A   1      32.359  25.757  21.648  1.00  0.00     0.315 C 
ATOM     16  H   UNL A   1      33.001  27.590  21.592  1.00  0.00     0.165 HD
ATOM     17  O   UNL A   1      33.255  25.406  20.878  1.00  0.00    -0.249 OA
ATOM     18  H   UNL A   1      31.742  23.926  21.752  1.00  0.00     0.165 HD
BRANCH  14  19
ATOM     19  C   UNL A   1      31.253  27.848  22.615  1.00  0.00     0.155 C 
BRANCH  19  20
ATOM     20  C   UNL A   1      31.782  28.558  23.828  1.00  0.00    -0.010 A 
ATOM     21  C   UNL A   1      33.235  30.643  27.251  1.00  0.00     0.066 C 
ATOM     22  C   UNL A   1      32.763  29.907  26.035  1.00  0.00     0.037 A 
ATOM     23  C   UNL A   1      33.551  28.931  25.435  1.00  0.00     0.024 A 
ATOM     24  N   UNL A   1      31.540  30.239  25.562  1.00  0.00    -0.261 NA
ATOM     25  C   UNL A   1      33.056  28.260  24.319  1.00  0.00     0.009 A 
ATOM     26  C   UNL A   1      31.081  29.564  24.482  1.00  0.00     0.116 A 
ENDBRANCH  19  20
ENDBRANCH  14  19
ENDBRANCH  12  13
ENDBRANCH   8  12
ENDBRANCH   4   7
ENDBRANCH   2   3
ENDBRANCH   1   2
BRANCH   1  27
ATOM     27  C   UNL A   1      37.102  21.885  24.341  1.00  0.00     0.002 C 
BRANCH  27  28
ATOM     28  C   UNL A   1      36.912  20.452  24.852  1.00  0.00     0.002 C 
BRANCH  28  29
ATOM     29  C   UNL A   1      38.172  19.582  24.855  1.00  0.00     0.021 C 
BRANCH  29  30
ATOM     30  C   UNL A   1      39.132  19.843  26.011  1.00  0.00     0.116 C 
BRANCH  30  31
ATOM     31  N   UNL A   1      40.353  19.064  25.895  1.00  0.00    -0.352 N 
ATOM     32  C   UNL A   1      41.662  19.455  26.019  1.00  0.00     0.251 C 
ATOM     33  H   UNL A   1      40.220  18.109  25.699  1.00  0.00     0.163 HD
ATOM     34  O   UNL A   1      42.561  18.685  25.698  1.00  0.00    -0.269 OA
BRANCH  32  35
ATOM     35  C   UNL A   1      41.998  20.803  26.525  1.00  0.00     0.039 A 
ATOM     36  C   UNL A   1      42.295  21.809  25.601  1.00  0.00     0.014 A 
ATOM     37  C   UNL A   1      42.068  21.073  27.895  1.00  0.00     0.014 A 
ATOM     38  C   UNL A   1      42.620  23.091  26.048  1.00  0.00     0.010 A 
ATOM     39  C   UNL A   1      42.323  22.369  28.339  1.00  0.00     0.010 A 
ATOM     40  C   UNL A   1      42.614  23.388  27.420  1.00  0.00    -0.014 A 
BRANCH  40  41
ATOM     41  C   UNL A   1      42.923  24.757  27.904  1.00  0.00     0.031 A 
ATOM     42  C   UNL A   1      44.350  25.178  28.132  1.00  0.00     0.074 A 
ATOM     43  C   UNL A   1      41.918  25.610  28.177  1.00  0.00     0.049 A 
ATOM     44  N   UNL A   1      44.814  26.320  28.573  1.00  0.00    -0.248 NA
ATOM     45  C   UNL A   1      45.390  24.177  27.850  1.00  0.00     0.031 C 
ATOM     46  C   UNL A   1      40.492  25.307  28.042  1.00  0.00     0.029 A 
ATOM     47  N   UNL A   1      41.940  26.905  28.629  1.00  0.00    -0.354 N 
ATOM     48  C   UNL A   1      46.195  26.169  28.633  1.00  0.00     0.074 A 
ATOM     49  C   UNL A   1      46.489  24.810  28.233  1.00  0.00     0.031 C 
ATOM     50  C   UNL A   1      39.778  26.393  28.377  1.00  0.00     0.029 A 
ATOM     51  C   UNL A   1      40.692  27.457  28.781  1.00  0.00     0.049 A 
ATOM     52  H   UNL A   1      42.773  27.393  28.826  1.00  0.00     0.167 HD
ATOM     53  C   UNL A   1      47.132  27.086  28.969  1.00  0.00     0.037 A 
ATOM     54  C   UNL A   1      40.325  28.683  29.201  1.00  0.00     0.037 A 
ATOM     55  C   UNL A   1      46.840  28.445  29.341  1.00  0.00     0.049 A 
ATOM     56  C   UNL A   1      41.387  29.682  29.569  1.00  0.00     0.074 A 
ATOM     57  C   UNL A   1      47.724  29.469  29.634  1.00  0.00     0.029 A 
ATOM     58  N   UNL A   1      45.563  28.969  29.473  1.00  0.00    -0.354 N 
ATOM     59  N   UNL A   1      42.691  29.550  29.548  1.00  0.00    -0.248 NA
ATOM     60  C   UNL A   1      40.925  31.004  30.014  1.00  0.00     0.031 C 
ATOM     61  C   UNL A   1      46.981  30.601  29.986  1.00  0.00     0.029 A 
ATOM     62  C   UNL A   1      45.636  30.296  29.867  1.00  0.00     0.049 A 
ATOM     63  H   UNL A   1      44.728  28.473  29.312  1.00  0.00     0.167 HD
ATOM     64  C   UNL A   1      43.205  30.776  29.947  1.00  0.00     0.074 A 
ATOM     65  C   UNL A   1      42.071  31.645  30.192  1.00  0.00     0.031 C 
ATOM     66  C   UNL A   1      44.499  31.151  30.096  1.00  0.00     0.037 A 
BRANCH  53  67
ATOM     67  C   UNL A   1      48.569  26.649  28.945  1.00  0.00     0.057 A 
ATOM     68  C   UNL A   1      49.368  26.800  27.803  1.00  0.00     0.134 A 
ATOM     69  C   UNL A   1      49.172  26.106  30.086  1.00  0.00     0.134 A 
ATOM     70  F   UNL A   1      48.850  27.304  26.673  1.00  0.00    -0.206 F 
ATOM     71  C   UNL A   1      50.706  26.402  27.790  1.00  0.00     0.040 A 
ATOM     72  C   UNL A   1      50.516  25.730  30.094  1.00  0.00     0.040 A 
ATOM     73  F   UNL A   1      48.467  25.940  31.215  1.00  0.00    -0.206 F 
ATOM     74  C   UNL A   1      51.285  25.871  28.941  1.00  0.00     0.006 A 
ENDBRANCH  53  67
BRANCH  54  75
ATOM     75  C   UNL A   1      38.888  29.048  29.266  1.00  0.00     0.057 A 
ATOM     76  C   UNL A   1      38.216  29.534  28.138  1.00  0.00     0.134 A 
ATOM     77  C   UNL A   1      38.155  28.929  30.452  1.00  0.00     0.134 A 
ATOM     78  F   UNL A   1      38.870  29.688  26.976  1.00  0.00    -0.206 F 
ATOM     79  C   UNL A   1      36.873  29.909  28.191  1.00  0.00     0.040 A 
ATOM     80  C   UNL A   1      36.805  29.277  30.514  1.00  0.00     0.040 A 
ATOM     81  F   UNL A   1      38.739  28.463  31.565  1.00  0.00    -0.206 F 
ATOM     82  C   UNL A   1      36.162  29.776  29.383  1.00  0.00     0.006 A 
ENDBRANCH  54  75
BRANCH  66  83
ATOM     83  C   UNL A   1      44.760  32.569  30.509  1.00  0.00     0.057 A 
ATOM     84  C   UNL A   1      44.912  32.933  31.852  1.00  0.00     0.134 A 
ATOM     85  C   UNL A   1      44.899  33.577  29.546  1.00  0.00     0.134 A 
ATOM     86  F   UNL A   1      44.777  32.018  32.825  1.00  0.00    -0.206 F 
ATOM     87  C   UNL A   1      45.171  34.253  32.225  1.00  0.00     0.040 A 
ATOM     88  C   UNL A   1      45.184  34.894  29.904  1.00  0.00     0.040 A 
ATOM     89  F   UNL A   1      44.774  33.293  28.240  1.00  0.00    -0.206 F 
ATOM     90  C   UNL A   1      45.315  35.237  31.248  1.00  0.00     0.006 A 
ENDBRANCH  66  83
ENDBRANCH  40  41
ENDBRANCH  32  35
ENDBRANCH  30  31
ENDBRANCH  29  30
ENDBRANCH  28  29
ENDBRANCH  27  28
ENDBRANCH   1  27
TORSDOF 17
ENDMDL
MODEL 2
REMARK VINA RESULT:     -11.1      2.466      3.649
REMARK SMILES Cc1ccc(CNC(=O)NC[C@@H]2CC[C@@H](C(=O)NCCCCCCNC(=O)c3ccc(-c4c5nc(c(-c6c(F)cccc6F)c6ccc([nH]6)c(-c6c(F)cccc6F)c6nc(c(-c7c(F)cccc7F)c7ccc4[nH]7)C=C6)C=C5)cc3)O2)cn1
REMARK SMILES IDX 20 1 19 2 18 3 16 4 17 5 15 7 12 8 13 9 82 10 14 11 11 12
REMARK SMILES IDX 10 13 7 14 8 15 9 17 6 19 5 20 1 21 2 22 3 23 84 24 4 25
REMARK SMILES IDX 83 26 21 27 22 28 23 29 24 30 25 31 26 32 27 34 28 35 29 36
REMARK SMILES IDX 81 37 30 38 80 39 31 40 32 41 33 42 74 43 34 44 79 45 73 46
REMARK SMILES IDX 75 47 35 48 78 49 72 50 71 51 36 53 62 54 45 55 61 56 46 57
REMARK SMILES IDX 49 58 60 59 76 60 47 61 48 62 59 64 77 65 50 66 37 67 38 68
REMARK SMILES IDX 43 69 39 70 40 71 42 72 44 73 41 74 63 75 64 76 69 77 65 78
REMARK SMILES IDX 66 79 68 80 70 81 67 82 51 83 52 84 57 85 53 86 54 87 56 88
REMARK SMILES IDX 58 89 55 90
REMARK H PARENT 18 6 7 16 10 18 25 33 75 52 49 63
REMARK Flexibility Score: inf
ROOT
ATOM      1  C   UNL A   1      39.731  22.382  26.141  1.00  0.00     0.021 C 
ENDROOT
BRANCH   1   2
ATOM      2  C   UNL A   1      38.228  22.201  25.949  1.00  0.00     0.116 C 
BRANCH   2   3
ATOM      3  N   UNL A   1      37.803  22.544  24.606  1.00  0.00    -0.354 N 
ATOM      4  C   UNL A   1      36.565  22.630  24.045  1.00  0.00     0.249 C 
ATOM      5  O   UNL A   1      36.509  22.933  22.848  1.00  0.00    -0.272 OA
ATOM      6  H   UNL A   1      38.541  22.749  23.989  1.00  0.00     0.163 HD
BRANCH   4   7
ATOM      7  C   UNL A   1      35.262  22.453  24.856  1.00  0.00     0.207 C 
ATOM      8  C   UNL A   1      33.050  22.584  24.144  1.00  0.00     0.138 C 
ATOM      9  C   UNL A   1      33.216  21.231  24.798  1.00  0.00     0.037 C 
ATOM     10  O   UNL A   1      34.177  23.349  24.618  1.00  0.00    -0.363 OA
ATOM     11  C   UNL A   1      34.711  21.038  24.673  1.00  0.00     0.045 C 
BRANCH   8  12
ATOM     12  C   UNL A   1      31.756  23.344  24.433  1.00  0.00     0.149 C 
BRANCH  12  13
ATOM     13  N   UNL A   1      31.228  23.010  25.750  1.00  0.00    -0.336 N 
ATOM     14  N   UNL A   1      29.934  24.836  26.495  1.00  0.00    -0.334 N 
ATOM     15  C   UNL A   1      30.410  23.598  26.627  1.00  0.00     0.315 C 
ATOM     16  H   UNL A   1      29.228  25.048  27.147  1.00  0.00     0.165 HD
ATOM     17  O   UNL A   1      30.071  22.948  27.617  1.00  0.00    -0.249 OA
ATOM     18  H   UNL A   1      31.553  22.139  26.071  1.00  0.00     0.165 HD
BRANCH  14  19
ATOM     19  C   UNL A   1      30.227  25.932  25.604  1.00  0.00     0.155 C 
BRANCH  19  20
ATOM     20  C   UNL A   1      31.399  26.766  26.037  1.00  0.00    -0.010 A 
ATOM     21  C   UNL A   1      34.780  29.064  27.248  1.00  0.00     0.066 C 
ATOM     22  C   UNL A   1      33.576  28.260  26.860  1.00  0.00     0.037 A 
ATOM     23  C   UNL A   1      32.333  28.507  27.431  1.00  0.00     0.024 A 
ATOM     24  N   UNL A   1      33.765  27.295  25.930  1.00  0.00    -0.261 NA
ATOM     25  C   UNL A   1      31.241  27.746  27.019  1.00  0.00     0.009 A 
ATOM     26  C   UNL A   1      32.685  26.578  25.542  1.00  0.00     0.116 A 
ENDBRANCH  19  20
ENDBRANCH  14  19
ENDBRANCH  12  13
ENDBRANCH   8  12
ENDBRANCH   4   7
ENDBRANCH   2   3
ENDBRANCH   1   2
BRANCH   1  27
ATOM     27  C   UNL A   1      40.380  21.331  27.044  1.00  0.00     0.002 C 
BRANCH  27  28
ATOM     28  C   UNL A   1      41.803  20.918  26.648  1.00  0.00     0.002 C 
BRANCH  28  29
ATOM     29  C   UNL A   1      41.908  19.640  25.812  1.00  0.00     0.021 C 
BRANCH  29  30
ATOM     30  C   UNL A   1      43.131  18.778  26.105  1.00  0.00     0.116 C 
BRANCH  30  31
ATOM     31  N   UNL A   1      43.946  18.561  24.921  1.00  0.00    -0.352 N 
ATOM     32  C   UNL A   1      44.660  19.456  24.167  1.00  0.00     0.251 C 
ATOM     33  H   UNL A   1      43.992  17.627  24.613  1.00  0.00     0.163 HD
ATOM     34  O   UNL A   1      45.131  19.108  23.090  1.00  0.00    -0.269 OA
BRANCH  32  35
ATOM     35  C   UNL A   1      44.855  20.846  24.637  1.00  0.00     0.039 A 
ATOM     36  C   UNL A   1      44.389  21.893  23.837  1.00  0.00     0.014 A 
ATOM     37  C   UNL A   1      45.528  21.125  25.830  1.00  0.00     0.014 A 
ATOM     38  C   UNL A   1      44.562  23.215  24.252  1.00  0.00     0.010 A 
ATOM     39  C   UNL A   1      45.638  22.441  26.277  1.00  0.00     0.010 A 
ATOM     40  C   UNL A   1      45.167  23.499  25.486  1.00  0.00    -0.014 A 
BRANCH  40  41
ATOM     41  C   UNL A   1      45.323  24.900  25.953  1.00  0.00     0.031 A 
ATOM     42  C   UNL A   1      46.671  25.568  25.914  1.00  0.00     0.074 A 
ATOM     43  C   UNL A   1      44.260  25.559  26.451  1.00  0.00     0.049 A 
ATOM     44  N   UNL A   1      47.008  26.773  26.298  1.00  0.00    -0.248 NA
ATOM     45  C   UNL A   1      47.793  24.769  25.395  1.00  0.00     0.031 C 
ATOM     46  C   UNL A   1      42.911  25.007  26.586  1.00  0.00     0.029 A 
ATOM     47  N   UNL A   1      44.146  26.836  26.939  1.00  0.00    -0.354 N 
ATOM     48  C   UNL A   1      48.377  26.871  26.081  1.00  0.00     0.074 A 
ATOM     49  C   UNL A   1      48.818  25.587  25.579  1.00  0.00     0.031 C 
ATOM     50  C   UNL A   1      42.100  25.947  27.096  1.00  0.00     0.029 A 
ATOM     51  C   UNL A   1      42.877  27.156  27.354  1.00  0.00     0.049 A 
ATOM     52  H   UNL A   1      44.903  27.464  26.988  1.00  0.00     0.167 HD
ATOM     53  C   UNL A   1      49.189  27.939  26.262  1.00  0.00     0.037 A 
ATOM     54  C   UNL A   1      42.393  28.295  27.884  1.00  0.00     0.037 A 
ATOM     55  C   UNL A   1      48.744  29.223  26.736  1.00  0.00     0.049 A 
ATOM     56  C   UNL A   1      43.316  29.467  28.076  1.00  0.00     0.074 A 
ATOM     57  C   UNL A   1      49.477  30.387  26.890  1.00  0.00     0.029 A 
ATOM     58  N   UNL A   1      47.448  29.511  27.136  1.00  0.00    -0.354 N 
ATOM     59  N   UNL A   1      44.593  29.569  27.794  1.00  0.00    -0.248 NA
ATOM     60  C   UNL A   1      42.729  30.684  28.654  1.00  0.00     0.031 C 
ATOM     61  C   UNL A   1      48.634  31.367  27.424  1.00  0.00     0.029 A 
ATOM     62  C   UNL A   1      47.366  30.828  27.559  1.00  0.00     0.049 A 
ATOM     63  H   UNL A   1      46.698  28.874  27.123  1.00  0.00     0.167 HD
ATOM     64  C   UNL A   1      44.954  30.866  28.132  1.00  0.00     0.074 A 
ATOM     65  C   UNL A   1      43.759  31.518  28.628  1.00  0.00     0.031 C 
ATOM     66  C   UNL A   1      46.166  31.465  28.040  1.00  0.00     0.037 A 
BRANCH  53  67
ATOM     67  C   UNL A   1      50.645  27.766  25.940  1.00  0.00     0.057 A 
ATOM     68  C   UNL A   1      51.135  27.907  24.635  1.00  0.00     0.134 A 
ATOM     69  C   UNL A   1      51.575  27.492  26.951  1.00  0.00     0.134 A 
ATOM     70  F   UNL A   1      50.298  28.159  23.618  1.00  0.00    -0.206 F 
ATOM     71  C   UNL A   1      52.492  27.754  24.344  1.00  0.00     0.040 A 
ATOM     72  C   UNL A   1      52.937  27.365  26.677  1.00  0.00     0.040 A 
ATOM     73  F   UNL A   1      51.175  27.352  28.224  1.00  0.00    -0.206 F 
ATOM     74  C   UNL A   1      53.399  27.490  25.368  1.00  0.00     0.006 A 
ENDBRANCH  53  67
BRANCH  54  75
ATOM     75  C   UNL A   1      40.957  28.398  28.243  1.00  0.00     0.057 A 
ATOM     76  C   UNL A   1      40.496  27.982  29.498  1.00  0.00     0.134 A 
ATOM     77  C   UNL A   1      40.010  28.902  27.344  1.00  0.00     0.134 A 
ATOM     78  F   UNL A   1      41.352  27.472  30.397  1.00  0.00    -0.206 F 
ATOM     79  C   UNL A   1      39.144  28.045  29.840  1.00  0.00     0.040 A 
ATOM     80  C   UNL A   1      38.659  28.994  27.680  1.00  0.00     0.040 A 
ATOM     81  F   UNL A   1      40.389  29.323  26.128  1.00  0.00    -0.206 F 
ATOM     82  C   UNL A   1      38.222  28.557  28.929  1.00  0.00     0.006 A 
ENDBRANCH  54  75
BRANCH  66  83
ATOM     83  C   UNL A   1      46.253  32.906  28.448  1.00  0.00     0.057 A 
ATOM     84  C   UNL A   1      46.017  33.947  27.541  1.00  0.00     0.134 A 
ATOM     85  C   UNL A   1      46.540  33.256  29.773  1.00  0.00     0.134 A 
ATOM     86  F   UNL A   1      45.751  33.680  26.252  1.00  0.00    -0.206 F 
ATOM     87  C   UNL A   1      46.084  35.285  27.933  1.00  0.00     0.040 A 
ATOM     88  C   UNL A   1      46.583  34.588  30.184  1.00  0.00     0.040 A 
ATOM     89  F   UNL A   1      46.767  32.306  30.694  1.00  0.00    -0.206 F 
ATOM     90  C   UNL A   1      46.362  35.608  29.261  1.00  0.00     0.006 A 
ENDBRANCH  66  83
ENDBRANCH  40  41
ENDBRANCH  32  35
ENDBRANCH  30  31
ENDBRANCH  29  30
ENDBRANCH  28  29
ENDBRANCH  27  28
ENDBRANCH   1  27
TORSDOF 17
ENDMDL
MODEL 3
REMARK VINA RESULT:     -11.0      4.292     10.193
REMARK SMILES Cc1ccc(CNC(=O)NC[C@@H]2CC[C@@H](C(=O)NCCCCCCNC(=O)c3ccc(-c4c5nc(c(-c6c(F)cccc6F)c6ccc([nH]6)c(-c6c(F)cccc6F)c6nc(c(-c7c(F)cccc7F)c7ccc4[nH]7)C=C6)C=C5)cc3)O2)cn1
REMARK SMILES IDX 20 1 19 2 18 3 16 4 17 5 15 7 12 8 13 9 82 10 14 11 11 12
REMARK SMILES IDX 10 13 7 14 8 15 9 17 6 19 5 20 1 21 2 22 3 23 84 24 4 25
REMARK SMILES IDX 83 26 21 27 22 28 23 29 24 30 25 31 26 32 27 34 28 35 29 36
REMARK SMILES IDX 81 37 30 38 80 39 31 40 32 41 33 42 74 43 34 44 79 45 73 46
REMARK SMILES IDX 75 47 35 48 78 49 72 50 71 51 36 53 62 54 45 55 61 56 46 57
REMARK SMILES IDX 49 58 60 59 76 60 47 61 48 62 59 64 77 65 50 66 37 67 38 68
REMARK SMILES IDX 43 69 39 70 40 71 42 72 44 73 41 74 63 75 64 76 69 77 65 78
REMARK SMILES IDX 66 79 68 80 70 81 67 82 51 83 52 84 57 85 53 86 54 87 56 88
REMARK SMILES IDX 58 89 55 90
REMARK H PARENT 18 6 7 16 10 18 25 33 75 52 49 63
REMARK Flexibility Score: inf
ROOT
ATOM      1  C   UNL A   1      32.656  35.988  29.153  1.00  0.00     0.021 C 
ENDROOT
BRANCH   1   2
ATOM      2  C   UNL A   1      33.653  37.069  29.558  1.00  0.00     0.116 C 
BRANCH   2   3
ATOM      3  N   UNL A   1      33.445  37.523  30.919  1.00  0.00    -0.354 N 
ATOM      4  C   UNL A   1      33.745  36.952  32.117  1.00  0.00     0.249 C 
ATOM      5  O   UNL A   1      33.426  37.578  33.135  1.00  0.00    -0.272 OA
ATOM      6  H   UNL A   1      33.009  38.403  30.988  1.00  0.00     0.163 HD
BRANCH   4   7
ATOM      7  C   UNL A   1      34.526  35.625  32.242  1.00  0.00     0.207 C 
ATOM      8  C   UNL A   1      35.141  34.448  34.153  1.00  0.00     0.138 C 
ATOM      9  C   UNL A   1      34.359  33.488  33.287  1.00  0.00     0.037 C 
ATOM     10  O   UNL A   1      35.525  35.508  33.254  1.00  0.00    -0.363 OA
ATOM     11  C   UNL A   1      33.560  34.457  32.443  1.00  0.00     0.045 C 
BRANCH   8  12
ATOM     12  C   UNL A   1      36.382  33.899  34.858  1.00  0.00     0.149 C 
BRANCH  12  13
ATOM     13  N   UNL A   1      36.718  32.565  34.376  1.00  0.00    -0.336 N 
ATOM     14  N   UNL A   1      38.764  32.710  33.212  1.00  0.00    -0.334 N 
ATOM     15  C   UNL A   1      37.745  32.017  33.722  1.00  0.00     0.315 C 
ATOM     16  H   UNL A   1      39.503  32.137  32.904  1.00  0.00     0.165 HD
ATOM     17  O   UNL A   1      37.751  30.793  33.589  1.00  0.00    -0.249 OA
ATOM     18  H   UNL A   1      36.016  31.907  34.585  1.00  0.00     0.165 HD
BRANCH  14  19
ATOM     19  C   UNL A   1      39.020  34.116  33.014  1.00  0.00     0.155 C 
BRANCH  19  20
ATOM     20  C   UNL A   1      39.737  34.425  31.731  1.00  0.00    -0.010 A 
ATOM     21  C   UNL A   1      41.835  35.346  28.136  1.00  0.00     0.066 C 
ATOM     22  C   UNL A   1      41.065  35.042  29.385  1.00  0.00     0.037 A 
ATOM     23  C   UNL A   1      39.687  34.861  29.353  1.00  0.00     0.024 A 
ATOM     24  N   UNL A   1      41.779  34.952  30.531  1.00  0.00    -0.261 NA
ATOM     25  C   UNL A   1      39.022  34.558  30.539  1.00  0.00     0.009 A 
ATOM     26  C   UNL A   1      41.107  34.647  31.666  1.00  0.00     0.116 A 
ENDBRANCH  19  20
ENDBRANCH  14  19
ENDBRANCH  12  13
ENDBRANCH   8  12
ENDBRANCH   4   7
ENDBRANCH   2   3
ENDBRANCH   1   2
BRANCH   1  27
ATOM     27  C   UNL A   1      33.299  34.654  28.765  1.00  0.00     0.002 C 
BRANCH  27  28
ATOM     28  C   UNL A   1      34.726  34.754  28.212  1.00  0.00     0.002 C 
BRANCH  28  29
ATOM     29  C   UNL A   1      35.604  33.518  28.430  1.00  0.00     0.021 C 
BRANCH  29  30
ATOM     30  C   UNL A   1      35.073  32.524  29.458  1.00  0.00     0.116 C 
BRANCH  30  31
ATOM     31  N   UNL A   1      34.354  31.425  28.837  1.00  0.00    -0.352 N 
ATOM     32  C   UNL A   1      34.830  30.271  28.270  1.00  0.00     0.251 C 
ATOM     33  H   UNL A   1      33.375  31.524  28.821  1.00  0.00     0.163 HD
ATOM     34  O   UNL A   1      34.074  29.551  27.626  1.00  0.00    -0.269 OA
BRANCH  32  35
ATOM     35  C   UNL A   1      36.252  29.893  28.417  1.00  0.00     0.039 A 
ATOM     36  C   UNL A   1      36.672  29.328  29.624  1.00  0.00     0.014 A 
ATOM     37  C   UNL A   1      37.180  30.130  27.398  1.00  0.00     0.014 A 
ATOM     38  C   UNL A   1      38.010  28.964  29.794  1.00  0.00     0.010 A 
ATOM     39  C   UNL A   1      38.498  29.703  27.542  1.00  0.00     0.010 A 
ATOM     40  C   UNL A   1      38.929  29.127  28.746  1.00  0.00    -0.014 A 
BRANCH  40  41
ATOM     41  C   UNL A   1      40.346  28.710  28.904  1.00  0.00     0.031 A 
ATOM     42  C   UNL A   1      41.357  29.662  29.483  1.00  0.00     0.074 A 
ATOM     43  C   UNL A   1      40.731  27.489  28.489  1.00  0.00     0.049 A 
ATOM     44  N   UNL A   1      42.640  29.488  29.677  1.00  0.00    -0.248 NA
ATOM     45  C   UNL A   1      40.868  30.993  29.876  1.00  0.00     0.031 C 
ATOM     46  C   UNL A   1      39.857  26.492  27.868  1.00  0.00     0.029 A 
ATOM     47  N   UNL A   1      41.959  26.878  28.522  1.00  0.00    -0.354 N 
ATOM     48  C   UNL A   1      43.110  30.687  30.199  1.00  0.00     0.074 A 
ATOM     49  C   UNL A   1      41.987  31.597  30.244  1.00  0.00     0.031 C 
ATOM     50  C   UNL A   1      40.569  25.386  27.605  1.00  0.00     0.029 A 
ATOM     51  C   UNL A   1      41.956  25.606  28.006  1.00  0.00     0.049 A 
ATOM     52  H   UNL A   1      42.767  27.311  28.882  1.00  0.00     0.167 HD
ATOM     53  C   UNL A   1      44.359  30.993  30.623  1.00  0.00     0.037 A 
ATOM     54  C   UNL A   1      42.957  24.716  27.871  1.00  0.00     0.037 A 
ATOM     55  C   UNL A   1      45.470  30.077  30.602  1.00  0.00     0.049 A 
ATOM     56  C   UNL A   1      44.335  25.082  28.348  1.00  0.00     0.074 A 
ATOM     57  C   UNL A   1      46.757  30.272  31.070  1.00  0.00     0.029 A 
ATOM     58  N   UNL A   1      45.423  28.793  30.081  1.00  0.00    -0.354 N 
ATOM     59  N   UNL A   1      44.748  26.193  28.910  1.00  0.00    -0.248 NA
ATOM     60  C   UNL A   1      45.385  24.068  28.179  1.00  0.00     0.031 C 
ATOM     61  C   UNL A   1      47.502  29.121  30.794  1.00  0.00     0.029 A 
ATOM     62  C   UNL A   1      46.666  28.192  30.195  1.00  0.00     0.049 A 
ATOM     63  H   UNL A   1      44.626  28.371  29.687  1.00  0.00     0.167 HD
ATOM     64  C   UNL A   1      46.095  26.000  29.187  1.00  0.00     0.074 A 
ATOM     65  C   UNL A   1      46.427  24.662  28.743  1.00  0.00     0.031 C 
ATOM     66  C   UNL A   1      46.978  26.855  29.758  1.00  0.00     0.037 A 
BRANCH  53  67
ATOM     67  C   UNL A   1      44.591  32.379  31.152  1.00  0.00     0.057 A 
ATOM     68  C   UNL A   1      45.020  33.424  30.322  1.00  0.00     0.134 A 
ATOM     69  C   UNL A   1      44.348  32.683  32.497  1.00  0.00     0.134 A 
ATOM     70  F   UNL A   1      45.281  33.200  29.026  1.00  0.00    -0.206 F 
ATOM     71  C   UNL A   1      45.225  34.713  30.818  1.00  0.00     0.040 A 
ATOM     72  C   UNL A   1      44.522  33.973  32.998  1.00  0.00     0.040 A 
ATOM     73  F   UNL A   1      43.929  31.731  33.345  1.00  0.00    -0.206 F 
ATOM     74  C   UNL A   1      44.969  34.992  32.159  1.00  0.00     0.006 A 
ENDBRANCH  53  67
BRANCH  54  75
ATOM     75  C   UNL A   1      42.690  23.379  27.285  1.00  0.00     0.057 A 
ATOM     76  C   UNL A   1      42.227  22.323  28.079  1.00  0.00     0.134 A 
ATOM     77  C   UNL A   1      42.898  23.119  25.926  1.00  0.00     0.134 A 
ATOM     78  F   UNL A   1      42.026  22.505  29.393  1.00  0.00    -0.206 F 
ATOM     79  C   UNL A   1      42.000  21.052  27.548  1.00  0.00     0.040 A 
ATOM     80  C   UNL A   1      42.652  21.860  25.376  1.00  0.00     0.040 A 
ATOM     81  F   UNL A   1      43.335  24.091  25.110  1.00  0.00    -0.206 F 
ATOM     82  C   UNL A   1      42.209  20.821  26.190  1.00  0.00     0.006 A 
ENDBRANCH  54  75
BRANCH  66  83
ATOM     83  C   UNL A   1      48.378  26.357  29.970  1.00  0.00     0.057 A 
ATOM     84  C   UNL A   1      49.373  26.513  28.998  1.00  0.00     0.134 A 
ATOM     85  C   UNL A   1      48.741  25.748  31.178  1.00  0.00     0.134 A 
ATOM     86  F   UNL A   1      49.087  27.077  27.814  1.00  0.00    -0.206 F 
ATOM     87  C   UNL A   1      50.677  26.061  29.212  1.00  0.00     0.040 A 
ATOM     88  C   UNL A   1      50.046  25.315  31.413  1.00  0.00     0.040 A 
ATOM     89  F   UNL A   1      47.836  25.576  32.154  1.00  0.00    -0.206 F 
ATOM     90  C   UNL A   1      51.018  25.466  30.425  1.00  0.00     0.006 A 
ENDBRANCH  66  83
ENDBRANCH  40  41
ENDBRANCH  32  35
ENDBRANCH  30  31
ENDBRANCH  29  30
ENDBRANCH  28  29
ENDBRANCH  27  28
ENDBRANCH   1  27
TORSDOF 17
ENDMDL
