MODEL 1
REMARK VINA RESULT:     -11.1      0.000      0.000
REMARK SMILES O=C(NCCCCCCNC(=O)c1nc2c(F)cccc2s1)c1ccc(-c2c3nc(c(-c4c(F)cccc4F)c4ccc([nH]4)c(-c4c(F)cccc4F)c4nc(c(-c5c(F)cccc5F)c5ccc2[nH]5)C=C4)C=C3)cc1
REMARK SMILES IDX 5 1 4 2 3 3 1 4 2 5 23 7 24 8 76 9 25 10 75 11 26 12 27 13
REMARK SMILES IDX 28 14 69 15 29 16 74 17 68 18 70 19 30 20 73 21 67 22 66 23
REMARK SMILES IDX 31 25 57 26 40 27 56 28 41 29 44 30 55 31 71 32 42 33 43 34
REMARK SMILES IDX 54 36 72 37 45 38 32 39 33 40 38 41 34 42 35 43 37 44 39 45
REMARK SMILES IDX 36 46 58 47 59 48 64 49 60 50 61 51 63 52 65 53 62 54 46 55
REMARK SMILES IDX 47 56 52 57 48 58 49 59 51 60 53 61 50 62 6 63 7 64 8 65
REMARK SMILES IDX 9 66 10 67 11 68 12 70 13 71 14 72 22 73 15 74 21 75 16 76
REMARK SMILES IDX 20 77 17 78 18 79 19 80
REMARK H PARENT 3 6 70 24 44 35 10 69
REMARK Flexibility Score: inf
ROOT
ATOM      1  C   UNL A   1      41.192  19.569  26.172  1.00  0.00     0.021 C 
ENDROOT
BRANCH   1   2
ATOM      2  C   UNL A   1      42.676  19.227  26.328  1.00  0.00     0.116 C 
BRANCH   2   3
ATOM      3  N   UNL A   1      43.509  19.540  25.184  1.00  0.00    -0.352 N 
ATOM      4  O   UNL A   1      44.919  20.553  23.794  1.00  0.00    -0.269 OA
ATOM      5  C   UNL A   1      44.192  20.658  24.784  1.00  0.00     0.251 C 
ATOM      6  H   UNL A   1      43.605  18.786  24.560  1.00  0.00     0.163 HD
BRANCH   5   7
ATOM      7  C   UNL A   1      44.042  21.990  25.422  1.00  0.00     0.039 A 
ATOM      8  C   UNL A   1      44.721  22.399  26.569  1.00  0.00     0.014 A 
ATOM      9  C   UNL A   1      43.140  22.882  24.813  1.00  0.00     0.014 A 
ATOM     10  C   UNL A   1      44.408  23.610  27.173  1.00  0.00     0.010 A 
ATOM     11  C   UNL A   1      42.857  24.118  25.389  1.00  0.00     0.010 A 
ATOM     12  C   UNL A   1      43.464  24.461  26.594  1.00  0.00    -0.014 A 
BRANCH  12  13
ATOM     13  C   UNL A   1      43.245  25.743  27.256  1.00  0.00     0.031 A 
ATOM     14  C   UNL A   1      44.265  26.798  26.991  1.00  0.00     0.074 A 
ATOM     15  C   UNL A   1      42.160  26.037  27.998  1.00  0.00     0.049 A 
ATOM     16  N   UNL A   1      45.024  27.418  27.837  1.00  0.00    -0.248 NA
ATOM     17  C   UNL A   1      44.502  27.165  25.587  1.00  0.00     0.031 C 
ATOM     18  C   UNL A   1      40.919  25.275  28.133  1.00  0.00     0.029 A 
ATOM     19  N   UNL A   1      41.924  27.163  28.730  1.00  0.00    -0.354 N 
ATOM     20  C   UNL A   1      45.728  28.368  27.098  1.00  0.00     0.074 A 
ATOM     21  C   UNL A   1      45.437  28.107  25.711  1.00  0.00     0.031 C 
ATOM     22  C   UNL A   1      39.991  26.052  28.736  1.00  0.00     0.029 A 
ATOM     23  C   UNL A   1      40.608  27.307  29.136  1.00  0.00     0.049 A 
ATOM     24  H   UNL A   1      42.627  27.816  28.951  1.00  0.00     0.167 HD
ATOM     25  C   UNL A   1      46.377  29.415  27.679  1.00  0.00     0.037 A 
ATOM     26  C   UNL A   1      40.052  28.402  29.705  1.00  0.00     0.037 A 
ATOM     27  C   UNL A   1      46.637  29.190  29.073  1.00  0.00     0.049 A 
ATOM     28  C   UNL A   1      41.138  29.250  30.249  1.00  0.00     0.074 A 
ATOM     29  C   UNL A   1      47.353  28.257  29.798  1.00  0.00     0.029 A 
ATOM     30  N   UNL A   1      45.881  29.866  29.998  1.00  0.00    -0.354 N 
ATOM     31  N   UNL A   1      41.845  28.960  31.305  1.00  0.00    -0.248 NA
ATOM     32  C   UNL A   1      41.695  30.288  29.394  1.00  0.00     0.031 C 
ATOM     33  C   UNL A   1      46.632  28.097  31.017  1.00  0.00     0.029 A 
ATOM     34  C   UNL A   1      45.531  28.951  30.956  1.00  0.00     0.049 A 
ATOM     35  H   UNL A   1      45.638  30.819  29.977  1.00  0.00     0.167 HD
ATOM     36  C   UNL A   1      43.108  29.463  31.036  1.00  0.00     0.074 A 
ATOM     37  C   UNL A   1      42.924  30.371  29.909  1.00  0.00     0.031 C 
ATOM     38  C   UNL A   1      44.226  28.892  31.571  1.00  0.00     0.037 A 
BRANCH  25  39
ATOM     39  C   UNL A   1      46.520  30.774  27.046  1.00  0.00     0.057 A 
ATOM     40  C   UNL A   1      45.425  31.599  26.719  1.00  0.00     0.134 A 
ATOM     41  C   UNL A   1      47.776  31.408  27.020  1.00  0.00     0.134 A 
ATOM     42  F   UNL A   1      44.161  31.163  26.797  1.00  0.00    -0.206 F 
ATOM     43  C   UNL A   1      45.566  32.950  26.392  1.00  0.00     0.040 A 
ATOM     44  C   UNL A   1      47.923  32.773  26.744  1.00  0.00     0.040 A 
ATOM     45  F   UNL A   1      48.893  30.737  27.340  1.00  0.00    -0.206 F 
ATOM     46  C   UNL A   1      46.814  33.550  26.432  1.00  0.00     0.006 A 
ENDBRANCH  25  39
BRANCH  26  47
ATOM     47  C   UNL A   1      38.656  28.876  29.609  1.00  0.00     0.057 A 
ATOM     48  C   UNL A   1      38.160  29.452  28.427  1.00  0.00     0.134 A 
ATOM     49  C   UNL A   1      37.849  29.004  30.747  1.00  0.00     0.134 A 
ATOM     50  F   UNL A   1      38.889  29.464  27.302  1.00  0.00    -0.206 F 
ATOM     51  C   UNL A   1      36.930  30.114  28.377  1.00  0.00     0.040 A 
ATOM     52  C   UNL A   1      36.620  29.675  30.713  1.00  0.00     0.040 A 
ATOM     53  F   UNL A   1      38.259  28.529  31.931  1.00  0.00    -0.206 F 
ATOM     54  C   UNL A   1      36.160  30.239  29.526  1.00  0.00     0.006 A 
ENDBRANCH  26  47
BRANCH  38  55
ATOM     55  C   UNL A   1      44.039  27.900  32.682  1.00  0.00     0.057 A 
ATOM     56  C   UNL A   1      44.177  28.326  34.007  1.00  0.00     0.134 A 
ATOM     57  C   UNL A   1      43.856  26.525  32.470  1.00  0.00     0.134 A 
ATOM     58  F   UNL A   1      44.423  29.617  34.281  1.00  0.00    -0.206 F 
ATOM     59  C   UNL A   1      44.112  27.432  35.078  1.00  0.00     0.040 A 
ATOM     60  C   UNL A   1      43.751  25.625  33.534  1.00  0.00     0.040 A 
ATOM     61  F   UNL A   1      43.827  26.012  31.233  1.00  0.00    -0.206 F 
ATOM     62  C   UNL A   1      43.883  26.078  34.844  1.00  0.00     0.006 A 
ENDBRANCH  38  55
ENDBRANCH  12  13
ENDBRANCH   5   7
ENDBRANCH   2   3
ENDBRANCH   1   2
BRANCH   1  63
ATOM     63  C   UNL A   1      40.789  20.961  26.662  1.00  0.00     0.002 C 
BRANCH  63  64
ATOM     64  C   UNL A   1      39.481  21.513  26.091  1.00  0.00     0.002 C 
BRANCH  64  65
ATOM     65  C   UNL A   1      39.128  22.946  26.505  1.00  0.00     0.021 C 
BRANCH  65  66
ATOM     66  C   UNL A   1      37.777  23.449  26.009  1.00  0.00     0.116 C 
BRANCH  66  67
ATOM     67  N   UNL A   1      37.646  23.339  24.569  1.00  0.00    -0.350 N 
ATOM     68  C   UNL A   1      36.503  23.140  23.817  1.00  0.00     0.280 C 
ATOM     69  H   UNL A   1      38.485  23.415  24.057  1.00  0.00     0.163 HD
ATOM     70  O   UNL A   1      36.652  22.960  22.606  1.00  0.00    -0.267 OA
BRANCH  68  71
ATOM     71  C   UNL A   1      35.209  23.141  24.482  1.00  0.00     0.182 A 
ATOM     72  N   UNL A   1      34.660  24.223  24.992  1.00  0.00    -0.228 NA
ATOM     73  S   UNL A   1      34.318  21.688  24.672  1.00  0.00    -0.109 S 
ATOM     74  C   UNL A   1      33.393  23.924  25.476  1.00  0.00     0.118 A 
ATOM     75  C   UNL A   1      33.009  22.586  25.337  1.00  0.00     0.058 A 
ATOM     76  C   UNL A   1      32.467  24.817  26.055  1.00  0.00     0.150 A 
ATOM     77  C   UNL A   1      31.732  22.131  25.715  1.00  0.00     0.021 A 
ATOM     78  F   UNL A   1      32.783  26.109  26.231  1.00  0.00    -0.205 F 
ATOM     79  C   UNL A   1      31.197  24.381  26.439  1.00  0.00     0.041 A 
ATOM     80  C   UNL A   1      30.832  23.051  26.258  1.00  0.00     0.005 A 
ENDBRANCH  68  71
ENDBRANCH  66  67
ENDBRANCH  65  66
ENDBRANCH  64  65
ENDBRANCH  63  64
ENDBRANCH   1  63
TORSDOF 13
ENDMDL
MODEL 2
REMARK VINA RESULT:     -10.9      2.895      8.230
REMARK SMILES O=C(NCCCCCCNC(=O)c1nc2c(F)cccc2s1)c1ccc(-c2c3nc(c(-c4c(F)cccc4F)c4ccc([nH]4)c(-c4c(F)cccc4F)c4nc(c(-c5c(F)cccc5F)c5ccc2[nH]5)C=C4)C=C3)cc1
REMARK SMILES IDX 5 1 4 2 3 3 1 4 2 5 23 7 24 8 76 9 25 10 75 11 26 12 27 13
REMARK SMILES IDX 28 14 69 15 29 16 74 17 68 18 70 19 30 20 73 21 67 22 66 23
REMARK SMILES IDX 31 25 57 26 40 27 56 28 41 29 44 30 55 31 71 32 42 33 43 34
REMARK SMILES IDX 54 36 72 37 45 38 32 39 33 40 38 41 34 42 35 43 37 44 39 45
REMARK SMILES IDX 36 46 58 47 59 48 64 49 60 50 61 51 63 52 65 53 62 54 46 55
REMARK SMILES IDX 47 56 52 57 48 58 49 59 51 60 53 61 50 62 6 63 7 64 8 65
REMARK SMILES IDX 9 66 10 67 11 68 12 70 13 71 14 72 22 73 15 74 21 75 16 76
REMARK SMILES IDX 20 77 17 78 18 79 19 80
REMARK H PARENT 3 6 70 24 44 35 10 69
REMARK Flexibility Score: inf
ROOT
ATOM      1  C   UNL A   1      34.123  30.109  27.349  1.00  0.00     0.021 C 
ENDROOT
BRANCH   1   2
ATOM      2  C   UNL A   1      34.566  31.545  27.639  1.00  0.00     0.116 C 
BRANCH   2   3
ATOM      3  N   UNL A   1      34.403  31.981  29.011  1.00  0.00    -0.352 N 
ATOM      4  O   UNL A   1      34.797  32.508  31.136  1.00  0.00    -0.269 OA
ATOM      5  C   UNL A   1      35.197  31.927  30.125  1.00  0.00     0.251 C 
ATOM      6  H   UNL A   1      33.533  32.408  29.179  1.00  0.00     0.163 HD
BRANCH   5   7
ATOM      7  C   UNL A   1      36.459  31.148  30.203  1.00  0.00     0.039 A 
ATOM      8  C   UNL A   1      37.727  31.667  29.947  1.00  0.00     0.014 A 
ATOM      9  C   UNL A   1      36.340  29.790  30.553  1.00  0.00     0.014 A 
ATOM     10  C   UNL A   1      38.832  30.827  29.906  1.00  0.00     0.010 A 
ATOM     11  C   UNL A   1      37.452  28.953  30.559  1.00  0.00     0.010 A 
ATOM     12  C   UNL A   1      38.693  29.468  30.194  1.00  0.00    -0.014 A 
BRANCH  12  13
ATOM     13  C   UNL A   1      39.915  28.670  30.193  1.00  0.00     0.031 A 
ATOM     14  C   UNL A   1      40.608  28.538  31.508  1.00  0.00     0.074 A 
ATOM     15  C   UNL A   1      40.382  28.000  29.124  1.00  0.00     0.049 A 
ATOM     16  N   UNL A   1      41.813  28.892  31.824  1.00  0.00    -0.248 NA
ATOM     17  C   UNL A   1      39.829  27.986  32.625  1.00  0.00     0.031 C 
ATOM     18  C   UNL A   1      39.713  27.745  27.848  1.00  0.00     0.029 A 
ATOM     19  N   UNL A   1      41.558  27.319  29.007  1.00  0.00    -0.354 N 
ATOM     20  C   UNL A   1      42.006  28.469  33.138  1.00  0.00     0.074 A 
ATOM     21  C   UNL A   1      40.727  28.002  33.611  1.00  0.00     0.031 C 
ATOM     22  C   UNL A   1      40.408  26.804  27.168  1.00  0.00     0.029 A 
ATOM     23  C   UNL A   1      41.624  26.489  27.902  1.00  0.00     0.049 A 
ATOM     24  H   UNL A   1      42.296  27.410  29.653  1.00  0.00     0.167 HD
ATOM     25  C   UNL A   1      43.240  28.375  33.704  1.00  0.00     0.037 A 
ATOM     26  C   UNL A   1      42.578  25.566  27.638  1.00  0.00     0.037 A 
ATOM     27  C   UNL A   1      44.222  29.154  33.005  1.00  0.00     0.049 A 
ATOM     28  C   UNL A   1      43.774  25.883  28.453  1.00  0.00     0.074 A 
ATOM     29  C   UNL A   1      44.384  30.495  32.715  1.00  0.00     0.029 A 
ATOM     30  N   UNL A   1      45.142  28.501  32.223  1.00  0.00    -0.354 N 
ATOM     31  N   UNL A   1      44.572  26.889  28.236  1.00  0.00    -0.248 NA
ATOM     32  C   UNL A   1      43.896  25.265  29.765  1.00  0.00     0.031 C 
ATOM     33  C   UNL A   1      45.028  30.528  31.444  1.00  0.00     0.029 A 
ATOM     34  C   UNL A   1      45.224  29.204  31.050  1.00  0.00     0.049 A 
ATOM     35  H   UNL A   1      45.642  27.687  32.458  1.00  0.00     0.167 HD
ATOM     36  C   UNL A   1      44.989  27.290  29.495  1.00  0.00     0.074 A 
ATOM     37  C   UNL A   1      44.642  26.184  30.381  1.00  0.00     0.031 C 
ATOM     38  C   UNL A   1      45.327  28.587  29.749  1.00  0.00     0.037 A 
BRANCH  25  39
ATOM     39  C   UNL A   1      43.621  27.339  34.730  1.00  0.00     0.057 A 
ATOM     40  C   UNL A   1      43.600  27.577  36.119  1.00  0.00     0.134 A 
ATOM     41  C   UNL A   1      43.734  25.988  34.355  1.00  0.00     0.134 A 
ATOM     42  F   UNL A   1      43.398  28.799  36.627  1.00  0.00    -0.206 F 
ATOM     43  C   UNL A   1      43.685  26.550  37.064  1.00  0.00     0.040 A 
ATOM     44  C   UNL A   1      43.768  24.948  35.292  1.00  0.00     0.040 A 
ATOM     45  F   UNL A   1      43.736  25.630  33.062  1.00  0.00    -0.206 F 
ATOM     46  C   UNL A   1      43.741  25.228  36.653  1.00  0.00     0.006 A 
ENDBRANCH  25  39
BRANCH  26  47
ATOM     47  C   UNL A   1      42.444  24.295  26.897  1.00  0.00     0.057 A 
ATOM     48  C   UNL A   1      41.993  23.124  27.530  1.00  0.00     0.134 A 
ATOM     49  C   UNL A   1      42.989  24.135  25.616  1.00  0.00     0.134 A 
ATOM     50  F   UNL A   1      41.535  23.149  28.790  1.00  0.00    -0.206 F 
ATOM     51  C   UNL A   1      42.075  21.867  26.925  1.00  0.00     0.040 A 
ATOM     52  C   UNL A   1      43.088  22.881  25.002  1.00  0.00     0.040 A 
ATOM     53  F   UNL A   1      43.489  25.187  24.952  1.00  0.00    -0.206 F 
ATOM     54  C   UNL A   1      42.635  21.740  25.660  1.00  0.00     0.006 A 
ENDBRANCH  26  47
BRANCH  38  55
ATOM     55  C   UNL A   1      45.519  29.501  28.574  1.00  0.00     0.057 A 
ATOM     56  C   UNL A   1      46.816  29.785  28.134  1.00  0.00     0.134 A 
ATOM     57  C   UNL A   1      44.470  30.199  27.956  1.00  0.00     0.134 A 
ATOM     58  F   UNL A   1      47.873  29.205  28.726  1.00  0.00    -0.206 F 
ATOM     59  C   UNL A   1      47.063  30.701  27.111  1.00  0.00     0.040 A 
ATOM     60  C   UNL A   1      44.700  31.092  26.905  1.00  0.00     0.040 A 
ATOM     61  F   UNL A   1      43.208  30.077  28.386  1.00  0.00    -0.206 F 
ATOM     62  C   UNL A   1      46.001  31.348  26.481  1.00  0.00     0.006 A 
ENDBRANCH  38  55
ENDBRANCH  12  13
ENDBRANCH   5   7
ENDBRANCH   2   3
ENDBRANCH   1   2
BRANCH   1  63
ATOM     63  C   UNL A   1      33.126  29.955  26.197  1.00  0.00     0.002 C 
BRANCH  63  64
ATOM     64  C   UNL A   1      31.733  29.455  26.588  1.00  0.00     0.002 C 
BRANCH  64  65
ATOM     65  C   UNL A   1      31.684  28.065  27.231  1.00  0.00     0.021 C 
BRANCH  65  66
ATOM     66  C   UNL A   1      31.617  26.899  26.250  1.00  0.00     0.116 C 
BRANCH  66  67
ATOM     67  N   UNL A   1      31.134  25.683  26.876  1.00  0.00    -0.350 N 
ATOM     68  C   UNL A   1      31.572  24.384  26.695  1.00  0.00     0.280 C 
ATOM     69  H   UNL A   1      30.395  25.798  27.517  1.00  0.00     0.163 HD
ATOM     70  O   UNL A   1      30.928  23.492  27.252  1.00  0.00    -0.267 OA
BRANCH  68  71
ATOM     71  C   UNL A   1      32.740  24.140  25.862  1.00  0.00     0.182 A 
ATOM     72  N   UNL A   1      33.974  24.192  26.317  1.00  0.00    -0.228 NA
ATOM     73  S   UNL A   1      32.570  23.794  24.192  1.00  0.00    -0.109 S 
ATOM     74  C   UNL A   1      34.861  23.827  25.312  1.00  0.00     0.118 A 
ATOM     75  C   UNL A   1      34.266  23.519  24.084  1.00  0.00     0.058 A 
ATOM     76  C   UNL A   1      36.263  23.713  25.411  1.00  0.00     0.150 A 
ATOM     77  C   UNL A   1      35.016  23.067  22.983  1.00  0.00     0.021 A 
ATOM     78  F   UNL A   1      36.894  24.013  26.557  1.00  0.00    -0.205 F 
ATOM     79  C   UNL A   1      37.023  23.271  24.326  1.00  0.00     0.041 A 
ATOM     80  C   UNL A   1      36.400  22.939  23.127  1.00  0.00     0.005 A 
ENDBRANCH  68  71
ENDBRANCH  66  67
ENDBRANCH  65  66
ENDBRANCH  64  65
ENDBRANCH  63  64
ENDBRANCH   1  63
TORSDOF 13
ENDMDL
MODEL 3
REMARK VINA RESULT:     -10.8      3.605      8.480
REMARK SMILES O=C(NCCCCCCNC(=O)c1nc2c(F)cccc2s1)c1ccc(-c2c3nc(c(-c4c(F)cccc4F)c4ccc([nH]4)c(-c4c(F)cccc4F)c4nc(c(-c5c(F)cccc5F)c5ccc2[nH]5)C=C4)C=C3)cc1
REMARK SMILES IDX 5 1 4 2 3 3 1 4 2 5 23 7 24 8 76 9 25 10 75 11 26 12 27 13
REMARK SMILES IDX 28 14 69 15 29 16 74 17 68 18 70 19 30 20 73 21 67 22 66 23
REMARK SMILES IDX 31 25 57 26 40 27 56 28 41 29 44 30 55 31 71 32 42 33 43 34
REMARK SMILES IDX 54 36 72 37 45 38 32 39 33 40 38 41 34 42 35 43 37 44 39 45
REMARK SMILES IDX 36 46 58 47 59 48 64 49 60 50 61 51 63 52 65 53 62 54 46 55
REMARK SMILES IDX 47 56 52 57 48 58 49 59 51 60 53 61 50 62 6 63 7 64 8 65
REMARK SMILES IDX 9 66 10 67 11 68 12 70 13 71 14 72 22 73 15 74 21 75 16 76
REMARK SMILES IDX 20 77 17 78 18 79 19 80
REMARK H PARENT 3 6 70 24 44 35 10 69
REMARK Flexibility Score: inf
ROOT
ATOM      1  C   UNL A   1      33.239  30.564  27.253  1.00  0.00     0.021 C 
ENDROOT
BRANCH   1   2
ATOM      2  C   UNL A   1      34.456  31.363  27.724  1.00  0.00     0.116 C 
BRANCH   2   3
ATOM      3  N   UNL A   1      34.361  31.909  29.063  1.00  0.00    -0.352 N 
ATOM      4  O   UNL A   1      34.858  32.609  31.114  1.00  0.00    -0.269 OA
ATOM      5  C   UNL A   1      35.210  31.947  30.137  1.00  0.00     0.251 C 
ATOM      6  H   UNL A   1      33.498  32.350  29.238  1.00  0.00     0.163 HD
BRANCH   5   7
ATOM      7  C   UNL A   1      36.477  31.177  30.215  1.00  0.00     0.039 A 
ATOM      8  C   UNL A   1      37.749  31.746  30.241  1.00  0.00     0.014 A 
ATOM      9  C   UNL A   1      36.359  29.775  30.255  1.00  0.00     0.014 A 
ATOM     10  C   UNL A   1      38.878  30.940  30.171  1.00  0.00     0.010 A 
ATOM     11  C   UNL A   1      37.489  28.962  30.232  1.00  0.00     0.010 A 
ATOM     12  C   UNL A   1      38.749  29.550  30.148  1.00  0.00    -0.014 A 
BRANCH  12  13
ATOM     13  C   UNL A   1      39.987  28.777  30.141  1.00  0.00     0.031 A 
ATOM     14  C   UNL A   1      40.690  28.661  31.451  1.00  0.00     0.074 A 
ATOM     15  C   UNL A   1      40.461  28.115  29.069  1.00  0.00     0.049 A 
ATOM     16  N   UNL A   1      41.889  29.040  31.760  1.00  0.00    -0.248 NA
ATOM     17  C   UNL A   1      39.929  28.094  32.574  1.00  0.00     0.031 C 
ATOM     18  C   UNL A   1      39.791  27.845  27.798  1.00  0.00     0.029 A 
ATOM     19  N   UNL A   1      41.651  27.459  28.947  1.00  0.00    -0.354 N 
ATOM     20  C   UNL A   1      42.098  28.622  33.074  1.00  0.00     0.074 A 
ATOM     21  C   UNL A   1      40.832  28.129  33.554  1.00  0.00     0.031 C 
ATOM     22  C   UNL A   1      40.500  26.919  27.115  1.00  0.00     0.029 A 
ATOM     23  C   UNL A   1      41.727  26.629  27.842  1.00  0.00     0.049 A 
ATOM     24  H   UNL A   1      42.390  27.565  29.588  1.00  0.00     0.167 HD
ATOM     25  C   UNL A   1      43.338  28.554  33.633  1.00  0.00     0.037 A 
ATOM     26  C   UNL A   1      42.698  25.725  27.574  1.00  0.00     0.037 A 
ATOM     27  C   UNL A   1      44.300  29.352  32.927  1.00  0.00     0.049 A 
ATOM     28  C   UNL A   1      43.892  26.068  28.381  1.00  0.00     0.074 A 
ATOM     29  C   UNL A   1      44.432  30.696  32.635  1.00  0.00     0.029 A 
ATOM     30  N   UNL A   1      45.227  28.718  32.140  1.00  0.00    -0.354 N 
ATOM     31  N   UNL A   1      44.668  27.090  28.158  1.00  0.00    -0.248 NA
ATOM     32  C   UNL A   1      44.034  25.454  29.693  1.00  0.00     0.031 C 
ATOM     33  C   UNL A   1      45.067  30.741  31.360  1.00  0.00     0.029 A 
ATOM     34  C   UNL A   1      45.289  29.421  30.966  1.00  0.00     0.049 A 
ATOM     35  H   UNL A   1      45.746  27.914  32.373  1.00  0.00     0.167 HD
ATOM     36  C   UNL A   1      45.084  27.501  29.415  1.00  0.00     0.074 A 
ATOM     37  C   UNL A   1      44.765  26.389  30.303  1.00  0.00     0.031 C 
ATOM     38  C   UNL A   1      45.397  28.805  29.666  1.00  0.00     0.037 A 
BRANCH  25  39
ATOM     39  C   UNL A   1      43.746  27.528  34.657  1.00  0.00     0.057 A 
ATOM     40  C   UNL A   1      43.850  27.804  36.035  1.00  0.00     0.134 A 
ATOM     41  C   UNL A   1      43.758  26.162  34.317  1.00  0.00     0.134 A 
ATOM     42  F   UNL A   1      43.754  29.049  36.519  1.00  0.00    -0.206 F 
ATOM     43  C   UNL A   1      43.957  26.801  37.002  1.00  0.00     0.040 A 
ATOM     44  C   UNL A   1      43.813  25.148  35.282  1.00  0.00     0.040 A 
ATOM     45  F   UNL A   1      43.636  25.769  33.040  1.00  0.00    -0.206 F 
ATOM     46  C   UNL A   1      43.910  25.466  36.631  1.00  0.00     0.006 A 
ENDBRANCH  25  39
BRANCH  26  47
ATOM     47  C   UNL A   1      42.586  24.451  26.834  1.00  0.00     0.057 A 
ATOM     48  C   UNL A   1      42.158  23.273  27.470  1.00  0.00     0.134 A 
ATOM     49  C   UNL A   1      43.130  24.300  25.552  1.00  0.00     0.134 A 
ATOM     50  F   UNL A   1      41.704  23.291  28.731  1.00  0.00    -0.206 F 
ATOM     51  C   UNL A   1      42.263  22.017  26.866  1.00  0.00     0.040 A 
ATOM     52  C   UNL A   1      43.251  23.047  24.940  1.00  0.00     0.040 A 
ATOM     53  F   UNL A   1      43.609  25.360  24.885  1.00  0.00    -0.206 F 
ATOM     54  C   UNL A   1      42.822  21.899  25.600  1.00  0.00     0.006 A 
ENDBRANCH  26  47
BRANCH  38  55
ATOM     55  C   UNL A   1      45.563  29.721  28.488  1.00  0.00     0.057 A 
ATOM     56  C   UNL A   1      46.852  30.042  28.049  1.00  0.00     0.134 A 
ATOM     57  C   UNL A   1      44.495  30.387  27.867  1.00  0.00     0.134 A 
ATOM     58  F   UNL A   1      47.925  29.494  28.643  1.00  0.00    -0.206 F 
ATOM     59  C   UNL A   1      47.073  30.963  27.023  1.00  0.00     0.040 A 
ATOM     60  C   UNL A   1      44.700  31.284  26.815  1.00  0.00     0.040 A 
ATOM     61  F   UNL A   1      43.236  30.230  28.297  1.00  0.00    -0.206 F 
ATOM     62  C   UNL A   1      45.993  31.577  26.392  1.00  0.00     0.006 A 
ENDBRANCH  38  55
ENDBRANCH  12  13
ENDBRANCH   5   7
ENDBRANCH   2   3
ENDBRANCH   1   2
BRANCH   1  63
ATOM     63  C   UNL A   1      33.427  29.046  27.225  1.00  0.00     0.002 C 
BRANCH  63  64
ATOM     64  C   UNL A   1      32.140  28.217  27.207  1.00  0.00     0.002 C 
BRANCH  64  65
ATOM     65  C   UNL A   1      32.203  26.911  26.409  1.00  0.00     0.021 C 
BRANCH  65  66
ATOM     66  C   UNL A   1      30.906  26.109  26.375  1.00  0.00     0.116 C 
BRANCH  66  67
ATOM     67  N   UNL A   1      30.935  25.063  25.370  1.00  0.00    -0.350 N 
ATOM     68  C   UNL A   1      30.498  25.109  24.060  1.00  0.00     0.280 C 
ATOM     69  H   UNL A   1      31.318  24.203  25.662  1.00  0.00     0.163 HD
ATOM     70  O   UNL A   1      30.517  24.052  23.424  1.00  0.00    -0.267 OA
BRANCH  68  71
ATOM     71  C   UNL A   1      30.035  26.375  23.512  1.00  0.00     0.182 A 
ATOM     72  N   UNL A   1      28.801  26.813  23.649  1.00  0.00    -0.228 NA
ATOM     73  S   UNL A   1      31.090  27.377  22.605  1.00  0.00    -0.109 S 
ATOM     74  C   UNL A   1      28.690  28.083  23.098  1.00  0.00     0.118 A 
ATOM     75  C   UNL A   1      29.864  28.582  22.523  1.00  0.00     0.058 A 
ATOM     76  C   UNL A   1      27.547  28.910  23.083  1.00  0.00     0.150 A 
ATOM     77  C   UNL A   1      29.939  29.879  21.983  1.00  0.00     0.021 A 
ATOM     78  F   UNL A   1      26.386  28.481  23.602  1.00  0.00    -0.205 F 
ATOM     79  C   UNL A   1      27.603  30.198  22.545  1.00  0.00     0.041 A 
ATOM     80  C   UNL A   1      28.794  30.680  22.012  1.00  0.00     0.005 A 
ENDBRANCH  68  71
ENDBRANCH  66  67
ENDBRANCH  65  66
ENDBRANCH  64  65
ENDBRANCH  63  64
ENDBRANCH   1  63
TORSDOF 13
ENDMDL
