MODEL 1
REMARK VINA RESULT:     -10.9      0.000      0.000
REMARK SMILES CC[C@H]1CCCC[N@H+]1[C@@H]1CC(=O)N(c2nc(CC(=O)NCCCCCCNC(=O)c3ccc(-c4c5nc(c(-c6c(F)cccc6F)c6ccc([nH]6)c(-c6c(F)cccc6F)c6nc(c(-c7c(F)cccc7F)c7ccc4[nH]7)C=C6)C=C5)cc3)cs2)C1=O
REMARK SMILES IDX 22 1 21 2 20 3 18 4 19 5 17 7 16 8 14 9 15 10 85 11 84 12
REMARK SMILES IDX 13 13 9 14 10 15 86 16 11 17 87 18 12 19 8 20 3 21 4 22 5 23
REMARK SMILES IDX 7 24 6 26 2 27 1 28 23 29 24 30 25 31 26 32 27 33 28 34
REMARK SMILES IDX 29 36 30 37 31 38 83 39 32 40 82 41 33 42 34 43 35 44 76 45
REMARK SMILES IDX 36 46 81 47 75 48 77 49 37 50 80 51 74 52 73 53 38 55 64 56
REMARK SMILES IDX 47 57 63 58 48 59 51 60 62 61 78 62 49 63 50 64 61 66 79 67
REMARK SMILES IDX 52 68 39 69 40 70 45 71 41 72 42 73 44 74 46 75 43 76 65 77
REMARK SMILES IDX 66 78 71 79 67 80 68 81 70 82 72 83 69 84 53 85 54 86 59 87
REMARK SMILES IDX 55 88 56 89 58 90 60 91 57 92
REMARK H PARENT 20 6 8 25 27 35 77 54 51 65
REMARK Flexibility Score: inf
ROOT
ATOM      1  C   UNL A   1      36.091  21.588  25.688  1.00  0.00     0.021 C 
ENDROOT
BRANCH   1   2
ATOM      2  C   UNL A   1      34.822  21.825  26.511  1.00  0.00     0.116 C 
BRANCH   2   3
ATOM      3  N   UNL A   1      33.839  20.776  26.291  1.00  0.00    -0.356 N 
ATOM      4  C   UNL A   1      33.185  20.426  25.143  1.00  0.00     0.226 C 
ATOM      5  O   UNL A   1      32.315  19.556  25.212  1.00  0.00    -0.275 OA
ATOM      6  H   UNL A   1      33.612  20.240  27.085  1.00  0.00     0.163 HD
BRANCH   4   7
ATOM      7  C   UNL A   1      33.556  21.059  23.815  1.00  0.00     0.157 C 
BRANCH   7   8
ATOM      8  C   UNL A   1      32.834  22.341  23.573  1.00  0.00     0.063 A 
ATOM      9  C   UNL A   1      32.812  24.558  23.503  1.00  0.00     0.199 A 
ATOM     10  N   UNL A   1      33.588  23.501  23.525  1.00  0.00    -0.224 NA
ATOM     11  S   UNL A   1      31.135  24.221  23.384  1.00  0.00    -0.104 S 
ATOM     12  C   UNL A   1      31.475  22.539  23.420  1.00  0.00     0.093 A 
BRANCH   9  13
ATOM     13  N   UNL A   1      33.250  25.858  23.501  1.00  0.00    -0.219 N 
ATOM     14  C   UNL A   1      34.141  27.925  24.154  1.00  0.00     0.285 C 
ATOM     15  C   UNL A   1      33.884  27.923  22.653  1.00  0.00     0.176 C 
ATOM     16  C   UNL A   1      33.787  26.499  24.587  1.00  0.00     0.294 C 
ATOM     17  C   UNL A   1      33.355  26.562  22.337  1.00  0.00     0.242 C 
ATOM     18  O   UNL A   1      34.039  26.036  25.691  1.00  0.00    -0.267 OA
ATOM     19  O   UNL A   1      33.059  26.237  21.195  1.00  0.00    -0.274 OA
BRANCH  14  20
ATOM     20  N   UNL A   1      33.431  28.916  24.979  1.00  0.00    -0.322 N 
ATOM     21  C   UNL A   1      32.013  29.162  24.634  1.00  0.00     0.184 C 
ATOM     22  C   UNL A   1      31.559  30.472  25.319  1.00  0.00     0.065 C 
ATOM     23  C   UNL A   1      31.793  30.450  26.825  1.00  0.00     0.012 C 
ATOM     24  C   UNL A   1      33.710  28.867  26.417  1.00  0.00     0.263 C 
ATOM     25  H   UNL A   1      33.885  29.779  24.678  1.00  0.00     0.349 HD
ATOM     26  C   UNL A   1      33.254  30.148  27.116  1.00  0.00     0.062 C 
BRANCH  21  27
ATOM     27  C   UNL A   1      31.020  28.018  24.969  1.00  0.00     0.061 C 
ATOM     28  C   UNL A   1      30.046  27.702  23.839  1.00  0.00     0.010 C 
ENDBRANCH  21  27
ENDBRANCH  14  20
ENDBRANCH   9  13
ENDBRANCH   7   8
ENDBRANCH   4   7
ENDBRANCH   2   3
ENDBRANCH   1   2
BRANCH   1  29
ATOM     29  C   UNL A   1      37.083  22.758  25.689  1.00  0.00     0.002 C 
BRANCH  29  30
ATOM     30  C   UNL A   1      38.552  22.370  25.880  1.00  0.00     0.002 C 
BRANCH  30  31
ATOM     31  C   UNL A   1      38.942  20.995  25.333  1.00  0.00     0.021 C 
BRANCH  31  32
ATOM     32  C   UNL A   1      39.381  19.978  26.385  1.00  0.00     0.116 C 
BRANCH  32  33
ATOM     33  N   UNL A   1      40.561  19.234  25.977  1.00  0.00    -0.352 N 
ATOM     34  C   UNL A   1      41.873  19.630  25.916  1.00  0.00     0.251 C 
ATOM     35  H   UNL A   1      40.394  18.303  25.704  1.00  0.00     0.163 HD
ATOM     36  O   UNL A   1      42.707  18.902  25.383  1.00  0.00    -0.269 OA
BRANCH  34  37
ATOM     37  C   UNL A   1      42.292  20.940  26.464  1.00  0.00     0.039 A 
ATOM     38  C   UNL A   1      42.695  21.940  25.572  1.00  0.00     0.014 A 
ATOM     39  C   UNL A   1      42.327  21.179  27.841  1.00  0.00     0.014 A 
ATOM     40  C   UNL A   1      43.078  23.192  26.057  1.00  0.00     0.010 A 
ATOM     41  C   UNL A   1      42.649  22.448  28.320  1.00  0.00     0.010 A 
ATOM     42  C   UNL A   1      43.030  23.467  27.434  1.00  0.00    -0.014 A 
BRANCH  42  43
ATOM     43  C   UNL A   1      43.369  24.816  27.953  1.00  0.00     0.031 A 
ATOM     44  C   UNL A   1      42.290  25.829  28.214  1.00  0.00     0.074 A 
ATOM     45  C   UNL A   1      44.661  25.146  28.147  1.00  0.00     0.049 A 
ATOM     46  N   UNL A   1      42.399  27.062  28.643  1.00  0.00    -0.248 NA
ATOM     47  C   UNL A   1      40.907  25.412  27.934  1.00  0.00     0.031 C 
ATOM     48  C   UNL A   1      45.806  24.272  27.883  1.00  0.00     0.029 A 
ATOM     49  N   UNL A   1      45.228  26.309  28.606  1.00  0.00    -0.354 N 
ATOM     50  C   UNL A   1      41.107  27.570  28.673  1.00  0.00     0.074 A 
ATOM     51  C   UNL A   1      40.234  26.528  28.173  1.00  0.00     0.031 C 
ATOM     52  C   UNL A   1      46.936  24.920  28.209  1.00  0.00     0.029 A 
ATOM     53  C   UNL A   1      46.600  26.260  28.678  1.00  0.00     0.049 A 
ATOM     54  H   UNL A   1      44.703  27.100  28.861  1.00  0.00     0.167 HD
ATOM     55  C   UNL A   1      40.683  28.784  29.098  1.00  0.00     0.037 A 
ATOM     56  C   UNL A   1      47.486  27.191  29.080  1.00  0.00     0.037 A 
ATOM     57  C   UNL A   1      41.547  29.809  29.620  1.00  0.00     0.049 A 
ATOM     58  C   UNL A   1      46.989  28.523  29.564  1.00  0.00     0.074 A 
ATOM     59  C   UNL A   1      41.203  31.049  30.131  1.00  0.00     0.029 A 
ATOM     60  N   UNL A   1      42.928  29.713  29.700  1.00  0.00    -0.354 N 
ATOM     61  N   UNL A   1      45.757  28.965  29.649  1.00  0.00    -0.248 NA
ATOM     62  C   UNL A   1      48.004  29.484  30.017  1.00  0.00     0.031 C 
ATOM     63  C   UNL A   1      42.379  31.717  30.490  1.00  0.00     0.029 A 
ATOM     64  C   UNL A   1      43.453  30.878  30.237  1.00  0.00     0.049 A 
ATOM     65  H   UNL A   1      43.457  28.933  29.417  1.00  0.00     0.167 HD
ATOM     66  C   UNL A   1      45.847  30.240  30.190  1.00  0.00     0.074 A 
ATOM     67  C   UNL A   1      47.253  30.498  30.423  1.00  0.00     0.031 C 
ATOM     68  C   UNL A   1      44.854  31.118  30.469  1.00  0.00     0.037 A 
BRANCH  55  69
ATOM     69  C   UNL A   1      39.211  29.066  29.021  1.00  0.00     0.057 A 
ATOM     70  C   UNL A   1      38.601  29.473  27.828  1.00  0.00     0.134 A 
ATOM     71  C   UNL A   1      38.389  28.893  30.143  1.00  0.00     0.134 A 
ATOM     72  F   UNL A   1      39.334  29.666  26.722  1.00  0.00    -0.206 F 
ATOM     73  C   UNL A   1      37.229  29.723  27.759  1.00  0.00     0.040 A 
ATOM     74  C   UNL A   1      37.013  29.117  30.078  1.00  0.00     0.040 A 
ATOM     75  F   UNL A   1      38.909  28.498  31.314  1.00  0.00    -0.206 F 
ATOM     76  C   UNL A   1      36.430  29.539  28.886  1.00  0.00     0.006 A 
ENDBRANCH  55  69
BRANCH  56  77
ATOM     77  C   UNL A   1      48.936  26.879  29.077  1.00  0.00     0.057 A 
ATOM     78  C   UNL A   1      49.549  26.299  30.193  1.00  0.00     0.134 A 
ATOM     79  C   UNL A   1      49.742  27.155  27.966  1.00  0.00     0.134 A 
ATOM     80  F   UNL A   1      48.831  26.029  31.293  1.00  0.00    -0.206 F 
ATOM     81  C   UNL A   1      50.916  26.016  30.212  1.00  0.00     0.040 A 
ATOM     82  C   UNL A   1      51.105  26.858  27.963  1.00  0.00     0.040 A 
ATOM     83  F   UNL A   1      49.211  27.705  26.865  1.00  0.00    -0.206 F 
ATOM     84  C   UNL A   1      51.697  26.293  29.092  1.00  0.00     0.006 A 
ENDBRANCH  56  77
BRANCH  68  85
ATOM     85  C   UNL A   1      45.250  32.426  31.084  1.00  0.00     0.057 A 
ATOM     86  C   UNL A   1      45.533  33.554  30.303  1.00  0.00     0.134 A 
ATOM     87  C   UNL A   1      45.317  32.567  32.477  1.00  0.00     0.134 A 
ATOM     88  F   UNL A   1      45.499  33.479  28.965  1.00  0.00    -0.206 F 
ATOM     89  C   UNL A   1      45.891  34.770  30.885  1.00  0.00     0.040 A 
ATOM     90  C   UNL A   1      45.651  33.785  33.070  1.00  0.00     0.040 A 
ATOM     91  F   UNL A   1      45.050  31.527  33.281  1.00  0.00    -0.206 F 
ATOM     92  C   UNL A   1      45.944  34.891  32.273  1.00  0.00     0.006 A 
ENDBRANCH  68  85
ENDBRANCH  42  43
ENDBRANCH  34  37
ENDBRANCH  32  33
ENDBRANCH  31  32
ENDBRANCH  30  31
ENDBRANCH  29  30
ENDBRANCH   1  29
TORSDOF 17
ENDMDL
MODEL 2
REMARK VINA RESULT:     -10.9      0.623      5.995
REMARK SMILES CC[C@H]1CCCC[N@H+]1[C@@H]1CC(=O)N(c2nc(CC(=O)NCCCCCCNC(=O)c3ccc(-c4c5nc(c(-c6c(F)cccc6F)c6ccc([nH]6)c(-c6c(F)cccc6F)c6nc(c(-c7c(F)cccc7F)c7ccc4[nH]7)C=C6)C=C5)cc3)cs2)C1=O
REMARK SMILES IDX 22 1 21 2 20 3 18 4 19 5 17 7 16 8 14 9 15 10 85 11 84 12
REMARK SMILES IDX 13 13 9 14 10 15 86 16 11 17 87 18 12 19 8 20 3 21 4 22 5 23
REMARK SMILES IDX 7 24 6 26 2 27 1 28 23 29 24 30 25 31 26 32 27 33 28 34
REMARK SMILES IDX 29 36 30 37 31 38 83 39 32 40 82 41 33 42 34 43 35 44 76 45
REMARK SMILES IDX 36 46 81 47 75 48 77 49 37 50 80 51 74 52 73 53 38 55 64 56
REMARK SMILES IDX 47 57 63 58 48 59 51 60 62 61 78 62 49 63 50 64 61 66 79 67
REMARK SMILES IDX 52 68 39 69 40 70 45 71 41 72 42 73 44 74 46 75 43 76 65 77
REMARK SMILES IDX 66 78 71 79 67 80 68 81 70 82 72 83 69 84 53 85 54 86 59 87
REMARK SMILES IDX 55 88 56 89 58 90 60 91 57 92
REMARK H PARENT 20 6 8 25 27 35 77 54 51 65
REMARK Flexibility Score: inf
ROOT
ATOM      1  C   UNL A   1      36.761  21.649  24.640  1.00  0.00     0.021 C 
ENDROOT
BRANCH   1   2
ATOM      2  C   UNL A   1      36.044  20.345  25.001  1.00  0.00     0.116 C 
BRANCH   2   3
ATOM      3  N   UNL A   1      34.817  20.597  25.737  1.00  0.00    -0.356 N 
ATOM      4  C   UNL A   1      33.613  21.060  25.286  1.00  0.00     0.226 C 
ATOM      5  O   UNL A   1      32.729  21.289  26.115  1.00  0.00    -0.275 OA
ATOM      6  H   UNL A   1      34.858  20.405  26.701  1.00  0.00     0.163 HD
BRANCH   4   7
ATOM      7  C   UNL A   1      33.358  21.243  23.801  1.00  0.00     0.157 C 
BRANCH   7   8
ATOM      8  C   UNL A   1      32.713  22.549  23.489  1.00  0.00     0.063 A 
ATOM      9  C   UNL A   1      32.774  24.766  23.437  1.00  0.00     0.199 A 
ATOM     10  N   UNL A   1      33.506  23.684  23.539  1.00  0.00    -0.224 NA
ATOM     11  S   UNL A   1      31.112  24.489  23.123  1.00  0.00    -0.104 S 
ATOM     12  C   UNL A   1      31.389  22.796  23.182  1.00  0.00     0.093 A 
BRANCH   9  13
ATOM     13  N   UNL A   1      33.254  26.051  23.497  1.00  0.00    -0.219 N 
ATOM     14  C   UNL A   1      34.168  28.069  24.261  1.00  0.00     0.285 C 
ATOM     15  C   UNL A   1      34.006  28.113  22.747  1.00  0.00     0.176 C 
ATOM     16  C   UNL A   1      33.741  26.645  24.631  1.00  0.00     0.294 C 
ATOM     17  C   UNL A   1      33.455  26.780  22.362  1.00  0.00     0.242 C 
ATOM     18  O   UNL A   1      33.908  26.147  25.737  1.00  0.00    -0.267 OA
ATOM     19  O   UNL A   1      33.221  26.494  21.195  1.00  0.00    -0.274 OA
BRANCH  14  20
ATOM     20  N   UNL A   1      33.440  29.063  25.066  1.00  0.00    -0.322 N 
ATOM     21  C   UNL A   1      32.023  29.291  24.704  1.00  0.00     0.184 C 
ATOM     22  C   UNL A   1      31.549  30.604  25.368  1.00  0.00     0.065 C 
ATOM     23  C   UNL A   1      31.768  30.602  26.877  1.00  0.00     0.012 C 
ATOM     24  C   UNL A   1      33.705  29.034  26.508  1.00  0.00     0.263 C 
ATOM     25  H   UNL A   1      33.888  29.927  24.760  1.00  0.00     0.349 HD
ATOM     26  C   UNL A   1      33.228  30.318  27.186  1.00  0.00     0.062 C 
BRANCH  21  27
ATOM     27  C   UNL A   1      31.038  28.142  25.042  1.00  0.00     0.061 C 
ATOM     28  C   UNL A   1      30.040  27.842  23.929  1.00  0.00     0.010 C 
ENDBRANCH  21  27
ENDBRANCH  14  20
ENDBRANCH   9  13
ENDBRANCH   7   8
ENDBRANCH   4   7
ENDBRANCH   2   3
ENDBRANCH   1   2
BRANCH   1  29
ATOM     29  C   UNL A   1      37.438  22.356  25.821  1.00  0.00     0.002 C 
BRANCH  29  30
ATOM     30  C   UNL A   1      38.915  22.010  26.032  1.00  0.00     0.002 C 
BRANCH  30  31
ATOM     31  C   UNL A   1      39.383  20.711  25.372  1.00  0.00     0.021 C 
BRANCH  31  32
ATOM     32  C   UNL A   1      39.748  19.586  26.339  1.00  0.00     0.116 C 
BRANCH  32  33
ATOM     33  N   UNL A   1      41.046  19.001  26.042  1.00  0.00    -0.352 N 
ATOM     34  C   UNL A   1      42.285  19.589  25.989  1.00  0.00     0.251 C 
ATOM     35  H   UNL A   1      41.034  18.036  25.850  1.00  0.00     0.163 HD
ATOM     36  O   UNL A   1      43.244  18.955  25.555  1.00  0.00    -0.269 OA
BRANCH  34  37
ATOM     37  C   UNL A   1      42.475  20.989  26.428  1.00  0.00     0.039 A 
ATOM     38  C   UNL A   1      42.472  21.267  27.799  1.00  0.00     0.014 A 
ATOM     39  C   UNL A   1      42.618  22.031  25.507  1.00  0.00     0.014 A 
ATOM     40  C   UNL A   1      42.668  22.575  28.246  1.00  0.00     0.010 A 
ATOM     41  C   UNL A   1      42.876  23.326  25.955  1.00  0.00     0.010 A 
ATOM     42  C   UNL A   1      42.901  23.612  27.328  1.00  0.00    -0.014 A 
BRANCH  42  43
ATOM     43  C   UNL A   1      43.178  24.995  27.796  1.00  0.00     0.031 A 
ATOM     44  C   UNL A   1      44.592  25.468  27.988  1.00  0.00     0.074 A 
ATOM     45  C   UNL A   1      42.149  25.812  28.091  1.00  0.00     0.049 A 
ATOM     46  N   UNL A   1      45.024  26.629  28.412  1.00  0.00    -0.248 NA
ATOM     47  C   UNL A   1      45.661  24.502  27.690  1.00  0.00     0.031 C 
ATOM     48  C   UNL A   1      40.732  25.458  27.996  1.00  0.00     0.029 A 
ATOM     49  N   UNL A   1      42.139  27.111  28.538  1.00  0.00    -0.354 N 
ATOM     50  C   UNL A   1      46.409  26.531  28.442  1.00  0.00     0.074 A 
ATOM     51  C   UNL A   1      46.744  25.181  28.040  1.00  0.00     0.031 C 
ATOM     52  C   UNL A   1      39.989  26.520  28.348  1.00  0.00     0.029 A 
ATOM     53  C   UNL A   1      40.875  27.620  28.718  1.00  0.00     0.049 A 
ATOM     54  H   UNL A   1      42.958  27.628  28.711  1.00  0.00     0.167 HD
ATOM     55  C   UNL A   1      47.320  27.483  28.755  1.00  0.00     0.037 A 
ATOM     56  C   UNL A   1      40.475  28.837  29.133  1.00  0.00     0.037 A 
ATOM     57  C   UNL A   1      46.989  28.833  29.128  1.00  0.00     0.049 A 
ATOM     58  C   UNL A   1      41.506  29.881  29.456  1.00  0.00     0.074 A 
ATOM     59  C   UNL A   1      47.843  29.886  29.404  1.00  0.00     0.029 A 
ATOM     60  N   UNL A   1      45.698  29.317  29.275  1.00  0.00    -0.354 N 
ATOM     61  N   UNL A   1      42.813  29.794  29.415  1.00  0.00    -0.248 NA
ATOM     62  C   UNL A   1      41.004  31.198  29.874  1.00  0.00     0.031 C 
ATOM     63  C   UNL A   1      47.070  31.000  29.751  1.00  0.00     0.029 A 
ATOM     64  C   UNL A   1      45.733  30.650  29.654  1.00  0.00     0.049 A 
ATOM     65  H   UNL A   1      44.878  28.792  29.132  1.00  0.00     0.167 HD
ATOM     66  C   UNL A   1      43.290  31.047  29.773  1.00  0.00     0.074 A 
ATOM     67  C   UNL A   1      42.131  31.881  30.019  1.00  0.00     0.031 C 
ATOM     68  C   UNL A   1      44.572  31.469  29.888  1.00  0.00     0.037 A 
BRANCH  55  69
ATOM     69  C   UNL A   1      48.769  27.097  28.698  1.00  0.00     0.057 A 
ATOM     70  C   UNL A   1      49.502  27.165  27.506  1.00  0.00     0.134 A 
ATOM     71  C   UNL A   1      49.447  26.687  29.853  1.00  0.00     0.134 A 
ATOM     72  F   UNL A   1      48.908  27.539  26.363  1.00  0.00    -0.206 F 
ATOM     73  C   UNL A   1      50.853  26.816  27.461  1.00  0.00     0.040 A 
ATOM     74  C   UNL A   1      50.803  26.359  29.823  1.00  0.00     0.040 A 
ATOM     75  F   UNL A   1      48.806  26.608  31.028  1.00  0.00    -0.206 F 
ATOM     76  C   UNL A   1      51.509  26.417  28.623  1.00  0.00     0.006 A 
ENDBRANCH  55  69
BRANCH  56  77
ATOM     77  C   UNL A   1      39.028  29.145  29.230  1.00  0.00     0.057 A 
ATOM     78  C   UNL A   1      38.303  29.556  28.105  1.00  0.00     0.134 A 
ATOM     79  C   UNL A   1      38.336  29.040  30.442  1.00  0.00     0.134 A 
ATOM     80  F   UNL A   1      38.917  29.692  26.921  1.00  0.00    -0.206 F 
ATOM     81  C   UNL A   1      36.946  29.867  28.184  1.00  0.00     0.040 A 
ATOM     82  C   UNL A   1      36.974  29.327  30.531  1.00  0.00     0.040 A 
ATOM     83  F   UNL A   1      38.975  28.645  31.553  1.00  0.00    -0.206 F 
ATOM     84  C   UNL A   1      36.276  29.748  29.400  1.00  0.00     0.006 A 
ENDBRANCH  56  77
BRANCH  68  85
ATOM     85  C   UNL A   1      44.789  32.903  30.267  1.00  0.00     0.057 A 
ATOM     86  C   UNL A   1      44.853  33.920  29.306  1.00  0.00     0.134 A 
ATOM     87  C   UNL A   1      44.904  33.275  31.613  1.00  0.00     0.134 A 
ATOM     88  F   UNL A   1      44.763  33.626  28.000  1.00  0.00    -0.206 F 
ATOM     89  C   UNL A   1      45.045  35.253  29.669  1.00  0.00     0.040 A 
ATOM     90  C   UNL A   1      45.073  34.608  31.990  1.00  0.00     0.040 A 
ATOM     91  F   UNL A   1      44.843  32.349  32.583  1.00  0.00    -0.206 F 
ATOM     92  C   UNL A   1      45.149  35.601  31.015  1.00  0.00     0.006 A 
ENDBRANCH  68  85
ENDBRANCH  42  43
ENDBRANCH  34  37
ENDBRANCH  32  33
ENDBRANCH  31  32
ENDBRANCH  30  31
ENDBRANCH  29  30
ENDBRANCH   1  29
TORSDOF 17
ENDMDL
MODEL 3
REMARK VINA RESULT:     -10.9      4.938     10.192
REMARK SMILES CC[C@H]1CCCC[N@H+]1[C@@H]1CC(=O)N(c2nc(CC(=O)NCCCCCCNC(=O)c3ccc(-c4c5nc(c(-c6c(F)cccc6F)c6ccc([nH]6)c(-c6c(F)cccc6F)c6nc(c(-c7c(F)cccc7F)c7ccc4[nH]7)C=C6)C=C5)cc3)cs2)C1=O
REMARK SMILES IDX 22 1 21 2 20 3 18 4 19 5 17 7 16 8 14 9 15 10 85 11 84 12
REMARK SMILES IDX 13 13 9 14 10 15 86 16 11 17 87 18 12 19 8 20 3 21 4 22 5 23
REMARK SMILES IDX 7 24 6 26 2 27 1 28 23 29 24 30 25 31 26 32 27 33 28 34
REMARK SMILES IDX 29 36 30 37 31 38 83 39 32 40 82 41 33 42 34 43 35 44 76 45
REMARK SMILES IDX 36 46 81 47 75 48 77 49 37 50 80 51 74 52 73 53 38 55 64 56
REMARK SMILES IDX 47 57 63 58 48 59 51 60 62 61 78 62 49 63 50 64 61 66 79 67
REMARK SMILES IDX 52 68 39 69 40 70 45 71 41 72 42 73 44 74 46 75 43 76 65 77
REMARK SMILES IDX 66 78 71 79 67 80 68 81 70 82 72 83 69 84 53 85 54 86 59 87
REMARK SMILES IDX 55 88 56 89 58 90 60 91 57 92
REMARK H PARENT 20 6 8 25 27 35 77 54 51 65
REMARK Flexibility Score: inf
ROOT
ATOM      1  C   UNL A   1      34.422  31.978  28.417  1.00  0.00     0.021 C 
ENDROOT
BRANCH   1   2
ATOM      2  C   UNL A   1      34.776  30.646  27.748  1.00  0.00     0.116 C 
BRANCH   2   3
ATOM      3  N   UNL A   1      34.036  30.456  26.512  1.00  0.00    -0.356 N 
ATOM      4  C   UNL A   1      33.199  29.438  26.148  1.00  0.00     0.226 C 
ATOM      5  O   UNL A   1      32.749  29.437  25.001  1.00  0.00    -0.275 OA
ATOM      6  H   UNL A   1      34.154  31.164  25.838  1.00  0.00     0.163 HD
BRANCH   4   7
ATOM      7  C   UNL A   1      32.800  28.368  27.147  1.00  0.00     0.157 C 
BRANCH   7   8
ATOM      8  C   UNL A   1      32.152  27.194  26.495  1.00  0.00     0.063 A 
ATOM      9  C   UNL A   1      32.259  25.427  25.159  1.00  0.00     0.199 A 
ATOM     10  N   UNL A   1      32.972  26.289  25.843  1.00  0.00    -0.224 NA
ATOM     11  S   UNL A   1      30.564  25.553  25.378  1.00  0.00    -0.104 S 
ATOM     12  C   UNL A   1      30.804  26.895  26.422  1.00  0.00     0.093 A 
BRANCH   9  13
ATOM     13  N   UNL A   1      32.774  24.430  24.368  1.00  0.00    -0.219 N 
ATOM     14  C   UNL A   1      33.531  22.356  23.585  1.00  0.00     0.285 C 
ATOM     15  C   UNL A   1      33.530  23.370  22.448  1.00  0.00     0.176 C 
ATOM     16  C   UNL A   1      32.926  23.127  24.762  1.00  0.00     0.294 C 
ATOM     17  C   UNL A   1      33.003  24.636  23.039  1.00  0.00     0.242 C 
ATOM     18  O   UNL A   1      32.578  22.607  25.814  1.00  0.00    -0.267 OA
ATOM     19  O   UNL A   1      32.868  25.650  22.369  1.00  0.00    -0.274 OA
BRANCH  14  20
ATOM     20  N   UNL A   1      34.813  21.738  23.963  1.00  0.00    -0.322 N 
ATOM     21  C   UNL A   1      35.948  22.662  24.178  1.00  0.00     0.184 C 
ATOM     22  C   UNL A   1      37.258  21.841  24.176  1.00  0.00     0.065 C 
ATOM     23  C   UNL A   1      37.234  20.707  25.195  1.00  0.00     0.012 C 
ATOM     24  C   UNL A   1      34.730  20.636  24.926  1.00  0.00     0.263 C 
ATOM     25  H   UNL A   1      35.068  21.272  23.092  1.00  0.00     0.349 HD
ATOM     26  C   UNL A   1      36.023  19.821  24.951  1.00  0.00     0.062 C 
BRANCH  21  27
ATOM     27  C   UNL A   1      35.878  23.544  25.452  1.00  0.00     0.061 C 
ATOM     28  C   UNL A   1      37.242  24.019  25.943  1.00  0.00     0.010 C 
ENDBRANCH  21  27
ENDBRANCH  14  20
ENDBRANCH   9  13
ENDBRANCH   7   8
ENDBRANCH   4   7
ENDBRANCH   2   3
ENDBRANCH   1   2
BRANCH   1  29
ATOM     29  C   UNL A   1      35.597  32.952  28.565  1.00  0.00     0.002 C 
BRANCH  29  30
ATOM     30  C   UNL A   1      35.209  34.421  28.757  1.00  0.00     0.002 C 
BRANCH  30  31
ATOM     31  C   UNL A   1      33.734  34.671  29.077  1.00  0.00     0.021 C 
BRANCH  31  32
ATOM     32  C   UNL A   1      33.390  36.106  29.474  1.00  0.00     0.116 C 
BRANCH  32  33
ATOM     33  N   UNL A   1      32.476  36.165  30.604  1.00  0.00    -0.352 N 
ATOM     34  C   UNL A   1      32.572  35.583  31.843  1.00  0.00     0.251 C 
ATOM     35  H   UNL A   1      31.666  36.703  30.457  1.00  0.00     0.163 HD
ATOM     36  O   UNL A   1      31.610  35.614  32.608  1.00  0.00    -0.269 OA
BRANCH  34  37
ATOM     37  C   UNL A   1      33.814  34.897  32.261  1.00  0.00     0.039 A 
ATOM     38  C   UNL A   1      33.754  33.534  32.571  1.00  0.00     0.014 A 
ATOM     39  C   UNL A   1      35.024  35.587  32.387  1.00  0.00     0.014 A 
ATOM     40  C   UNL A   1      34.913  32.854  32.950  1.00  0.00     0.010 A 
ATOM     41  C   UNL A   1      36.191  34.894  32.704  1.00  0.00     0.010 A 
ATOM     42  C   UNL A   1      36.148  33.521  32.991  1.00  0.00    -0.014 A 
BRANCH  42  43
ATOM     43  C   UNL A   1      37.397  32.791  33.327  1.00  0.00     0.031 A 
ATOM     44  C   UNL A   1      38.142  33.095  34.597  1.00  0.00     0.074 A 
ATOM     45  C   UNL A   1      37.886  31.882  32.462  1.00  0.00     0.049 A 
ATOM     46  N   UNL A   1      39.259  32.577  35.043  1.00  0.00    -0.248 NA
ATOM     47  C   UNL A   1      37.572  34.133  35.469  1.00  0.00     0.031 C 
ATOM     48  C   UNL A   1      37.286  31.533  31.173  1.00  0.00     0.029 A 
ATOM     49  N   UNL A   1      39.004  31.089  32.534  1.00  0.00    -0.354 N 
ATOM     50  C   UNL A   1      39.531  33.233  36.237  1.00  0.00     0.074 A 
ATOM     51  C   UNL A   1      38.488  34.219  36.423  1.00  0.00     0.031 C 
ATOM     52  C   UNL A   1      38.028  30.578  30.588  1.00  0.00     0.029 A 
ATOM     53  C   UNL A   1      39.168  30.268  31.445  1.00  0.00     0.049 A 
ATOM     54  H   UNL A   1      39.629  31.106  33.295  1.00  0.00     0.167 HD
ATOM     55  C   UNL A   1      40.544  33.018  37.110  1.00  0.00     0.037 A 
ATOM     56  C   UNL A   1      40.127  29.364  31.169  1.00  0.00     0.037 A 
ATOM     57  C   UNL A   1      41.566  32.019  36.940  1.00  0.00     0.049 A 
ATOM     58  C   UNL A   1      41.229  29.132  32.163  1.00  0.00     0.074 A 
ATOM     59  C   UNL A   1      42.599  31.686  37.800  1.00  0.00     0.029 A 
ATOM     60  N   UNL A   1      41.683  31.189  35.835  1.00  0.00    -0.354 N 
ATOM     61  N   UNL A   1      41.435  29.712  33.320  1.00  0.00    -0.248 NA
ATOM     62  C   UNL A   1      42.228  28.110  31.817  1.00  0.00     0.031 C 
ATOM     63  C   UNL A   1      43.361  30.677  37.200  1.00  0.00     0.029 A 
ATOM     64  C   UNL A   1      42.780  30.356  35.983  1.00  0.00     0.049 A 
ATOM     65  H   UNL A   1      41.076  31.192  35.060  1.00  0.00     0.167 HD
ATOM     66  C   UNL A   1      42.567  29.110  33.852  1.00  0.00     0.074 A 
ATOM     67  C   UNL A   1      42.998  28.111  32.896  1.00  0.00     0.031 C 
ATOM     68  C   UNL A   1      43.193  29.362  35.027  1.00  0.00     0.037 A 
BRANCH  55  69
ATOM     69  C   UNL A   1      40.591  33.880  38.338  1.00  0.00     0.057 A 
ATOM     70  C   UNL A   1      41.353  35.054  38.384  1.00  0.00     0.134 A 
ATOM     71  C   UNL A   1      39.837  33.552  39.472  1.00  0.00     0.134 A 
ATOM     72  F   UNL A   1      42.105  35.418  37.334  1.00  0.00    -0.206 F 
ATOM     73  C   UNL A   1      41.384  35.859  39.524  1.00  0.00     0.040 A 
ATOM     74  C   UNL A   1      39.842  34.363  40.609  1.00  0.00     0.040 A 
ATOM     75  F   UNL A   1      39.080  32.446  39.492  1.00  0.00    -0.206 F 
ATOM     76  C   UNL A   1      40.622  35.517  40.639  1.00  0.00     0.006 A 
ENDBRANCH  55  69
BRANCH  56  77
ATOM     77  C   UNL A   1      40.064  28.582  29.911  1.00  0.00     0.057 A 
ATOM     78  C   UNL A   1      39.334  27.390  29.839  1.00  0.00     0.134 A 
ATOM     79  C   UNL A   1      40.732  29.001  28.754  1.00  0.00     0.134 A 
ATOM     80  F   UNL A   1      38.689  26.930  30.921  1.00  0.00    -0.206 F 
ATOM     81  C   UNL A   1      39.280  26.634  28.668  1.00  0.00     0.040 A 
ATOM     82  C   UNL A   1      40.670  28.267  27.570  1.00  0.00     0.040 A 
ATOM     83  F   UNL A   1      41.443  30.138  28.759  1.00  0.00    -0.206 F 
ATOM     84  C   UNL A   1      39.947  27.076  27.527  1.00  0.00     0.006 A 
ENDBRANCH  56  77
BRANCH  68  85
ATOM     85  C   UNL A   1      44.391  28.524  35.357  1.00  0.00     0.057 A 
ATOM     86  C   UNL A   1      44.278  27.316  36.056  1.00  0.00     0.134 A 
ATOM     87  C   UNL A   1      45.671  28.916  34.943  1.00  0.00     0.134 A 
ATOM     88  F   UNL A   1      43.082  26.892  36.491  1.00  0.00    -0.206 F 
ATOM     89  C   UNL A   1      45.398  26.537  36.350  1.00  0.00     0.040 A 
ATOM     90  C   UNL A   1      46.795  28.135  35.211  1.00  0.00     0.040 A 
ATOM     91  F   UNL A   1      45.846  30.060  34.263  1.00  0.00    -0.206 F 
ATOM     92  C   UNL A   1      46.661  26.943  35.921  1.00  0.00     0.006 A 
ENDBRANCH  68  85
ENDBRANCH  42  43
ENDBRANCH  34  37
ENDBRANCH  32  33
ENDBRANCH  31  32
ENDBRANCH  30  31
ENDBRANCH  29  30
ENDBRANCH   1  29
TORSDOF 17
ENDMDL
