MODEL 1
REMARK VINA RESULT:     -12.3      0.000      0.000
REMARK SMILES C/C(Nc1ccc(C(=O)NCCCCCCNC(=O)c2ccc(-c3c4nc(c(-c5c(F)cccc5F)c5ccc([nH]5)c(-c5c(F)cccc5F)c5nc(c(-c6c(F)cccc6F)c6ccc3[nH]6)C=C5)C=C4)cc2)c(O)c1)=C1/C(=O)O[C@H](C)C1=O
REMARK SMILES IDX 13 1 12 2 11 3 10 4 8 5 9 6 7 8 4 9 5 10 76 11 6 12 74 13
REMARK SMILES IDX 3 14 2 16 1 17 77 18 78 19 83 20 79 21 80 22 81 23 84 24
REMARK SMILES IDX 82 25 75 26 14 28 15 29 16 30 17 31 18 32 19 34 20 35 21 36
REMARK SMILES IDX 73 37 22 38 72 39 23 40 24 41 25 42 66 43 26 44 71 45 65 46
REMARK SMILES IDX 67 47 27 48 70 49 64 50 63 51 28 53 54 54 37 55 53 56 38 57
REMARK SMILES IDX 41 58 52 59 68 60 39 61 40 62 51 64 69 65 42 66 29 67 30 68
REMARK SMILES IDX 35 69 31 70 32 71 34 72 36 73 33 74 55 75 56 76 61 77 57 78
REMARK SMILES IDX 58 79 60 80 62 81 59 82 43 83 44 84 49 85 45 86 46 87 48 88
REMARK SMILES IDX 50 89 47 90
REMARK H PARENT 10 7 3 15 75 27 17 33 67 52 41 63
REMARK Flexibility Score: inf
ROOT
ATOM      1  C   UNL A   1      33.397  29.883  26.463  1.00  0.00     0.002 C 
ENDROOT
BRANCH   1   2
ATOM      2  C   UNL A   1      33.730  28.456  26.015  1.00  0.00     0.021 C 
BRANCH   2   3
ATOM      3  C   UNL A   1      33.645  28.160  24.519  1.00  0.00     0.116 C 
BRANCH   3   4
ATOM      4  N   UNL A   1      32.449  27.449  24.099  1.00  0.00    -0.352 N 
ATOM      5  C   UNL A   1      32.143  26.105  24.136  1.00  0.00     0.255 C 
ATOM      6  O   UNL A   1      31.043  25.744  23.721  1.00  0.00    -0.269 OA
ATOM      7  H   UNL A   1      31.740  28.022  23.726  1.00  0.00     0.163 HD
BRANCH   5   8
ATOM      8  C   UNL A   1      33.114  25.076  24.597  1.00  0.00     0.081 A 
ATOM      9  C   UNL A   1      34.519  22.841  25.604  1.00  0.00     0.042 A 
ATOM     10  C   UNL A   1      33.866  23.717  26.472  1.00  0.00     0.027 A 
ATOM     11  C   UNL A   1      34.627  23.215  24.259  1.00  0.00     0.073 A 
ATOM     12  C   UNL A   1      33.140  24.806  25.972  1.00  0.00     0.020 A 
ATOM     13  C   UNL A   1      33.978  24.353  23.775  1.00  0.00     0.130 A 
BRANCH   9  14
ATOM     14  N   UNL A   1      34.980  21.570  25.987  1.00  0.00    -0.358 N 
ATOM     15  H   UNL A   1      35.348  21.530  26.899  1.00  0.00     0.166 HD
BRANCH  14  16
ATOM     16  C   UNL A   1      35.005  20.357  25.305  1.00  0.00     0.030 C 
ATOM     17  C   UNL A   1      36.413  19.977  24.856  1.00  0.00     0.065 C 
ATOM     18  C   UNL A   1      33.978  19.545  24.959  1.00  0.00     0.125 C 
ATOM     19  C   UNL A   1      32.519  19.718  25.110  1.00  0.00     0.344 C 
ATOM     20  C   UNL A   1      34.134  18.179  24.419  1.00  0.00     0.212 C 
ATOM     21  O   UNL A   1      31.880  20.757  25.154  1.00  0.00    -0.246 OA
ATOM     22  O   UNL A   1      31.942  18.478  25.085  1.00  0.00    -0.451 OA
ATOM     23  C   UNL A   1      32.850  17.447  24.653  1.00  0.00     0.245 C 
ATOM     24  O   UNL A   1      35.130  17.700  23.903  1.00  0.00    -0.290 OA
ATOM     25  C   UNL A   1      33.013  16.393  25.731  1.00  0.00     0.062 C 
ENDBRANCH  14  16
ENDBRANCH   9  14
BRANCH  13  26
ATOM     26  O   UNL A   1      34.270  24.700  22.485  1.00  0.00    -0.507 OA
ATOM     27  H   UNL A   1      34.156  25.586  22.201  1.00  0.00     0.293 HD
ENDBRANCH  13  26
ENDBRANCH   5   8
ENDBRANCH   3   4
ENDBRANCH   2   3
ENDBRANCH   1   2
BRANCH   1  28
ATOM     28  C   UNL A   1      31.954  30.360  26.282  1.00  0.00     0.002 C 
BRANCH  28  29
ATOM     29  C   UNL A   1      31.641  31.798  26.695  1.00  0.00     0.021 C 
BRANCH  29  30
ATOM     30  C   UNL A   1      32.790  32.594  27.307  1.00  0.00     0.116 C 
BRANCH  30  31
ATOM     31  N   UNL A   1      32.427  33.958  27.654  1.00  0.00    -0.352 N 
ATOM     32  C   UNL A   1      33.002  34.822  28.555  1.00  0.00     0.251 C 
ATOM     33  H   UNL A   1      31.650  34.318  27.169  1.00  0.00     0.163 HD
ATOM     34  O   UNL A   1      32.478  35.909  28.786  1.00  0.00    -0.269 OA
BRANCH  32  35
ATOM     35  C   UNL A   1      34.230  34.435  29.284  1.00  0.00     0.039 A 
ATOM     36  C   UNL A   1      34.104  33.889  30.566  1.00  0.00     0.014 A 
ATOM     37  C   UNL A   1      35.496  34.593  28.713  1.00  0.00     0.014 A 
ATOM     38  C   UNL A   1      35.236  33.410  31.232  1.00  0.00     0.010 A 
ATOM     39  C   UNL A   1      36.615  34.061  29.352  1.00  0.00     0.010 A 
ATOM     40  C   UNL A   1      36.492  33.443  30.607  1.00  0.00    -0.014 A 
BRANCH  40  41
ATOM     41  C   UNL A   1      37.674  32.776  31.214  1.00  0.00     0.031 A 
ATOM     42  C   UNL A   1      38.322  31.601  30.538  1.00  0.00     0.074 A 
ATOM     43  C   UNL A   1      38.101  33.172  32.430  1.00  0.00     0.049 A 
ATOM     44  N   UNL A   1      39.281  30.824  30.974  1.00  0.00    -0.248 NA
ATOM     45  C   UNL A   1      37.811  31.238  29.207  1.00  0.00     0.031 C 
ATOM     46  C   UNL A   1      37.526  34.271  33.211  1.00  0.00     0.029 A 
ATOM     47  N   UNL A   1      39.098  32.681  33.237  1.00  0.00    -0.354 N 
ATOM     48  C   UNL A   1      39.476  29.871  29.983  1.00  0.00     0.074 A 
ATOM     49  C   UNL A   1      38.514  30.146  28.937  1.00  0.00     0.031 C 
ATOM     50  C   UNL A   1      38.178  34.369  34.380  1.00  0.00     0.029 A 
ATOM     51  C   UNL A   1      39.183  33.314  34.455  1.00  0.00     0.049 A 
ATOM     52  H   UNL A   1      39.694  31.945  32.969  1.00  0.00     0.167 HD
ATOM     53  C   UNL A   1      40.384  28.866  29.947  1.00  0.00     0.037 A 
ATOM     54  C   UNL A   1      39.962  33.058  35.524  1.00  0.00     0.037 A 
ATOM     55  C   UNL A   1      41.356  28.612  30.978  1.00  0.00     0.049 A 
ATOM     56  C   UNL A   1      40.943  31.920  35.464  1.00  0.00     0.074 A 
ATOM     57  C   UNL A   1      42.378  27.678  30.985  1.00  0.00     0.029 A 
ATOM     58  N   UNL A   1      41.419  29.283  32.190  1.00  0.00    -0.354 N 
ATOM     59  N   UNL A   1      41.179  31.086  34.482  1.00  0.00    -0.248 NA
ATOM     60  C   UNL A   1      41.761  31.684  36.663  1.00  0.00     0.031 C 
ATOM     61  C   UNL A   1      43.020  27.743  32.225  1.00  0.00     0.029 A 
ATOM     62  C   UNL A   1      42.433  28.752  32.970  1.00  0.00     0.049 A 
ATOM     63  H   UNL A   1      40.830  30.026  32.456  1.00  0.00     0.167 HD
ATOM     64  C   UNL A   1      42.181  30.238  34.936  1.00  0.00     0.074 A 
ATOM     65  C   UNL A   1      42.524  30.672  36.274  1.00  0.00     0.031 C 
ATOM     66  C   UNL A   1      42.762  29.190  34.302  1.00  0.00     0.037 A 
BRANCH  53  67
ATOM     67  C   UNL A   1      40.374  27.953  28.756  1.00  0.00     0.057 A 
ATOM     68  C   UNL A   1      41.122  28.229  27.605  1.00  0.00     0.134 A 
ATOM     69  C   UNL A   1      39.667  26.744  28.793  1.00  0.00     0.134 A 
ATOM     70  F   UNL A   1      41.816  29.372  27.503  1.00  0.00    -0.206 F 
ATOM     71  C   UNL A   1      41.152  27.344  26.525  1.00  0.00     0.040 A 
ATOM     72  C   UNL A   1      39.710  25.839  27.731  1.00  0.00     0.040 A 
ATOM     73  F   UNL A   1      38.938  26.413  29.870  1.00  0.00    -0.206 F 
ATOM     74  C   UNL A   1      40.453  26.140  26.591  1.00  0.00     0.006 A 
ENDBRANCH  53  67
BRANCH  54  75
ATOM     75  C   UNL A   1      39.829  33.879  36.755  1.00  0.00     0.057 A 
ATOM     76  C   UNL A   1      38.946  33.514  37.779  1.00  0.00     0.134 A 
ATOM     77  C   UNL A   1      40.563  35.058  36.929  1.00  0.00     0.134 A 
ATOM     78  F   UNL A   1      38.198  32.407  37.661  1.00  0.00    -0.206 F 
ATOM     79  C   UNL A   1      38.784  34.301  38.919  1.00  0.00     0.040 A 
ATOM     80  C   UNL A   1      40.432  35.840  38.078  1.00  0.00     0.040 A 
ATOM     81  F   UNL A   1      41.430  35.462  35.988  1.00  0.00    -0.206 F 
ATOM     82  C   UNL A   1      39.533  35.467  39.073  1.00  0.00     0.006 A 
ENDBRANCH  54  75
BRANCH  66  83
ATOM     83  C   UNL A   1      43.832  28.443  35.041  1.00  0.00     0.057 A 
ATOM     84  C   UNL A   1      43.535  27.324  35.830  1.00  0.00     0.134 A 
ATOM     85  C   UNL A   1      45.178  28.809  34.917  1.00  0.00     0.134 A 
ATOM     86  F   UNL A   1      42.264  26.932  36.002  1.00  0.00    -0.206 F 
ATOM     87  C   UNL A   1      44.538  26.602  36.477  1.00  0.00     0.040 A 
ATOM     88  C   UNL A   1      46.192  28.079  35.539  1.00  0.00     0.040 A 
ATOM     89  F   UNL A   1      45.530  29.866  34.171  1.00  0.00    -0.206 F 
ATOM     90  C   UNL A   1      45.873  26.974  36.324  1.00  0.00     0.006 A 
ENDBRANCH  66  83
ENDBRANCH  40  41
ENDBRANCH  32  35
ENDBRANCH  30  31
ENDBRANCH  29  30
ENDBRANCH  28  29
ENDBRANCH   1  28
TORSDOF 16
ENDMDL
MODEL 2
REMARK VINA RESULT:     -12.2      3.902      7.634
REMARK SMILES C/C(Nc1ccc(C(=O)NCCCCCCNC(=O)c2ccc(-c3c4nc(c(-c5c(F)cccc5F)c5ccc([nH]5)c(-c5c(F)cccc5F)c5nc(c(-c6c(F)cccc6F)c6ccc3[nH]6)C=C5)C=C4)cc2)c(O)c1)=C1/C(=O)O[C@H](C)C1=O
REMARK SMILES IDX 13 1 12 2 11 3 10 4 8 5 9 6 7 8 4 9 5 10 76 11 6 12 74 13
REMARK SMILES IDX 3 14 2 16 1 17 77 18 78 19 83 20 79 21 80 22 81 23 84 24
REMARK SMILES IDX 82 25 75 26 14 28 15 29 16 30 17 31 18 32 19 34 20 35 21 36
REMARK SMILES IDX 73 37 22 38 72 39 23 40 24 41 25 42 66 43 26 44 71 45 65 46
REMARK SMILES IDX 67 47 27 48 70 49 64 50 63 51 28 53 54 54 37 55 53 56 38 57
REMARK SMILES IDX 41 58 52 59 68 60 39 61 40 62 51 64 69 65 42 66 29 67 30 68
REMARK SMILES IDX 35 69 31 70 32 71 34 72 36 73 33 74 55 75 56 76 61 77 57 78
REMARK SMILES IDX 58 79 60 80 62 81 59 82 43 83 44 84 49 85 45 86 46 87 48 88
REMARK SMILES IDX 50 89 47 90
REMARK H PARENT 10 7 3 15 75 27 17 33 67 52 41 63
REMARK Flexibility Score: inf
ROOT
ATOM      1  C   UNL A   1      31.238  26.646  26.306  1.00  0.00     0.002 C 
ENDROOT
BRANCH   1   2
ATOM      2  C   UNL A   1      30.243  26.602  25.142  1.00  0.00     0.021 C 
BRANCH   2   3
ATOM      3  C   UNL A   1      30.804  26.274  23.759  1.00  0.00     0.116 C 
BRANCH   3   4
ATOM      4  N   UNL A   1      31.921  27.103  23.336  1.00  0.00    -0.352 N 
ATOM      5  C   UNL A   1      33.270  26.826  23.272  1.00  0.00     0.255 C 
ATOM      6  O   UNL A   1      34.028  27.706  22.866  1.00  0.00    -0.269 OA
ATOM      7  H   UNL A   1      31.672  28.011  23.046  1.00  0.00     0.163 HD
BRANCH   5   8
ATOM      8  C   UNL A   1      33.845  25.534  23.735  1.00  0.00     0.081 A 
ATOM      9  C   UNL A   1      34.541  23.096  24.982  1.00  0.00     0.042 A 
ATOM     10  C   UNL A   1      34.783  24.312  25.621  1.00  0.00     0.027 A 
ATOM     11  C   UNL A   1      34.140  23.132  23.640  1.00  0.00     0.073 A 
ATOM     12  C   UNL A   1      34.406  25.520  25.019  1.00  0.00     0.020 A 
ATOM     13  C   UNL A   1      33.852  24.344  23.008  1.00  0.00     0.130 A 
BRANCH   9  14
ATOM     14  N   UNL A   1      34.580  21.853  25.637  1.00  0.00    -0.358 N 
ATOM     15  H   UNL A   1      34.402  21.900  26.604  1.00  0.00     0.166 HD
BRANCH  14  16
ATOM     16  C   UNL A   1      34.824  20.569  25.160  1.00  0.00     0.030 C 
ATOM     17  C   UNL A   1      36.314  20.282  25.010  1.00  0.00     0.065 C 
ATOM     18  C   UNL A   1      33.943  19.613  24.778  1.00  0.00     0.125 C 
ATOM     19  C   UNL A   1      32.471  19.651  24.661  1.00  0.00     0.344 C 
ATOM     20  C   UNL A   1      34.302  18.212  24.484  1.00  0.00     0.212 C 
ATOM     21  O   UNL A   1      31.752  20.613  24.442  1.00  0.00    -0.246 OA
ATOM     22  O   UNL A   1      32.009  18.365  24.730  1.00  0.00    -0.451 OA
ATOM     23  C   UNL A   1      33.060  17.387  24.613  1.00  0.00     0.245 C 
ATOM     24  O   UNL A   1      35.409  17.774  24.216  1.00  0.00    -0.290 OA
ATOM     25  C   UNL A   1      33.114  16.512  25.850  1.00  0.00     0.062 C 
ENDBRANCH  14  16
ENDBRANCH   9  14
BRANCH  13  26
ATOM     26  O   UNL A   1      33.611  24.272  21.665  1.00  0.00    -0.507 OA
ATOM     27  H   UNL A   1      33.391  25.046  21.186  1.00  0.00     0.293 HD
ENDBRANCH  13  26
ENDBRANCH   5   8
ENDBRANCH   3   4
ENDBRANCH   2   3
ENDBRANCH   1   2
BRANCH   1  28
ATOM     28  C   UNL A   1      31.542  28.013  26.922  1.00  0.00     0.002 C 
BRANCH  28  29
ATOM     29  C   UNL A   1      32.910  28.189  27.582  1.00  0.00     0.021 C 
BRANCH  29  30
ATOM     30  C   UNL A   1      33.817  29.263  26.988  1.00  0.00     0.116 C 
BRANCH  30  31
ATOM     31  N   UNL A   1      33.837  30.493  27.761  1.00  0.00    -0.352 N 
ATOM     32  C   UNL A   1      34.813  31.003  28.584  1.00  0.00     0.251 C 
ATOM     33  H   UNL A   1      33.027  31.047  27.684  1.00  0.00     0.163 HD
ATOM     34  O   UNL A   1      34.597  32.017  29.241  1.00  0.00    -0.269 OA
BRANCH  32  35
ATOM     35  C   UNL A   1      36.115  30.312  28.716  1.00  0.00     0.039 A 
ATOM     36  C   UNL A   1      36.978  30.291  27.616  1.00  0.00     0.014 A 
ATOM     37  C   UNL A   1      36.495  29.699  29.914  1.00  0.00     0.014 A 
ATOM     38  C   UNL A   1      38.258  29.745  27.745  1.00  0.00     0.010 A 
ATOM     39  C   UNL A   1      37.793  29.209  30.060  1.00  0.00     0.010 A 
ATOM     40  C   UNL A   1      38.694  29.250  28.984  1.00  0.00    -0.014 A 
BRANCH  40  41
ATOM     41  C   UNL A   1      40.107  28.836  29.196  1.00  0.00     0.031 A 
ATOM     42  C   UNL A   1      41.126  29.819  29.697  1.00  0.00     0.074 A 
ATOM     43  C   UNL A   1      40.488  27.593  28.839  1.00  0.00     0.049 A 
ATOM     44  N   UNL A   1      42.420  29.671  29.829  1.00  0.00    -0.248 NA
ATOM     45  C   UNL A   1      40.631  31.150  30.080  1.00  0.00     0.031 C 
ATOM     46  C   UNL A   1      39.602  26.560  28.297  1.00  0.00     0.029 A 
ATOM     47  N   UNL A   1      41.724  26.994  28.852  1.00  0.00    -0.354 N 
ATOM     48  C   UNL A   1      42.896  30.890  30.291  1.00  0.00     0.074 A 
ATOM     49  C   UNL A   1      41.758  31.780  30.386  1.00  0.00     0.031 C 
ATOM     50  C   UNL A   1      40.321  25.459  28.029  1.00  0.00     0.029 A 
ATOM     51  C   UNL A   1      41.724  25.719  28.335  1.00  0.00     0.049 A 
ATOM     52  H   UNL A   1      42.533  27.435  29.198  1.00  0.00     0.167 HD
ATOM     53  C   UNL A   1      44.166  31.231  30.616  1.00  0.00     0.037 A 
ATOM     54  C   UNL A   1      42.741  24.867  28.104  1.00  0.00     0.037 A 
ATOM     55  C   UNL A   1      45.291  30.335  30.545  1.00  0.00     0.049 A 
ATOM     56  C   UNL A   1      44.143  25.282  28.452  1.00  0.00     0.074 A 
ATOM     57  C   UNL A   1      46.597  30.562  30.945  1.00  0.00     0.029 A 
ATOM     58  N   UNL A   1      45.248  29.050  30.029  1.00  0.00    -0.354 N 
ATOM     59  N   UNL A   1      44.564  26.406  28.976  1.00  0.00    -0.248 NA
ATOM     60  C   UNL A   1      45.213  24.313  28.173  1.00  0.00     0.031 C 
ATOM     61  C   UNL A   1      47.356  29.436  30.615  1.00  0.00     0.029 A 
ATOM     62  C   UNL A   1      46.514  28.488  30.057  1.00  0.00     0.049 A 
ATOM     63  H   UNL A   1      44.438  28.603  29.691  1.00  0.00     0.167 HD
ATOM     64  C   UNL A   1      45.941  26.274  29.103  1.00  0.00     0.074 A 
ATOM     65  C   UNL A   1      46.282  24.953  28.623  1.00  0.00     0.031 C 
ATOM     66  C   UNL A   1      46.842  27.172  29.572  1.00  0.00     0.037 A 
BRANCH  53  67
ATOM     67  C   UNL A   1      44.420  32.637  31.078  1.00  0.00     0.057 A 
ATOM     68  C   UNL A   1      44.403  32.986  32.434  1.00  0.00     0.134 A 
ATOM     69  C   UNL A   1      44.761  33.637  30.157  1.00  0.00     0.134 A 
ATOM     70  F   UNL A   1      44.078  32.077  33.365  1.00  0.00    -0.206 F 
ATOM     71  C   UNL A   1      44.699  34.283  32.856  1.00  0.00     0.040 A 
ATOM     72  C   UNL A   1      45.084  34.930  30.569  1.00  0.00     0.040 A 
ATOM     73  F   UNL A   1      44.805  33.367  28.844  1.00  0.00    -0.206 F 
ATOM     74  C   UNL A   1      45.050  35.257  31.924  1.00  0.00     0.006 A 
ENDBRANCH  53  67
BRANCH  54  75
ATOM     75  C   UNL A   1      42.475  23.541  27.488  1.00  0.00     0.057 A 
ATOM     76  C   UNL A   1      42.201  22.416  28.275  1.00  0.00     0.134 A 
ATOM     77  C   UNL A   1      42.508  23.362  26.099  1.00  0.00     0.134 A 
ATOM     78  F   UNL A   1      42.177  22.519  29.612  1.00  0.00    -0.206 F 
ATOM     79  C   UNL A   1      41.992  21.159  27.706  1.00  0.00     0.040 A 
ATOM     80  C   UNL A   1      42.273  22.116  25.516  1.00  0.00     0.040 A 
ATOM     81  F   UNL A   1      42.761  24.400  25.288  1.00  0.00    -0.206 F 
ATOM     82  C   UNL A   1      42.022  21.008  26.321  1.00  0.00     0.006 A 
ENDBRANCH  54  75
BRANCH  66  83
ATOM     83  C   UNL A   1      48.282  26.756  29.595  1.00  0.00     0.057 A 
ATOM     84  C   UNL A   1      48.821  26.037  30.670  1.00  0.00     0.134 A 
ATOM     85  C   UNL A   1      49.125  27.024  28.509  1.00  0.00     0.134 A 
ATOM     86  F   UNL A   1      48.071  25.761  31.748  1.00  0.00    -0.206 F 
ATOM     87  C   UNL A   1      50.150  25.609  30.667  1.00  0.00     0.040 A 
ATOM     88  C   UNL A   1      50.447  26.580  28.484  1.00  0.00     0.040 A 
ATOM     89  F   UNL A   1      48.669  27.702  27.445  1.00  0.00    -0.206 F 
ATOM     90  C   UNL A   1      50.964  25.872  29.567  1.00  0.00     0.006 A 
ENDBRANCH  66  83
ENDBRANCH  40  41
ENDBRANCH  32  35
ENDBRANCH  30  31
ENDBRANCH  29  30
ENDBRANCH  28  29
ENDBRANCH   1  28
TORSDOF 16
ENDMDL
MODEL 3
REMARK VINA RESULT:     -12.2      4.951     10.360
REMARK SMILES C/C(Nc1ccc(C(=O)NCCCCCCNC(=O)c2ccc(-c3c4nc(c(-c5c(F)cccc5F)c5ccc([nH]5)c(-c5c(F)cccc5F)c5nc(c(-c6c(F)cccc6F)c6ccc3[nH]6)C=C5)C=C4)cc2)c(O)c1)=C1/C(=O)O[C@H](C)C1=O
REMARK SMILES IDX 13 1 12 2 11 3 10 4 8 5 9 6 7 8 4 9 5 10 76 11 6 12 74 13
REMARK SMILES IDX 3 14 2 16 1 17 77 18 78 19 83 20 79 21 80 22 81 23 84 24
REMARK SMILES IDX 82 25 75 26 14 28 15 29 16 30 17 31 18 32 19 34 20 35 21 36
REMARK SMILES IDX 73 37 22 38 72 39 23 40 24 41 25 42 66 43 26 44 71 45 65 46
REMARK SMILES IDX 67 47 27 48 70 49 64 50 63 51 28 53 54 54 37 55 53 56 38 57
REMARK SMILES IDX 41 58 52 59 68 60 39 61 40 62 51 64 69 65 42 66 29 67 30 68
REMARK SMILES IDX 35 69 31 70 32 71 34 72 36 73 33 74 55 75 56 76 61 77 57 78
REMARK SMILES IDX 58 79 60 80 62 81 59 82 43 83 44 84 49 85 45 86 46 87 48 88
REMARK SMILES IDX 50 89 47 90
REMARK H PARENT 10 7 3 15 75 27 17 33 67 52 41 63
REMARK Flexibility Score: inf
ROOT
ATOM      1  C   UNL A   1      35.789  22.119  24.341  1.00  0.00     0.002 C 
ENDROOT
BRANCH   1   2
ATOM      2  C   UNL A   1      35.255  22.645  25.678  1.00  0.00     0.021 C 
BRANCH   2   3
ATOM      3  C   UNL A   1      34.622  21.625  26.623  1.00  0.00     0.116 C 
BRANCH   3   4
ATOM      4  N   UNL A   1      33.758  20.647  25.984  1.00  0.00    -0.352 N 
ATOM      5  C   UNL A   1      32.514  20.789  25.405  1.00  0.00     0.255 C 
ATOM      6  O   UNL A   1      31.981  19.795  24.916  1.00  0.00    -0.269 OA
ATOM      7  H   UNL A   1      34.121  19.731  25.959  1.00  0.00     0.163 HD
BRANCH   5   8
ATOM      8  C   UNL A   1      31.773  22.079  25.409  1.00  0.00     0.081 A 
ATOM      9  C   UNL A   1      30.678  24.648  25.840  1.00  0.00     0.042 A 
ATOM     10  C   UNL A   1      30.395  23.602  26.718  1.00  0.00     0.027 A 
ATOM     11  C   UNL A   1      31.342  24.337  24.647  1.00  0.00     0.073 A 
ATOM     12  C   UNL A   1      30.965  22.337  26.525  1.00  0.00     0.020 A 
ATOM     13  C   UNL A   1      31.832  23.051  24.410  1.00  0.00     0.130 A 
BRANCH   9  14
ATOM     14  N   UNL A   1      30.425  25.999  26.134  1.00  0.00    -0.358 N 
ATOM     15  H   UNL A   1      29.559  26.162  26.576  1.00  0.00     0.166 HD
BRANCH  14  16
ATOM     16  C   UNL A   1      31.180  27.146  25.914  1.00  0.00     0.030 C 
ATOM     17  C   UNL A   1      31.837  27.658  27.192  1.00  0.00     0.065 C 
ATOM     18  C   UNL A   1      31.348  27.859  24.775  1.00  0.00     0.125 C 
ATOM     19  C   UNL A   1      30.727  27.706  23.443  1.00  0.00     0.344 C 
ATOM     20  C   UNL A   1      32.337  28.941  24.600  1.00  0.00     0.212 C 
ATOM     21  O   UNL A   1      29.638  27.232  23.164  1.00  0.00    -0.246 OA
ATOM     22  O   UNL A   1      31.547  28.303  22.524  1.00  0.00    -0.451 OA
ATOM     23  C   UNL A   1      32.574  29.110  23.133  1.00  0.00     0.245 C 
ATOM     24  O   UNL A   1      32.899  29.576  25.479  1.00  0.00    -0.290 OA
ATOM     25  C   UNL A   1      33.950  28.606  22.742  1.00  0.00     0.062 C 
ENDBRANCH  14  16
ENDBRANCH   9  14
BRANCH  13  26
ATOM     26  O   UNL A   1      32.332  22.825  23.159  1.00  0.00    -0.507 OA
ATOM     27  H   UNL A   1      32.749  22.011  22.960  1.00  0.00     0.293 HD
ENDBRANCH  13  26
ENDBRANCH   5   8
ENDBRANCH   3   4
ENDBRANCH   2   3
ENDBRANCH   1   2
BRANCH   1  28
ATOM     28  C   UNL A   1      37.280  21.782  24.261  1.00  0.00     0.002 C 
BRANCH  28  29
ATOM     29  C   UNL A   1      37.738  20.494  24.946  1.00  0.00     0.021 C 
BRANCH  29  30
ATOM     30  C   UNL A   1      38.906  20.622  25.920  1.00  0.00     0.116 C 
BRANCH  30  31
ATOM     31  N   UNL A   1      39.840  19.511  25.849  1.00  0.00    -0.352 N 
ATOM     32  C   UNL A   1      41.198  19.484  26.066  1.00  0.00     0.251 C 
ATOM     33  H   UNL A   1      39.440  18.645  25.610  1.00  0.00     0.163 HD
ATOM     34  O   UNL A   1      41.835  18.457  25.851  1.00  0.00    -0.269 OA
BRANCH  32  35
ATOM     35  C   UNL A   1      41.907  20.702  26.518  1.00  0.00     0.039 A 
ATOM     36  C   UNL A   1      42.431  21.569  25.554  1.00  0.00     0.014 A 
ATOM     37  C   UNL A   1      42.049  20.999  27.877  1.00  0.00     0.014 A 
ATOM     38  C   UNL A   1      43.006  22.780  25.948  1.00  0.00     0.010 A 
ATOM     39  C   UNL A   1      42.568  22.234  28.265  1.00  0.00     0.010 A 
ATOM     40  C   UNL A   1      43.029  23.146  27.302  1.00  0.00    -0.014 A 
BRANCH  40  41
ATOM     41  C   UNL A   1      43.464  24.503  27.729  1.00  0.00     0.031 A 
ATOM     42  C   UNL A   1      42.453  25.558  28.076  1.00  0.00     0.074 A 
ATOM     43  C   UNL A   1      44.777  24.810  27.706  1.00  0.00     0.049 A 
ATOM     44  N   UNL A   1      42.643  26.823  28.353  1.00  0.00    -0.248 NA
ATOM     45  C   UNL A   1      41.042  25.143  28.094  1.00  0.00     0.031 C 
ATOM     46  C   UNL A   1      45.855  23.886  27.342  1.00  0.00     0.029 A 
ATOM     47  N   UNL A   1      45.429  25.990  27.967  1.00  0.00    -0.354 N 
ATOM     48  C   UNL A   1      41.379  27.360  28.559  1.00  0.00     0.074 A 
ATOM     49  C   UNL A   1      40.426  26.291  28.344  1.00  0.00     0.031 C 
ATOM     50  C   UNL A   1      47.029  24.534  27.402  1.00  0.00     0.029 A 
ATOM     51  C   UNL A   1      46.787  25.927  27.762  1.00  0.00     0.049 A 
ATOM     52  H   UNL A   1      44.967  26.805  28.271  1.00  0.00     0.167 HD
ATOM     53  C   UNL A   1      41.047  28.626  28.907  1.00  0.00     0.037 A 
ATOM     54  C   UNL A   1      47.730  26.887  27.826  1.00  0.00     0.037 A 
ATOM     55  C   UNL A   1      42.000  29.678  29.146  1.00  0.00     0.049 A 
ATOM     56  C   UNL A   1      47.328  28.289  28.191  1.00  0.00     0.074 A 
ATOM     57  C   UNL A   1      41.763  30.966  29.596  1.00  0.00     0.029 A 
ATOM     58  N   UNL A   1      43.367  29.572  28.941  1.00  0.00    -0.354 N 
ATOM     59  N   UNL A   1      46.138  28.759  28.474  1.00  0.00    -0.248 NA
ATOM     60  C   UNL A   1      48.398  29.296  28.239  1.00  0.00     0.031 C 
ATOM     61  C   UNL A   1      42.979  31.656  29.605  1.00  0.00     0.029 A 
ATOM     62  C   UNL A   1      43.980  30.784  29.210  1.00  0.00     0.049 A 
ATOM     63  H   UNL A   1      43.831  28.755  28.646  1.00  0.00     0.167 HD
ATOM     64  C   UNL A   1      46.318  30.108  28.750  1.00  0.00     0.074 A 
ATOM     65  C   UNL A   1      47.735  30.378  28.621  1.00  0.00     0.031 C 
ATOM     66  C   UNL A   1      45.391  31.041  29.075  1.00  0.00     0.037 A 
BRANCH  53  67
ATOM     67  C   UNL A   1      39.590  28.956  29.050  1.00  0.00     0.057 A 
ATOM     68  C   UNL A   1      38.803  29.324  27.952  1.00  0.00     0.134 A 
ATOM     69  C   UNL A   1      38.950  28.828  30.291  1.00  0.00     0.134 A 
ATOM     70  F   UNL A   1      39.355  29.470  26.739  1.00  0.00    -0.206 F 
ATOM     71  C   UNL A   1      37.435  29.571  28.087  1.00  0.00     0.040 A 
ATOM     72  C   UNL A   1      37.580  29.047  30.432  1.00  0.00     0.040 A 
ATOM     73  F   UNL A   1      39.645  28.469  31.381  1.00  0.00    -0.206 F 
ATOM     74  C   UNL A   1      36.818  29.423  29.327  1.00  0.00     0.006 A 
ENDBRANCH  53  67
BRANCH  54  75
ATOM     75  C   UNL A   1      49.145  26.562  27.513  1.00  0.00     0.057 A 
ATOM     76  C   UNL A   1      49.623  26.590  26.198  1.00  0.00     0.134 A 
ATOM     77  C   UNL A   1      50.050  26.195  28.518  1.00  0.00     0.134 A 
ATOM     78  F   UNL A   1      48.800  26.912  25.189  1.00  0.00    -0.206 F 
ATOM     79  C   UNL A   1      50.940  26.246  25.891  1.00  0.00     0.040 A 
ATOM     80  C   UNL A   1      51.377  25.876  28.228  1.00  0.00     0.040 A 
ATOM     81  F   UNL A   1      49.657  26.153  29.800  1.00  0.00    -0.206 F 
ATOM     82  C   UNL A   1      51.823  25.892  26.909  1.00  0.00     0.006 A 
ENDBRANCH  54  75
BRANCH  66  83
ATOM     83  C   UNL A   1      45.875  32.439  29.322  1.00  0.00     0.057 A 
ATOM     84  C   UNL A   1      45.903  33.397  28.300  1.00  0.00     0.134 A 
ATOM     85  C   UNL A   1      46.259  32.849  30.605  1.00  0.00     0.134 A 
ATOM     86  F   UNL A   1      45.562  33.065  27.047  1.00  0.00    -0.206 F 
ATOM     87  C   UNL A   1      46.309  34.710  28.545  1.00  0.00     0.040 A 
ATOM     88  C   UNL A   1      46.642  34.164  30.866  1.00  0.00     0.040 A 
ATOM     89  F   UNL A   1      46.248  31.981  31.628  1.00  0.00    -0.206 F 
ATOM     90  C   UNL A   1      46.671  35.099  29.834  1.00  0.00     0.006 A 
ENDBRANCH  66  83
ENDBRANCH  40  41
ENDBRANCH  32  35
ENDBRANCH  30  31
ENDBRANCH  29  30
ENDBRANCH  28  29
ENDBRANCH   1  28
TORSDOF 16
ENDMDL
