MODEL 1
REMARK VINA RESULT:     -11.0      0.000      0.000
REMARK SMILES [NH3+][C@]1(C(=O)NCCCCCCNC(=O)c2ccc(-c3c4nc(c(-c5c(F)cccc5F)c5ccc([nH]5)c(-c5c(F)cccc5F)c5nc(c(-c6c(F)cccc6F)c6ccc3[nH]6)C=C5)C=C4)cc2)CC[C@@H](Sc2ccc(Cl)c(Cl)c2)C1
REMARK SMILES IDX 8 1 7 2 6 3 5 4 3 5 4 6 2 8 69 9 81 10 70 11 71 12 1 13
REMARK SMILES IDX 72 17 73 18 74 19 80 20 75 21 78 22 76 23 79 24 77 25 9 26
REMARK SMILES IDX 10 27 11 28 12 29 13 30 14 32 15 33 16 34 68 35 17 36 67 37
REMARK SMILES IDX 18 38 19 39 20 40 61 41 21 42 66 43 60 44 62 45 22 46 65 47
REMARK SMILES IDX 59 48 58 49 23 51 49 52 32 53 48 54 33 55 36 56 47 57 63 58
REMARK SMILES IDX 34 59 35 60 46 62 64 63 37 64 24 65 25 66 30 67 26 68 27 69
REMARK SMILES IDX 29 70 31 71 28 72 50 73 51 74 56 75 52 76 53 77 55 78 57 79
REMARK SMILES IDX 54 80 38 81 39 82 44 83 40 84 41 85 43 86 45 87 42 88
REMARK H PARENT 5 7 1 14 1 15 1 16 12 31 62 50 36 61
REMARK Flexibility Score: inf
ROOT
ATOM      1  C   UNL A   1      32.256  29.164  26.444  1.00  0.00     0.002 C 
ENDROOT
BRANCH   1   2
ATOM      2  C   UNL A   1      31.521  27.881  26.830  1.00  0.00     0.021 C 
BRANCH   2   3
ATOM      3  C   UNL A   1      32.180  26.568  26.410  1.00  0.00     0.116 C 
BRANCH   3   4
ATOM      4  N   UNL A   1      31.388  25.429  26.841  1.00  0.00    -0.351 N 
ATOM      5  C   UNL A   1      31.500  24.084  26.775  1.00  0.00     0.281 C 
ATOM      6  O   UNL A   1      30.503  23.471  27.197  1.00  0.00    -0.268 OA
ATOM      7  H   UNL A   1      30.561  25.707  27.296  1.00  0.00     0.163 HD
BRANCH   5   8
ATOM      8  C   UNL A   1      32.705  23.232  26.236  1.00  0.00     0.175 C 
ATOM      9  C   UNL A   1      32.181  21.905  25.649  1.00  0.00     0.080 C 
ATOM     10  C   UNL A   1      33.702  23.791  25.212  1.00  0.00     0.094 C 
ATOM     11  C   UNL A   1      33.126  21.521  24.519  1.00  0.00     0.022 C 
ATOM     12  C   UNL A   1      33.729  22.824  24.015  1.00  0.00     0.058 C 
BRANCH   8  13
ATOM     13  N   UNL A   1      33.516  22.877  27.443  1.00  0.00    -0.345 N 
ATOM     14  H   UNL A   1      33.493  21.867  27.583  1.00  0.00     0.345 HD
ATOM     15  H   UNL A   1      33.127  23.343  28.263  1.00  0.00     0.345 HD
ATOM     16  H   UNL A   1      34.481  23.180  27.305  1.00  0.00     0.345 HD
ENDBRANCH   8  13
BRANCH  12  17
ATOM     17  S   UNL A   1      33.139  23.600  22.446  1.00  0.00    -0.122 SA
BRANCH  17  18
ATOM     18  C   UNL A   1      32.151  25.018  22.871  1.00  0.00     0.009 A 
ATOM     19  C   UNL A   1      30.821  24.819  23.256  1.00  0.00     0.017 A 
ATOM     20  C   UNL A   1      32.585  26.322  22.653  1.00  0.00     0.037 A 
ATOM     21  C   UNL A   1      29.953  25.906  23.421  1.00  0.00     0.023 A 
ATOM     22  C   UNL A   1      31.732  27.417  22.829  1.00  0.00     0.060 A 
ATOM     23  C   UNL A   1      30.405  27.208  23.203  1.00  0.00     0.059 A 
ATOM     24  Cl  UNL A   1      32.374  28.993  22.531  1.00  0.00    -0.083 Cl
ATOM     25  Cl  UNL A   1      29.275  28.502  23.370  1.00  0.00    -0.083 Cl
ENDBRANCH  17  18
ENDBRANCH  12  17
ENDBRANCH   5   8
ENDBRANCH   3   4
ENDBRANCH   2   3
ENDBRANCH   1   2
BRANCH   1  26
ATOM     26  C   UNL A   1      31.420  30.229  25.729  1.00  0.00     0.002 C 
BRANCH  26  27
ATOM     27  C   UNL A   1      31.317  31.595  26.415  1.00  0.00     0.021 C 
BRANCH  27  28
ATOM     28  C   UNL A   1      32.628  32.203  26.913  1.00  0.00     0.116 C 
BRANCH  28  29
ATOM     29  N   UNL A   1      32.475  33.567  27.389  1.00  0.00    -0.352 N 
ATOM     30  C   UNL A   1      33.160  34.257  28.353  1.00  0.00     0.251 C 
ATOM     31  H   UNL A   1      31.759  34.079  26.948  1.00  0.00     0.163 HD
ATOM     32  O   UNL A   1      32.749  35.364  28.714  1.00  0.00    -0.269 OA
BRANCH  30  33
ATOM     33  C   UNL A   1      34.371  33.696  28.989  1.00  0.00     0.039 A 
ATOM     34  C   UNL A   1      34.212  32.711  29.970  1.00  0.00     0.014 A 
ATOM     35  C   UNL A   1      35.650  34.163  28.676  1.00  0.00     0.014 A 
ATOM     36  C   UNL A   1      35.333  32.155  30.590  1.00  0.00     0.010 A 
ATOM     37  C   UNL A   1      36.772  33.561  29.248  1.00  0.00     0.010 A 
ATOM     38  C   UNL A   1      36.625  32.554  30.212  1.00  0.00    -0.014 A 
BRANCH  38  39
ATOM     39  C   UNL A   1      37.826  31.922  30.819  1.00  0.00     0.031 A 
ATOM     40  C   UNL A   1      38.561  30.827  30.096  1.00  0.00     0.074 A 
ATOM     41  C   UNL A   1      38.229  32.300  32.047  1.00  0.00     0.049 A 
ATOM     42  N   UNL A   1      39.601  30.132  30.485  1.00  0.00    -0.248 NA
ATOM     43  C   UNL A   1      38.046  30.446  28.772  1.00  0.00     0.031 C 
ATOM     44  C   UNL A   1      37.580  33.321  32.872  1.00  0.00     0.029 A 
ATOM     45  N   UNL A   1      39.277  31.865  32.819  1.00  0.00    -0.354 N 
ATOM     46  C   UNL A   1      39.852  29.222  29.467  1.00  0.00     0.074 A 
ATOM     47  C   UNL A   1      38.832  29.425  28.459  1.00  0.00     0.031 C 
ATOM     48  C   UNL A   1      38.261  33.453  34.022  1.00  0.00     0.029 A 
ATOM     49  C   UNL A   1      39.371  32.506  34.031  1.00  0.00     0.049 A 
ATOM     50  H   UNL A   1      39.902  31.161  32.531  1.00  0.00     0.167 HD
ATOM     51  C   UNL A   1      40.851  28.312  29.370  1.00  0.00     0.037 A 
ATOM     52  C   UNL A   1      40.252  32.347  35.035  1.00  0.00     0.037 A 
ATOM     53  C   UNL A   1      41.887  28.132  30.354  1.00  0.00     0.049 A 
ATOM     54  C   UNL A   1      41.353  31.333  34.902  1.00  0.00     0.074 A 
ATOM     55  C   UNL A   1      42.986  27.292  30.305  1.00  0.00     0.029 A 
ATOM     56  N   UNL A   1      41.951  28.805  31.563  1.00  0.00    -0.354 N 
ATOM     57  N   UNL A   1      41.619  30.529  33.902  1.00  0.00    -0.248 NA
ATOM     58  C   UNL A   1      42.279  31.209  36.037  1.00  0.00     0.031 C 
ATOM     59  C   UNL A   1      43.694  27.427  31.505  1.00  0.00     0.029 A 
ATOM     60  C   UNL A   1      43.058  28.381  32.282  1.00  0.00     0.049 A 
ATOM     61  H   UNL A   1      41.306  29.484  31.868  1.00  0.00     0.167 HD
ATOM     62  C   UNL A   1      42.756  29.824  34.273  1.00  0.00     0.074 A 
ATOM     63  C   UNL A   1      43.136  30.303  35.587  1.00  0.00     0.031 C 
ATOM     64  C   UNL A   1      43.427  28.868  33.587  1.00  0.00     0.037 A 
BRANCH  51  65
ATOM     65  C   UNL A   1      40.870  27.435  28.153  1.00  0.00     0.057 A 
ATOM     66  C   UNL A   1      41.612  27.769  27.012  1.00  0.00     0.134 A 
ATOM     67  C   UNL A   1      40.162  26.226  28.132  1.00  0.00     0.134 A 
ATOM     68  F   UNL A   1      42.303  28.917  26.963  1.00  0.00    -0.206 F 
ATOM     69  C   UNL A   1      41.627  26.945  25.885  1.00  0.00     0.040 A 
ATOM     70  C   UNL A   1      40.190  25.383  27.020  1.00  0.00     0.040 A 
ATOM     71  F   UNL A   1      39.437  25.843  29.194  1.00  0.00    -0.206 F 
ATOM     72  C   UNL A   1      40.919  25.745  25.889  1.00  0.00     0.006 A 
ENDBRANCH  51  65
BRANCH  52  73
ATOM     73  C   UNL A   1      40.153  33.195  36.249  1.00  0.00     0.057 A 
ATOM     74  C   UNL A   1      39.310  32.836  37.307  1.00  0.00     0.134 A 
ATOM     75  C   UNL A   1      40.887  34.379  36.379  1.00  0.00     0.134 A 
ATOM     76  F   UNL A   1      38.567  31.722  37.229  1.00  0.00    -0.206 F 
ATOM     77  C   UNL A   1      39.190  33.631  38.447  1.00  0.00     0.040 A 
ATOM     78  C   UNL A   1      40.793  35.173  37.523  1.00  0.00     0.040 A 
ATOM     79  F   UNL A   1      41.716  34.774  35.401  1.00  0.00    -0.206 F 
ATOM     80  C   UNL A   1      39.937  34.802  38.558  1.00  0.00     0.006 A 
ENDBRANCH  52  73
BRANCH  64  81
ATOM     81  C   UNL A   1      44.656  28.300  34.229  1.00  0.00     0.057 A 
ATOM     82  C   UNL A   1      44.608  27.151  35.028  1.00  0.00     0.134 A 
ATOM     83  C   UNL A   1      45.907  28.897  34.028  1.00  0.00     0.134 A 
ATOM     84  F   UNL A   1      43.437  26.541  35.272  1.00  0.00    -0.206 F 
ATOM     85  C   UNL A   1      45.758  26.627  35.620  1.00  0.00     0.040 A 
ATOM     86  C   UNL A   1      47.067  28.368  34.596  1.00  0.00     0.040 A 
ATOM     87  F   UNL A   1      46.023  29.997  33.268  1.00  0.00    -0.206 F 
ATOM     88  C   UNL A   1      46.993  27.233  35.399  1.00  0.00     0.006 A 
ENDBRANCH  64  81
ENDBRANCH  38  39
ENDBRANCH  30  33
ENDBRANCH  28  29
ENDBRANCH  27  28
ENDBRANCH  26  27
ENDBRANCH   1  26
TORSDOF 16
ENDMDL
MODEL 2
REMARK VINA RESULT:     -11.0      1.614      2.633
REMARK SMILES [NH3+][C@]1(C(=O)NCCCCCCNC(=O)c2ccc(-c3c4nc(c(-c5c(F)cccc5F)c5ccc([nH]5)c(-c5c(F)cccc5F)c5nc(c(-c6c(F)cccc6F)c6ccc3[nH]6)C=C5)C=C4)cc2)CC[C@@H](Sc2ccc(Cl)c(Cl)c2)C1
REMARK SMILES IDX 8 1 7 2 6 3 5 4 3 5 4 6 2 8 69 9 81 10 70 11 71 12 1 13
REMARK SMILES IDX 72 17 73 18 74 19 80 20 75 21 78 22 76 23 79 24 77 25 9 26
REMARK SMILES IDX 10 27 11 28 12 29 13 30 14 32 15 33 16 34 68 35 17 36 67 37
REMARK SMILES IDX 18 38 19 39 20 40 61 41 21 42 66 43 60 44 62 45 22 46 65 47
REMARK SMILES IDX 59 48 58 49 23 51 49 52 32 53 48 54 33 55 36 56 47 57 63 58
REMARK SMILES IDX 34 59 35 60 46 62 64 63 37 64 24 65 25 66 30 67 26 68 27 69
REMARK SMILES IDX 29 70 31 71 28 72 50 73 51 74 56 75 52 76 53 77 55 78 57 79
REMARK SMILES IDX 54 80 38 81 39 82 44 83 40 84 41 85 43 86 45 87 42 88
REMARK H PARENT 5 7 1 14 1 15 1 16 12 31 62 50 36 61
REMARK Flexibility Score: inf
ROOT
ATOM      1  C   UNL A   1      32.621  29.841  26.494  1.00  0.00     0.002 C 
ENDROOT
BRANCH   1   2
ATOM      2  C   UNL A   1      32.209  28.574  27.243  1.00  0.00     0.021 C 
BRANCH   2   3
ATOM      3  C   UNL A   1      32.476  27.248  26.533  1.00  0.00     0.116 C 
BRANCH   3   4
ATOM      4  N   UNL A   1      31.350  26.343  26.684  1.00  0.00    -0.351 N 
ATOM      5  C   UNL A   1      30.304  25.953  25.921  1.00  0.00     0.281 C 
ATOM      6  O   UNL A   1      29.497  25.210  26.508  1.00  0.00    -0.268 OA
ATOM      7  H   UNL A   1      31.347  25.902  27.564  1.00  0.00     0.163 HD
BRANCH   5   8
ATOM      8  C   UNL A   1      29.996  26.326  24.426  1.00  0.00     0.175 C 
ATOM      9  C   UNL A   1      30.239  27.834  24.208  1.00  0.00     0.080 C 
ATOM     10  C   UNL A   1      30.676  25.608  23.253  1.00  0.00     0.094 C 
ATOM     11  C   UNL A   1      30.700  28.001  22.766  1.00  0.00     0.022 C 
ATOM     12  C   UNL A   1      31.348  26.680  22.378  1.00  0.00     0.058 C 
BRANCH   8  13
ATOM     13  N   UNL A   1      28.528  26.097  24.250  1.00  0.00    -0.345 N 
ATOM     14  H   UNL A   1      28.014  26.910  24.591  1.00  0.00     0.345 HD
ATOM     15  H   UNL A   1      28.247  25.271  24.778  1.00  0.00     0.345 HD
ATOM     16  H   UNL A   1      28.323  25.955  23.261  1.00  0.00     0.345 HD
ENDBRANCH   8  13
BRANCH  12  17
ATOM     17  S   UNL A   1      33.186  26.508  22.309  1.00  0.00    -0.122 SA
BRANCH  17  18
ATOM     18  C   UNL A   1      33.614  24.906  22.954  1.00  0.00     0.009 A 
ATOM     19  C   UNL A   1      33.275  23.770  22.211  1.00  0.00     0.017 A 
ATOM     20  C   UNL A   1      34.097  24.726  24.246  1.00  0.00     0.037 A 
ATOM     21  C   UNL A   1      33.424  22.487  22.754  1.00  0.00     0.023 A 
ATOM     22  C   UNL A   1      34.264  23.450  24.796  1.00  0.00     0.060 A 
ATOM     23  C   UNL A   1      33.914  22.324  24.051  1.00  0.00     0.059 A 
ATOM     24  Cl  UNL A   1      34.870  23.342  26.410  1.00  0.00    -0.083 Cl
ATOM     25  Cl  UNL A   1      34.023  20.723  24.685  1.00  0.00    -0.083 Cl
ENDBRANCH  17  18
ENDBRANCH  12  17
ENDBRANCH   5   8
ENDBRANCH   3   4
ENDBRANCH   2   3
ENDBRANCH   1   2
BRANCH   1  26
ATOM     26  C   UNL A   1      31.485  30.786  26.095  1.00  0.00     0.002 C 
BRANCH  26  27
ATOM     27  C   UNL A   1      31.388  32.106  26.868  1.00  0.00     0.021 C 
BRANCH  27  28
ATOM     28  C   UNL A   1      32.689  32.891  27.031  1.00  0.00     0.116 C 
BRANCH  28  29
ATOM     29  N   UNL A   1      32.489  34.202  27.626  1.00  0.00    -0.352 N 
ATOM     30  C   UNL A   1      33.097  34.795  28.699  1.00  0.00     0.251 C 
ATOM     31  H   UNL A   1      31.803  34.753  27.185  1.00  0.00     0.163 HD
ATOM     32  O   UNL A   1      32.650  35.861  29.135  1.00  0.00    -0.269 OA
BRANCH  30  33
ATOM     33  C   UNL A   1      34.263  34.178  29.364  1.00  0.00     0.039 A 
ATOM     34  C   UNL A   1      34.035  33.295  30.425  1.00  0.00     0.014 A 
ATOM     35  C   UNL A   1      35.574  34.497  28.997  1.00  0.00     0.014 A 
ATOM     36  C   UNL A   1      35.113  32.689  31.075  1.00  0.00     0.010 A 
ATOM     37  C   UNL A   1      36.647  33.842  29.603  1.00  0.00     0.010 A 
ATOM     38  C   UNL A   1      36.428  32.934  30.649  1.00  0.00    -0.014 A 
BRANCH  38  39
ATOM     39  C   UNL A   1      37.578  32.245  31.290  1.00  0.00     0.031 A 
ATOM     40  C   UNL A   1      38.268  31.102  30.596  1.00  0.00     0.074 A 
ATOM     41  C   UNL A   1      37.972  32.614  32.523  1.00  0.00     0.049 A 
ATOM     42  N   UNL A   1      39.259  30.357  31.017  1.00  0.00    -0.248 NA
ATOM     43  C   UNL A   1      37.764  30.736  29.264  1.00  0.00     0.031 C 
ATOM     44  C   UNL A   1      37.362  33.679  33.323  1.00  0.00     0.029 A 
ATOM     45  N   UNL A   1      38.976  32.131  33.325  1.00  0.00    -0.354 N 
ATOM     46  C   UNL A   1      39.483  29.422  30.014  1.00  0.00     0.074 A 
ATOM     47  C   UNL A   1      38.500  29.670  28.980  1.00  0.00     0.031 C 
ATOM     48  C   UNL A   1      38.021  33.786  34.487  1.00  0.00     0.029 A 
ATOM     49  C   UNL A   1      39.078  32.779  34.532  1.00  0.00     0.049 A 
ATOM     50  H   UNL A   1      39.568  31.391  33.059  1.00  0.00     0.167 HD
ATOM     51  C   UNL A   1      40.433  28.458  29.950  1.00  0.00     0.037 A 
ATOM     52  C   UNL A   1      39.925  32.585  35.559  1.00  0.00     0.037 A 
ATOM     53  C   UNL A   1      41.434  28.234  30.960  1.00  0.00     0.049 A 
ATOM     54  C   UNL A   1      40.972  31.511  35.462  1.00  0.00     0.074 A 
ATOM     55  C   UNL A   1      42.486  27.334  30.946  1.00  0.00     0.029 A 
ATOM     56  N   UNL A   1      41.508  28.915  32.164  1.00  0.00    -0.354 N 
ATOM     57  N   UNL A   1      41.216  30.682  34.476  1.00  0.00    -0.248 NA
ATOM     58  C   UNL A   1      41.863  31.349  36.620  1.00  0.00     0.031 C 
ATOM     59  C   UNL A   1      43.173  27.444  32.162  1.00  0.00     0.029 A 
ATOM     60  C   UNL A   1      42.572  28.440  32.914  1.00  0.00     0.049 A 
ATOM     61  H   UNL A   1      40.893  29.632  32.447  1.00  0.00     0.167 HD
ATOM     62  C   UNL A   1      42.304  29.920  34.882  1.00  0.00     0.074 A 
ATOM     63  C   UNL A   1      42.679  30.392  36.199  1.00  0.00     0.031 C 
ATOM     64  C   UNL A   1      42.936  28.921  34.221  1.00  0.00     0.037 A 
BRANCH  51  65
ATOM     65  C   UNL A   1      40.432  27.568  28.743  1.00  0.00     0.057 A 
ATOM     66  C   UNL A   1      41.213  27.851  27.614  1.00  0.00     0.134 A 
ATOM     67  C   UNL A   1      39.664  26.396  28.720  1.00  0.00     0.134 A 
ATOM     68  F   UNL A   1      41.962  28.962  27.568  1.00  0.00    -0.206 F 
ATOM     69  C   UNL A   1      41.209  27.015  26.496  1.00  0.00     0.040 A 
ATOM     70  C   UNL A   1      39.672  25.540  27.618  1.00  0.00     0.040 A 
ATOM     71  F   UNL A   1      38.900  26.062  29.771  1.00  0.00    -0.206 F 
ATOM     72  C   UNL A   1      40.441  25.852  26.498  1.00  0.00     0.006 A 
ENDBRANCH  51  65
BRANCH  52  73
ATOM     73  C   UNL A   1      39.844  33.450  36.761  1.00  0.00     0.057 A 
ATOM     74  C   UNL A   1      40.612  34.616  36.858  1.00  0.00     0.134 A 
ATOM     75  C   UNL A   1      39.008  33.135  37.838  1.00  0.00     0.134 A 
ATOM     76  F   UNL A   1      41.446  34.958  35.864  1.00  0.00    -0.206 F 
ATOM     77  C   UNL A   1      40.563  35.431  37.988  1.00  0.00     0.040 A 
ATOM     78  C   UNL A   1      38.934  33.952  38.966  1.00  0.00     0.040 A 
ATOM     79  F   UNL A   1      38.243  32.033  37.802  1.00  0.00    -0.206 F 
ATOM     80  C   UNL A   1      39.718  35.102  39.046  1.00  0.00     0.006 A 
ENDBRANCH  52  73
BRANCH  64  81
ATOM     81  C   UNL A   1      44.118  28.294  34.899  1.00  0.00     0.057 A 
ATOM     82  C   UNL A   1      43.988  27.156  35.704  1.00  0.00     0.134 A 
ATOM     83  C   UNL A   1      45.404  28.821  34.725  1.00  0.00     0.134 A 
ATOM     84  F   UNL A   1      42.781  26.612  35.924  1.00  0.00    -0.206 F 
ATOM     85  C   UNL A   1      45.094  26.577  36.330  1.00  0.00     0.040 A 
ATOM     86  C   UNL A   1      46.519  28.237  35.325  1.00  0.00     0.040 A 
ATOM     87  F   UNL A   1      45.596  29.907  33.959  1.00  0.00    -0.206 F 
ATOM     88  C   UNL A   1      46.365  27.114  36.135  1.00  0.00     0.006 A 
ENDBRANCH  64  81
ENDBRANCH  38  39
ENDBRANCH  30  33
ENDBRANCH  28  29
ENDBRANCH  27  28
ENDBRANCH  26  27
ENDBRANCH   1  26
TORSDOF 16
ENDMDL
MODEL 3
REMARK VINA RESULT:     -10.9      1.560      6.551
REMARK SMILES [NH3+][C@]1(C(=O)NCCCCCCNC(=O)c2ccc(-c3c4nc(c(-c5c(F)cccc5F)c5ccc([nH]5)c(-c5c(F)cccc5F)c5nc(c(-c6c(F)cccc6F)c6ccc3[nH]6)C=C5)C=C4)cc2)CC[C@@H](Sc2ccc(Cl)c(Cl)c2)C1
REMARK SMILES IDX 8 1 7 2 6 3 5 4 3 5 4 6 2 8 69 9 81 10 70 11 71 12 1 13
REMARK SMILES IDX 72 17 73 18 74 19 80 20 75 21 78 22 76 23 79 24 77 25 9 26
REMARK SMILES IDX 10 27 11 28 12 29 13 30 14 32 15 33 16 34 68 35 17 36 67 37
REMARK SMILES IDX 18 38 19 39 20 40 61 41 21 42 66 43 60 44 62 45 22 46 65 47
REMARK SMILES IDX 59 48 58 49 23 51 49 52 32 53 48 54 33 55 36 56 47 57 63 58
REMARK SMILES IDX 34 59 35 60 46 62 64 63 37 64 24 65 25 66 30 67 26 68 27 69
REMARK SMILES IDX 29 70 31 71 28 72 50 73 51 74 56 75 52 76 53 77 55 78 57 79
REMARK SMILES IDX 54 80 38 81 39 82 44 83 40 84 41 85 43 86 45 87 42 88
REMARK H PARENT 5 7 1 14 1 15 1 16 12 31 62 50 36 61
REMARK Flexibility Score: inf
ROOT
ATOM      1  C   UNL A   1      31.774  29.317  27.287  1.00  0.00     0.002 C 
ENDROOT
BRANCH   1   2
ATOM      2  C   UNL A   1      32.949  28.346  27.186  1.00  0.00     0.021 C 
BRANCH   2   3
ATOM      3  C   UNL A   1      32.769  27.158  26.242  1.00  0.00     0.116 C 
BRANCH   3   4
ATOM      4  N   UNL A   1      31.552  26.427  26.553  1.00  0.00    -0.351 N 
ATOM      5  C   UNL A   1      30.425  26.086  25.891  1.00  0.00     0.281 C 
ATOM      6  O   UNL A   1      29.569  25.527  26.600  1.00  0.00    -0.268 OA
ATOM      7  H   UNL A   1      31.548  26.098  27.480  1.00  0.00     0.163 HD
BRANCH   5   8
ATOM      8  C   UNL A   1      30.078  26.315  24.375  1.00  0.00     0.175 C 
ATOM      9  C   UNL A   1      30.296  27.799  24.012  1.00  0.00     0.080 C 
ATOM     10  C   UNL A   1      30.740  25.498  23.257  1.00  0.00     0.094 C 
ATOM     11  C   UNL A   1      30.722  27.835  22.550  1.00  0.00     0.022 C 
ATOM     12  C   UNL A   1      31.378  26.492  22.271  1.00  0.00     0.058 C 
BRANCH   8  13
ATOM     13  N   UNL A   1      28.609  26.054  24.256  1.00  0.00    -0.345 N 
ATOM     14  H   UNL A   1      28.404  25.109  24.582  1.00  0.00     0.345 HD
ATOM     15  H   UNL A   1      28.326  26.147  23.281  1.00  0.00     0.345 HD
ATOM     16  H   UNL A   1      28.097  26.729  24.825  1.00  0.00     0.345 HD
ENDBRANCH   8  13
BRANCH  12  17
ATOM     17  S   UNL A   1      33.216  26.334  22.175  1.00  0.00    -0.122 SA
BRANCH  17  18
ATOM     18  C   UNL A   1      33.672  24.763  22.875  1.00  0.00     0.009 A 
ATOM     19  C   UNL A   1      33.239  23.593  22.242  1.00  0.00     0.017 A 
ATOM     20  C   UNL A   1      34.275  24.650  24.124  1.00  0.00     0.037 A 
ATOM     21  C   UNL A   1      33.414  22.343  22.849  1.00  0.00     0.023 A 
ATOM     22  C   UNL A   1      34.468  23.406  24.735  1.00  0.00     0.060 A 
ATOM     23  C   UNL A   1      34.024  22.247  24.100  1.00  0.00     0.059 A 
ATOM     24  Cl  UNL A   1      35.227  23.381  26.288  1.00  0.00    -0.083 Cl
ATOM     25  Cl  UNL A   1      34.162  20.684  24.821  1.00  0.00    -0.083 Cl
ENDBRANCH  17  18
ENDBRANCH  12  17
ENDBRANCH   5   8
ENDBRANCH   3   4
ENDBRANCH   2   3
ENDBRANCH   1   2
BRANCH   1  26
ATOM     26  C   UNL A   1      31.781  30.487  26.299  1.00  0.00     0.002 C 
BRANCH  26  27
ATOM     27  C   UNL A   1      31.569  31.885  26.890  1.00  0.00     0.021 C 
BRANCH  27  28
ATOM     28  C   UNL A   1      32.785  32.810  26.894  1.00  0.00     0.116 C 
BRANCH  28  29
ATOM     29  N   UNL A   1      32.562  34.036  27.641  1.00  0.00    -0.352 N 
ATOM     30  C   UNL A   1      33.180  34.521  28.762  1.00  0.00     0.251 C 
ATOM     31  H   UNL A   1      31.848  34.612  27.283  1.00  0.00     0.163 HD
ATOM     32  O   UNL A   1      32.713  35.514  29.329  1.00  0.00    -0.269 OA
BRANCH  30  33
ATOM     33  C   UNL A   1      34.381  33.869  29.324  1.00  0.00     0.039 A 
ATOM     34  C   UNL A   1      34.207  32.868  30.285  1.00  0.00     0.014 A 
ATOM     35  C   UNL A   1      35.671  34.267  28.962  1.00  0.00     0.014 A 
ATOM     36  C   UNL A   1      35.319  32.227  30.836  1.00  0.00     0.010 A 
ATOM     37  C   UNL A   1      36.779  33.581  29.464  1.00  0.00     0.010 A 
ATOM     38  C   UNL A   1      36.614  32.557  30.407  1.00  0.00    -0.014 A 
BRANCH  38  39
ATOM     39  C   UNL A   1      37.800  31.835  30.939  1.00  0.00     0.031 A 
ATOM     40  C   UNL A   1      38.361  32.179  32.291  1.00  0.00     0.074 A 
ATOM     41  C   UNL A   1      38.405  30.902  30.181  1.00  0.00     0.049 A 
ATOM     42  N   UNL A   1      39.411  31.687  32.900  1.00  0.00    -0.248 NA
ATOM     43  C   UNL A   1      37.665  33.230  33.049  1.00  0.00     0.031 C 
ATOM     44  C   UNL A   1      37.987  30.503  28.835  1.00  0.00     0.029 A 
ATOM     45  N   UNL A   1      39.507  30.122  30.431  1.00  0.00    -0.354 N 
ATOM     46  C   UNL A   1      39.513  32.379  34.100  1.00  0.00     0.074 A 
ATOM     47  C   UNL A   1      38.442  33.353  34.117  1.00  0.00     0.031 C 
ATOM     48  C   UNL A   1      38.804  29.535  28.390  1.00  0.00     0.029 A 
ATOM     49  C   UNL A   1      39.822  29.268  29.402  1.00  0.00     0.049 A 
ATOM     50  H   UNL A   1      40.022  30.170  31.268  1.00  0.00     0.167 HD
ATOM     51  C   UNL A   1      40.405  32.207  35.105  1.00  0.00     0.037 A 
ATOM     52  C   UNL A   1      40.818  28.370  29.286  1.00  0.00     0.037 A 
ATOM     53  C   UNL A   1      41.449  31.215  35.106  1.00  0.00     0.049 A 
ATOM     54  C   UNL A   1      41.793  28.196  30.417  1.00  0.00     0.074 A 
ATOM     55  C   UNL A   1      42.350  30.913  36.112  1.00  0.00     0.029 A 
ATOM     56  N   UNL A   1      41.731  30.365  34.049  1.00  0.00    -0.354 N 
ATOM     57  N   UNL A   1      41.833  28.810  31.574  1.00  0.00    -0.248 NA
ATOM     58  C   UNL A   1      42.858  27.202  30.224  1.00  0.00     0.031 C 
ATOM     59  C   UNL A   1      43.204  29.905  35.648  1.00  0.00     0.029 A 
ATOM     60  C   UNL A   1      42.808  29.553  34.368  1.00  0.00     0.049 A 
ATOM     61  H   UNL A   1      41.239  30.340  33.196  1.00  0.00     0.167 HD
ATOM     62  C   UNL A   1      42.908  28.257  32.259  1.00  0.00     0.074 A 
ATOM     63  C   UNL A   1      43.487  27.253  31.391  1.00  0.00     0.031 C 
ATOM     64  C   UNL A   1      43.372  28.555  33.497  1.00  0.00     0.037 A 
BRANCH  51  65
ATOM     65  C   UNL A   1      40.292  33.118  36.291  1.00  0.00     0.057 A 
ATOM     66  C   UNL A   1      41.064  34.282  36.407  1.00  0.00     0.134 A 
ATOM     67  C   UNL A   1      39.378  32.845  37.317  1.00  0.00     0.134 A 
ATOM     68  F   UNL A   1      41.966  34.595  35.465  1.00  0.00    -0.206 F 
ATOM     69  C   UNL A   1      40.951  35.125  37.513  1.00  0.00     0.040 A 
ATOM     70  C   UNL A   1      39.238  33.694  38.415  1.00  0.00     0.040 A 
ATOM     71  F   UNL A   1      38.602  31.751  37.264  1.00  0.00    -0.206 F 
ATOM     72  C   UNL A   1      40.031  34.836  38.519  1.00  0.00     0.006 A 
ENDBRANCH  51  65
BRANCH  52  73
ATOM     73  C   UNL A   1      40.927  27.537  28.064  1.00  0.00     0.057 A 
ATOM     74  C   UNL A   1      40.291  26.293  27.985  1.00  0.00     0.134 A 
ATOM     75  C   UNL A   1      41.667  27.956  26.953  1.00  0.00     0.134 A 
ATOM     76  F   UNL A   1      39.583  25.830  29.028  1.00  0.00    -0.206 F 
ATOM     77  C   UNL A   1      40.398  25.488  26.852  1.00  0.00     0.040 A 
ATOM     78  C   UNL A   1      41.767  27.170  25.805  1.00  0.00     0.040 A 
ATOM     79  F   UNL A   1      42.296  29.141  26.966  1.00  0.00    -0.206 F 
ATOM     80  C   UNL A   1      41.135  25.928  25.755  1.00  0.00     0.006 A 
ENDBRANCH  52  73
BRANCH  64  81
ATOM     81  C   UNL A   1      44.542  27.763  33.997  1.00  0.00     0.057 A 
ATOM     82  C   UNL A   1      44.377  26.542  34.663  1.00  0.00     0.134 A 
ATOM     83  C   UNL A   1      45.852  28.214  33.788  1.00  0.00     0.134 A 
ATOM     84  F   UNL A   1      43.148  26.063  34.909  1.00  0.00    -0.206 F 
ATOM     85  C   UNL A   1      45.472  25.809  35.123  1.00  0.00     0.040 A 
ATOM     86  C   UNL A   1      46.955  27.478  34.222  1.00  0.00     0.040 A 
ATOM     87  F   UNL A   1      46.079  29.373  33.150  1.00  0.00    -0.206 F 
ATOM     88  C   UNL A   1      46.766  26.275  34.897  1.00  0.00     0.006 A 
ENDBRANCH  64  81
ENDBRANCH  38  39
ENDBRANCH  30  33
ENDBRANCH  28  29
ENDBRANCH  27  28
ENDBRANCH  26  27
ENDBRANCH   1  26
TORSDOF 16
ENDMDL
