MODEL 1
REMARK VINA RESULT:     -10.2      0.000      0.000
REMARK SMILES CCc1nc(NCC2CC2)nc(OCC(=O)NCCCCCCNC(=O)c2ccc(-c3c4nc(c(-c5c(F)cccc5F)c5ccc([nH]5)c(-c5c(F)cccc5F)c5nc(c(-c6c(F)cccc6F)c6ccc3[nH]6)C=C5)C=C4)cc2)c1C
REMARK SMILES IDX 19 1 18 2 17 3 15 4 16 5 14 7 13 8 12 9 3 10 4 11 81 12 5 13
REMARK SMILES IDX 82 14 11 15 2 16 1 17 6 18 7 20 8 21 9 22 10 23 20 24 21 25
REMARK SMILES IDX 22 26 23 27 24 28 25 29 26 31 27 32 28 33 80 34 29 35 79 36
REMARK SMILES IDX 30 37 31 38 32 39 73 40 33 41 78 42 72 43 74 44 34 45 77 46
REMARK SMILES IDX 71 47 70 48 35 50 61 51 44 52 60 53 45 54 48 55 59 56 75 57
REMARK SMILES IDX 46 58 47 59 58 61 76 62 49 63 36 64 37 65 42 66 38 67 39 68
REMARK SMILES IDX 41 69 43 70 40 71 62 72 63 73 68 74 64 75 65 76 67 77 69 78
REMARK SMILES IDX 66 79 50 80 51 81 56 82 52 83 53 84 55 85 57 86 54 87
REMARK H PARENT 17 6 6 19 24 30 74 49 48 60
REMARK Flexibility Score: inf
ROOT
ATOM      1  C   UNL A   1      35.642  31.767  27.918  1.00  0.00     0.021 C 
ENDROOT
BRANCH   1   2
ATOM      2  C   UNL A   1      34.526  30.728  27.955  1.00  0.00     0.116 C 
BRANCH   2   3
ATOM      3  N   UNL A   1      33.449  31.055  27.045  1.00  0.00    -0.353 N 
ATOM      4  C   UNL A   1      32.366  30.299  26.715  1.00  0.00     0.258 C 
ATOM      5  O   UNL A   1      31.494  30.799  26.003  1.00  0.00    -0.271 OA
ATOM      6  H   UNL A   1      33.506  31.936  26.612  1.00  0.00     0.163 HD
BRANCH   4   7
ATOM      7  C   UNL A   1      32.229  28.884  27.284  1.00  0.00     0.331 C 
BRANCH   7   8
ATOM      8  O   UNL A   1      31.456  27.913  26.622  1.00  0.00    -0.467 OA
BRANCH   8   9
ATOM      9  C   UNL A   1      31.647  27.509  25.343  1.00  0.00     0.221 A 
ATOM     10  C   UNL A   1      32.578  26.542  23.420  1.00  0.00     0.052 A 
ATOM     11  N   UNL A   1      31.547  27.003  22.683  1.00  0.00    -0.218 NA
ATOM     12  C   UNL A   1      32.709  26.808  24.787  1.00  0.00     0.033 A 
ATOM     13  C   UNL A   1      30.621  27.740  23.284  1.00  0.00     0.226 A 
ATOM     14  C   UNL A   1      33.937  26.339  25.499  1.00  0.00     0.052 C 
ATOM     15  N   UNL A   1      30.623  27.978  24.593  1.00  0.00    -0.177 NA
BRANCH  10  16
ATOM     16  C   UNL A   1      33.541  25.676  22.637  1.00  0.00     0.053 C 
ATOM     17  C   UNL A   1      33.032  24.248  22.468  1.00  0.00     0.011 C 
ENDBRANCH  10  16
BRANCH  13  18
ATOM     18  N   UNL A   1      29.618  28.315  22.554  1.00  0.00    -0.354 N 
ATOM     19  H   UNL A   1      28.900  27.743  22.198  1.00  0.00     0.163 HD
BRANCH  18  20
ATOM     20  C   UNL A   1      29.577  29.729  22.287  1.00  0.00     0.119 C 
BRANCH  20  21
ATOM     21  C   UNL A   1      28.610  30.381  23.230  1.00  0.00     0.008 C 
ATOM     22  C   UNL A   1      28.906  31.743  23.808  1.00  0.00     0.006 C 
ATOM     23  C   UNL A   1      27.807  31.581  22.792  1.00  0.00     0.006 C 
ENDBRANCH  20  21
ENDBRANCH  18  20
ENDBRANCH  13  18
ENDBRANCH   8   9
ENDBRANCH   7   8
ENDBRANCH   4   7
ENDBRANCH   2   3
ENDBRANCH   1   2
BRANCH   1  24
ATOM     24  C   UNL A   1      35.171  33.227  27.977  1.00  0.00     0.002 C 
BRANCH  24  25
ATOM     25  C   UNL A   1      34.403  33.629  29.240  1.00  0.00     0.002 C 
BRANCH  25  26
ATOM     26  C   UNL A   1      33.204  34.551  29.014  1.00  0.00     0.021 C 
BRANCH  26  27
ATOM     27  C   UNL A   1      33.360  35.956  29.579  1.00  0.00     0.116 C 
BRANCH  27  28
ATOM     28  N   UNL A   1      32.502  36.187  30.728  1.00  0.00    -0.352 N 
ATOM     29  C   UNL A   1      32.627  35.721  32.012  1.00  0.00     0.251 C 
ATOM     30  H   UNL A   1      31.718  36.760  30.563  1.00  0.00     0.163 HD
ATOM     31  O   UNL A   1      31.707  35.867  32.815  1.00  0.00    -0.269 OA
BRANCH  29  32
ATOM     32  C   UNL A   1      33.862  35.021  32.429  1.00  0.00     0.039 A 
ATOM     33  C   UNL A   1      33.764  33.715  32.915  1.00  0.00     0.014 A 
ATOM     34  C   UNL A   1      35.108  35.649  32.351  1.00  0.00     0.014 A 
ATOM     35  C   UNL A   1      34.921  33.023  33.276  1.00  0.00     0.010 A 
ATOM     36  C   UNL A   1      36.267  34.930  32.631  1.00  0.00     0.010 A 
ATOM     37  C   UNL A   1      36.185  33.613  33.108  1.00  0.00    -0.014 A 
BRANCH  37  38
ATOM     38  C   UNL A   1      37.427  32.867  33.440  1.00  0.00     0.031 A 
ATOM     39  C   UNL A   1      38.171  33.164  34.714  1.00  0.00     0.074 A 
ATOM     40  C   UNL A   1      37.908  31.954  32.576  1.00  0.00     0.049 A 
ATOM     41  N   UNL A   1      39.284  32.640  35.162  1.00  0.00    -0.248 NA
ATOM     42  C   UNL A   1      37.605  34.205  35.587  1.00  0.00     0.031 C 
ATOM     43  C   UNL A   1      37.306  31.612  31.285  1.00  0.00     0.029 A 
ATOM     44  N   UNL A   1      39.016  31.148  32.649  1.00  0.00    -0.354 N 
ATOM     45  C   UNL A   1      39.554  33.291  36.360  1.00  0.00     0.074 A 
ATOM     46  C   UNL A   1      38.524  34.291  36.537  1.00  0.00     0.031 C 
ATOM     47  C   UNL A   1      38.034  30.644  30.705  1.00  0.00     0.029 A 
ATOM     48  C   UNL A   1      39.173  30.326  31.559  1.00  0.00     0.049 A 
ATOM     49  H   UNL A   1      39.639  31.158  33.411  1.00  0.00     0.167 HD
ATOM     50  C   UNL A   1      40.553  33.059  37.245  1.00  0.00     0.037 A 
ATOM     51  C   UNL A   1      40.130  29.421  31.280  1.00  0.00     0.037 A 
ATOM     52  C   UNL A   1      41.567  32.052  37.074  1.00  0.00     0.049 A 
ATOM     53  C   UNL A   1      41.236  29.192  32.273  1.00  0.00     0.074 A 
ATOM     54  C   UNL A   1      42.591  31.704  37.937  1.00  0.00     0.029 A 
ATOM     55  N   UNL A   1      41.688  31.234  35.960  1.00  0.00    -0.354 N 
ATOM     56  N   UNL A   1      41.438  29.765  33.435  1.00  0.00    -0.248 NA
ATOM     57  C   UNL A   1      42.241  28.180  31.921  1.00  0.00     0.031 C 
ATOM     58  C   UNL A   1      43.364  30.713  37.322  1.00  0.00     0.029 A 
ATOM     59  C   UNL A   1      42.784  30.398  36.104  1.00  0.00     0.049 A 
ATOM     60  H   UNL A   1      41.084  31.244  35.182  1.00  0.00     0.167 HD
ATOM     61  C   UNL A   1      42.571  29.161  33.965  1.00  0.00     0.074 A 
ATOM     62  C   UNL A   1      43.001  28.167  33.006  1.00  0.00     0.031 C 
ATOM     63  C   UNL A   1      43.198  29.407  35.142  1.00  0.00     0.037 A 
BRANCH  50  64
ATOM     64  C   UNL A   1      40.595  33.913  38.480  1.00  0.00     0.057 A 
ATOM     65  C   UNL A   1      41.381  35.072  38.554  1.00  0.00     0.134 A 
ATOM     66  C   UNL A   1      39.816  33.592  39.599  1.00  0.00     0.134 A 
ATOM     67  F   UNL A   1      42.159  35.432  37.522  1.00  0.00    -0.206 F 
ATOM     68  C   UNL A   1      41.414  35.862  39.704  1.00  0.00     0.040 A 
ATOM     69  C   UNL A   1      39.816  34.392  40.744  1.00  0.00     0.040 A 
ATOM     70  F   UNL A   1      39.034  32.503  39.596  1.00  0.00    -0.206 F 
ATOM     71  C   UNL A   1      40.623  35.526  40.802  1.00  0.00     0.006 A 
ENDBRANCH  50  64
BRANCH  51  72
ATOM     72  C   UNL A   1      40.075  28.644  30.014  1.00  0.00     0.057 A 
ATOM     73  C   UNL A   1      40.768  29.069  28.875  1.00  0.00     0.134 A 
ATOM     74  C   UNL A   1      39.318  27.471  29.908  1.00  0.00     0.134 A 
ATOM     75  F   UNL A   1      41.497  30.194  28.908  1.00  0.00    -0.206 F 
ATOM     76  C   UNL A   1      40.691  28.370  27.668  1.00  0.00     0.040 A 
ATOM     77  C   UNL A   1      39.254  26.748  28.716  1.00  0.00     0.040 A 
ATOM     78  F   UNL A   1      38.636  27.006  30.966  1.00  0.00    -0.206 F 
ATOM     79  C   UNL A   1      39.935  27.202  27.589  1.00  0.00     0.006 A 
ENDBRANCH  51  72
BRANCH  63  80
ATOM     80  C   UNL A   1      44.389  28.556  35.477  1.00  0.00     0.057 A 
ATOM     81  C   UNL A   1      44.269  27.350  36.180  1.00  0.00     0.134 A 
ATOM     82  C   UNL A   1      45.674  28.939  35.068  1.00  0.00     0.134 A 
ATOM     83  F   UNL A   1      43.071  26.930  36.612  1.00  0.00    -0.206 F 
ATOM     84  C   UNL A   1      45.387  26.574  36.493  1.00  0.00     0.040 A 
ATOM     85  C   UNL A   1      46.794  28.156  35.346  1.00  0.00     0.040 A 
ATOM     86  F   UNL A   1      45.860  30.077  34.382  1.00  0.00    -0.206 F 
ATOM     87  C   UNL A   1      46.653  26.973  36.069  1.00  0.00     0.006 A 
ENDBRANCH  63  80
ENDBRANCH  37  38
ENDBRANCH  29  32
ENDBRANCH  27  28
ENDBRANCH  26  27
ENDBRANCH  25  26
ENDBRANCH  24  25
ENDBRANCH   1  24
TORSDOF 19
ENDMDL
MODEL 2
REMARK VINA RESULT:      -9.9      5.762     10.829
REMARK SMILES CCc1nc(NCC2CC2)nc(OCC(=O)NCCCCCCNC(=O)c2ccc(-c3c4nc(c(-c5c(F)cccc5F)c5ccc([nH]5)c(-c5c(F)cccc5F)c5nc(c(-c6c(F)cccc6F)c6ccc3[nH]6)C=C5)C=C4)cc2)c1C
REMARK SMILES IDX 19 1 18 2 17 3 15 4 16 5 14 7 13 8 12 9 3 10 4 11 81 12 5 13
REMARK SMILES IDX 82 14 11 15 2 16 1 17 6 18 7 20 8 21 9 22 10 23 20 24 21 25
REMARK SMILES IDX 22 26 23 27 24 28 25 29 26 31 27 32 28 33 80 34 29 35 79 36
REMARK SMILES IDX 30 37 31 38 32 39 73 40 33 41 78 42 72 43 74 44 34 45 77 46
REMARK SMILES IDX 71 47 70 48 35 50 61 51 44 52 60 53 45 54 48 55 59 56 75 57
REMARK SMILES IDX 46 58 47 59 58 61 76 62 49 63 36 64 37 65 42 66 38 67 39 68
REMARK SMILES IDX 41 69 43 70 40 71 62 72 63 73 68 74 64 75 65 76 67 77 69 78
REMARK SMILES IDX 66 79 50 80 51 81 56 82 52 83 53 84 55 85 57 86 54 87
REMARK H PARENT 17 6 6 19 24 30 74 49 48 60
REMARK Flexibility Score: inf
ROOT
ATOM      1  C   UNL A   1      35.957  23.001  25.246  1.00  0.00     0.021 C 
ENDROOT
BRANCH   1   2
ATOM      2  C   UNL A   1      35.532  23.699  23.958  1.00  0.00     0.116 C 
BRANCH   2   3
ATOM      3  N   UNL A   1      34.459  22.996  23.288  1.00  0.00    -0.353 N 
ATOM      4  C   UNL A   1      33.396  23.521  22.619  1.00  0.00     0.258 C 
ATOM      5  O   UNL A   1      32.643  22.755  22.017  1.00  0.00    -0.271 OA
ATOM      6  H   UNL A   1      34.504  22.013  23.320  1.00  0.00     0.163 HD
BRANCH   4   7
ATOM      7  C   UNL A   1      33.202  25.040  22.579  1.00  0.00     0.331 C 
BRANCH   7   8
ATOM      8  O   UNL A   1      32.025  25.629  23.073  1.00  0.00    -0.467 OA
BRANCH   8   9
ATOM      9  C   UNL A   1      31.983  26.684  23.924  1.00  0.00     0.221 A 
ATOM     10  C   UNL A   1      32.183  28.018  25.842  1.00  0.00     0.052 A 
ATOM     11  N   UNL A   1      31.638  29.059  25.180  1.00  0.00    -0.218 NA
ATOM     12  C   UNL A   1      32.346  26.755  25.262  1.00  0.00     0.033 A 
ATOM     13  C   UNL A   1      31.239  28.873  23.929  1.00  0.00     0.226 A 
ATOM     14  C   UNL A   1      32.868  25.636  26.105  1.00  0.00     0.052 C 
ATOM     15  N   UNL A   1      31.425  27.731  23.272  1.00  0.00    -0.177 NA
BRANCH  10  16
ATOM     16  C   UNL A   1      32.643  28.364  27.241  1.00  0.00     0.053 C 
ATOM     17  C   UNL A   1      34.041  28.973  27.261  1.00  0.00     0.011 C 
ENDBRANCH  10  16
BRANCH  13  18
ATOM     18  N   UNL A   1      30.585  29.870  23.259  1.00  0.00    -0.354 N 
ATOM     19  H   UNL A   1      30.596  30.781  23.632  1.00  0.00     0.163 HD
BRANCH  18  20
ATOM     20  C   UNL A   1      29.881  29.631  22.026  1.00  0.00     0.119 C 
BRANCH  20  21
ATOM     21  C   UNL A   1      28.644  30.479  21.993  1.00  0.00     0.008 C 
ATOM     22  C   UNL A   1      27.649  30.424  23.126  1.00  0.00     0.006 C 
ATOM     23  C   UNL A   1      28.496  31.652  22.931  1.00  0.00     0.006 C 
ENDBRANCH  20  21
ENDBRANCH  18  20
ENDBRANCH  13  18
ENDBRANCH   8   9
ENDBRANCH   7   8
ENDBRANCH   4   7
ENDBRANCH   2   3
ENDBRANCH   1   2
BRANCH   1  24
ATOM     24  C   UNL A   1      37.136  22.030  25.100  1.00  0.00     0.002 C 
BRANCH  24  25
ATOM     25  C   UNL A   1      36.771  20.591  24.719  1.00  0.00     0.002 C 
BRANCH  25  26
ATOM     26  C   UNL A   1      37.877  19.556  24.929  1.00  0.00     0.021 C 
BRANCH  26  27
ATOM     27  C   UNL A   1      39.034  20.024  25.801  1.00  0.00     0.116 C 
BRANCH  27  28
ATOM     28  N   UNL A   1      40.121  19.059  25.840  1.00  0.00    -0.352 N 
ATOM     29  C   UNL A   1      41.464  19.272  26.010  1.00  0.00     0.251 C 
ATOM     30  H   UNL A   1      39.854  18.117  25.728  1.00  0.00     0.163 HD
ATOM     31  O   UNL A   1      42.263  18.354  25.834  1.00  0.00    -0.269 OA
BRANCH  29  32
ATOM     32  C   UNL A   1      41.959  20.614  26.387  1.00  0.00     0.039 A 
ATOM     33  C   UNL A   1      42.252  21.532  25.375  1.00  0.00     0.014 A 
ATOM     34  C   UNL A   1      42.145  20.965  27.727  1.00  0.00     0.014 A 
ATOM     35  C   UNL A   1      42.682  22.817  25.710  1.00  0.00     0.010 A 
ATOM     36  C   UNL A   1      42.492  22.272  28.061  1.00  0.00     0.010 A 
ATOM     37  C   UNL A   1      42.776  23.208  27.056  1.00  0.00    -0.014 A 
BRANCH  37  38
ATOM     38  C   UNL A   1      43.183  24.589  27.424  1.00  0.00     0.031 A 
ATOM     39  C   UNL A   1      44.632  24.992  27.372  1.00  0.00     0.074 A 
ATOM     40  C   UNL A   1      42.254  25.468  27.848  1.00  0.00     0.049 A 
ATOM     41  N   UNL A   1      45.183  26.139  27.681  1.00  0.00    -0.248 NA
ATOM     42  C   UNL A   1      45.592  23.963  26.939  1.00  0.00     0.031 C 
ATOM     43  C   UNL A   1      40.824  25.185  27.991  1.00  0.00     0.029 A 
ATOM     44  N   UNL A   1      42.373  26.778  28.238  1.00  0.00    -0.354 N 
ATOM     45  C   UNL A   1      46.548  25.967  27.489  1.00  0.00     0.074 A 
ATOM     46  C   UNL A   1      46.749  24.589  27.098  1.00  0.00     0.031 C 
ATOM     47  C   UNL A   1      40.196  26.296  28.406  1.00  0.00     0.029 A 
ATOM     48  C   UNL A   1      41.180  27.356  28.598  1.00  0.00     0.049 A 
ATOM     49  H   UNL A   1      43.233  27.257  28.260  1.00  0.00     0.167 HD
ATOM     50  C   UNL A   1      47.543  26.879  27.602  1.00  0.00     0.037 A 
ATOM     51  C   UNL A   1      40.911  28.601  29.035  1.00  0.00     0.037 A 
ATOM     52  C   UNL A   1      47.338  28.255  27.975  1.00  0.00     0.049 A 
ATOM     53  C   UNL A   1      42.034  29.592  29.165  1.00  0.00     0.074 A 
ATOM     54  C   UNL A   1      48.273  29.271  28.068  1.00  0.00     0.029 A 
ATOM     55  N   UNL A   1      46.114  28.805  28.324  1.00  0.00    -0.354 N 
ATOM     56  N   UNL A   1      43.311  29.435  28.912  1.00  0.00    -0.248 NA
ATOM     57  C   UNL A   1      41.676  30.939  29.631  1.00  0.00     0.031 C 
ATOM     58  C   UNL A   1      47.623  30.423  28.524  1.00  0.00     0.029 A 
ATOM     59  C   UNL A   1      46.273  30.142  28.655  1.00  0.00     0.049 A 
ATOM     60  H   UNL A   1      45.257  28.319  28.334  1.00  0.00     0.167 HD
ATOM     61  C   UNL A   1      43.902  30.669  29.155  1.00  0.00     0.074 A 
ATOM     62  C   UNL A   1      42.841  31.567  29.559  1.00  0.00     0.031 C 
ATOM     63  C   UNL A   1      45.206  31.027  29.050  1.00  0.00     0.037 A 
BRANCH  50  64
ATOM     64  C   UNL A   1      48.943  26.417  27.317  1.00  0.00     0.057 A 
ATOM     65  C   UNL A   1      49.480  26.435  26.021  1.00  0.00     0.134 A 
ATOM     66  C   UNL A   1      49.777  25.979  28.353  1.00  0.00     0.134 A 
ATOM     67  F   UNL A   1      48.733  26.832  24.981  1.00  0.00    -0.206 F 
ATOM     68  C   UNL A   1      50.783  26.005  25.764  1.00  0.00     0.040 A 
ATOM     69  C   UNL A   1      51.093  25.577  28.112  1.00  0.00     0.040 A 
ATOM     70  F   UNL A   1      49.332  25.943  29.618  1.00  0.00    -0.206 F 
ATOM     71  C   UNL A   1      51.596  25.581  26.813  1.00  0.00     0.006 A 
ENDBRANCH  50  64
BRANCH  51  72
ATOM     72  C   UNL A   1      39.514  28.991  29.362  1.00  0.00     0.057 A 
ATOM     73  C   UNL A   1      39.001  28.827  30.654  1.00  0.00     0.134 A 
ATOM     74  C   UNL A   1      38.656  29.519  28.390  1.00  0.00     0.134 A 
ATOM     75  F   UNL A   1      39.769  28.310  31.624  1.00  0.00    -0.206 F 
ATOM     76  C   UNL A   1      37.679  29.151  30.963  1.00  0.00     0.040 A 
ATOM     77  C   UNL A   1      37.340  29.874  28.692  1.00  0.00     0.040 A 
ATOM     78  F   UNL A   1      39.088  29.709  27.134  1.00  0.00    -0.206 F 
ATOM     79  C   UNL A   1      36.845  29.681  29.980  1.00  0.00     0.006 A 
ENDBRANCH  51  72
BRANCH  63  80
ATOM     80  C   UNL A   1      45.549  32.461  29.335  1.00  0.00     0.057 A 
ATOM     81  C   UNL A   1      45.501  33.450  28.345  1.00  0.00     0.134 A 
ATOM     82  C   UNL A   1      45.913  32.860  30.628  1.00  0.00     0.134 A 
ATOM     83  F   UNL A   1      45.173  33.133  27.083  1.00  0.00    -0.206 F 
ATOM     84  C   UNL A   1      45.833  34.778  28.622  1.00  0.00     0.040 A 
ATOM     85  C   UNL A   1      46.215  34.190  30.925  1.00  0.00     0.040 A 
ATOM     86  F   UNL A   1      45.970  31.967  31.628  1.00  0.00    -0.206 F 
ATOM     87  C   UNL A   1      46.184  35.151  29.918  1.00  0.00     0.006 A 
ENDBRANCH  63  80
ENDBRANCH  37  38
ENDBRANCH  29  32
ENDBRANCH  27  28
ENDBRANCH  26  27
ENDBRANCH  25  26
ENDBRANCH  24  25
ENDBRANCH   1  24
TORSDOF 19
ENDMDL
MODEL 3
REMARK VINA RESULT:      -9.9      5.640     10.339
REMARK SMILES CCc1nc(NCC2CC2)nc(OCC(=O)NCCCCCCNC(=O)c2ccc(-c3c4nc(c(-c5c(F)cccc5F)c5ccc([nH]5)c(-c5c(F)cccc5F)c5nc(c(-c6c(F)cccc6F)c6ccc3[nH]6)C=C5)C=C4)cc2)c1C
REMARK SMILES IDX 19 1 18 2 17 3 15 4 16 5 14 7 13 8 12 9 3 10 4 11 81 12 5 13
REMARK SMILES IDX 82 14 11 15 2 16 1 17 6 18 7 20 8 21 9 22 10 23 20 24 21 25
REMARK SMILES IDX 22 26 23 27 24 28 25 29 26 31 27 32 28 33 80 34 29 35 79 36
REMARK SMILES IDX 30 37 31 38 32 39 73 40 33 41 78 42 72 43 74 44 34 45 77 46
REMARK SMILES IDX 71 47 70 48 35 50 61 51 44 52 60 53 45 54 48 55 59 56 75 57
REMARK SMILES IDX 46 58 47 59 58 61 76 62 49 63 36 64 37 65 42 66 38 67 39 68
REMARK SMILES IDX 41 69 43 70 40 71 62 72 63 73 68 74 64 75 65 76 67 77 69 78
REMARK SMILES IDX 66 79 50 80 51 81 56 82 52 83 53 84 55 85 57 86 54 87
REMARK H PARENT 17 6 6 19 24 30 74 49 48 60
REMARK Flexibility Score: inf
ROOT
ATOM      1  C   UNL A   1      36.100  23.033  25.184  1.00  0.00     0.021 C 
ENDROOT
BRANCH   1   2
ATOM      2  C   UNL A   1      35.707  23.596  23.821  1.00  0.00     0.116 C 
BRANCH   2   3
ATOM      3  N   UNL A   1      34.597  22.875  23.235  1.00  0.00    -0.353 N 
ATOM      4  C   UNL A   1      33.519  23.380  22.576  1.00  0.00     0.258 C 
ATOM      5  O   UNL A   1      32.730  22.594  22.048  1.00  0.00    -0.271 OA
ATOM      6  H   UNL A   1      34.627  21.896  23.323  1.00  0.00     0.163 HD
BRANCH   4   7
ATOM      7  C   UNL A   1      33.349  24.897  22.452  1.00  0.00     0.331 C 
BRANCH   7   8
ATOM      8  O   UNL A   1      32.254  25.550  23.047  1.00  0.00    -0.467 OA
BRANCH   8   9
ATOM      9  C   UNL A   1      32.338  26.662  23.817  1.00  0.00     0.221 A 
ATOM     10  C   UNL A   1      32.798  28.119  25.596  1.00  0.00     0.052 A 
ATOM     11  N   UNL A   1      32.200  29.128  24.931  1.00  0.00    -0.218 NA
ATOM     12  C   UNL A   1      32.862  26.814  25.094  1.00  0.00     0.033 A 
ATOM     13  C   UNL A   1      31.649  28.868  23.752  1.00  0.00     0.226 A 
ATOM     14  C   UNL A   1      33.457  25.741  25.948  1.00  0.00     0.052 C 
ATOM     15  N   UNL A   1      31.729  27.677  23.163  1.00  0.00    -0.177 NA
BRANCH  10  16
ATOM     16  C   UNL A   1      33.431  28.547  26.902  1.00  0.00     0.053 C 
ATOM     17  C   UNL A   1      33.743  30.040  26.936  1.00  0.00     0.011 C 
ENDBRANCH  10  16
BRANCH  13  18
ATOM     18  N   UNL A   1      30.941  29.835  23.095  1.00  0.00    -0.354 N 
ATOM     19  H   UNL A   1      31.110  30.780  23.313  1.00  0.00     0.163 HD
BRANCH  18  20
ATOM     20  C   UNL A   1      29.957  29.518  22.093  1.00  0.00     0.119 C 
BRANCH  20  21
ATOM     21  C   UNL A   1      28.738  30.364  22.314  1.00  0.00     0.008 C 
ATOM     22  C   UNL A   1      28.776  31.847  22.035  1.00  0.00     0.006 C 
ATOM     23  C   UNL A   1      27.982  30.936  21.140  1.00  0.00     0.006 C 
ENDBRANCH  20  21
ENDBRANCH  18  20
ENDBRANCH  13  18
ENDBRANCH   8   9
ENDBRANCH   7   8
ENDBRANCH   4   7
ENDBRANCH   2   3
ENDBRANCH   1   2
BRANCH   1  24
ATOM     24  C   UNL A   1      37.264  22.033  25.161  1.00  0.00     0.002 C 
BRANCH  24  25
ATOM     25  C   UNL A   1      36.888  20.580  24.854  1.00  0.00     0.002 C 
BRANCH  25  26
ATOM     26  C   UNL A   1      38.003  19.555  25.067  1.00  0.00     0.021 C 
BRANCH  26  27
ATOM     27  C   UNL A   1      39.228  20.084  25.800  1.00  0.00     0.116 C 
BRANCH  27  28
ATOM     28  N   UNL A   1      40.294  19.100  25.875  1.00  0.00    -0.352 N 
ATOM     29  C   UNL A   1      41.632  19.286  26.114  1.00  0.00     0.251 C 
ATOM     30  H   UNL A   1      40.018  18.165  25.734  1.00  0.00     0.163 HD
ATOM     31  O   UNL A   1      42.422  18.357  25.960  1.00  0.00    -0.269 OA
BRANCH  29  32
ATOM     32  C   UNL A   1      42.131  20.613  26.536  1.00  0.00     0.039 A 
ATOM     33  C   UNL A   1      42.656  21.474  25.570  1.00  0.00     0.014 A 
ATOM     34  C   UNL A   1      42.091  21.005  27.877  1.00  0.00     0.014 A 
ATOM     35  C   UNL A   1      43.095  22.746  25.941  1.00  0.00     0.010 A 
ATOM     36  C   UNL A   1      42.450  22.303  28.232  1.00  0.00     0.010 A 
ATOM     37  C   UNL A   1      42.968  23.183  27.270  1.00  0.00    -0.014 A 
BRANCH  37  38
ATOM     38  C   UNL A   1      43.384  24.553  27.667  1.00  0.00     0.031 A 
ATOM     39  C   UNL A   1      42.348  25.593  28.002  1.00  0.00     0.074 A 
ATOM     40  C   UNL A   1      44.691  24.874  27.685  1.00  0.00     0.049 A 
ATOM     41  N   UNL A   1      42.516  26.846  28.341  1.00  0.00    -0.248 NA
ATOM     42  C   UNL A   1      40.939  25.178  27.919  1.00  0.00     0.031 C 
ATOM     43  C   UNL A   1      45.789  23.971  27.334  1.00  0.00     0.029 A 
ATOM     44  N   UNL A   1      45.320  26.049  28.010  1.00  0.00    -0.354 N 
ATOM     45  C   UNL A   1      41.238  27.368  28.503  1.00  0.00     0.074 A 
ATOM     46  C   UNL A   1      40.306  26.315  28.164  1.00  0.00     0.031 C 
ATOM     47  C   UNL A   1      46.956  24.616  27.493  1.00  0.00     0.029 A 
ATOM     48  C   UNL A   1      46.690  25.986  27.917  1.00  0.00     0.049 A 
ATOM     49  H   UNL A   1      44.836  26.862  28.283  1.00  0.00     0.167 HD
ATOM     50  C   UNL A   1      40.872  28.603  28.922  1.00  0.00     0.037 A 
ATOM     51  C   UNL A   1      47.625  26.928  28.145  1.00  0.00     0.037 A 
ATOM     52  C   UNL A   1      41.803  29.645  29.275  1.00  0.00     0.049 A 
ATOM     53  C   UNL A   1      47.193  28.296  28.597  1.00  0.00     0.074 A 
ATOM     54  C   UNL A   1      41.533  30.913  29.760  1.00  0.00     0.029 A 
ATOM     55  N   UNL A   1      43.182  29.539  29.175  1.00  0.00    -0.354 N 
ATOM     56  N   UNL A   1      45.983  28.753  28.814  1.00  0.00    -0.248 NA
ATOM     57  C   UNL A   1      48.259  29.276  28.846  1.00  0.00     0.031 C 
ATOM     58  C   UNL A   1      42.747  31.593  29.902  1.00  0.00     0.029 A 
ATOM     59  C   UNL A   1      43.777  30.728  29.568  1.00  0.00     0.049 A 
ATOM     60  H   UNL A   1      43.667  28.738  28.872  1.00  0.00     0.167 HD
ATOM     61  C   UNL A   1      46.145  30.060  29.257  1.00  0.00     0.074 A 
ATOM     62  C   UNL A   1      47.569  30.316  29.292  1.00  0.00     0.031 C 
ATOM     63  C   UNL A   1      45.198  30.967  29.604  1.00  0.00     0.037 A 
BRANCH  50  64
ATOM     64  C   UNL A   1      39.402  28.894  29.021  1.00  0.00     0.057 A 
ATOM     65  C   UNL A   1      38.695  28.738  30.222  1.00  0.00     0.134 A 
ATOM     66  C   UNL A   1      38.690  29.368  27.912  1.00  0.00     0.134 A 
ATOM     67  F   UNL A   1      39.313  28.278  31.320  1.00  0.00    -0.206 F 
ATOM     68  C   UNL A   1      37.329  29.012  30.307  1.00  0.00     0.040 A 
ATOM     69  C   UNL A   1      37.330  29.676  27.994  1.00  0.00     0.040 A 
ATOM     70  F   UNL A   1      39.303  29.548  26.733  1.00  0.00    -0.206 F 
ATOM     71  C   UNL A   1      36.644  29.490  29.193  1.00  0.00     0.006 A 
ENDBRANCH  50  64
BRANCH  51  72
ATOM     72  C   UNL A   1      49.065  26.605  27.974  1.00  0.00     0.057 A 
ATOM     73  C   UNL A   1      49.683  26.700  26.722  1.00  0.00     0.134 A 
ATOM     74  C   UNL A   1      49.853  26.181  29.051  1.00  0.00     0.134 A 
ATOM     75  F   UNL A   1      48.977  27.084  25.648  1.00  0.00    -0.206 F 
ATOM     76  C   UNL A   1      51.025  26.360  26.540  1.00  0.00     0.040 A 
ATOM     77  C   UNL A   1      51.203  25.865  28.890  1.00  0.00     0.040 A 
ATOM     78  F   UNL A   1      49.324  26.078  30.279  1.00  0.00    -0.206 F 
ATOM     79  C   UNL A   1      51.790  25.946  27.629  1.00  0.00     0.006 A 
ENDBRANCH  51  72
BRANCH  63  80
ATOM     80  C   UNL A   1      45.675  32.303  30.096  1.00  0.00     0.057 A 
ATOM     81  C   UNL A   1      45.951  32.545  31.447  1.00  0.00     0.134 A 
ATOM     82  C   UNL A   1      45.882  33.358  29.196  1.00  0.00     0.134 A 
ATOM     83  F   UNL A   1      45.762  31.583  32.363  1.00  0.00    -0.206 F 
ATOM     84  C   UNL A   1      46.384  33.796  31.892  1.00  0.00     0.040 A 
ATOM     85  C   UNL A   1      46.346  34.603  29.623  1.00  0.00     0.040 A 
ATOM     86  F   UNL A   1      45.648  33.193  27.886  1.00  0.00    -0.206 F 
ATOM     87  C   UNL A   1      46.590  34.827  30.977  1.00  0.00     0.006 A 
ENDBRANCH  63  80
ENDBRANCH  37  38
ENDBRANCH  29  32
ENDBRANCH  27  28
ENDBRANCH  26  27
ENDBRANCH  25  26
ENDBRANCH  24  25
ENDBRANCH   1  24
TORSDOF 19
ENDMDL
