MODEL 1
REMARK VINA RESULT:     -11.9      0.000      0.000
REMARK SMILES CNC(=O)c1cccc(-c2cnc(O)c(C(=O)NCCCCCCNC(=O)c3ccc(-c4c5nc(c(-c6c(F)cccc6F)c6ccc([nH]6)c(-c6c(F)cccc6F)c6nc(c(-c7c(F)cccc7F)c7ccc4[nH]7)C=C6)C=C5)cc3)c2)c1
REMARK SMILES IDX 21 1 20 2 19 3 18 4 16 5 17 6 15 8 10 9 11 10 82 11 12 12
REMARK SMILES IDX 13 13 9 14 5 15 6 16 83 17 7 18 8 19 3 20 1 21 2 22 4 24
REMARK SMILES IDX 14 25 22 27 23 28 24 29 25 30 26 31 27 33 28 34 29 35 81 36
REMARK SMILES IDX 30 37 80 38 31 39 32 40 33 41 74 42 34 43 79 44 73 45 75 46
REMARK SMILES IDX 35 47 78 48 72 49 71 50 36 52 62 53 45 54 61 55 46 56 49 57
REMARK SMILES IDX 60 58 76 59 47 60 48 61 59 63 77 64 50 65 37 66 38 67 43 68
REMARK SMILES IDX 39 69 40 70 42 71 44 72 41 73 63 74 64 75 69 76 65 77 66 78
REMARK SMILES IDX 68 79 70 80 67 81 51 82 52 83 57 84 53 85 54 86 56 87 58 88
REMARK SMILES IDX 55 89
REMARK H PARENT 18 7 2 23 14 26 25 32 75 51 49 62
REMARK Flexibility Score: inf
ROOT
ATOM      1  C   UNL A   1      34.524  24.697  23.755  1.00  0.00     0.002 C 
ENDROOT
BRANCH   1   2
ATOM      2  C   UNL A   1      33.693  25.774  23.042  1.00  0.00     0.021 C 
BRANCH   2   3
ATOM      3  C   UNL A   1      32.597  25.188  22.150  1.00  0.00     0.116 C 
BRANCH   3   4
ATOM      4  N   UNL A   1      31.290  25.578  22.649  1.00  0.00    -0.352 N 
ATOM      5  C   UNL A   1      30.524  25.165  23.707  1.00  0.00     0.256 C 
ATOM      6  O   UNL A   1      29.429  25.712  23.865  1.00  0.00    -0.269 OA
ATOM      7  H   UNL A   1      30.865  26.287  22.115  1.00  0.00     0.163 HD
BRANCH   5   8
ATOM      8  C   UNL A   1      30.950  24.167  24.717  1.00  0.00     0.102 A 
ATOM      9  C   UNL A   1      32.117  22.157  25.430  1.00  0.00     0.001 A 
ATOM     10  C   UNL A   1      31.863  22.544  26.740  1.00  0.00     0.124 A 
ATOM     11  C   UNL A   1      31.579  22.960  24.415  1.00  0.00     0.029 A 
ATOM     12  N   UNL A   1      31.169  23.651  27.079  1.00  0.00    -0.221 NA
ATOM     13  C   UNL A   1      30.739  24.443  26.072  1.00  0.00     0.223 A 
BRANCH   9  14
ATOM     14  C   UNL A   1      33.004  21.039  25.102  1.00  0.00    -0.016 A 
ATOM     15  C   UNL A   1      33.287  18.820  24.128  1.00  0.00     0.040 A 
ATOM     16  C   UNL A   1      34.637  18.834  24.486  1.00  0.00     0.014 A 
ATOM     17  C   UNL A   1      32.472  19.906  24.456  1.00  0.00     0.022 A 
ATOM     18  C   UNL A   1      35.177  19.952  25.125  1.00  0.00     0.001 A 
ATOM     19  C   UNL A   1      34.367  21.052  25.422  1.00  0.00     0.009 A 
BRANCH  15  20
ATOM     20  C   UNL A   1      32.730  17.605  23.493  1.00  0.00     0.251 C 
ATOM     21  C   UNL A   1      32.681  16.214  25.630  1.00  0.00     0.143 C 
ATOM     22  N   UNL A   1      32.562  16.447  24.209  1.00  0.00    -0.355 N 
ATOM     23  H   UNL A   1      32.326  15.656  23.673  1.00  0.00     0.163 HD
ATOM     24  O   UNL A   1      32.417  17.639  22.306  1.00  0.00    -0.269 OA
ENDBRANCH  15  20
ENDBRANCH   9  14
BRANCH  13  25
ATOM     25  O   UNL A   1      30.089  25.561  26.515  1.00  0.00    -0.493 OA
ATOM     26  H   UNL A   1      29.184  25.515  26.750  1.00  0.00     0.295 HD
ENDBRANCH  13  25
ENDBRANCH   5   8
ENDBRANCH   3   4
ENDBRANCH   2   3
ENDBRANCH   1   2
BRANCH   1  27
ATOM     27  C   UNL A   1      34.731  24.933  25.257  1.00  0.00     0.002 C 
BRANCH  27  28
ATOM     28  C   UNL A   1      35.822  24.076  25.902  1.00  0.00     0.021 C 
BRANCH  28  29
ATOM     29  C   UNL A   1      36.987  23.745  24.977  1.00  0.00     0.116 C 
BRANCH  29  30
ATOM     30  N   UNL A   1      37.804  22.664  25.508  1.00  0.00    -0.352 N 
ATOM     31  C   UNL A   1      38.993  22.730  26.189  1.00  0.00     0.251 C 
ATOM     32  H   UNL A   1      37.453  21.757  25.358  1.00  0.00     0.163 HD
ATOM     33  O   UNL A   1      39.662  21.717  26.364  1.00  0.00    -0.269 OA
BRANCH  31  34
ATOM     34  C   UNL A   1      39.473  24.030  26.705  1.00  0.00     0.039 A 
ATOM     35  C   UNL A   1      40.159  24.889  25.842  1.00  0.00     0.014 A 
ATOM     36  C   UNL A   1      39.270  24.386  28.040  1.00  0.00     0.014 A 
ATOM     37  C   UNL A   1      40.600  26.129  26.309  1.00  0.00     0.010 A 
ATOM     38  C   UNL A   1      39.649  25.648  28.486  1.00  0.00     0.010 A 
ATOM     39  C   UNL A   1      40.327  26.528  27.629  1.00  0.00    -0.014 A 
BRANCH  39  40
ATOM     40  C   UNL A   1      40.763  27.852  28.137  1.00  0.00     0.031 A 
ATOM     41  C   UNL A   1      42.229  28.176  28.227  1.00  0.00     0.074 A 
ATOM     42  C   UNL A   1      39.845  28.737  28.570  1.00  0.00     0.049 A 
ATOM     43  N   UNL A   1      42.813  29.241  28.713  1.00  0.00    -0.248 NA
ATOM     44  C   UNL A   1      43.163  27.155  27.726  1.00  0.00     0.031 C 
ATOM     45  C   UNL A   1      38.397  28.525  28.571  1.00  0.00     0.029 A 
ATOM     46  N   UNL A   1      39.998  29.992  29.104  1.00  0.00    -0.354 N 
ATOM     47  C   UNL A   1      44.177  29.013  28.589  1.00  0.00     0.074 A 
ATOM     48  C   UNL A   1      44.338  27.688  28.031  1.00  0.00     0.031 C 
ATOM     49  C   UNL A   1      37.793  29.620  29.060  1.00  0.00     0.029 A 
ATOM     50  C   UNL A   1      38.811  30.594  29.444  1.00  0.00     0.049 A 
ATOM     51  H   UNL A   1      40.875  30.420  29.233  1.00  0.00     0.167 HD
ATOM     52  C   UNL A   1      45.205  29.844  28.888  1.00  0.00     0.037 A 
ATOM     53  C   UNL A   1      38.573  31.793  30.007  1.00  0.00     0.037 A 
ATOM     54  C   UNL A   1      45.043  31.170  29.421  1.00  0.00     0.049 A 
ATOM     55  C   UNL A   1      39.732  32.689  30.343  1.00  0.00     0.074 A 
ATOM     56  C   UNL A   1      46.019  32.106  29.718  1.00  0.00     0.029 A 
ATOM     57  N   UNL A   1      43.824  31.750  29.735  1.00  0.00    -0.354 N 
ATOM     58  N   UNL A   1      41.015  32.483  30.169  1.00  0.00    -0.248 NA
ATOM     59  C   UNL A   1      39.409  33.988  30.951  1.00  0.00     0.031 C 
ATOM     60  C   UNL A   1      45.391  33.238  30.246  1.00  0.00     0.029 A 
ATOM     61  C   UNL A   1      44.022  33.026  30.234  1.00  0.00     0.049 A 
ATOM     62  H   UNL A   1      42.946  31.318  29.619  1.00  0.00     0.167 HD
ATOM     63  C   UNL A   1      41.649  33.637  30.613  1.00  0.00     0.074 A 
ATOM     64  C   UNL A   1      40.608  34.543  31.053  1.00  0.00     0.031 C 
ATOM     65  C   UNL A   1      42.973  33.921  30.652  1.00  0.00     0.037 A 
BRANCH  52  66
ATOM     66  C   UNL A   1      46.596  29.341  28.635  1.00  0.00     0.057 A 
ATOM     67  C   UNL A   1      47.327  28.667  29.623  1.00  0.00     0.134 A 
ATOM     68  C   UNL A   1      47.199  29.498  27.381  1.00  0.00     0.134 A 
ATOM     69  F   UNL A   1      46.812  28.494  30.849  1.00  0.00    -0.206 F 
ATOM     70  C   UNL A   1      48.616  28.190  29.381  1.00  0.00     0.040 A 
ATOM     71  C   UNL A   1      48.477  29.003  27.117  1.00  0.00     0.040 A 
ATOM     72  F   UNL A   1      46.554  30.129  26.388  1.00  0.00    -0.206 F 
ATOM     73  C   UNL A   1      49.191  28.351  28.122  1.00  0.00     0.006 A 
ENDBRANCH  52  66
BRANCH  53  74
ATOM     74  C   UNL A   1      37.179  32.231  30.270  1.00  0.00     0.057 A 
ATOM     75  C   UNL A   1      36.477  33.001  29.333  1.00  0.00     0.134 A 
ATOM     76  C   UNL A   1      36.523  31.917  31.465  1.00  0.00     0.134 A 
ATOM     77  F   UNL A   1      37.059  33.351  28.176  1.00  0.00    -0.206 F 
ATOM     78  C   UNL A   1      35.184  33.461  29.586  1.00  0.00     0.040 A 
ATOM     79  C   UNL A   1      35.220  32.348  31.720  1.00  0.00     0.040 A 
ATOM     80  F   UNL A   1      37.137  31.178  32.400  1.00  0.00    -0.206 F 
ATOM     81  C   UNL A   1      34.550  33.131  30.782  1.00  0.00     0.006 A 
ENDBRANCH  53  74
BRANCH  65  82
ATOM     82  C   UNL A   1      43.368  35.282  31.142  1.00  0.00     0.057 A 
ATOM     83  C   UNL A   1      43.562  36.357  30.265  1.00  0.00     0.134 A 
ATOM     84  C   UNL A   1      43.519  35.528  32.512  1.00  0.00     0.134 A 
ATOM     85  F   UNL A   1      43.445  36.185  28.940  1.00  0.00    -0.206 F 
ATOM     86  C   UNL A   1      43.916  37.624  30.733  1.00  0.00     0.040 A 
ATOM     87  C   UNL A   1      43.846  36.796  32.994  1.00  0.00     0.040 A 
ATOM     88  F   UNL A   1      43.340  34.544  33.405  1.00  0.00    -0.206 F 
ATOM     89  C   UNL A   1      44.052  37.847  32.103  1.00  0.00     0.006 A 
ENDBRANCH  65  82
ENDBRANCH  39  40
ENDBRANCH  31  34
ENDBRANCH  29  30
ENDBRANCH  28  29
ENDBRANCH  27  28
ENDBRANCH   1  27
TORSDOF 16
ENDMDL
MODEL 2
REMARK VINA RESULT:     -11.8      4.725      9.122
REMARK SMILES CNC(=O)c1cccc(-c2cnc(O)c(C(=O)NCCCCCCNC(=O)c3ccc(-c4c5nc(c(-c6c(F)cccc6F)c6ccc([nH]6)c(-c6c(F)cccc6F)c6nc(c(-c7c(F)cccc7F)c7ccc4[nH]7)C=C6)C=C5)cc3)c2)c1
REMARK SMILES IDX 21 1 20 2 19 3 18 4 16 5 17 6 15 8 10 9 11 10 82 11 12 12
REMARK SMILES IDX 13 13 9 14 5 15 6 16 83 17 7 18 8 19 3 20 1 21 2 22 4 24
REMARK SMILES IDX 14 25 22 27 23 28 24 29 25 30 26 31 27 33 28 34 29 35 81 36
REMARK SMILES IDX 30 37 80 38 31 39 32 40 33 41 74 42 34 43 79 44 73 45 75 46
REMARK SMILES IDX 35 47 78 48 72 49 71 50 36 52 62 53 45 54 61 55 46 56 49 57
REMARK SMILES IDX 60 58 76 59 47 60 48 61 59 63 77 64 50 65 37 66 38 67 43 68
REMARK SMILES IDX 39 69 40 70 42 71 44 72 41 73 63 74 64 75 69 76 65 77 66 78
REMARK SMILES IDX 68 79 70 80 67 81 51 82 52 83 57 84 53 85 54 86 56 87 58 88
REMARK SMILES IDX 55 89
REMARK H PARENT 18 7 2 23 14 26 25 32 75 51 49 62
REMARK Flexibility Score: inf
ROOT
ATOM      1  C   UNL A   1      34.404  32.219  28.762  1.00  0.00     0.002 C 
ENDROOT
BRANCH   1   2
ATOM      2  C   UNL A   1      35.250  31.520  27.688  1.00  0.00     0.021 C 
BRANCH   2   3
ATOM      3  C   UNL A   1      35.040  30.005  27.655  1.00  0.00     0.116 C 
BRANCH   3   4
ATOM      4  N   UNL A   1      33.646  29.691  27.918  1.00  0.00    -0.352 N 
ATOM      5  C   UNL A   1      32.660  29.092  27.180  1.00  0.00     0.256 C 
ATOM      6  O   UNL A   1      31.551  28.969  27.707  1.00  0.00    -0.269 OA
ATOM      7  H   UNL A   1      33.349  29.966  28.815  1.00  0.00     0.163 HD
BRANCH   5   8
ATOM      8  C   UNL A   1      32.852  28.514  25.829  1.00  0.00     0.102 A 
ATOM      9  C   UNL A   1      33.491  26.741  24.292  1.00  0.00     0.001 A 
ATOM     10  C   UNL A   1      32.914  27.493  23.276  1.00  0.00     0.124 A 
ATOM     11  C   UNL A   1      33.513  27.314  25.572  1.00  0.00     0.029 A 
ATOM     12  N   UNL A   1      32.353  28.707  23.461  1.00  0.00    -0.221 NA
ATOM     13  C   UNL A   1      32.320  29.186  24.724  1.00  0.00     0.223 A 
BRANCH   9  14
ATOM     14  C   UNL A   1      33.949  25.367  24.085  1.00  0.00    -0.016 A 
ATOM     15  C   UNL A   1      35.155  23.421  24.931  1.00  0.00     0.040 A 
ATOM     16  C   UNL A   1      34.903  22.744  23.736  1.00  0.00     0.014 A 
ATOM     17  C   UNL A   1      34.701  24.732  25.093  1.00  0.00     0.022 A 
ATOM     18  C   UNL A   1      34.158  23.361  22.730  1.00  0.00     0.001 A 
ATOM     19  C   UNL A   1      33.675  24.661  22.907  1.00  0.00     0.009 A 
BRANCH  15  20
ATOM     20  C   UNL A   1      35.986  22.762  25.962  1.00  0.00     0.251 C 
ATOM     21  C   UNL A   1      34.042  21.607  27.142  1.00  0.00     0.143 C 
ATOM     22  N   UNL A   1      35.413  22.032  26.972  1.00  0.00    -0.355 N 
ATOM     23  H   UNL A   1      36.028  21.756  27.689  1.00  0.00     0.163 HD
ATOM     24  O   UNL A   1      37.208  22.876  25.910  1.00  0.00    -0.269 OA
ENDBRANCH  15  20
ENDBRANCH   9  14
BRANCH  13  25
ATOM     25  O   UNL A   1      31.692  30.397  24.817  1.00  0.00    -0.493 OA
ATOM     26  H   UNL A   1      32.195  31.187  24.830  1.00  0.00     0.295 HD
ENDBRANCH  13  25
ENDBRANCH   5   8
ENDBRANCH   3   4
ENDBRANCH   2   3
ENDBRANCH   1   2
BRANCH   1  27
ATOM     27  C   UNL A   1      34.544  33.746  28.797  1.00  0.00     0.002 C 
BRANCH  27  28
ATOM     28  C   UNL A   1      33.226  34.513  28.933  1.00  0.00     0.021 C 
BRANCH  28  29
ATOM     29  C   UNL A   1      33.387  35.962  29.379  1.00  0.00     0.116 C 
BRANCH  29  30
ATOM     30  N   UNL A   1      32.567  36.259  30.543  1.00  0.00    -0.352 N 
ATOM     31  C   UNL A   1      32.664  35.769  31.821  1.00  0.00     0.251 C 
ATOM     32  H   UNL A   1      31.837  36.903  30.392  1.00  0.00     0.163 HD
ATOM     33  O   UNL A   1      31.754  35.948  32.623  1.00  0.00    -0.269 OA
BRANCH  31  34
ATOM     34  C   UNL A   1      33.870  35.016  32.228  1.00  0.00     0.039 A 
ATOM     35  C   UNL A   1      33.735  33.677  32.606  1.00  0.00     0.014 A 
ATOM     36  C   UNL A   1      35.121  35.636  32.262  1.00  0.00     0.014 A 
ATOM     37  C   UNL A   1      34.867  32.946  32.973  1.00  0.00     0.010 A 
ATOM     38  C   UNL A   1      36.256  34.889  32.562  1.00  0.00     0.010 A 
ATOM     39  C   UNL A   1      36.140  33.540  32.930  1.00  0.00    -0.014 A 
BRANCH  39  40
ATOM     40  C   UNL A   1      37.358  32.774  33.291  1.00  0.00     0.031 A 
ATOM     41  C   UNL A   1      38.079  33.071  34.576  1.00  0.00     0.074 A 
ATOM     42  C   UNL A   1      37.846  31.855  32.436  1.00  0.00     0.049 A 
ATOM     43  N   UNL A   1      39.198  32.569  35.033  1.00  0.00    -0.248 NA
ATOM     44  C   UNL A   1      37.474  34.086  35.454  1.00  0.00     0.031 C 
ATOM     45  C   UNL A   1      37.259  31.504  31.142  1.00  0.00     0.029 A 
ATOM     46  N   UNL A   1      38.956  31.053  32.527  1.00  0.00    -0.354 N 
ATOM     47  C   UNL A   1      39.436  33.214  36.240  1.00  0.00     0.074 A 
ATOM     48  C   UNL A   1      38.376  34.181  36.421  1.00  0.00     0.031 C 
ATOM     49  C   UNL A   1      38.003  30.543  30.569  1.00  0.00     0.029 A 
ATOM     50  C   UNL A   1      39.137  30.238  31.436  1.00  0.00     0.049 A 
ATOM     51  H   UNL A   1      39.566  31.060  33.300  1.00  0.00     0.167 HD
ATOM     52  C   UNL A   1      40.434  33.002  37.130  1.00  0.00     0.037 A 
ATOM     53  C   UNL A   1      40.112  29.351  31.163  1.00  0.00     0.037 A 
ATOM     54  C   UNL A   1      41.476  32.023  36.960  1.00  0.00     0.049 A 
ATOM     55  C   UNL A   1      41.218  29.146  32.162  1.00  0.00     0.074 A 
ATOM     56  C   UNL A   1      42.508  31.703  37.824  1.00  0.00     0.029 A 
ATOM     57  N   UNL A   1      41.614  31.206  35.849  1.00  0.00    -0.354 N 
ATOM     58  N   UNL A   1      41.399  29.723  33.325  1.00  0.00    -0.248 NA
ATOM     59  C   UNL A   1      42.251  28.161  31.812  1.00  0.00     0.031 C 
ATOM     60  C   UNL A   1      43.292  30.716  37.218  1.00  0.00     0.029 A 
ATOM     61  C   UNL A   1      42.723  30.390  35.999  1.00  0.00     0.049 A 
ATOM     62  H   UNL A   1      41.013  31.206  35.068  1.00  0.00     0.167 HD
ATOM     63  C   UNL A   1      42.546  29.149  33.859  1.00  0.00     0.074 A 
ATOM     64  C   UNL A   1      43.009  28.169  32.898  1.00  0.00     0.031 C 
ATOM     65  C   UNL A   1      43.160  29.408  35.039  1.00  0.00     0.037 A 
BRANCH  52  66
ATOM     66  C   UNL A   1      40.440  33.840  38.376  1.00  0.00     0.057 A 
ATOM     67  C   UNL A   1      41.160  35.040  38.453  1.00  0.00     0.134 A 
ATOM     68  C   UNL A   1      39.689  33.465  39.497  1.00  0.00     0.134 A 
ATOM     69  F   UNL A   1      41.909  35.449  37.418  1.00  0.00    -0.206 F 
ATOM     70  C   UNL A   1      41.154  35.823  39.608  1.00  0.00     0.040 A 
ATOM     71  C   UNL A   1      39.653  34.253  40.648  1.00  0.00     0.040 A 
ATOM     72  F   UNL A   1      38.971  32.332  39.489  1.00  0.00    -0.206 F 
ATOM     73  C   UNL A   1      40.392  35.434  40.707  1.00  0.00     0.006 A 
ENDBRANCH  52  66
BRANCH  53  74
ATOM     74  C   UNL A   1      40.081  28.570  29.901  1.00  0.00     0.057 A 
ATOM     75  C   UNL A   1      40.775  29.008  28.766  1.00  0.00     0.134 A 
ATOM     76  C   UNL A   1      39.343  27.387  29.788  1.00  0.00     0.134 A 
ATOM     77  F   UNL A   1      41.485  30.145  28.806  1.00  0.00    -0.206 F 
ATOM     78  C   UNL A   1      40.716  28.310  27.559  1.00  0.00     0.040 A 
ATOM     79  C   UNL A   1      39.297  26.665  28.594  1.00  0.00     0.040 A 
ATOM     80  F   UNL A   1      38.661  26.911  30.841  1.00  0.00    -0.206 F 
ATOM     81  C   UNL A   1      39.977  27.132  27.472  1.00  0.00     0.006 A 
ENDBRANCH  53  74
BRANCH  65  82
ATOM     82  C   UNL A   1      44.368  28.587  35.379  1.00  0.00     0.057 A 
ATOM     83  C   UNL A   1      44.270  27.381  36.085  1.00  0.00     0.134 A 
ATOM     84  C   UNL A   1      45.642  28.991  34.959  1.00  0.00     0.134 A 
ATOM     85  F   UNL A   1      43.081  26.945  36.526  1.00  0.00    -0.206 F 
ATOM     86  C   UNL A   1      45.401  26.618  36.383  1.00  0.00     0.040 A 
ATOM     87  C   UNL A   1      46.776  28.224  35.228  1.00  0.00     0.040 A 
ATOM     88  F   UNL A   1      45.803  30.132  34.272  1.00  0.00    -0.206 F 
ATOM     89  C   UNL A   1      46.657  27.037  35.947  1.00  0.00     0.006 A 
ENDBRANCH  65  82
ENDBRANCH  39  40
ENDBRANCH  31  34
ENDBRANCH  29  30
ENDBRANCH  28  29
ENDBRANCH  27  28
ENDBRANCH   1  27
TORSDOF 16
ENDMDL
MODEL 3
REMARK VINA RESULT:     -11.8      2.389      6.935
REMARK SMILES CNC(=O)c1cccc(-c2cnc(O)c(C(=O)NCCCCCCNC(=O)c3ccc(-c4c5nc(c(-c6c(F)cccc6F)c6ccc([nH]6)c(-c6c(F)cccc6F)c6nc(c(-c7c(F)cccc7F)c7ccc4[nH]7)C=C6)C=C5)cc3)c2)c1
REMARK SMILES IDX 21 1 20 2 19 3 18 4 16 5 17 6 15 8 10 9 11 10 82 11 12 12
REMARK SMILES IDX 13 13 9 14 5 15 6 16 83 17 7 18 8 19 3 20 1 21 2 22 4 24
REMARK SMILES IDX 14 25 22 27 23 28 24 29 25 30 26 31 27 33 28 34 29 35 81 36
REMARK SMILES IDX 30 37 80 38 31 39 32 40 33 41 74 42 34 43 79 44 73 45 75 46
REMARK SMILES IDX 35 47 78 48 72 49 71 50 36 52 62 53 45 54 61 55 46 56 49 57
REMARK SMILES IDX 60 58 76 59 47 60 48 61 59 63 77 64 50 65 37 66 38 67 43 68
REMARK SMILES IDX 39 69 40 70 42 71 44 72 41 73 63 74 64 75 69 76 65 77 66 78
REMARK SMILES IDX 68 79 70 80 67 81 51 82 52 83 57 84 53 85 54 86 56 87 58 88
REMARK SMILES IDX 55 89
REMARK H PARENT 18 7 2 23 14 26 25 32 75 51 49 62
REMARK Flexibility Score: inf
ROOT
ATOM      1  C   UNL A   1      36.050  21.691  25.961  1.00  0.00     0.002 C 
ENDROOT
BRANCH   1   2
ATOM      2  C   UNL A   1      36.338  23.183  25.740  1.00  0.00     0.021 C 
BRANCH   2   3
ATOM      3  C   UNL A   1      36.235  23.599  24.271  1.00  0.00     0.116 C 
BRANCH   3   4
ATOM      4  N   UNL A   1      35.238  24.645  24.119  1.00  0.00    -0.352 N 
ATOM      5  C   UNL A   1      33.871  24.662  24.204  1.00  0.00     0.256 C 
ATOM      6  O   UNL A   1      33.303  25.742  24.020  1.00  0.00    -0.269 OA
ATOM      7  H   UNL A   1      35.626  25.525  23.914  1.00  0.00     0.163 HD
BRANCH   5   8
ATOM      8  C   UNL A   1      33.034  23.496  24.576  1.00  0.00     0.102 A 
ATOM      9  C   UNL A   1      32.374  21.160  24.434  1.00  0.00     0.001 A 
ATOM     10  C   UNL A   1      31.572  21.379  25.548  1.00  0.00     0.124 A 
ATOM     11  C   UNL A   1      33.052  22.270  23.912  1.00  0.00     0.029 A 
ATOM     12  N   UNL A   1      31.445  22.575  26.163  1.00  0.00    -0.221 NA
ATOM     13  C   UNL A   1      32.181  23.600  25.679  1.00  0.00     0.223 A 
BRANCH   9  14
ATOM     14  C   UNL A   1      32.609  19.822  23.891  1.00  0.00    -0.016 A 
ATOM     15  C   UNL A   1      33.544  17.587  24.185  1.00  0.00     0.040 A 
ATOM     16  C   UNL A   1      33.140  17.246  22.892  1.00  0.00     0.014 A 
ATOM     17  C   UNL A   1      33.301  18.875  24.670  1.00  0.00     0.022 A 
ATOM     18  C   UNL A   1      32.452  18.176  22.110  1.00  0.00     0.001 A 
ATOM     19  C   UNL A   1      32.179  19.453  22.610  1.00  0.00     0.009 A 
BRANCH  15  20
ATOM     20  C   UNL A   1      34.312  16.600  24.975  1.00  0.00     0.251 C 
ATOM     21  C   UNL A   1      32.285  15.218  25.676  1.00  0.00     0.143 C 
ATOM     22  N   UNL A   1      33.676  15.614  25.686  1.00  0.00    -0.355 N 
ATOM     23  H   UNL A   1      34.253  15.098  26.294  1.00  0.00     0.163 HD
ATOM     24  O   UNL A   1      35.538  16.670  24.994  1.00  0.00    -0.269 OA
ENDBRANCH  15  20
ENDBRANCH   9  14
BRANCH  13  25
ATOM     25  O   UNL A   1      32.020  24.754  26.394  1.00  0.00    -0.493 OA
ATOM     26  H   UNL A   1      31.621  25.501  25.995  1.00  0.00     0.295 HD
ENDBRANCH  13  25
ENDBRANCH   5   8
ENDBRANCH   3   4
ENDBRANCH   2   3
ENDBRANCH   1   2
BRANCH   1  27
ATOM     27  C   UNL A   1      36.355  20.792  24.755  1.00  0.00     0.002 C 
BRANCH  27  28
ATOM     28  C   UNL A   1      37.495  19.792  24.967  1.00  0.00     0.021 C 
BRANCH  28  29
ATOM     29  C   UNL A   1      38.730  20.382  25.637  1.00  0.00     0.116 C 
BRANCH  29  30
ATOM     30  N   UNL A   1      39.801  19.404  25.744  1.00  0.00    -0.352 N 
ATOM     31  C   UNL A   1      41.123  19.596  26.059  1.00  0.00     0.251 C 
ATOM     32  H   UNL A   1      39.541  18.471  25.565  1.00  0.00     0.163 HD
ATOM     33  O   UNL A   1      41.938  18.697  25.880  1.00  0.00    -0.269 OA
BRANCH  31  34
ATOM     34  C   UNL A   1      41.566  20.896  26.607  1.00  0.00     0.039 A 
ATOM     35  C   UNL A   1      42.054  21.869  25.730  1.00  0.00     0.014 A 
ATOM     36  C   UNL A   1      41.524  21.142  27.981  1.00  0.00     0.014 A 
ATOM     37  C   UNL A   1      42.456  23.109  26.230  1.00  0.00     0.010 A 
ATOM     38  C   UNL A   1      41.861  22.401  28.470  1.00  0.00     0.010 A 
ATOM     39  C   UNL A   1      42.340  23.393  27.602  1.00  0.00    -0.014 A 
BRANCH  39  40
ATOM     40  C   UNL A   1      42.737  24.713  28.150  1.00  0.00     0.031 A 
ATOM     41  C   UNL A   1      41.700  25.780  28.365  1.00  0.00     0.074 A 
ATOM     42  C   UNL A   1      44.036  24.970  28.398  1.00  0.00     0.049 A 
ATOM     43  N   UNL A   1      41.855  27.018  28.760  1.00  0.00    -0.248 NA
ATOM     44  C   UNL A   1      40.305  25.413  28.075  1.00  0.00     0.031 C 
ATOM     45  C   UNL A   1      45.140  24.031  28.193  1.00  0.00     0.029 A 
ATOM     46  N   UNL A   1      44.647  26.105  28.869  1.00  0.00    -0.354 N 
ATOM     47  C   UNL A   1      40.585  27.579  28.752  1.00  0.00     0.074 A 
ATOM     48  C   UNL A   1      39.676  26.564  28.264  1.00  0.00     0.031 C 
ATOM     49  C   UNL A   1      46.291  24.621  28.556  1.00  0.00     0.029 A 
ATOM     50  C   UNL A   1      46.011  25.989  28.982  1.00  0.00     0.049 A 
ATOM     51  H   UNL A   1      44.155  26.925  29.103  1.00  0.00     0.167 HD
ATOM     52  C   UNL A   1      40.205  28.819  29.141  1.00  0.00     0.037 A 
ATOM     53  C   UNL A   1      46.931  26.888  29.376  1.00  0.00     0.037 A 
ATOM     54  C   UNL A   1      41.106  29.819  29.649  1.00  0.00     0.049 A 
ATOM     55  C   UNL A   1      46.484  28.263  29.789  1.00  0.00     0.074 A 
ATOM     56  C   UNL A   1      40.813  31.091  30.109  1.00  0.00     0.029 A 
ATOM     57  N   UNL A   1      42.478  29.657  29.764  1.00  0.00    -0.354 N 
ATOM     58  N   UNL A   1      45.272  28.762  29.830  1.00  0.00    -0.248 NA
ATOM     59  C   UNL A   1      47.534  29.200  30.216  1.00  0.00     0.031 C 
ATOM     60  C   UNL A   1      42.014  31.711  30.469  1.00  0.00     0.029 A 
ATOM     61  C   UNL A   1      43.048  30.810  30.276  1.00  0.00     0.049 A 
ATOM     62  H   UNL A   1      42.974  28.842  29.518  1.00  0.00     0.167 HD
ATOM     63  C   UNL A   1      45.410  30.055  30.317  1.00  0.00     0.074 A 
ATOM     64  C   UNL A   1      46.822  30.260  30.569  1.00  0.00     0.031 C 
ATOM     65  C   UNL A   1      44.454  30.990  30.537  1.00  0.00     0.037 A 
BRANCH  52  66
ATOM     66  C   UNL A   1      38.745  29.158  29.042  1.00  0.00     0.057 A 
ATOM     67  C   UNL A   1      37.891  29.064  30.149  1.00  0.00     0.134 A 
ATOM     68  C   UNL A   1      38.195  29.619  27.840  1.00  0.00     0.134 A 
ATOM     69  F   UNL A   1      38.353  28.618  31.328  1.00  0.00    -0.206 F 
ATOM     70  C   UNL A   1      36.537  29.391  30.058  1.00  0.00     0.040 A 
ATOM     71  C   UNL A   1      36.849  29.975  27.742  1.00  0.00     0.040 A 
ATOM     72  F   UNL A   1      38.958  29.739  26.743  1.00  0.00    -0.206 F 
ATOM     73  C   UNL A   1      36.015  29.856  28.853  1.00  0.00     0.006 A 
ENDBRANCH  52  66
BRANCH  53  74
ATOM     74  C   UNL A   1      48.368  26.516  29.425  1.00  0.00     0.057 A 
ATOM     75  C   UNL A   1      48.912  25.893  30.556  1.00  0.00     0.134 A 
ATOM     76  C   UNL A   1      49.234  26.792  28.362  1.00  0.00     0.134 A 
ATOM     77  F   UNL A   1      48.136  25.620  31.615  1.00  0.00    -0.206 F 
ATOM     78  C   UNL A   1      50.270  25.580  30.635  1.00  0.00     0.040 A 
ATOM     79  C   UNL A   1      50.589  26.460  28.418  1.00  0.00     0.040 A 
ATOM     80  F   UNL A   1      48.775  27.381  27.249  1.00  0.00    -0.206 F 
ATOM     81  C   UNL A   1      51.113  25.861  29.562  1.00  0.00     0.006 A 
ENDBRANCH  53  74
BRANCH  65  82
ATOM     82  C   UNL A   1      44.895  32.298  31.123  1.00  0.00     0.057 A 
ATOM     83  C   UNL A   1      45.250  33.388  30.317  1.00  0.00     0.134 A 
ATOM     84  C   UNL A   1      44.927  32.481  32.511  1.00  0.00     0.134 A 
ATOM     85  F   UNL A   1      45.253  33.274  28.981  1.00  0.00    -0.206 F 
ATOM     86  C   UNL A   1      45.646  34.606  30.874  1.00  0.00     0.040 A 
ATOM     87  C   UNL A   1      45.295  33.701  33.078  1.00  0.00     0.040 A 
ATOM     88  F   UNL A   1      44.590  31.479  33.337  1.00  0.00    -0.206 F 
ATOM     89  C   UNL A   1      45.662  34.766  32.259  1.00  0.00     0.006 A 
ENDBRANCH  65  82
ENDBRANCH  39  40
ENDBRANCH  31  34
ENDBRANCH  29  30
ENDBRANCH  28  29
ENDBRANCH  27  28
ENDBRANCH   1  27
TORSDOF 16
ENDMDL
