MODEL 1
REMARK VINA RESULT:     -12.4      0.000      0.000
REMARK SMILES CC(C)C(=O)Nc1ccc2c([C@H](C(=O)NCCCCCCNC(=O)c3ccc(-c4c5nc(c(-c6c(F)cccc6F)c6ccc([nH]6)c(-c6c(F)cccc6F)c6nc(c(-c7c(F)cccc7F)c7ccc4[nH]7)C=C6)C=C5)cc3)[NH+]3CC[NH+](CC(=O)N(C)C)CC3)c[nH]c2c1
REMARK SMILES IDX 18 1 17 2 16 3 15 4 13 5 14 6 12 8 11 9 7 10 8 11 94 12 9 13
REMARK SMILES IDX 93 14 10 15 92 16 91 17 6 19 4 20 5 21 2 23 1 24 3 25 79 26
REMARK SMILES IDX 80 27 90 28 81 30 89 31 82 32 83 34 84 35 85 36 86 37 87 38
REMARK SMILES IDX 88 39 19 40 20 41 21 42 22 43 23 44 24 46 25 47 26 48 78 49
REMARK SMILES IDX 27 50 77 51 28 52 29 53 30 54 71 55 31 56 76 57 70 58 72 59
REMARK SMILES IDX 32 60 75 61 69 62 68 63 33 65 59 66 42 67 58 68 43 69 46 70
REMARK SMILES IDX 57 71 73 72 44 73 45 74 56 76 74 77 47 78 34 79 35 80 40 81
REMARK SMILES IDX 36 82 37 83 39 84 41 85 38 86 60 87 61 88 66 89 62 90 63 91
REMARK SMILES IDX 65 92 67 93 64 94 48 95 49 96 54 97 50 98 51 99 53 100
REMARK SMILES IDX 55 101 52 102
REMARK H PARENT 15 7 92 18 6 22 79 29 82 33 22 45 72 64 46 75
REMARK Flexibility Score: inf
ROOT
ATOM      1  C   UNL A   1      33.531  28.978  26.364  1.00  0.00     0.002 C 
ENDROOT
BRANCH   1   2
ATOM      2  C   UNL A   1      33.693  28.433  24.939  1.00  0.00     0.021 C 
BRANCH   2   3
ATOM      3  C   UNL A   1      34.174  26.987  24.859  1.00  0.00     0.116 C 
BRANCH   3   4
ATOM      4  N   UNL A   1      33.608  26.311  23.709  1.00  0.00    -0.351 N 
ATOM      5  C   UNL A   1      32.375  25.780  23.487  1.00  0.00     0.283 C 
ATOM      6  O   UNL A   1      32.172  25.361  22.345  1.00  0.00    -0.268 OA
ATOM      7  H   UNL A   1      34.229  26.220  22.951  1.00  0.00     0.163 HD
BRANCH   5   8
ATOM      8  C   UNL A   1      31.325  25.770  24.609  1.00  0.00     0.308 C 
BRANCH   8   9
ATOM      9  C   UNL A   1      30.036  26.429  24.181  1.00  0.00     0.044 A 
ATOM     10  C   UNL A   1      29.170  29.892  21.991  1.00  0.00     0.043 A 
ATOM     11  C   UNL A   1      30.479  29.781  22.442  1.00  0.00     0.027 A 
ATOM     12  C   UNL A   1      28.182  29.007  22.441  1.00  0.00     0.052 A 
ATOM     13  C   UNL A   1      30.887  28.680  23.193  1.00  0.00     0.013 A 
ATOM     14  C   UNL A   1      28.607  27.901  23.184  1.00  0.00     0.048 A 
ATOM     15  C   UNL A   1      29.941  27.696  23.529  1.00  0.00     0.009 A 
ATOM     16  N   UNL A   1      27.896  26.838  23.685  1.00  0.00    -0.361 N 
ATOM     17  C   UNL A   1      28.745  25.936  24.262  1.00  0.00     0.094 A 
ATOM     18  H   UNL A   1      26.918  26.741  23.637  1.00  0.00     0.166 HD
BRANCH  10  19
ATOM     19  N   UNL A   1      28.786  30.901  21.106  1.00  0.00    -0.326 N 
ATOM     20  C   UNL A   1      28.173  32.098  21.337  1.00  0.00     0.226 C 
ATOM     21  O   UNL A   1      27.776  32.727  20.349  1.00  0.00    -0.274 OA
ATOM     22  H   UNL A   1      28.990  30.718  20.160  1.00  0.00     0.169 HD
BRANCH  20  23
ATOM     23  C   UNL A   1      28.065  32.743  22.729  1.00  0.00     0.072 C 
ATOM     24  C   UNL A   1      27.487  31.854  23.821  1.00  0.00     0.018 C 
ATOM     25  C   UNL A   1      29.325  33.482  23.177  1.00  0.00     0.018 C 
ENDBRANCH  20  23
ENDBRANCH  10  19
ENDBRANCH   8   9
BRANCH   8  26
ATOM     26  N   UNL A   1      31.080  24.449  25.221  1.00  0.00    -0.312 N 
ATOM     27  C   UNL A   1      31.253  23.273  24.360  1.00  0.00     0.325 C 
ATOM     28  C   UNL A   1      31.706  24.270  26.530  1.00  0.00     0.325 C 
ATOM     29  H   UNL A   1      30.072  24.492  25.368  1.00  0.00     0.349 HD
ATOM     30  C   UNL A   1      32.636  22.580  24.379  1.00  0.00     0.325 C 
ATOM     31  C   UNL A   1      33.108  23.626  26.531  1.00  0.00     0.325 C 
ATOM     32  N   UNL A   1      33.290  22.443  25.691  1.00  0.00    -0.318 N 
ATOM     33  H   UNL A   1      34.295  22.419  25.517  1.00  0.00     0.348 HD
BRANCH  32  34
ATOM     34  C   UNL A   1      33.064  21.141  26.341  1.00  0.00     0.364 C 
BRANCH  34  35
ATOM     35  C   UNL A   1      33.127  19.943  25.389  1.00  0.00     0.277 C 
ATOM     36  O   UNL A   1      32.082  19.364  25.070  1.00  0.00    -0.268 OA
ATOM     37  N   UNL A   1      34.361  19.487  24.945  1.00  0.00    -0.344 N 
ATOM     38  C   UNL A   1      35.608  20.232  24.959  1.00  0.00     0.146 C 
ATOM     39  C   UNL A   1      34.397  18.171  24.331  1.00  0.00     0.146 C 
ENDBRANCH  34  35
ENDBRANCH  32  34
ENDBRANCH   8  26
ENDBRANCH   5   8
ENDBRANCH   3   4
ENDBRANCH   2   3
ENDBRANCH   1   2
BRANCH   1  40
ATOM     40  C   UNL A   1      32.118  29.431  26.745  1.00  0.00     0.002 C 
BRANCH  40  41
ATOM     41  C   UNL A   1      31.868  30.933  26.628  1.00  0.00     0.021 C 
BRANCH  41  42
ATOM     42  C   UNL A   1      33.025  31.791  27.109  1.00  0.00     0.116 C 
BRANCH  42  43
ATOM     43  N   UNL A   1      32.591  33.126  27.482  1.00  0.00    -0.352 N 
ATOM     44  C   UNL A   1      33.151  33.989  28.394  1.00  0.00     0.251 C 
ATOM     45  H   UNL A   1      31.789  33.458  27.020  1.00  0.00     0.163 HD
ATOM     46  O   UNL A   1      32.556  34.991  28.757  1.00  0.00    -0.269 OA
BRANCH  44  47
ATOM     47  C   UNL A   1      34.481  33.665  28.951  1.00  0.00     0.039 A 
ATOM     48  C   UNL A   1      34.558  32.931  30.135  1.00  0.00     0.014 A 
ATOM     49  C   UNL A   1      35.642  34.044  28.271  1.00  0.00     0.014 A 
ATOM     50  C   UNL A   1      35.804  32.506  30.598  1.00  0.00     0.010 A 
ATOM     51  C   UNL A   1      36.873  33.552  28.690  1.00  0.00     0.010 A 
ATOM     52  C   UNL A   1      36.964  32.773  29.853  1.00  0.00    -0.014 A 
BRANCH  52  53
ATOM     53  C   UNL A   1      38.282  32.224  30.256  1.00  0.00     0.031 A 
ATOM     54  C   UNL A   1      38.754  30.911  29.699  1.00  0.00     0.074 A 
ATOM     55  C   UNL A   1      39.013  32.870  31.184  1.00  0.00     0.049 A 
ATOM     56  N   UNL A   1      39.829  30.227  29.997  1.00  0.00    -0.248 NA
ATOM     57  C   UNL A   1      37.894  30.272  28.691  1.00  0.00     0.031 C 
ATOM     58  C   UNL A   1      38.639  34.131  31.830  1.00  0.00     0.029 A 
ATOM     59  N   UNL A   1      40.218  32.549  31.758  1.00  0.00    -0.354 N 
ATOM     60  C   UNL A   1      39.768  29.075  29.224  1.00  0.00     0.074 A 
ATOM     61  C   UNL A   1      38.527  29.127  28.483  1.00  0.00     0.031 C 
ATOM     62  C   UNL A   1      39.603  34.484  32.696  1.00  0.00     0.029 A 
ATOM     63  C   UNL A   1      40.636  33.454  32.703  1.00  0.00     0.049 A 
ATOM     64  H   UNL A   1      40.733  31.746  31.516  1.00  0.00     0.167 HD
ATOM     65  C   UNL A   1      40.677  28.075  29.125  1.00  0.00     0.037 A 
ATOM     66  C   UNL A   1      41.723  33.446  33.498  1.00  0.00     0.037 A 
ATOM     67  C   UNL A   1      41.917  28.037  29.857  1.00  0.00     0.049 A 
ATOM     68  C   UNL A   1      42.697  32.306  33.395  1.00  0.00     0.074 A 
ATOM     69  C   UNL A   1      42.932  27.099  29.781  1.00  0.00     0.029 A 
ATOM     70  N   UNL A   1      42.306  28.971  30.805  1.00  0.00    -0.354 N 
ATOM     71  N   UNL A   1      42.665  31.260  32.607  1.00  0.00    -0.248 NA
ATOM     72  C   UNL A   1      43.859  32.345  34.295  1.00  0.00     0.031 C 
ATOM     73  C   UNL A   1      43.907  27.433  30.725  1.00  0.00     0.029 A 
ATOM     74  C   UNL A   1      43.528  28.611  31.349  1.00  0.00     0.049 A 
ATOM     75  H   UNL A   1      41.789  29.771  31.055  1.00  0.00     0.167 HD
ATOM     76  C   UNL A   1      43.808  30.527  32.899  1.00  0.00     0.074 A 
ATOM     77  C   UNL A   1      44.524  31.261  33.921  1.00  0.00     0.031 C 
ATOM     78  C   UNL A   1      44.227  29.351  32.370  1.00  0.00     0.037 A 
BRANCH  65  79
ATOM     79  C   UNL A   1      40.362  26.940  28.196  1.00  0.00     0.057 A 
ATOM     80  C   UNL A   1      40.904  26.865  26.907  1.00  0.00     0.134 A 
ATOM     81  C   UNL A   1      39.536  25.887  28.610  1.00  0.00     0.134 A 
ATOM     82  F   UNL A   1      41.693  27.846  26.443  1.00  0.00    -0.206 F 
ATOM     83  C   UNL A   1      40.618  25.797  26.053  1.00  0.00     0.040 A 
ATOM     84  C   UNL A   1      39.266  24.799  27.778  1.00  0.00     0.040 A 
ATOM     85  F   UNL A   1      38.986  25.891  29.834  1.00  0.00    -0.206 F 
ATOM     86  C   UNL A   1      39.803  24.756  26.492  1.00  0.00     0.006 A 
ENDBRANCH  65  79
BRANCH  66  87
ATOM     87  C   UNL A   1      41.948  34.553  34.463  1.00  0.00     0.057 A 
ATOM     88  C   UNL A   1      41.419  34.503  35.758  1.00  0.00     0.134 A 
ATOM     89  C   UNL A   1      42.685  35.691  34.113  1.00  0.00     0.134 A 
ATOM     90  F   UNL A   1      40.687  33.447  36.147  1.00  0.00    -0.206 F 
ATOM     91  C   UNL A   1      41.593  35.552  36.662  1.00  0.00     0.040 A 
ATOM     92  C   UNL A   1      42.892  36.734  35.017  1.00  0.00     0.040 A 
ATOM     93  F   UNL A   1      43.226  35.798  32.891  1.00  0.00    -0.206 F 
ATOM     94  C   UNL A   1      42.338  36.671  36.293  1.00  0.00     0.006 A 
ENDBRANCH  66  87
BRANCH  78  95
ATOM     95  C   UNL A   1      45.526  28.794  32.875  1.00  0.00     0.057 A 
ATOM     96  C   UNL A   1      45.575  27.889  33.944  1.00  0.00     0.134 A 
ATOM     97  C   UNL A   1      46.738  29.137  32.261  1.00  0.00     0.134 A 
ATOM     98  F   UNL A   1      44.453  27.531  34.584  1.00  0.00    -0.206 F 
ATOM     99  C   UNL A   1      46.786  27.363  34.398  1.00  0.00     0.040 A 
ATOM    100  C   UNL A   1      47.950  28.594  32.687  1.00  0.00     0.040 A 
ATOM    101  F   UNL A   1      46.760  29.992  31.227  1.00  0.00    -0.206 F 
ATOM    102  C   UNL A   1      47.977  27.709  33.763  1.00  0.00     0.006 A 
ENDBRANCH  78  95
ENDBRANCH  52  53
ENDBRANCH  44  47
ENDBRANCH  42  43
ENDBRANCH  41  42
ENDBRANCH  40  41
ENDBRANCH   1  40
TORSDOF 19
ENDMDL
MODEL 2
REMARK VINA RESULT:     -12.2      1.194      5.876
REMARK SMILES CC(C)C(=O)Nc1ccc2c([C@H](C(=O)NCCCCCCNC(=O)c3ccc(-c4c5nc(c(-c6c(F)cccc6F)c6ccc([nH]6)c(-c6c(F)cccc6F)c6nc(c(-c7c(F)cccc7F)c7ccc4[nH]7)C=C6)C=C5)cc3)[NH+]3CC[NH+](CC(=O)N(C)C)CC3)c[nH]c2c1
REMARK SMILES IDX 18 1 17 2 16 3 15 4 13 5 14 6 12 8 11 9 7 10 8 11 94 12 9 13
REMARK SMILES IDX 93 14 10 15 92 16 91 17 6 19 4 20 5 21 2 23 1 24 3 25 79 26
REMARK SMILES IDX 80 27 90 28 81 30 89 31 82 32 83 34 84 35 85 36 86 37 87 38
REMARK SMILES IDX 88 39 19 40 20 41 21 42 22 43 23 44 24 46 25 47 26 48 78 49
REMARK SMILES IDX 27 50 77 51 28 52 29 53 30 54 71 55 31 56 76 57 70 58 72 59
REMARK SMILES IDX 32 60 75 61 69 62 68 63 33 65 59 66 42 67 58 68 43 69 46 70
REMARK SMILES IDX 57 71 73 72 44 73 45 74 56 76 74 77 47 78 34 79 35 80 40 81
REMARK SMILES IDX 36 82 37 83 39 84 41 85 38 86 60 87 61 88 66 89 62 90 63 91
REMARK SMILES IDX 65 92 67 93 64 94 48 95 49 96 54 97 50 98 51 99 53 100
REMARK SMILES IDX 55 101 52 102
REMARK H PARENT 15 7 92 18 6 22 79 29 82 33 22 45 72 64 46 75
REMARK Flexibility Score: inf
ROOT
ATOM      1  C   UNL A   1      32.212  29.359  27.056  1.00  0.00     0.002 C 
ENDROOT
BRANCH   1   2
ATOM      2  C   UNL A   1      33.550  28.651  26.805  1.00  0.00     0.021 C 
BRANCH   2   3
ATOM      3  C   UNL A   1      33.439  27.153  26.536  1.00  0.00     0.116 C 
BRANCH   3   4
ATOM      4  N   UNL A   1      34.061  26.802  25.275  1.00  0.00    -0.351 N 
ATOM      5  C   UNL A   1      33.714  25.905  24.312  1.00  0.00     0.283 C 
ATOM      6  O   UNL A   1      34.408  25.921  23.293  1.00  0.00    -0.268 OA
ATOM      7  H   UNL A   1      34.886  27.303  25.081  1.00  0.00     0.163 HD
BRANCH   5   8
ATOM      8  C   UNL A   1      32.498  24.987  24.514  1.00  0.00     0.308 C 
BRANCH   8   9
ATOM      9  C   UNL A   1      31.196  25.740  24.380  1.00  0.00     0.044 A 
ATOM     10  C   UNL A   1      30.054  29.146  22.228  1.00  0.00     0.043 A 
ATOM     11  C   UNL A   1      31.423  28.938  22.337  1.00  0.00     0.027 A 
ATOM     12  C   UNL A   1      29.154  28.382  22.980  1.00  0.00     0.052 A 
ATOM     13  C   UNL A   1      31.928  27.846  23.040  1.00  0.00     0.013 A 
ATOM     14  C   UNL A   1      29.673  27.283  23.672  1.00  0.00     0.048 A 
ATOM     15  C   UNL A   1      31.031  26.974  23.679  1.00  0.00     0.009 A 
ATOM     16  N   UNL A   1      29.038  26.319  24.417  1.00  0.00    -0.361 N 
ATOM     17  C   UNL A   1      29.937  25.374  24.824  1.00  0.00     0.094 A 
ATOM     18  H   UNL A   1      28.076  26.310  24.627  1.00  0.00     0.166 HD
BRANCH  10  19
ATOM     19  N   UNL A   1      29.531  30.137  21.396  1.00  0.00    -0.326 N 
ATOM     20  C   UNL A   1      28.816  31.261  21.696  1.00  0.00     0.226 C 
ATOM     21  O   UNL A   1      28.312  31.876  20.750  1.00  0.00    -0.274 OA
ATOM     22  H   UNL A   1      29.705  30.005  20.436  1.00  0.00     0.169 HD
BRANCH  20  23
ATOM     23  C   UNL A   1      28.714  31.851  23.113  1.00  0.00     0.072 C 
ATOM     24  C   UNL A   1      29.133  33.309  23.248  1.00  0.00     0.018 C 
ATOM     25  C   UNL A   1      27.395  31.549  23.824  1.00  0.00     0.018 C 
ENDBRANCH  20  23
ENDBRANCH  10  19
ENDBRANCH   8   9
BRANCH   8  26
ATOM     26  N   UNL A   1      32.501  23.761  23.693  1.00  0.00    -0.312 N 
ATOM     27  C   UNL A   1      33.778  23.051  23.558  1.00  0.00     0.325 C 
ATOM     28  C   UNL A   1      31.392  22.850  23.974  1.00  0.00     0.325 C 
ATOM     29  H   UNL A   1      32.345  24.153  22.765  1.00  0.00     0.349 HD
ATOM     30  C   UNL A   1      34.058  21.903  24.557  1.00  0.00     0.325 C 
ATOM     31  C   UNL A   1      31.667  21.742  25.011  1.00  0.00     0.325 C 
ATOM     32  N   UNL A   1      32.929  21.015  24.879  1.00  0.00    -0.318 N 
ATOM     33  H   UNL A   1      33.100  20.650  25.815  1.00  0.00     0.348 HD
BRANCH  32  34
ATOM     34  C   UNL A   1      32.889  19.781  24.076  1.00  0.00     0.364 C 
BRANCH  34  35
ATOM     35  C   UNL A   1      32.855  18.493  24.902  1.00  0.00     0.277 C 
ATOM     36  O   UNL A   1      32.309  18.497  26.012  1.00  0.00    -0.268 OA
ATOM     37  N   UNL A   1      33.488  17.355  24.422  1.00  0.00    -0.344 N 
ATOM     38  C   UNL A   1      33.870  17.102  23.043  1.00  0.00     0.146 C 
ATOM     39  C   UNL A   1      33.718  16.277  25.368  1.00  0.00     0.146 C 
ENDBRANCH  34  35
ENDBRANCH  32  34
ENDBRANCH   8  26
ENDBRANCH   5   8
ENDBRANCH   3   4
ENDBRANCH   2   3
ENDBRANCH   1   2
BRANCH   1  40
ATOM     40  C   UNL A   1      31.774  30.354  25.976  1.00  0.00     0.002 C 
BRANCH  40  41
ATOM     41  C   UNL A   1      31.461  31.760  26.481  1.00  0.00     0.021 C 
BRANCH  41  42
ATOM     42  C   UNL A   1      32.595  32.401  27.263  1.00  0.00     0.116 C 
BRANCH  42  43
ATOM     43  N   UNL A   1      32.356  33.814  27.502  1.00  0.00    -0.352 N 
ATOM     44  C   UNL A   1      32.991  34.655  28.385  1.00  0.00     0.251 C 
ATOM     45  H   UNL A   1      31.646  34.224  26.959  1.00  0.00     0.163 HD
ATOM     46  O   UNL A   1      32.542  35.764  28.628  1.00  0.00    -0.269 OA
BRANCH  44  47
ATOM     47  C   UNL A   1      34.216  34.180  29.060  1.00  0.00     0.039 A 
ATOM     48  C   UNL A   1      34.108  33.576  30.313  1.00  0.00     0.014 A 
ATOM     49  C   UNL A   1      35.458  34.287  28.426  1.00  0.00     0.014 A 
ATOM     50  C   UNL A   1      35.238  33.005  30.899  1.00  0.00     0.010 A 
ATOM     51  C   UNL A   1      36.564  33.649  28.974  1.00  0.00     0.010 A 
ATOM     52  C   UNL A   1      36.463  32.996  30.211  1.00  0.00    -0.014 A 
BRANCH  52  53
ATOM     53  C   UNL A   1      37.647  32.285  30.755  1.00  0.00     0.031 A 
ATOM     54  C   UNL A   1      38.380  32.841  31.942  1.00  0.00     0.074 A 
ATOM     55  C   UNL A   1      38.104  31.185  30.128  1.00  0.00     0.049 A 
ATOM     56  N   UNL A   1      39.483  32.416  32.504  1.00  0.00    -0.248 NA
ATOM     57  C   UNL A   1      37.813  34.047  32.566  1.00  0.00     0.031 C 
ATOM     58  C   UNL A   1      37.502  30.575  28.940  1.00  0.00     0.029 A 
ATOM     59  N   UNL A   1      39.191  30.390  30.393  1.00  0.00    -0.354 N 
ATOM     60  C   UNL A   1      39.746  33.305  33.537  1.00  0.00     0.074 A 
ATOM     61  C   UNL A   1      38.719  34.323  33.493  1.00  0.00     0.031 C 
ATOM     62  C   UNL A   1      38.216  29.493  28.591  1.00  0.00     0.029 A 
ATOM     63  C   UNL A   1      39.352  29.361  29.498  1.00  0.00     0.049 A 
ATOM     64  H   UNL A   1      39.799  30.545  31.152  1.00  0.00     0.167 HD
ATOM     65  C   UNL A   1      40.742  33.264  34.454  1.00  0.00     0.037 A 
ATOM     66  C   UNL A   1      40.316  28.424  29.408  1.00  0.00     0.037 A 
ATOM     67  C   UNL A   1      41.754  32.240  34.501  1.00  0.00     0.049 A 
ATOM     68  C   UNL A   1      41.431  28.423  30.416  1.00  0.00     0.074 A 
ATOM     69  C   UNL A   1      42.770  32.076  35.426  1.00  0.00     0.029 A 
ATOM     70  N   UNL A   1      41.884  31.214  33.577  1.00  0.00    -0.354 N 
ATOM     71  N   UNL A   1      41.628  29.226  31.433  1.00  0.00    -0.248 NA
ATOM     72  C   UNL A   1      42.460  27.385  30.263  1.00  0.00     0.031 C 
ATOM     73  C   UNL A   1      43.549  30.985  35.030  1.00  0.00     0.029 A 
ATOM     74  C   UNL A   1      42.987  30.435  33.890  1.00  0.00     0.049 A 
ATOM     75  H   UNL A   1      41.284  31.062  32.813  1.00  0.00     0.167 HD
ATOM     76  C   UNL A   1      42.788  28.781  32.053  1.00  0.00     0.074 A 
ATOM     77  C   UNL A   1      43.238  27.622  31.310  1.00  0.00     0.031 C 
ATOM     78  C   UNL A   1      43.425  29.286  33.137  1.00  0.00     0.037 A 
BRANCH  65  79
ATOM     79  C   UNL A   1      40.788  34.359  35.479  1.00  0.00     0.057 A 
ATOM     80  C   UNL A   1      41.501  35.545  35.265  1.00  0.00     0.134 A 
ATOM     81  C   UNL A   1      40.076  34.243  36.681  1.00  0.00     0.134 A 
ATOM     82  F   UNL A   1      42.215  35.716  34.142  1.00  0.00    -0.206 F 
ATOM     83  C   UNL A   1      41.527  36.566  36.217  1.00  0.00     0.040 A 
ATOM     84  C   UNL A   1      40.069  35.269  37.628  1.00  0.00     0.040 A 
ATOM     85  F   UNL A   1      39.367  33.136  36.949  1.00  0.00    -0.206 F 
ATOM     86  C   UNL A   1      40.802  36.432  37.399  1.00  0.00     0.006 A 
ENDBRANCH  65  79
BRANCH  66  87
ATOM     87  C   UNL A   1      40.271  27.411  28.324  1.00  0.00     0.057 A 
ATOM     88  C   UNL A   1      39.590  26.199  28.493  1.00  0.00     0.134 A 
ATOM     89  C   UNL A   1      40.916  27.621  27.099  1.00  0.00     0.134 A 
ATOM     90  F   UNL A   1      38.969  25.931  29.652  1.00  0.00    -0.206 F 
ATOM     91  C   UNL A   1      39.571  25.224  27.494  1.00  0.00     0.040 A 
ATOM     92  C   UNL A   1      40.881  26.666  26.080  1.00  0.00     0.040 A 
ATOM     93  F   UNL A   1      41.579  28.763  26.869  1.00  0.00    -0.206 F 
ATOM     94  C   UNL A   1      40.214  25.460  26.280  1.00  0.00     0.006 A 
ENDBRANCH  66  87
BRANCH  78  95
ATOM     95  C   UNL A   1      44.667  28.579  33.596  1.00  0.00     0.057 A 
ATOM     96  C   UNL A   1      45.942  28.971  33.165  1.00  0.00     0.134 A 
ATOM     97  C   UNL A   1      44.591  27.519  34.509  1.00  0.00     0.134 A 
ATOM     98  F   UNL A   1      46.083  29.968  32.280  1.00  0.00    -0.206 F 
ATOM     99  C   UNL A   1      47.094  28.319  33.608  1.00  0.00     0.040 A 
ATOM    100  C   UNL A   1      45.737  26.880  34.982  1.00  0.00     0.040 A 
ATOM    101  F   UNL A   1      43.403  27.100  34.969  1.00  0.00    -0.206 F 
ATOM    102  C   UNL A   1      46.993  27.276  34.526  1.00  0.00     0.006 A 
ENDBRANCH  78  95
ENDBRANCH  52  53
ENDBRANCH  44  47
ENDBRANCH  42  43
ENDBRANCH  41  42
ENDBRANCH  40  41
ENDBRANCH   1  40
TORSDOF 19
ENDMDL
MODEL 3
REMARK VINA RESULT:     -12.1      1.903      2.833
REMARK SMILES CC(C)C(=O)Nc1ccc2c([C@H](C(=O)NCCCCCCNC(=O)c3ccc(-c4c5nc(c(-c6c(F)cccc6F)c6ccc([nH]6)c(-c6c(F)cccc6F)c6nc(c(-c7c(F)cccc7F)c7ccc4[nH]7)C=C6)C=C5)cc3)[NH+]3CC[NH+](CC(=O)N(C)C)CC3)c[nH]c2c1
REMARK SMILES IDX 18 1 17 2 16 3 15 4 13 5 14 6 12 8 11 9 7 10 8 11 94 12 9 13
REMARK SMILES IDX 93 14 10 15 92 16 91 17 6 19 4 20 5 21 2 23 1 24 3 25 79 26
REMARK SMILES IDX 80 27 90 28 81 30 89 31 82 32 83 34 84 35 85 36 86 37 87 38
REMARK SMILES IDX 88 39 19 40 20 41 21 42 22 43 23 44 24 46 25 47 26 48 78 49
REMARK SMILES IDX 27 50 77 51 28 52 29 53 30 54 71 55 31 56 76 57 70 58 72 59
REMARK SMILES IDX 32 60 75 61 69 62 68 63 33 65 59 66 42 67 58 68 43 69 46 70
REMARK SMILES IDX 57 71 73 72 44 73 45 74 56 76 74 77 47 78 34 79 35 80 40 81
REMARK SMILES IDX 36 82 37 83 39 84 41 85 38 86 60 87 61 88 66 89 62 90 63 91
REMARK SMILES IDX 65 92 67 93 64 94 48 95 49 96 54 97 50 98 51 99 53 100
REMARK SMILES IDX 55 101 52 102
REMARK H PARENT 15 7 92 18 6 22 79 29 82 33 22 45 72 64 46 75
REMARK Flexibility Score: inf
ROOT
ATOM      1  C   UNL A   1      32.147  28.914  26.532  1.00  0.00     0.002 C 
ENDROOT
BRANCH   1   2
ATOM      2  C   UNL A   1      33.359  28.046  26.170  1.00  0.00     0.021 C 
BRANCH   2   3
ATOM      3  C   UNL A   1      33.198  26.562  26.487  1.00  0.00     0.116 C 
BRANCH   3   4
ATOM      4  N   UNL A   1      34.389  25.819  26.125  1.00  0.00    -0.351 N 
ATOM      5  C   UNL A   1      34.604  24.852  25.192  1.00  0.00     0.283 C 
ATOM      6  O   UNL A   1      35.776  24.491  25.059  1.00  0.00    -0.268 OA
ATOM      7  H   UNL A   1      35.186  26.058  26.650  1.00  0.00     0.163 HD
BRANCH   5   8
ATOM      8  C   UNL A   1      33.434  24.313  24.354  1.00  0.00     0.308 C 
BRANCH   8   9
ATOM      9  C   UNL A   1      32.874  25.365  23.427  1.00  0.00     0.044 A 
ATOM     10  C   UNL A   1      29.190  27.347  23.223  1.00  0.00     0.043 A 
ATOM     11  C   UNL A   1      29.219  26.220  24.034  1.00  0.00     0.027 A 
ATOM     12  C   UNL A   1      30.265  27.644  22.375  1.00  0.00     0.052 A 
ATOM     13  C   UNL A   1      30.384  25.467  24.173  1.00  0.00     0.013 A 
ATOM     14  C   UNL A   1      31.430  26.888  22.534  1.00  0.00     0.048 A 
ATOM     15  C   UNL A   1      31.526  25.839  23.445  1.00  0.00     0.009 A 
ATOM     16  N   UNL A   1      32.652  26.996  21.915  1.00  0.00    -0.361 N 
ATOM     17  C   UNL A   1      33.533  26.105  22.461  1.00  0.00     0.094 A 
ATOM     18  H   UNL A   1      32.862  27.622  21.185  1.00  0.00     0.166 HD
BRANCH  10  19
ATOM     19  N   UNL A   1      28.086  28.200  23.198  1.00  0.00    -0.326 N 
ATOM     20  C   UNL A   1      28.018  29.564  23.197  1.00  0.00     0.226 C 
ATOM     21  O   UNL A   1      26.903  30.071  23.360  1.00  0.00    -0.274 OA
ATOM     22  H   UNL A   1      27.213  27.744  23.178  1.00  0.00     0.169 HD
BRANCH  20  23
ATOM     23  C   UNL A   1      29.218  30.474  22.887  1.00  0.00     0.072 C 
ATOM     24  C   UNL A   1      29.336  30.934  21.440  1.00  0.00     0.018 C 
ATOM     25  C   UNL A   1      29.413  31.615  23.885  1.00  0.00     0.018 C 
ENDBRANCH  20  23
ENDBRANCH  10  19
ENDBRANCH   8   9
BRANCH   8  26
ATOM     26  N   UNL A   1      33.710  23.052  23.638  1.00  0.00    -0.312 N 
ATOM     27  C   UNL A   1      34.536  22.057  24.331  1.00  0.00     0.325 C 
ATOM     28  C   UNL A   1      32.534  22.450  23.010  1.00  0.00     0.325 C 
ATOM     29  H   UNL A   1      34.316  23.388  22.890  1.00  0.00     0.349 HD
ATOM     30  C   UNL A   1      33.797  20.968  25.144  1.00  0.00     0.325 C 
ATOM     31  C   UNL A   1      31.775  21.403  23.851  1.00  0.00     0.325 C 
ATOM     32  N   UNL A   1      32.584  20.396  24.535  1.00  0.00    -0.318 N 
ATOM     33  H   UNL A   1      31.990  20.084  25.302  1.00  0.00     0.348 HD
BRANCH  32  34
ATOM     34  C   UNL A   1      32.817  19.140  23.802  1.00  0.00     0.364 C 
BRANCH  34  35
ATOM     35  C   UNL A   1      32.837  17.890  24.687  1.00  0.00     0.277 C 
ATOM     36  O   UNL A   1      32.155  17.863  25.718  1.00  0.00    -0.268 OA
ATOM     37  N   UNL A   1      33.668  16.829  24.353  1.00  0.00    -0.344 N 
ATOM     38  C   UNL A   1      34.258  16.578  23.048  1.00  0.00     0.146 C 
ATOM     39  C   UNL A   1      33.906  15.828  25.377  1.00  0.00     0.146 C 
ENDBRANCH  34  35
ENDBRANCH  32  34
ENDBRANCH   8  26
ENDBRANCH   5   8
ENDBRANCH   3   4
ENDBRANCH   2   3
ENDBRANCH   1   2
BRANCH   1  40
ATOM     40  C   UNL A   1      32.090  30.289  25.857  1.00  0.00     0.002 C 
BRANCH  40  41
ATOM     41  C   UNL A   1      31.725  31.448  26.781  1.00  0.00     0.021 C 
BRANCH  41  42
ATOM     42  C   UNL A   1      32.919  32.260  27.253  1.00  0.00     0.116 C 
BRANCH  42  43
ATOM     43  N   UNL A   1      32.574  33.656  27.466  1.00  0.00    -0.352 N 
ATOM     44  C   UNL A   1      33.063  34.528  28.409  1.00  0.00     0.251 C 
ATOM     45  H   UNL A   1      31.901  34.027  26.852  1.00  0.00     0.163 HD
ATOM     46  O   UNL A   1      32.526  35.607  28.603  1.00  0.00    -0.269 OA
BRANCH  44  47
ATOM     47  C   UNL A   1      34.237  34.122  29.208  1.00  0.00     0.039 A 
ATOM     48  C   UNL A   1      34.038  33.407  30.389  1.00  0.00     0.014 A 
ATOM     49  C   UNL A   1      35.530  34.405  28.756  1.00  0.00     0.014 A 
ATOM     50  C   UNL A   1      35.141  32.904  31.080  1.00  0.00     0.010 A 
ATOM     51  C   UNL A   1      36.622  33.836  29.401  1.00  0.00     0.010 A 
ATOM     52  C   UNL A   1      36.437  33.075  30.565  1.00  0.00    -0.014 A 
BRANCH  52  53
ATOM     53  C   UNL A   1      37.613  32.442  31.211  1.00  0.00     0.031 A 
ATOM     54  C   UNL A   1      38.280  31.259  30.570  1.00  0.00     0.074 A 
ATOM     55  C   UNL A   1      38.025  32.884  32.414  1.00  0.00     0.049 A 
ATOM     56  N   UNL A   1      39.259  30.517  31.022  1.00  0.00    -0.248 NA
ATOM     57  C   UNL A   1      37.767  30.841  29.256  1.00  0.00     0.031 C 
ATOM     58  C   UNL A   1      37.428  33.996  33.158  1.00  0.00     0.029 A 
ATOM     59  N   UNL A   1      39.033  32.442  33.234  1.00  0.00    -0.354 N 
ATOM     60  C   UNL A   1      39.469  29.542  30.057  1.00  0.00     0.074 A 
ATOM     61  C   UNL A   1      38.484  29.753  29.019  1.00  0.00     0.031 C 
ATOM     62  C   UNL A   1      38.094  34.161  34.312  1.00  0.00     0.029 A 
ATOM     63  C   UNL A   1      39.129  33.138  34.414  1.00  0.00     0.049 A 
ATOM     64  H   UNL A   1      39.631  31.697  32.997  1.00  0.00     0.167 HD
ATOM     65  C   UNL A   1      40.414  28.571  30.030  1.00  0.00     0.037 A 
ATOM     66  C   UNL A   1      39.949  32.961  35.468  1.00  0.00     0.037 A 
ATOM     67  C   UNL A   1      41.399  28.375  31.061  1.00  0.00     0.049 A 
ATOM     68  C   UNL A   1      40.963  31.853  35.428  1.00  0.00     0.074 A 
ATOM     69  C   UNL A   1      42.436  27.459  31.097  1.00  0.00     0.029 A 
ATOM     70  N   UNL A   1      41.464  29.099  32.242  1.00  0.00    -0.354 N 
ATOM     71  N   UNL A   1      41.201  30.983  34.477  1.00  0.00    -0.248 NA
ATOM     72  C   UNL A   1      41.824  31.700  36.609  1.00  0.00     0.031 C 
ATOM     73  C   UNL A   1      43.092  27.589  32.324  1.00  0.00     0.029 A 
ATOM     74  C   UNL A   1      42.501  28.625  33.030  1.00  0.00     0.049 A 
ATOM     75  H   UNL A   1      40.863  29.839  32.484  1.00  0.00     0.167 HD
ATOM     76  C   UNL A   1      42.249  30.194  34.934  1.00  0.00     0.074 A 
ATOM     77  C   UNL A   1      42.616  30.704  36.238  1.00  0.00     0.031 C 
ATOM     78  C   UNL A   1      42.851  29.140  34.330  1.00  0.00     0.037 A 
BRANCH  65  79
ATOM     79  C   UNL A   1      40.423  27.645  28.849  1.00  0.00     0.057 A 
ATOM     80  C   UNL A   1      39.648  26.478  28.816  1.00  0.00     0.134 A 
ATOM     81  C   UNL A   1      41.186  27.945  27.712  1.00  0.00     0.134 A 
ATOM     82  F   UNL A   1      38.905  26.125  29.875  1.00  0.00    -0.206 F 
ATOM     83  C   UNL A   1      39.651  25.629  27.707  1.00  0.00     0.040 A 
ATOM     84  C   UNL A   1      41.174  27.120  26.586  1.00  0.00     0.040 A 
ATOM     85  F   UNL A   1      41.947  29.049  27.674  1.00  0.00    -0.206 F 
ATOM     86  C   UNL A   1      40.409  25.955  26.584  1.00  0.00     0.006 A 
ENDBRANCH  65  79
BRANCH  66  87
ATOM     87  C   UNL A   1      39.844  33.853  36.651  1.00  0.00     0.057 A 
ATOM     88  C   UNL A   1      39.022  33.523  37.735  1.00  0.00     0.134 A 
ATOM     89  C   UNL A   1      40.551  35.059  36.723  1.00  0.00     0.134 A 
ATOM     90  F   UNL A   1      38.304  32.390  37.717  1.00  0.00    -0.206 F 
ATOM     91  C   UNL A   1      38.889  34.370  38.837  1.00  0.00     0.040 A 
ATOM     92  C   UNL A   1      40.450  35.902  37.832  1.00  0.00     0.040 A 
ATOM     93  F   UNL A   1      41.363  35.430  35.722  1.00  0.00    -0.206 F 
ATOM     94  C   UNL A   1      39.609  35.562  38.889  1.00  0.00     0.006 A 
ENDBRANCH  66  87
BRANCH  78  95
ATOM     95  C   UNL A   1      43.981  28.481  35.065  1.00  0.00     0.057 A 
ATOM     96  C   UNL A   1      45.304  28.925  34.937  1.00  0.00     0.134 A 
ATOM     97  C   UNL A   1      43.738  27.414  35.941  1.00  0.00     0.134 A 
ATOM     98  F   UNL A   1      45.605  29.931  34.104  1.00  0.00    -0.206 F 
ATOM     99  C   UNL A   1      46.348  28.316  35.636  1.00  0.00     0.040 A 
ATOM    100  C   UNL A   1      44.770  26.818  36.667  1.00  0.00     0.040 A 
ATOM    101  F   UNL A   1      42.494  26.946  36.117  1.00  0.00    -0.206 F 
ATOM    102  C   UNL A   1      46.080  27.266  36.511  1.00  0.00     0.006 A 
ENDBRANCH  78  95
ENDBRANCH  52  53
ENDBRANCH  44  47
ENDBRANCH  42  43
ENDBRANCH  41  42
ENDBRANCH  40  41
ENDBRANCH   1  40
TORSDOF 19
ENDMDL
