MODEL 1
REMARK VINA RESULT:     -12.1      0.000      0.000
REMARK SMILES Cc1cc(NC(=O)c2ccc3ncsc3c2)sc1C(=O)NCCCCCCNC(=O)c1ccc(-c2c3nc(c(-c4c(F)cccc4F)c4ccc([nH]4)c(-c4c(F)cccc4F)c4nc(c(-c5c(F)cccc5F)c5ccc2[nH]5)C=C4)C=C3)cc1
REMARK SMILES IDX 24 1 23 2 22 3 21 4 19 5 20 6 18 8 1 9 2 10 3 11 4 12 17 13
REMARK SMILES IDX 5 14 6 15 7 17 8 18 9 19 16 20 10 21 15 22 11 23 14 24 12 25
REMARK SMILES IDX 13 26 25 27 26 28 27 29 28 30 29 31 30 33 31 34 32 35 84 36
REMARK SMILES IDX 33 37 83 38 34 39 35 40 36 41 77 42 37 43 82 44 76 45 78 46
REMARK SMILES IDX 38 47 81 48 75 49 74 50 39 52 65 53 48 54 64 55 49 56 52 57
REMARK SMILES IDX 63 58 79 59 50 60 51 61 62 63 80 64 53 65 40 66 41 67 46 68
REMARK SMILES IDX 42 69 43 70 45 71 47 72 44 73 66 74 67 75 72 76 68 77 69 78
REMARK SMILES IDX 71 79 73 80 70 81 54 82 55 83 60 84 56 85 57 86 59 87 61 88
REMARK SMILES IDX 58 89
REMARK H PARENT 21 7 5 16 28 32 78 51 52 62
REMARK Flexibility Score: inf
ROOT
ATOM      1  C   UNL A   1      35.910  20.709  25.146  1.00  0.00     0.002 C 
ENDROOT
BRANCH   1   2
ATOM      2  C   UNL A   1      35.475  21.834  26.087  1.00  0.00     0.021 C 
BRANCH   2   3
ATOM      3  C   UNL A   1      34.378  21.435  27.077  1.00  0.00     0.116 C 
BRANCH   3   4
ATOM      4  N   UNL A   1      33.436  20.519  26.484  1.00  0.00    -0.351 N 
ATOM      5  C   UNL A   1      32.538  20.600  25.452  1.00  0.00     0.261 C 
ATOM      6  O   UNL A   1      32.048  19.497  25.171  1.00  0.00    -0.268 OA
ATOM      7  H   UNL A   1      33.439  19.635  26.918  1.00  0.00     0.163 HD
BRANCH   5   8
ATOM      8  C   UNL A   1      32.154  21.825  24.741  1.00  0.00     0.097 A 
ATOM      9  C   UNL A   1      30.552  23.389  26.142  1.00  0.00     0.046 C 
ATOM     10  C   UNL A   1      31.309  22.919  24.951  1.00  0.00    -0.025 A 
ATOM     11  C   UNL A   1      31.148  23.678  23.746  1.00  0.00     0.042 A 
ATOM     12  C   UNL A   1      32.141  23.448  22.842  1.00  0.00     0.096 A 
ATOM     13  S   UNL A   1      32.925  21.996  23.161  1.00  0.00    -0.112 S 
BRANCH  12  14
ATOM     14  N   UNL A   1      32.580  24.168  21.757  1.00  0.00    -0.314 N 
ATOM     15  C   UNL A   1      32.985  25.492  21.772  1.00  0.00     0.256 C 
ATOM     16  H   UNL A   1      32.608  23.701  20.892  1.00  0.00     0.171 HD
ATOM     17  O   UNL A   1      33.184  26.115  20.733  1.00  0.00    -0.269 OA
BRANCH  15  18
ATOM     18  C   UNL A   1      33.249  26.170  23.066  1.00  0.00     0.041 A 
ATOM     19  C   UNL A   1      34.069  25.556  24.020  1.00  0.00     0.016 A 
ATOM     20  C   UNL A   1      32.562  27.357  23.353  1.00  0.00     0.035 A 
ATOM     21  C   UNL A   1      34.136  26.066  25.321  1.00  0.00     0.030 A 
ATOM     22  C   UNL A   1      32.626  27.842  24.672  1.00  0.00     0.055 A 
ATOM     23  C   UNL A   1      33.382  27.208  25.663  1.00  0.00     0.081 A 
ATOM     24  S   UNL A   1      31.821  29.199  25.370  1.00  0.00    -0.122 S 
ATOM     25  N   UNL A   1      33.295  27.765  26.928  1.00  0.00    -0.245 NA
ATOM     26  C   UNL A   1      32.505  28.813  26.892  1.00  0.00     0.176 A 
ENDBRANCH  15  18
ENDBRANCH  12  14
ENDBRANCH   5   8
ENDBRANCH   3   4
ENDBRANCH   2   3
ENDBRANCH   1   2
BRANCH   1  27
ATOM     27  C   UNL A   1      37.350  20.833  24.631  1.00  0.00     0.002 C 
BRANCH  27  28
ATOM     28  C   UNL A   1      38.266  19.644  24.944  1.00  0.00     0.021 C 
BRANCH  28  29
ATOM     29  C   UNL A   1      39.234  19.872  26.103  1.00  0.00     0.116 C 
BRANCH  29  30
ATOM     30  N   UNL A   1      40.480  19.148  25.911  1.00  0.00    -0.352 N 
ATOM     31  C   UNL A   1      41.774  19.604  25.924  1.00  0.00     0.251 C 
ATOM     32  H   UNL A   1      40.380  18.183  25.746  1.00  0.00     0.163 HD
ATOM     33  O   UNL A   1      42.676  18.900  25.487  1.00  0.00    -0.269 OA
BRANCH  31  34
ATOM     34  C   UNL A   1      42.085  20.944  26.466  1.00  0.00     0.039 A 
ATOM     35  C   UNL A   1      42.395  21.978  25.578  1.00  0.00     0.014 A 
ATOM     36  C   UNL A   1      42.117  21.170  27.845  1.00  0.00     0.014 A 
ATOM     37  C   UNL A   1      42.689  23.251  26.070  1.00  0.00     0.010 A 
ATOM     38  C   UNL A   1      42.344  22.453  28.333  1.00  0.00     0.010 A 
ATOM     39  C   UNL A   1      42.640  23.505  27.451  1.00  0.00    -0.014 A 
BRANCH  39  40
ATOM     40  C   UNL A   1      42.900  24.861  27.993  1.00  0.00     0.031 A 
ATOM     41  C   UNL A   1      44.287  25.254  28.420  1.00  0.00     0.074 A 
ATOM     42  C   UNL A   1      41.873  25.717  28.162  1.00  0.00     0.049 A 
ATOM     43  N   UNL A   1      44.697  26.363  28.980  1.00  0.00    -0.248 NA
ATOM     44  C   UNL A   1      45.348  24.255  28.216  1.00  0.00     0.031 C 
ATOM     45  C   UNL A   1      40.475  25.437  27.828  1.00  0.00     0.029 A 
ATOM     46  N   UNL A   1      41.846  26.992  28.666  1.00  0.00    -0.354 N 
ATOM     47  C   UNL A   1      46.057  26.191  29.206  1.00  0.00     0.074 A 
ATOM     48  C   UNL A   1      46.391  24.851  28.773  1.00  0.00     0.031 C 
ATOM     49  C   UNL A   1      39.731  26.515  28.117  1.00  0.00     0.029 A 
ATOM     50  C   UNL A   1      40.590  27.547  28.689  1.00  0.00     0.049 A 
ATOM     51  H   UNL A   1      42.650  27.464  28.982  1.00  0.00     0.167 HD
ATOM     52  C   UNL A   1      46.949  27.076  29.711  1.00  0.00     0.037 A 
ATOM     53  C   UNL A   1      40.177  28.751  29.128  1.00  0.00     0.037 A 
ATOM     54  C   UNL A   1      46.617  28.416  30.119  1.00  0.00     0.049 A 
ATOM     55  C   UNL A   1      41.186  29.714  29.688  1.00  0.00     0.074 A 
ATOM     56  C   UNL A   1      47.459  29.411  30.583  1.00  0.00     0.029 A 
ATOM     57  N   UNL A   1      45.336  28.947  30.112  1.00  0.00    -0.354 N 
ATOM     58  N   UNL A   1      42.479  29.562  29.836  1.00  0.00    -0.248 NA
ATOM     59  C   UNL A   1      40.677  31.018  30.135  1.00  0.00     0.031 C 
ATOM     60  C   UNL A   1      46.682  30.530  30.900  1.00  0.00     0.029 A 
ATOM     61  C   UNL A   1      45.361  30.248  30.587  1.00  0.00     0.049 A 
ATOM     62  H   UNL A   1      44.528  28.471  29.814  1.00  0.00     0.167 HD
ATOM     63  C   UNL A   1      42.944  30.758  30.370  1.00  0.00     0.074 A 
ATOM     64  C   UNL A   1      41.794  31.629  30.505  1.00  0.00     0.031 C 
ATOM     65  C   UNL A   1      44.207  31.103  30.715  1.00  0.00     0.037 A 
BRANCH  52  66
ATOM     66  C   UNL A   1      48.374  26.619  29.847  1.00  0.00     0.057 A 
ATOM     67  C   UNL A   1      48.814  25.895  30.963  1.00  0.00     0.134 A 
ATOM     68  C   UNL A   1      49.310  26.884  28.840  1.00  0.00     0.134 A 
ATOM     69  F   UNL A   1      47.972  25.617  31.969  1.00  0.00    -0.206 F 
ATOM     70  C   UNL A   1      50.141  25.478  31.087  1.00  0.00     0.040 A 
ATOM     71  C   UNL A   1      50.632  26.449  28.939  1.00  0.00     0.040 A 
ATOM     72  F   UNL A   1      48.955  27.567  27.741  1.00  0.00    -0.206 F 
ATOM     73  C   UNL A   1      51.053  25.751  30.070  1.00  0.00     0.006 A 
ENDBRANCH  52  66
BRANCH  53  74
ATOM     74  C   UNL A   1      38.743  29.122  29.030  1.00  0.00     0.057 A 
ATOM     75  C   UNL A   1      38.197  29.576  27.824  1.00  0.00     0.134 A 
ATOM     76  C   UNL A   1      37.886  29.029  30.132  1.00  0.00     0.134 A 
ATOM     77  F   UNL A   1      38.975  29.702  26.738  1.00  0.00    -0.206 F 
ATOM     78  C   UNL A   1      36.855  29.941  27.720  1.00  0.00     0.040 A 
ATOM     79  C   UNL A   1      36.534  29.367  30.036  1.00  0.00     0.040 A 
ATOM     80  F   UNL A   1      38.345  28.593  31.314  1.00  0.00    -0.206 F 
ATOM     81  C   UNL A   1      36.017  29.831  28.829  1.00  0.00     0.006 A 
ENDBRANCH  53  74
BRANCH  65  82
ATOM     82  C   UNL A   1      44.418  32.491  31.245  1.00  0.00     0.057 A 
ATOM     83  C   UNL A   1      44.385  32.771  32.617  1.00  0.00     0.134 A 
ATOM     84  C   UNL A   1      44.693  33.552  30.373  1.00  0.00     0.134 A 
ATOM     85  F   UNL A   1      44.113  31.801  33.503  1.00  0.00    -0.206 F 
ATOM     86  C   UNL A   1      44.596  34.063  33.101  1.00  0.00     0.040 A 
ATOM     87  C   UNL A   1      44.932  34.843  30.848  1.00  0.00     0.040 A 
ATOM     88  F   UNL A   1      44.748  33.350  29.049  1.00  0.00    -0.206 F 
ATOM     89  C   UNL A   1      44.878  35.101  32.216  1.00  0.00     0.006 A 
ENDBRANCH  65  82
ENDBRANCH  39  40
ENDBRANCH  31  34
ENDBRANCH  29  30
ENDBRANCH  28  29
ENDBRANCH  27  28
ENDBRANCH   1  27
TORSDOF 15
ENDMDL
MODEL 2
REMARK VINA RESULT:     -12.1      0.501      6.133
REMARK SMILES Cc1cc(NC(=O)c2ccc3ncsc3c2)sc1C(=O)NCCCCCCNC(=O)c1ccc(-c2c3nc(c(-c4c(F)cccc4F)c4ccc([nH]4)c(-c4c(F)cccc4F)c4nc(c(-c5c(F)cccc5F)c5ccc2[nH]5)C=C4)C=C3)cc1
REMARK SMILES IDX 24 1 23 2 22 3 21 4 19 5 20 6 18 8 1 9 2 10 3 11 4 12 17 13
REMARK SMILES IDX 5 14 6 15 7 17 8 18 9 19 16 20 10 21 15 22 11 23 14 24 12 25
REMARK SMILES IDX 13 26 25 27 26 28 27 29 28 30 29 31 30 33 31 34 32 35 84 36
REMARK SMILES IDX 33 37 83 38 34 39 35 40 36 41 77 42 37 43 82 44 76 45 78 46
REMARK SMILES IDX 38 47 81 48 75 49 74 50 39 52 65 53 48 54 64 55 49 56 52 57
REMARK SMILES IDX 63 58 79 59 50 60 51 61 62 63 80 64 53 65 40 66 41 67 46 68
REMARK SMILES IDX 42 69 43 70 45 71 47 72 44 73 66 74 67 75 72 76 68 77 69 78
REMARK SMILES IDX 71 79 73 80 70 81 54 82 55 83 60 84 56 85 57 86 59 87 61 88
REMARK SMILES IDX 58 89
REMARK H PARENT 21 7 5 16 28 32 78 51 52 62
REMARK Flexibility Score: inf
ROOT
ATOM      1  C   UNL A   1      35.761  20.827  25.271  1.00  0.00     0.002 C 
ENDROOT
BRANCH   1   2
ATOM      2  C   UNL A   1      35.352  21.873  26.309  1.00  0.00     0.021 C 
BRANCH   2   3
ATOM      3  C   UNL A   1      34.211  21.431  27.229  1.00  0.00     0.116 C 
BRANCH   3   4
ATOM      4  N   UNL A   1      33.328  20.501  26.570  1.00  0.00    -0.351 N 
ATOM      5  C   UNL A   1      32.490  20.576  25.488  1.00  0.00     0.261 C 
ATOM      6  O   UNL A   1      32.045  19.466  25.165  1.00  0.00    -0.268 OA
ATOM      7  H   UNL A   1      33.327  19.612  26.992  1.00  0.00     0.163 HD
BRANCH   5   8
ATOM      8  C   UNL A   1      32.119  21.802  24.771  1.00  0.00     0.097 A 
ATOM      9  C   UNL A   1      30.550  23.399  26.174  1.00  0.00     0.046 C 
ATOM     10  C   UNL A   1      31.292  22.909  24.980  1.00  0.00    -0.025 A 
ATOM     11  C   UNL A   1      31.132  23.662  23.772  1.00  0.00     0.042 A 
ATOM     12  C   UNL A   1      32.114  23.411  22.861  1.00  0.00     0.096 A 
ATOM     13  S   UNL A   1      32.880  21.950  23.184  1.00  0.00    -0.112 S 
BRANCH  12  14
ATOM     14  N   UNL A   1      32.555  24.118  21.768  1.00  0.00    -0.314 N 
ATOM     15  C   UNL A   1      32.973  25.438  21.769  1.00  0.00     0.256 C 
ATOM     16  H   UNL A   1      32.575  23.642  20.907  1.00  0.00     0.171 HD
ATOM     17  O   UNL A   1      33.173  26.050  20.724  1.00  0.00    -0.269 OA
BRANCH  15  18
ATOM     18  C   UNL A   1      33.249  26.125  23.056  1.00  0.00     0.041 A 
ATOM     19  C   UNL A   1      34.065  25.511  24.013  1.00  0.00     0.016 A 
ATOM     20  C   UNL A   1      32.575  27.322  23.334  1.00  0.00     0.035 A 
ATOM     21  C   UNL A   1      34.142  26.032  25.308  1.00  0.00     0.030 A 
ATOM     22  C   UNL A   1      32.649  27.819  24.648  1.00  0.00     0.055 A 
ATOM     23  C   UNL A   1      33.402  27.185  25.643  1.00  0.00     0.081 A 
ATOM     24  S   UNL A   1      31.861  29.190  25.336  1.00  0.00    -0.122 S 
ATOM     25  N   UNL A   1      33.326  27.756  26.902  1.00  0.00    -0.245 NA
ATOM     26  C   UNL A   1      32.547  28.812  26.859  1.00  0.00     0.176 A 
ENDBRANCH  15  18
ENDBRANCH  12  14
ENDBRANCH   5   8
ENDBRANCH   3   4
ENDBRANCH   2   3
ENDBRANCH   1   2
BRANCH   1  27
ATOM     27  C   UNL A   1      37.137  21.065  24.637  1.00  0.00     0.002 C 
BRANCH  27  28
ATOM     28  C   UNL A   1      38.156  19.936  24.828  1.00  0.00     0.021 C 
BRANCH  28  29
ATOM     29  C   UNL A   1      39.090  20.114  26.022  1.00  0.00     0.116 C 
BRANCH  29  30
ATOM     30  N   UNL A   1      40.268  19.268  25.912  1.00  0.00    -0.352 N 
ATOM     31  C   UNL A   1      41.598  19.596  25.984  1.00  0.00     0.251 C 
ATOM     32  H   UNL A   1      40.082  18.313  25.763  1.00  0.00     0.163 HD
ATOM     33  O   UNL A   1      42.447  18.796  25.611  1.00  0.00    -0.269 OA
BRANCH  31  34
ATOM     34  C   UNL A   1      42.011  20.914  26.512  1.00  0.00     0.039 A 
ATOM     35  C   UNL A   1      42.334  21.933  25.612  1.00  0.00     0.014 A 
ATOM     36  C   UNL A   1      42.125  21.130  27.889  1.00  0.00     0.014 A 
ATOM     37  C   UNL A   1      42.724  23.184  26.092  1.00  0.00     0.010 A 
ATOM     38  C   UNL A   1      42.449  22.397  28.367  1.00  0.00     0.010 A 
ATOM     39  C   UNL A   1      42.759  23.434  27.473  1.00  0.00    -0.014 A 
BRANCH  39  40
ATOM     40  C   UNL A   1      43.122  24.771  28.004  1.00  0.00     0.031 A 
ATOM     41  C   UNL A   1      42.057  25.799  28.265  1.00  0.00     0.074 A 
ATOM     42  C   UNL A   1      44.420  25.081  28.189  1.00  0.00     0.049 A 
ATOM     43  N   UNL A   1      42.183  27.040  28.659  1.00  0.00    -0.248 NA
ATOM     44  C   UNL A   1      40.666  25.384  28.022  1.00  0.00     0.031 C 
ATOM     45  C   UNL A   1      45.549  24.185  27.930  1.00  0.00     0.029 A 
ATOM     46  N   UNL A   1      45.009  26.239  28.629  1.00  0.00    -0.354 N 
ATOM     47  C   UNL A   1      40.895  27.557  28.699  1.00  0.00     0.074 A 
ATOM     48  C   UNL A   1      40.006  26.513  28.237  1.00  0.00     0.031 C 
ATOM     49  C   UNL A   1      46.691  24.820  28.234  1.00  0.00     0.029 A 
ATOM     50  C   UNL A   1      46.380  26.176  28.675  1.00  0.00     0.049 A 
ATOM     51  H   UNL A   1      44.497  27.040  28.886  1.00  0.00     0.167 HD
ATOM     52  C   UNL A   1      40.487  28.784  29.103  1.00  0.00     0.037 A 
ATOM     53  C   UNL A   1      47.284  27.109  29.028  1.00  0.00     0.037 A 
ATOM     54  C   UNL A   1      41.373  29.813  29.583  1.00  0.00     0.049 A 
ATOM     55  C   UNL A   1      46.807  28.465  29.468  1.00  0.00     0.074 A 
ATOM     56  C   UNL A   1      41.053  31.066  30.076  1.00  0.00     0.029 A 
ATOM     57  N   UNL A   1      42.755  29.705  29.630  1.00  0.00    -0.354 N 
ATOM     58  N   UNL A   1      45.581  28.918  29.562  1.00  0.00    -0.248 NA
ATOM     59  C   UNL A   1      47.841  29.435  29.856  1.00  0.00     0.031 C 
ATOM     60  C   UNL A   1      42.244  31.734  30.378  1.00  0.00     0.029 A 
ATOM     61  C   UNL A   1      43.304  30.878  30.120  1.00  0.00     0.049 A 
ATOM     62  H   UNL A   1      43.269  28.912  29.357  1.00  0.00     0.167 HD
ATOM     63  C   UNL A   1      45.693  30.217  30.044  1.00  0.00     0.074 A 
ATOM     64  C   UNL A   1      47.106  30.471  30.235  1.00  0.00     0.031 C 
ATOM     65  C   UNL A   1      44.713  31.116  30.305  1.00  0.00     0.037 A 
BRANCH  52  66
ATOM     66  C   UNL A   1      39.015  29.078  29.042  1.00  0.00     0.057 A 
ATOM     67  C   UNL A   1      38.190  28.957  30.167  1.00  0.00     0.134 A 
ATOM     68  C   UNL A   1      38.421  29.509  27.849  1.00  0.00     0.134 A 
ATOM     69  F   UNL A   1      38.693  28.538  31.338  1.00  0.00    -0.206 F 
ATOM     70  C   UNL A   1      36.822  29.226  30.102  1.00  0.00     0.040 A 
ATOM     71  C   UNL A   1      37.059  29.808  27.778  1.00  0.00     0.040 A 
ATOM     72  F   UNL A   1      39.153  29.653  26.734  1.00  0.00    -0.206 F 
ATOM     73  C   UNL A   1      36.253  29.658  28.905  1.00  0.00     0.006 A 
ENDBRANCH  52  66
BRANCH  53  74
ATOM     74  C   UNL A   1      48.732  26.783  29.004  1.00  0.00     0.057 A 
ATOM     75  C   UNL A   1      49.358  26.203  30.113  1.00  0.00     0.134 A 
ATOM     76  C   UNL A   1      49.521  27.035  27.876  1.00  0.00     0.134 A 
ATOM     77  F   UNL A   1      48.656  25.953  31.229  1.00  0.00    -0.206 F 
ATOM     78  C   UNL A   1      50.720  25.902  30.110  1.00  0.00     0.040 A 
ATOM     79  C   UNL A   1      50.881  26.717  27.850  1.00  0.00     0.040 A 
ATOM     80  F   UNL A   1      48.979  27.581  26.777  1.00  0.00    -0.206 F 
ATOM     81  C   UNL A   1      51.485  26.155  28.972  1.00  0.00     0.006 A 
ENDBRANCH  53  74
BRANCH  65  82
ATOM     82  C   UNL A   1      45.134  32.448  30.853  1.00  0.00     0.057 A 
ATOM     83  C   UNL A   1      45.390  33.543  30.019  1.00  0.00     0.134 A 
ATOM     84  C   UNL A   1      45.250  32.645  32.236  1.00  0.00     0.134 A 
ATOM     85  F   UNL A   1      45.311  33.415  28.686  1.00  0.00    -0.206 F 
ATOM     86  C   UNL A   1      45.768  34.782  30.539  1.00  0.00     0.040 A 
ATOM     87  C   UNL A   1      45.601  33.886  32.768  1.00  0.00     0.040 A 
ATOM     88  F   UNL A   1      45.010  31.640  33.090  1.00  0.00    -0.206 F 
ATOM     89  C   UNL A   1      45.866  34.957  31.918  1.00  0.00     0.006 A 
ENDBRANCH  65  82
ENDBRANCH  39  40
ENDBRANCH  31  34
ENDBRANCH  29  30
ENDBRANCH  28  29
ENDBRANCH  27  28
ENDBRANCH   1  27
TORSDOF 15
ENDMDL
MODEL 3
REMARK VINA RESULT:     -11.9      0.715      6.126
REMARK SMILES Cc1cc(NC(=O)c2ccc3ncsc3c2)sc1C(=O)NCCCCCCNC(=O)c1ccc(-c2c3nc(c(-c4c(F)cccc4F)c4ccc([nH]4)c(-c4c(F)cccc4F)c4nc(c(-c5c(F)cccc5F)c5ccc2[nH]5)C=C4)C=C3)cc1
REMARK SMILES IDX 24 1 23 2 22 3 21 4 19 5 20 6 18 8 1 9 2 10 3 11 4 12 17 13
REMARK SMILES IDX 5 14 6 15 7 17 8 18 9 19 16 20 10 21 15 22 11 23 14 24 12 25
REMARK SMILES IDX 13 26 25 27 26 28 27 29 28 30 29 31 30 33 31 34 32 35 84 36
REMARK SMILES IDX 33 37 83 38 34 39 35 40 36 41 77 42 37 43 82 44 76 45 78 46
REMARK SMILES IDX 38 47 81 48 75 49 74 50 39 52 65 53 48 54 64 55 49 56 52 57
REMARK SMILES IDX 63 58 79 59 50 60 51 61 62 63 80 64 53 65 40 66 41 67 46 68
REMARK SMILES IDX 42 69 43 70 45 71 47 72 44 73 66 74 67 75 72 76 68 77 69 78
REMARK SMILES IDX 71 79 73 80 70 81 54 82 55 83 60 84 56 85 57 86 59 87 61 88
REMARK SMILES IDX 58 89
REMARK H PARENT 21 7 5 16 28 32 78 51 52 62
REMARK Flexibility Score: inf
ROOT
ATOM      1  C   UNL A   1      36.242  21.840  25.968  1.00  0.00     0.002 C 
ENDROOT
BRANCH   1   2
ATOM      2  C   UNL A   1      34.877  22.402  26.369  1.00  0.00     0.021 C 
BRANCH   2   3
ATOM      3  C   UNL A   1      34.096  21.518  27.345  1.00  0.00     0.116 C 
BRANCH   3   4
ATOM      4  N   UNL A   1      33.245  20.585  26.649  1.00  0.00    -0.351 N 
ATOM      5  C   UNL A   1      32.486  20.643  25.510  1.00  0.00     0.261 C 
ATOM      6  O   UNL A   1      32.044  19.531  25.185  1.00  0.00    -0.268 OA
ATOM      7  H   UNL A   1      33.199  19.707  27.093  1.00  0.00     0.163 HD
BRANCH   5   8
ATOM      8  C   UNL A   1      32.186  21.855  24.738  1.00  0.00     0.097 A 
ATOM      9  C   UNL A   1      30.627  23.556  26.024  1.00  0.00     0.046 C 
ATOM     10  C   UNL A   1      31.393  22.998  24.877  1.00  0.00    -0.025 A 
ATOM     11  C   UNL A   1      31.306  23.712  23.638  1.00  0.00     0.042 A 
ATOM     12  C   UNL A   1      32.311  23.394  22.774  1.00  0.00     0.096 A 
ATOM     13  S   UNL A   1      33.010  21.919  23.177  1.00  0.00    -0.112 S 
BRANCH  12  14
ATOM     14  N   UNL A   1      32.818  24.044  21.675  1.00  0.00    -0.314 N 
ATOM     15  C   UNL A   1      32.723  25.402  21.419  1.00  0.00     0.256 C 
ATOM     16  H   UNL A   1      33.291  23.495  21.010  1.00  0.00     0.171 HD
ATOM     17  O   UNL A   1      33.035  25.875  20.331  1.00  0.00    -0.269 OA
BRANCH  15  18
ATOM     18  C   UNL A   1      32.290  26.329  22.496  1.00  0.00     0.041 A 
ATOM     19  C   UNL A   1      31.013  26.900  22.453  1.00  0.00     0.016 A 
ATOM     20  C   UNL A   1      33.226  26.710  23.467  1.00  0.00     0.035 A 
ATOM     21  C   UNL A   1      30.682  27.944  23.322  1.00  0.00     0.030 A 
ATOM     22  C   UNL A   1      32.881  27.776  24.318  1.00  0.00     0.055 A 
ATOM     23  C   UNL A   1      31.636  28.411  24.249  1.00  0.00     0.081 A 
ATOM     24  S   UNL A   1      33.833  28.548  25.532  1.00  0.00    -0.122 S 
ATOM     25  N   UNL A   1      31.466  29.485  25.107  1.00  0.00    -0.245 NA
ATOM     26  C   UNL A   1      32.553  29.647  25.826  1.00  0.00     0.176 A 
ENDBRANCH  15  18
ENDBRANCH  12  14
ENDBRANCH   5   8
ENDBRANCH   3   4
ENDBRANCH   2   3
ENDBRANCH   1   2
BRANCH   1  27
ATOM     27  C   UNL A   1      36.181  20.664  24.985  1.00  0.00     0.002 C 
BRANCH  27  28
ATOM     28  C   UNL A   1      37.409  19.746  24.979  1.00  0.00     0.021 C 
BRANCH  28  29
ATOM     29  C   UNL A   1      38.703  20.408  25.447  1.00  0.00     0.116 C 
BRANCH  29  30
ATOM     30  N   UNL A   1      39.754  19.428  25.674  1.00  0.00    -0.352 N 
ATOM     31  C   UNL A   1      41.057  19.610  26.061  1.00  0.00     0.251 C 
ATOM     32  H   UNL A   1      39.489  18.492  25.527  1.00  0.00     0.163 HD
ATOM     33  O   UNL A   1      41.863  18.694  25.948  1.00  0.00    -0.269 OA
BRANCH  31  34
ATOM     34  C   UNL A   1      41.495  20.909  26.615  1.00  0.00     0.039 A 
ATOM     35  C   UNL A   1      42.015  21.874  25.748  1.00  0.00     0.014 A 
ATOM     36  C   UNL A   1      41.437  21.158  27.989  1.00  0.00     0.014 A 
ATOM     37  C   UNL A   1      42.432  23.107  26.252  1.00  0.00     0.010 A 
ATOM     38  C   UNL A   1      41.788  22.411  28.482  1.00  0.00     0.010 A 
ATOM     39  C   UNL A   1      42.296  23.396  27.620  1.00  0.00    -0.014 A 
BRANCH  39  40
ATOM     40  C   UNL A   1      42.686  24.717  28.169  1.00  0.00     0.031 A 
ATOM     41  C   UNL A   1      41.650  25.787  28.377  1.00  0.00     0.074 A 
ATOM     42  C   UNL A   1      43.984  24.976  28.419  1.00  0.00     0.049 A 
ATOM     43  N   UNL A   1      41.807  27.023  28.779  1.00  0.00    -0.248 NA
ATOM     44  C   UNL A   1      40.258  25.428  28.065  1.00  0.00     0.031 C 
ATOM     45  C   UNL A   1      45.088  24.035  28.215  1.00  0.00     0.029 A 
ATOM     46  N   UNL A   1      44.596  26.110  28.888  1.00  0.00    -0.354 N 
ATOM     47  C   UNL A   1      40.540  27.591  28.754  1.00  0.00     0.074 A 
ATOM     48  C   UNL A   1      39.634  26.582  28.248  1.00  0.00     0.031 C 
ATOM     49  C   UNL A   1      46.238  24.624  28.577  1.00  0.00     0.029 A 
ATOM     50  C   UNL A   1      45.959  25.993  29.003  1.00  0.00     0.049 A 
ATOM     51  H   UNL A   1      44.105  26.931  29.120  1.00  0.00     0.167 HD
ATOM     52  C   UNL A   1      40.161  28.834  29.139  1.00  0.00     0.037 A 
ATOM     53  C   UNL A   1      46.881  26.889  29.401  1.00  0.00     0.037 A 
ATOM     54  C   UNL A   1      41.062  29.827  29.663  1.00  0.00     0.049 A 
ATOM     55  C   UNL A   1      46.438  28.263  29.818  1.00  0.00     0.074 A 
ATOM     56  C   UNL A   1      40.768  31.092  30.140  1.00  0.00     0.029 A 
ATOM     57  N   UNL A   1      42.434  29.664  29.779  1.00  0.00    -0.354 N 
ATOM     58  N   UNL A   1      45.227  28.765  29.851  1.00  0.00    -0.248 NA
ATOM     59  C   UNL A   1      47.488  29.192  30.257  1.00  0.00     0.031 C 
ATOM     60  C   UNL A   1      41.968  31.712  30.502  1.00  0.00     0.029 A 
ATOM     61  C   UNL A   1      43.005  30.815  30.297  1.00  0.00     0.049 A 
ATOM     62  H   UNL A   1      42.930  28.851  29.531  1.00  0.00     0.167 HD
ATOM     63  C   UNL A   1      45.366  30.059  30.339  1.00  0.00     0.074 A 
ATOM     64  C   UNL A   1      46.778  30.257  30.600  1.00  0.00     0.031 C 
ATOM     65  C   UNL A   1      44.412  30.996  30.552  1.00  0.00     0.037 A 
BRANCH  52  66
ATOM     66  C   UNL A   1      38.707  29.185  29.004  1.00  0.00     0.057 A 
ATOM     67  C   UNL A   1      38.154  29.587  27.781  1.00  0.00     0.134 A 
ATOM     68  C   UNL A   1      37.845  29.098  30.104  1.00  0.00     0.134 A 
ATOM     69  F   UNL A   1      38.926  29.703  26.691  1.00  0.00    -0.206 F 
ATOM     70  C   UNL A   1      36.803  29.919  27.664  1.00  0.00     0.040 A 
ATOM     71  C   UNL A   1      36.487  29.399  29.994  1.00  0.00     0.040 A 
ATOM     72  F   UNL A   1      38.306  28.713  31.304  1.00  0.00    -0.206 F 
ATOM     73  C   UNL A   1      35.963  29.820  28.772  1.00  0.00     0.006 A 
ENDBRANCH  52  66
BRANCH  53  74
ATOM     74  C   UNL A   1      48.314  26.506  29.448  1.00  0.00     0.057 A 
ATOM     75  C   UNL A   1      49.168  26.775  28.372  1.00  0.00     0.134 A 
ATOM     76  C   UNL A   1      48.866  25.869  30.566  1.00  0.00     0.134 A 
ATOM     77  F   UNL A   1      48.692  27.369  27.267  1.00  0.00    -0.206 F 
ATOM     78  C   UNL A   1      50.514  26.410  28.396  1.00  0.00     0.040 A 
ATOM     79  C   UNL A   1      50.217  25.519  30.614  1.00  0.00     0.040 A 
ATOM     80  F   UNL A   1      48.103  25.591  31.633  1.00  0.00    -0.206 F 
ATOM     81  C   UNL A   1      51.044  25.784  29.524  1.00  0.00     0.006 A 
ENDBRANCH  53  74
BRANCH  65  82
ATOM     82  C   UNL A   1      44.857  32.311  31.121  1.00  0.00     0.057 A 
ATOM     83  C   UNL A   1      44.947  32.526  32.502  1.00  0.00     0.134 A 
ATOM     84  C   UNL A   1      45.233  33.363  30.275  1.00  0.00     0.134 A 
ATOM     85  F   UNL A   1      44.588  31.565  33.365  1.00  0.00    -0.206 F 
ATOM     86  C   UNL A   1      45.376  33.749  33.022  1.00  0.00     0.040 A 
ATOM     87  C   UNL A   1      45.688  34.580  30.783  1.00  0.00     0.040 A 
ATOM     88  F   UNL A   1      45.178  33.220  28.943  1.00  0.00    -0.206 F 
ATOM     89  C   UNL A   1      45.755  34.777  32.161  1.00  0.00     0.006 A 
ENDBRANCH  65  82
ENDBRANCH  39  40
ENDBRANCH  31  34
ENDBRANCH  29  30
ENDBRANCH  28  29
ENDBRANCH  27  28
ENDBRANCH   1  27
TORSDOF 15
ENDMDL
