MODEL 1
REMARK VINA RESULT:     -11.4      0.000      0.000
REMARK SMILES C[C@H](CC(=O)NCCCCCCNC(=O)c1ccc(-c2c3nc(c(-c4c(F)cccc4F)c4ccc([nH]4)c(-c4c(F)cccc4F)c4nc(c(-c5c(F)cccc5F)c5ccc2[nH]5)C=C4)C=C3)cc1)N1C(=O)S/C(=C\c2ccc(Cl)cc2)C1=O
REMARK SMILES IDX 9 1 8 2 7 3 6 4 4 5 5 6 3 8 2 9 1 10 70 11 71 12 83 13 72 14
REMARK SMILES IDX 73 15 74 16 84 17 75 18 76 19 77 20 82 21 78 22 81 23 79 24
REMARK SMILES IDX 80 25 10 26 11 27 12 28 13 29 14 30 15 32 16 33 17 34 69 35
REMARK SMILES IDX 18 36 68 37 19 38 20 39 21 40 62 41 22 42 67 43 61 44 63 45
REMARK SMILES IDX 23 46 66 47 60 48 59 49 24 51 50 52 33 53 49 54 34 55 37 56
REMARK SMILES IDX 48 57 64 58 35 59 36 60 47 62 65 63 38 64 25 65 26 66 31 67
REMARK SMILES IDX 27 68 28 69 30 70 32 71 29 72 51 73 52 74 57 75 53 76 54 77
REMARK SMILES IDX 56 78 58 79 55 80 39 81 40 82 45 83 41 84 42 85 44 86 46 87
REMARK SMILES IDX 43 88
REMARK H PARENT 6 7 13 31 63 50 37 61
REMARK Flexibility Score: inf
ROOT
ATOM      1  C   UNL A   1      34.890  32.509  27.975  1.00  0.00     0.002 C 
ENDROOT
BRANCH   1   2
ATOM      2  C   UNL A   1      34.791  30.995  28.161  1.00  0.00     0.021 C 
BRANCH   2   3
ATOM      3  C   UNL A   1      33.931  30.280  27.126  1.00  0.00     0.116 C 
BRANCH   3   4
ATOM      4  N   UNL A   1      32.928  29.463  27.791  1.00  0.00    -0.356 N 
ATOM      5  C   UNL A   1      32.020  28.582  27.276  1.00  0.00     0.222 C 
ATOM      6  O   UNL A   1      31.187  28.094  28.038  1.00  0.00    -0.275 OA
ATOM      7  H   UNL A   1      32.898  29.561  28.770  1.00  0.00     0.163 HD
BRANCH   5   8
ATOM      8  C   UNL A   1      32.092  28.165  25.820  1.00  0.00     0.125 C 
BRANCH   8   9
ATOM      9  C   UNL A   1      31.448  26.812  25.459  1.00  0.00     0.101 C 
ATOM     10  C   UNL A   1      30.517  26.882  24.248  1.00  0.00     0.032 C 
BRANCH   9  11
ATOM     11  N   UNL A   1      32.393  25.684  25.446  1.00  0.00    -0.265 N 
ATOM     12  C   UNL A   1      32.272  24.689  26.385  1.00  0.00     0.293 C 
ATOM     13  C   UNL A   1      33.498  25.608  24.624  1.00  0.00     0.268 C 
ATOM     14  O   UNL A   1      31.464  24.635  27.298  1.00  0.00    -0.261 OA
ATOM     15  S   UNL A   1      33.530  23.486  26.178  1.00  0.00    -0.022 SA
ATOM     16  C   UNL A   1      34.338  24.427  24.993  1.00  0.00     0.083 C 
ATOM     17  O   UNL A   1      33.825  26.402  23.754  1.00  0.00    -0.268 OA
ATOM     18  C   UNL A   1      35.601  24.332  24.548  1.00  0.00     0.029 C 
BRANCH  18  19
ATOM     19  C   UNL A   1      36.669  23.407  24.967  1.00  0.00    -0.024 A 
ATOM     20  C   UNL A   1      36.643  22.101  24.451  1.00  0.00     0.009 A 
ATOM     21  C   UNL A   1      37.676  23.747  25.876  1.00  0.00     0.009 A 
ATOM     22  C   UNL A   1      37.620  21.166  24.807  1.00  0.00     0.021 A 
ATOM     23  C   UNL A   1      38.657  22.814  26.231  1.00  0.00     0.021 A 
ATOM     24  C   UNL A   1      38.627  21.529  25.695  1.00  0.00     0.041 A 
ATOM     25  Cl  UNL A   1      39.833  20.390  26.144  1.00  0.00    -0.084 Cl
ENDBRANCH  18  19
ENDBRANCH   9  11
ENDBRANCH   8   9
ENDBRANCH   5   8
ENDBRANCH   3   4
ENDBRANCH   2   3
ENDBRANCH   1   2
BRANCH   1  26
ATOM     26  C   UNL A   1      34.432  33.329  29.182  1.00  0.00     0.002 C 
BRANCH  26  27
ATOM     27  C   UNL A   1      33.258  34.284  28.928  1.00  0.00     0.021 C 
BRANCH  27  28
ATOM     28  C   UNL A   1      33.463  35.722  29.402  1.00  0.00     0.116 C 
BRANCH  28  29
ATOM     29  N   UNL A   1      32.601  36.053  30.525  1.00  0.00    -0.352 N 
ATOM     30  C   UNL A   1      32.675  35.662  31.839  1.00  0.00     0.251 C 
ATOM     31  H   UNL A   1      31.848  36.649  30.310  1.00  0.00     0.163 HD
ATOM     32  O   UNL A   1      31.719  35.857  32.586  1.00  0.00    -0.269 OA
BRANCH  30  33
ATOM     33  C   UNL A   1      33.885  34.985  32.355  1.00  0.00     0.039 A 
ATOM     34  C   UNL A   1      33.751  33.719  32.934  1.00  0.00     0.014 A 
ATOM     35  C   UNL A   1      35.142  35.595  32.292  1.00  0.00     0.014 A 
ATOM     36  C   UNL A   1      34.885  33.034  33.378  1.00  0.00     0.010 A 
ATOM     37  C   UNL A   1      36.279  34.889  32.686  1.00  0.00     0.010 A 
ATOM     38  C   UNL A   1      36.162  33.598  33.220  1.00  0.00    -0.014 A 
BRANCH  38  39
ATOM     39  C   UNL A   1      37.385  32.826  33.559  1.00  0.00     0.031 A 
ATOM     40  C   UNL A   1      38.168  33.130  34.805  1.00  0.00     0.074 A 
ATOM     41  C   UNL A   1      37.830  31.894  32.694  1.00  0.00     0.049 A 
ATOM     42  N   UNL A   1      39.284  32.593  35.229  1.00  0.00    -0.248 NA
ATOM     43  C   UNL A   1      37.641  34.192  35.676  1.00  0.00     0.031 C 
ATOM     44  C   UNL A   1      37.192  31.548  31.423  1.00  0.00     0.029 A 
ATOM     45  N   UNL A   1      38.934  31.078  32.743  1.00  0.00    -0.354 N 
ATOM     46  C   UNL A   1      39.598  33.255  36.410  1.00  0.00     0.074 A 
ATOM     47  C   UNL A   1      38.577  34.260  36.613  1.00  0.00     0.031 C 
ATOM     48  C   UNL A   1      37.907  30.586  30.819  1.00  0.00     0.029 A 
ATOM     49  C   UNL A   1      39.069  30.268  31.642  1.00  0.00     0.049 A 
ATOM     50  H   UNL A   1      39.568  31.074  33.497  1.00  0.00     0.167 HD
ATOM     51  C   UNL A   1      40.634  33.029  37.253  1.00  0.00     0.037 A 
ATOM     52  C   UNL A   1      40.026  29.376  31.325  1.00  0.00     0.037 A 
ATOM     53  C   UNL A   1      41.636  32.014  37.059  1.00  0.00     0.049 A 
ATOM     54  C   UNL A   1      41.161  29.144  32.283  1.00  0.00     0.074 A 
ATOM     55  C   UNL A   1      42.678  31.659  37.899  1.00  0.00     0.029 A 
ATOM     56  N   UNL A   1      41.726  31.194  35.943  1.00  0.00    -0.354 N 
ATOM     57  N   UNL A   1      41.397  29.716  33.439  1.00  0.00    -0.248 NA
ATOM     58  C   UNL A   1      42.159  28.135  31.897  1.00  0.00     0.031 C 
ATOM     59  C   UNL A   1      43.425  30.656  37.271  1.00  0.00     0.029 A 
ATOM     60  C   UNL A   1      42.822  30.355  36.060  1.00  0.00     0.049 A 
ATOM     61  H   UNL A   1      41.103  31.208  35.180  1.00  0.00     0.167 HD
ATOM     62  C   UNL A   1      42.554  29.123  33.927  1.00  0.00     0.074 A 
ATOM     63  C   UNL A   1      42.962  28.135  32.951  1.00  0.00     0.031 C 
ATOM     64  C   UNL A   1      43.217  29.375  35.081  1.00  0.00     0.037 A 
BRANCH  51  65
ATOM     65  C   UNL A   1      40.738  33.895  38.475  1.00  0.00     0.057 A 
ATOM     66  C   UNL A   1      41.522  35.056  38.492  1.00  0.00     0.134 A 
ATOM     67  C   UNL A   1      39.999  33.598  39.628  1.00  0.00     0.134 A 
ATOM     68  F   UNL A   1      42.260  35.393  37.423  1.00  0.00    -0.206 F 
ATOM     69  C   UNL A   1      41.584  35.880  39.617  1.00  0.00     0.040 A 
ATOM     70  C   UNL A   1      40.034  34.428  40.751  1.00  0.00     0.040 A 
ATOM     71  F   UNL A   1      39.221  32.507  39.676  1.00  0.00    -0.206 F 
ATOM     72  C   UNL A   1      40.832  35.569  40.749  1.00  0.00     0.006 A 
ENDBRANCH  51  65
BRANCH  52  73
ATOM     73  C   UNL A   1      39.947  28.625  30.048  1.00  0.00     0.057 A 
ATOM     74  C   UNL A   1      39.238  27.421  29.962  1.00  0.00     0.134 A 
ATOM     75  C   UNL A   1      40.579  29.086  28.888  1.00  0.00     0.134 A 
ATOM     76  F   UNL A   1      38.628  26.918  31.045  1.00  0.00    -0.206 F 
ATOM     77  C   UNL A   1      39.179  26.692  28.773  1.00  0.00     0.040 A 
ATOM     78  C   UNL A   1      40.508  28.380  27.687  1.00  0.00     0.040 A 
ATOM     79  F   UNL A   1      41.266  30.238  28.904  1.00  0.00    -0.206 F 
ATOM     80  C   UNL A   1      39.812  27.175  27.629  1.00  0.00     0.006 A 
ENDBRANCH  52  73
BRANCH  64  81
ATOM     81  C   UNL A   1      44.442  28.555  35.360  1.00  0.00     0.057 A 
ATOM     82  C   UNL A   1      45.718  28.977  34.966  1.00  0.00     0.134 A 
ATOM     83  C   UNL A   1      44.346  27.344  36.058  1.00  0.00     0.134 A 
ATOM     84  F   UNL A   1      45.874  30.119  34.281  1.00  0.00    -0.206 F 
ATOM     85  C   UNL A   1      46.855  28.212  35.237  1.00  0.00     0.040 A 
ATOM     86  C   UNL A   1      45.478  26.584  36.358  1.00  0.00     0.040 A 
ATOM     87  F   UNL A   1      43.154  26.888  36.470  1.00  0.00    -0.206 F 
ATOM     88  C   UNL A   1      46.735  27.015  35.942  1.00  0.00     0.006 A 
ENDBRANCH  64  81
ENDBRANCH  38  39
ENDBRANCH  30  33
ENDBRANCH  28  29
ENDBRANCH  27  28
ENDBRANCH  26  27
ENDBRANCH   1  26
TORSDOF 16
ENDMDL
MODEL 2
REMARK VINA RESULT:     -11.3      4.968      9.679
REMARK SMILES C[C@H](CC(=O)NCCCCCCNC(=O)c1ccc(-c2c3nc(c(-c4c(F)cccc4F)c4ccc([nH]4)c(-c4c(F)cccc4F)c4nc(c(-c5c(F)cccc5F)c5ccc2[nH]5)C=C4)C=C3)cc1)N1C(=O)S/C(=C\c2ccc(Cl)cc2)C1=O
REMARK SMILES IDX 9 1 8 2 7 3 6 4 4 5 5 6 3 8 2 9 1 10 70 11 71 12 83 13 72 14
REMARK SMILES IDX 73 15 74 16 84 17 75 18 76 19 77 20 82 21 78 22 81 23 79 24
REMARK SMILES IDX 80 25 10 26 11 27 12 28 13 29 14 30 15 32 16 33 17 34 69 35
REMARK SMILES IDX 18 36 68 37 19 38 20 39 21 40 62 41 22 42 67 43 61 44 63 45
REMARK SMILES IDX 23 46 66 47 60 48 59 49 24 51 50 52 33 53 49 54 34 55 37 56
REMARK SMILES IDX 48 57 64 58 35 59 36 60 47 62 65 63 38 64 25 65 26 66 31 67
REMARK SMILES IDX 27 68 28 69 30 70 32 71 29 72 51 73 52 74 57 75 53 76 54 77
REMARK SMILES IDX 56 78 58 79 55 80 39 81 40 82 45 83 41 84 42 85 44 86 46 87
REMARK SMILES IDX 43 88
REMARK H PARENT 6 7 13 31 63 50 37 61
REMARK Flexibility Score: inf
ROOT
ATOM      1  C   UNL A   1      35.839  22.577  23.944  1.00  0.00     0.002 C 
ENDROOT
BRANCH   1   2
ATOM      2  C   UNL A   1      35.224  23.508  24.988  1.00  0.00     0.021 C 
BRANCH   2   3
ATOM      3  C   UNL A   1      34.691  24.824  24.434  1.00  0.00     0.116 C 
BRANCH   3   4
ATOM      4  N   UNL A   1      34.461  25.764  25.521  1.00  0.00    -0.356 N 
ATOM      5  C   UNL A   1      33.576  26.799  25.624  1.00  0.00     0.222 C 
ATOM      6  O   UNL A   1      33.652  27.534  26.607  1.00  0.00    -0.275 OA
ATOM      7  H   UNL A   1      35.037  25.634  26.308  1.00  0.00     0.163 HD
BRANCH   5   8
ATOM      8  C   UNL A   1      32.484  26.984  24.589  1.00  0.00     0.125 C 
BRANCH   8   9
ATOM      9  C   UNL A   1      31.133  26.303  24.883  1.00  0.00     0.101 C 
ATOM     10  C   UNL A   1      29.958  26.922  24.123  1.00  0.00     0.032 C 
BRANCH   9  11
ATOM     11  N   UNL A   1      31.183  24.833  24.851  1.00  0.00    -0.265 N 
ATOM     12  C   UNL A   1      31.077  24.126  26.024  1.00  0.00     0.293 C 
ATOM     13  C   UNL A   1      31.464  24.092  23.722  1.00  0.00     0.268 C 
ATOM     14  O   UNL A   1      30.979  24.583  27.151  1.00  0.00    -0.261 OA
ATOM     15  S   UNL A   1      31.200  22.404  25.722  1.00  0.00    -0.022 SA
ATOM     16  C   UNL A   1      31.615  22.647  24.075  1.00  0.00     0.083 C 
ATOM     17  O   UNL A   1      31.641  24.514  22.589  1.00  0.00    -0.268 OA
ATOM     18  C   UNL A   1      32.189  21.797  23.209  1.00  0.00     0.029 C 
BRANCH  18  19
ATOM     19  C   UNL A   1      32.654  20.416  23.428  1.00  0.00    -0.024 A 
ATOM     20  C   UNL A   1      32.140  19.412  22.589  1.00  0.00     0.009 A 
ATOM     21  C   UNL A   1      33.541  20.048  24.445  1.00  0.00     0.009 A 
ATOM     22  C   UNL A   1      32.531  18.078  22.741  1.00  0.00     0.021 A 
ATOM     23  C   UNL A   1      33.936  18.714  24.596  1.00  0.00     0.021 A 
ATOM     24  C   UNL A   1      33.432  17.735  23.743  1.00  0.00     0.041 A 
ATOM     25  Cl  UNL A   1      33.918  16.098  23.943  1.00  0.00    -0.084 Cl
ENDBRANCH  18  19
ENDBRANCH   9  11
ENDBRANCH   8   9
ENDBRANCH   5   8
ENDBRANCH   3   4
ENDBRANCH   2   3
ENDBRANCH   1   2
BRANCH   1  26
ATOM     26  C   UNL A   1      37.309  22.231  24.189  1.00  0.00     0.002 C 
BRANCH  26  27
ATOM     27  C   UNL A   1      37.591  20.778  24.592  1.00  0.00     0.021 C 
BRANCH  27  28
ATOM     28  C   UNL A   1      38.342  20.593  25.911  1.00  0.00     0.116 C 
BRANCH  28  29
ATOM     29  N   UNL A   1      39.411  19.615  25.794  1.00  0.00    -0.352 N 
ATOM     30  C   UNL A   1      40.766  19.765  25.960  1.00  0.00     0.251 C 
ATOM     31  H   UNL A   1      39.119  18.705  25.561  1.00  0.00     0.163 HD
ATOM     32  O   UNL A   1      41.525  18.874  25.589  1.00  0.00    -0.269 OA
BRANCH  30  33
ATOM     33  C   UNL A   1      41.318  21.001  26.557  1.00  0.00     0.039 A 
ATOM     34  C   UNL A   1      41.868  21.969  25.711  1.00  0.00     0.014 A 
ATOM     35  C   UNL A   1      41.319  21.202  27.941  1.00  0.00     0.014 A 
ATOM     36  C   UNL A   1      42.344  23.169  26.244  1.00  0.00     0.010 A 
ATOM     37  C   UNL A   1      41.746  22.421  28.468  1.00  0.00     0.010 A 
ATOM     38  C   UNL A   1      42.250  23.420  27.623  1.00  0.00    -0.014 A 
BRANCH  38  39
ATOM     39  C   UNL A   1      42.625  24.743  28.185  1.00  0.00     0.031 A 
ATOM     40  C   UNL A   1      41.593  25.818  28.379  1.00  0.00     0.074 A 
ATOM     41  C   UNL A   1      43.921  24.997  28.453  1.00  0.00     0.049 A 
ATOM     42  N   UNL A   1      41.751  27.045  28.809  1.00  0.00    -0.248 NA
ATOM     43  C   UNL A   1      40.207  25.479  28.023  1.00  0.00     0.031 C 
ATOM     44  C   UNL A   1      45.024  24.055  28.251  1.00  0.00     0.029 A 
ATOM     45  N   UNL A   1      44.533  26.127  28.935  1.00  0.00    -0.354 N 
ATOM     46  C   UNL A   1      40.490  27.626  28.767  1.00  0.00     0.074 A 
ATOM     47  C   UNL A   1      39.586  26.632  28.231  1.00  0.00     0.031 C 
ATOM     48  C   UNL A   1      46.175  24.643  28.616  1.00  0.00     0.029 A 
ATOM     49  C   UNL A   1      45.897  26.009  29.048  1.00  0.00     0.049 A 
ATOM     50  H   UNL A   1      44.041  26.945  29.177  1.00  0.00     0.167 HD
ATOM     51  C   UNL A   1      40.121  28.870  29.157  1.00  0.00     0.037 A 
ATOM     52  C   UNL A   1      46.822  26.903  29.444  1.00  0.00     0.037 A 
ATOM     53  C   UNL A   1      41.021  29.850  29.708  1.00  0.00     0.049 A 
ATOM     54  C   UNL A   1      46.383  28.274  29.876  1.00  0.00     0.074 A 
ATOM     55  C   UNL A   1      40.725  31.108  30.205  1.00  0.00     0.029 A 
ATOM     56  N   UNL A   1      42.392  29.685  29.832  1.00  0.00    -0.354 N 
ATOM     57  N   UNL A   1      45.174  28.780  29.914  1.00  0.00    -0.248 NA
ATOM     58  C   UNL A   1      47.435  29.195  30.328  1.00  0.00     0.031 C 
ATOM     59  C   UNL A   1      41.923  31.722  30.585  1.00  0.00     0.029 A 
ATOM     60  C   UNL A   1      42.960  30.830  30.369  1.00  0.00     0.049 A 
ATOM     61  H   UNL A   1      42.889  28.875  29.574  1.00  0.00     0.167 HD
ATOM     62  C   UNL A   1      45.317  30.068  30.413  1.00  0.00     0.074 A 
ATOM     63  C   UNL A   1      46.727  30.259  30.681  1.00  0.00     0.031 C 
ATOM     64  C   UNL A   1      44.365  31.007  30.631  1.00  0.00     0.037 A 
BRANCH  51  65
ATOM     65  C   UNL A   1      38.676  29.247  29.006  1.00  0.00     0.057 A 
ATOM     66  C   UNL A   1      38.139  29.631  27.770  1.00  0.00     0.134 A 
ATOM     67  C   UNL A   1      37.799  29.168  30.095  1.00  0.00     0.134 A 
ATOM     68  F   UNL A   1      38.927  29.734  26.689  1.00  0.00    -0.206 F 
ATOM     69  C   UNL A   1      36.785  29.942  27.628  1.00  0.00     0.040 A 
ATOM     70  C   UNL A   1      36.438  29.453  29.959  1.00  0.00     0.040 A 
ATOM     71  F   UNL A   1      38.246  28.798  31.305  1.00  0.00    -0.206 F 
ATOM     72  C   UNL A   1      35.930  29.846  28.724  1.00  0.00     0.006 A 
ENDBRANCH  51  65
BRANCH  52  73
ATOM     73  C   UNL A   1      48.257  26.525  29.466  1.00  0.00     0.057 A 
ATOM     74  C   UNL A   1      49.102  26.837  28.394  1.00  0.00     0.134 A 
ATOM     75  C   UNL A   1      48.817  25.842  30.551  1.00  0.00     0.134 A 
ATOM     76  F   UNL A   1      48.619  27.475  27.318  1.00  0.00    -0.206 F 
ATOM     77  C   UNL A   1      50.447  26.464  28.392  1.00  0.00     0.040 A 
ATOM     78  C   UNL A   1      50.165  25.484  30.573  1.00  0.00     0.040 A 
ATOM     79  F   UNL A   1      48.062  25.522  31.612  1.00  0.00    -0.206 F 
ATOM     80  C   UNL A   1      50.983  25.789  29.487  1.00  0.00     0.006 A 
ENDBRANCH  52  73
BRANCH  64  81
ATOM     81  C   UNL A   1      44.815  32.318  31.205  1.00  0.00     0.057 A 
ATOM     82  C   UNL A   1      44.910  32.524  32.587  1.00  0.00     0.134 A 
ATOM     83  C   UNL A   1      45.186  33.375  30.364  1.00  0.00     0.134 A 
ATOM     84  F   UNL A   1      44.555  31.555  33.445  1.00  0.00    -0.206 F 
ATOM     85  C   UNL A   1      45.339  33.744  33.114  1.00  0.00     0.040 A 
ATOM     86  C   UNL A   1      45.641  34.590  30.879  1.00  0.00     0.040 A 
ATOM     87  F   UNL A   1      45.125  33.240  29.032  1.00  0.00    -0.206 F 
ATOM     88  C   UNL A   1      45.712  34.778  32.258  1.00  0.00     0.006 A 
ENDBRANCH  64  81
ENDBRANCH  38  39
ENDBRANCH  30  33
ENDBRANCH  28  29
ENDBRANCH  27  28
ENDBRANCH  26  27
ENDBRANCH   1  26
TORSDOF 16
ENDMDL
MODEL 3
REMARK VINA RESULT:     -11.3      2.799      7.590
REMARK SMILES C[C@H](CC(=O)NCCCCCCNC(=O)c1ccc(-c2c3nc(c(-c4c(F)cccc4F)c4ccc([nH]4)c(-c4c(F)cccc4F)c4nc(c(-c5c(F)cccc5F)c5ccc2[nH]5)C=C4)C=C3)cc1)N1C(=O)S/C(=C\c2ccc(Cl)cc2)C1=O
REMARK SMILES IDX 9 1 8 2 7 3 6 4 4 5 5 6 3 8 2 9 1 10 70 11 71 12 83 13 72 14
REMARK SMILES IDX 73 15 74 16 84 17 75 18 76 19 77 20 82 21 78 22 81 23 79 24
REMARK SMILES IDX 80 25 10 26 11 27 12 28 13 29 14 30 15 32 16 33 17 34 69 35
REMARK SMILES IDX 18 36 68 37 19 38 20 39 21 40 62 41 22 42 67 43 61 44 63 45
REMARK SMILES IDX 23 46 66 47 60 48 59 49 24 51 50 52 33 53 49 54 34 55 37 56
REMARK SMILES IDX 48 57 64 58 35 59 36 60 47 62 65 63 38 64 25 65 26 66 31 67
REMARK SMILES IDX 27 68 28 69 30 70 32 71 29 72 51 73 52 74 57 75 53 76 54 77
REMARK SMILES IDX 56 78 58 79 55 80 39 81 40 82 45 83 41 84 42 85 44 86 46 87
REMARK SMILES IDX 43 88
REMARK H PARENT 6 7 13 31 63 50 37 61
REMARK Flexibility Score: inf
ROOT
ATOM      1  C   UNL A   1      32.424  29.146  27.075  1.00  0.00     0.002 C 
ENDROOT
BRANCH   1   2
ATOM      2  C   UNL A   1      33.542  28.312  26.449  1.00  0.00     0.021 C 
BRANCH   2   3
ATOM      3  C   UNL A   1      33.188  26.850  26.206  1.00  0.00     0.116 C 
BRANCH   3   4
ATOM      4  N   UNL A   1      34.342  26.142  25.672  1.00  0.00    -0.356 N 
ATOM      5  C   UNL A   1      34.610  24.804  25.615  1.00  0.00     0.222 C 
ATOM      6  O   UNL A   1      35.720  24.450  25.219  1.00  0.00    -0.275 OA
ATOM      7  H   UNL A   1      35.042  26.720  25.293  1.00  0.00     0.163 HD
BRANCH   5   8
ATOM      8  C   UNL A   1      33.539  23.788  25.959  1.00  0.00     0.125 C 
BRANCH   8   9
ATOM      9  C   UNL A   1      32.756  23.184  24.777  1.00  0.00     0.101 C 
ATOM     10  C   UNL A   1      31.982  21.916  25.140  1.00  0.00     0.032 C 
BRANCH   9  11
ATOM     11  N   UNL A   1      31.992  24.172  23.998  1.00  0.00    -0.265 N 
ATOM     12  C   UNL A   1      32.470  24.588  22.780  1.00  0.00     0.293 C 
ATOM     13  C   UNL A   1      30.870  24.825  24.463  1.00  0.00     0.268 C 
ATOM     14  O   UNL A   1      33.518  24.257  22.248  1.00  0.00    -0.261 OA
ATOM     15  S   UNL A   1      31.402  25.785  22.072  1.00  0.00    -0.022 SA
ATOM     16  C   UNL A   1      30.451  25.887  23.496  1.00  0.00     0.083 C 
ATOM     17  O   UNL A   1      30.305  24.648  25.531  1.00  0.00    -0.268 OA
ATOM     18  C   UNL A   1      29.590  26.843  23.876  1.00  0.00     0.029 C 
BRANCH  18  19
ATOM     19  C   UNL A   1      29.229  28.098  23.192  1.00  0.00    -0.024 A 
ATOM     20  C   UNL A   1      30.272  28.872  22.654  1.00  0.00     0.009 A 
ATOM     21  C   UNL A   1      27.919  28.576  23.089  1.00  0.00     0.009 A 
ATOM     22  C   UNL A   1      30.007  30.077  21.996  1.00  0.00     0.021 A 
ATOM     23  C   UNL A   1      27.652  29.781  22.428  1.00  0.00     0.021 A 
ATOM     24  C   UNL A   1      28.695  30.525  21.883  1.00  0.00     0.041 A 
ATOM     25  Cl  UNL A   1      28.356  32.007  21.080  1.00  0.00    -0.084 Cl
ENDBRANCH  18  19
ENDBRANCH   9  11
ENDBRANCH   8   9
ENDBRANCH   5   8
ENDBRANCH   3   4
ENDBRANCH   2   3
ENDBRANCH   1   2
BRANCH   1  26
ATOM     26  C   UNL A   1      31.643  30.008  26.082  1.00  0.00     0.002 C 
BRANCH  26  27
ATOM     27  C   UNL A   1      31.487  31.486  26.465  1.00  0.00     0.021 C 
BRANCH  27  28
ATOM     28  C   UNL A   1      32.757  32.176  26.960  1.00  0.00     0.116 C 
BRANCH  28  29
ATOM     29  N   UNL A   1      32.513  33.559  27.336  1.00  0.00    -0.352 N 
ATOM     30  C   UNL A   1      33.057  34.307  28.351  1.00  0.00     0.251 C 
ATOM     31  H   UNL A   1      31.857  34.032  26.777  1.00  0.00     0.163 HD
ATOM     32  O   UNL A   1      32.550  35.384  28.651  1.00  0.00    -0.269 OA
BRANCH  30  33
ATOM     33  C   UNL A   1      34.233  33.813  29.101  1.00  0.00     0.039 A 
ATOM     34  C   UNL A   1      34.028  32.929  30.165  1.00  0.00     0.014 A 
ATOM     35  C   UNL A   1      35.529  34.231  28.780  1.00  0.00     0.014 A 
ATOM     36  C   UNL A   1      35.124  32.403  30.853  1.00  0.00     0.010 A 
ATOM     37  C   UNL A   1      36.624  33.666  29.433  1.00  0.00     0.010 A 
ATOM     38  C   UNL A   1      36.433  32.738  30.467  1.00  0.00    -0.014 A 
BRANCH  38  39
ATOM     39  C   UNL A   1      37.607  32.083  31.097  1.00  0.00     0.031 A 
ATOM     40  C   UNL A   1      38.345  30.979  30.393  1.00  0.00     0.074 A 
ATOM     41  C   UNL A   1      37.962  32.439  32.347  1.00  0.00     0.049 A 
ATOM     42  N   UNL A   1      39.357  30.264  30.815  1.00  0.00    -0.248 NA
ATOM     43  C   UNL A   1      37.870  30.618  29.049  1.00  0.00     0.031 C 
ATOM     44  C   UNL A   1      37.287  33.455  33.159  1.00  0.00     0.029 A 
ATOM     45  N   UNL A   1      38.965  31.977  33.162  1.00  0.00    -0.354 N 
ATOM     46  C   UNL A   1      39.635  29.362  29.795  1.00  0.00     0.074 A 
ATOM     47  C   UNL A   1      38.659  29.594  28.751  1.00  0.00     0.031 C 
ATOM     48  C   UNL A   1      37.902  33.545  34.349  1.00  0.00     0.029 A 
ATOM     49  C   UNL A   1      38.991  32.576  34.398  1.00  0.00     0.049 A 
ATOM     50  H   UNL A   1      39.605  31.281  32.887  1.00  0.00     0.167 HD
ATOM     51  C   UNL A   1      40.624  28.440  29.731  1.00  0.00     0.037 A 
ATOM     52  C   UNL A   1      39.795  32.362  35.457  1.00  0.00     0.037 A 
ATOM     53  C   UNL A   1      41.606  28.227  30.762  1.00  0.00     0.049 A 
ATOM     54  C   UNL A   1      40.888  31.335  35.355  1.00  0.00     0.074 A 
ATOM     55  C   UNL A   1      42.694  27.370  30.753  1.00  0.00     0.029 A 
ATOM     56  N   UNL A   1      41.617  28.871  31.990  1.00  0.00    -0.354 N 
ATOM     57  N   UNL A   1      41.194  30.552  34.349  1.00  0.00    -0.248 NA
ATOM     58  C   UNL A   1      41.753  31.169  36.531  1.00  0.00     0.031 C 
ATOM     59  C   UNL A   1      43.335  27.462  31.993  1.00  0.00     0.029 A 
ATOM     60  C   UNL A   1      42.674  28.410  32.758  1.00  0.00     0.049 A 
ATOM     61  H   UNL A   1      40.967  29.554  32.275  1.00  0.00     0.167 HD
ATOM     62  C   UNL A   1      42.297  29.817  34.762  1.00  0.00     0.074 A 
ATOM     63  C   UNL A   1      42.618  30.261  36.102  1.00  0.00     0.031 C 
ATOM     64  C   UNL A   1      42.983  28.861  34.091  1.00  0.00     0.037 A 
BRANCH  51  65
ATOM     65  C   UNL A   1      40.703  27.588  28.497  1.00  0.00     0.057 A 
ATOM     66  C   UNL A   1      39.974  26.398  28.375  1.00  0.00     0.134 A 
ATOM     67  C   UNL A   1      41.470  27.991  27.397  1.00  0.00     0.134 A 
ATOM     68  F   UNL A   1      39.226  25.952  29.396  1.00  0.00    -0.206 F 
ATOM     69  C   UNL A   1      40.019  25.630  27.210  1.00  0.00     0.040 A 
ATOM     70  C   UNL A   1      41.505  27.244  26.217  1.00  0.00     0.040 A 
ATOM     71  F   UNL A   1      42.186  29.124  27.443  1.00  0.00    -0.206 F 
ATOM     72  C   UNL A   1      40.782  26.057  26.124  1.00  0.00     0.006 A 
ENDBRANCH  51  65
BRANCH  52  73
ATOM     73  C   UNL A   1      39.607  33.147  36.702  1.00  0.00     0.057 A 
ATOM     74  C   UNL A   1      38.713  32.725  37.693  1.00  0.00     0.134 A 
ATOM     75  C   UNL A   1      40.309  34.336  36.929  1.00  0.00     0.134 A 
ATOM     76  F   UNL A   1      37.998  31.603  37.523  1.00  0.00    -0.206 F 
ATOM     77  C   UNL A   1      38.508  33.468  38.856  1.00  0.00     0.040 A 
ATOM     78  C   UNL A   1      40.132  35.076  38.099  1.00  0.00     0.040 A 
ATOM     79  F   UNL A   1      41.186  34.788  36.022  1.00  0.00    -0.206 F 
ATOM     80  C   UNL A   1      39.223  34.647  39.063  1.00  0.00     0.006 A 
ENDBRANCH  52  73
BRANCH  64  81
ATOM     81  C   UNL A   1      44.161  28.246  34.787  1.00  0.00     0.057 A 
ATOM     82  C   UNL A   1      45.441  28.808  34.708  1.00  0.00     0.134 A 
ATOM     83  C   UNL A   1      44.005  27.095  35.571  1.00  0.00     0.134 A 
ATOM     84  F   UNL A   1      45.658  29.901  33.961  1.00  0.00    -0.206 F 
ATOM     85  C   UNL A   1      46.531  28.235  35.367  1.00  0.00     0.040 A 
ATOM     86  C   UNL A   1      45.081  26.529  36.256  1.00  0.00     0.040 A 
ATOM     87  F   UNL A   1      42.804  26.512  35.694  1.00  0.00    -0.206 F 
ATOM     88  C   UNL A   1      46.349  27.095  36.149  1.00  0.00     0.006 A 
ENDBRANCH  64  81
ENDBRANCH  38  39
ENDBRANCH  30  33
ENDBRANCH  28  29
ENDBRANCH  27  28
ENDBRANCH  26  27
ENDBRANCH   1  26
TORSDOF 16
ENDMDL
