MODEL 1
REMARK VINA RESULT:     -10.8      0.000      0.000
REMARK SMILES Cc1ccc([C@@H](C)[NH2+][C@@H](C)CCC(=O)NCCCCCCNC(=O)c2ccc(-c3c4nc(c(-c5c(F)cccc5F)c5ccc([nH]5)c(-c5c(F)cccc5F)c5nc(c(-c6c(F)cccc6F)c6ccc3[nH]6)C=C5)C=C4)cc2)cc1F
REMARK SMILES IDX 17 1 16 2 15 3 13 4 14 5 12 7 11 8 9 9 10 10 8 11 6 14 7 15
REMARK SMILES IDX 5 16 1 17 2 18 3 19 80 20 4 21 79 22 81 23 18 24 19 25 20 26
REMARK SMILES IDX 21 27 22 28 23 29 24 31 25 32 26 33 78 34 27 35 77 36 28 37
REMARK SMILES IDX 29 38 30 39 71 40 31 41 76 42 70 43 72 44 32 45 75 46 69 47
REMARK SMILES IDX 68 48 33 50 59 51 42 52 58 53 43 54 46 55 57 56 73 57 44 58
REMARK SMILES IDX 45 59 56 61 74 62 47 63 34 64 35 65 40 66 36 67 37 68 39 69
REMARK SMILES IDX 41 70 38 71 60 72 61 73 66 74 62 75 63 76 65 77 67 78 64 79
REMARK SMILES IDX 48 80 49 81 54 82 50 83 51 84 53 85 55 86 52 87
REMARK H PARENT 15 6 8 12 8 13 22 30 72 49 46 60
REMARK Flexibility Score: inf
ROOT
ATOM      1  C   UNL A   1      32.936  27.010  25.735  1.00  0.00     0.021 C 
ENDROOT
BRANCH   1   2
ATOM      2  C   UNL A   1      33.154  25.540  26.112  1.00  0.00     0.116 C 
BRANCH   2   3
ATOM      3  N   UNL A   1      31.927  24.964  26.595  1.00  0.00    -0.356 N 
ATOM      4  C   UNL A   1      31.699  23.692  27.017  1.00  0.00     0.220 C 
ATOM      5  O   UNL A   1      30.540  23.365  27.277  1.00  0.00    -0.275 OA
ATOM      6  H   UNL A   1      31.152  25.571  26.626  1.00  0.00     0.163 HD
BRANCH   4   7
ATOM      7  C   UNL A   1      32.851  22.713  27.174  1.00  0.00     0.106 C 
BRANCH   7   8
ATOM      8  C   UNL A   1      32.936  21.665  26.058  1.00  0.00     0.074 C 
BRANCH   8   9
ATOM      9  C   UNL A   1      34.208  21.690  25.174  1.00  0.00     0.180 C 
ATOM     10  C   UNL A   1      35.176  22.740  25.734  1.00  0.00     0.075 C 
BRANCH   9  11
ATOM     11  N   UNL A   1      33.849  21.941  23.768  1.00  0.00    -0.338 N 
ATOM     12  H   UNL A   1      34.264  22.834  23.498  1.00  0.00     0.347 HD
ATOM     13  H   UNL A   1      34.202  21.134  23.253  1.00  0.00     0.347 HD
BRANCH  11  14
ATOM     14  C   UNL A   1      32.414  22.004  23.449  1.00  0.00     0.210 C 
ATOM     15  C   UNL A   1      31.954  21.056  22.337  1.00  0.00     0.081 C 
BRANCH  14  16
ATOM     16  C   UNL A   1      31.968  23.426  23.111  1.00  0.00     0.012 A 
ATOM     17  C   UNL A   1      30.970  27.600  22.492  1.00  0.00     0.047 C 
ATOM     18  C   UNL A   1      31.315  26.154  22.679  1.00  0.00    -0.015 A 
ATOM     19  C   UNL A   1      32.548  25.653  22.267  1.00  0.00     0.007 A 
ATOM     20  C   UNL A   1      30.405  25.274  23.272  1.00  0.00     0.126 A 
ATOM     21  C   UNL A   1      32.863  24.308  22.478  1.00  0.00     0.010 A 
ATOM     22  C   UNL A   1      30.718  23.931  23.492  1.00  0.00     0.049 A 
ATOM     23  F   UNL A   1      29.208  25.729  23.666  1.00  0.00    -0.207 F 
ENDBRANCH  14  16
ENDBRANCH  11  14
ENDBRANCH   9  11
ENDBRANCH   8   9
ENDBRANCH   7   8
ENDBRANCH   4   7
ENDBRANCH   2   3
ENDBRANCH   1   2
BRANCH   1  24
ATOM     24  C   UNL A   1      31.647  27.602  26.298  1.00  0.00     0.002 C 
BRANCH  24  25
ATOM     25  C   UNL A   1      31.819  28.947  27.019  1.00  0.00     0.002 C 
BRANCH  25  26
ATOM     26  C   UNL A   1      33.195  29.169  27.653  1.00  0.00     0.021 C 
BRANCH  26  27
ATOM     27  C   UNL A   1      33.977  30.247  26.946  1.00  0.00     0.116 C 
BRANCH  27  28
ATOM     28  N   UNL A   1      34.269  31.347  27.856  1.00  0.00    -0.352 N 
ATOM     29  C   UNL A   1      35.146  31.380  28.909  1.00  0.00     0.251 C 
ATOM     30  H   UNL A   1      33.768  32.179  27.691  1.00  0.00     0.163 HD
ATOM     31  O   UNL A   1      35.070  32.245  29.768  1.00  0.00    -0.269 OA
BRANCH  29  32
ATOM     32  C   UNL A   1      36.244  30.404  28.933  1.00  0.00     0.039 A 
ATOM     33  C   UNL A   1      36.415  29.533  30.016  1.00  0.00     0.014 A 
ATOM     34  C   UNL A   1      37.199  30.491  27.925  1.00  0.00     0.014 A 
ATOM     35  C   UNL A   1      37.608  28.829  30.122  1.00  0.00     0.010 A 
ATOM     36  C   UNL A   1      38.247  29.640  27.903  1.00  0.00     0.010 A 
ATOM     37  C   UNL A   1      38.518  28.948  29.076  1.00  0.00    -0.014 A 
BRANCH  37  38
ATOM     38  C   UNL A   1      39.899  28.538  29.107  1.00  0.00     0.031 A 
ATOM     39  C   UNL A   1      40.218  27.167  28.753  1.00  0.00     0.074 A 
ATOM     40  C   UNL A   1      40.775  29.569  29.142  1.00  0.00     0.049 A 
ATOM     41  N   UNL A   1      41.298  26.579  29.108  1.00  0.00    -0.248 NA
ATOM     42  C   UNL A   1      39.316  26.327  27.968  1.00  0.00     0.031 C 
ATOM     43  C   UNL A   1      42.166  29.653  28.740  1.00  0.00     0.029 A 
ATOM     44  N   UNL A   1      40.502  30.846  29.648  1.00  0.00    -0.354 N 
ATOM     45  C   UNL A   1      41.411  25.480  28.293  1.00  0.00     0.074 A 
ATOM     46  C   UNL A   1      40.093  25.262  27.741  1.00  0.00     0.031 C 
ATOM     47  C   UNL A   1      42.700  30.767  29.282  1.00  0.00     0.029 A 
ATOM     48  C   UNL A   1      41.701  31.352  30.168  1.00  0.00     0.049 A 
ATOM     49  H   UNL A   1      39.630  31.303  29.639  1.00  0.00     0.167 HD
ATOM     50  C   UNL A   1      42.657  25.022  27.993  1.00  0.00     0.037 A 
ATOM     51  C   UNL A   1      41.780  31.439  31.533  1.00  0.00     0.037 A 
ATOM     52  C   UNL A   1      43.674  25.902  28.578  1.00  0.00     0.049 A 
ATOM     53  C   UNL A   1      42.646  30.342  32.128  1.00  0.00     0.074 A 
ATOM     54  C   UNL A   1      44.438  26.951  28.092  1.00  0.00     0.029 A 
ATOM     55  N   UNL A   1      43.713  26.029  29.951  1.00  0.00    -0.354 N 
ATOM     56  N   UNL A   1      43.207  29.391  31.431  1.00  0.00    -0.248 NA
ATOM     57  C   UNL A   1      42.911  30.202  33.557  1.00  0.00     0.031 C 
ATOM     58  C   UNL A   1      44.914  27.712  29.207  1.00  0.00     0.029 A 
ATOM     59  C   UNL A   1      44.443  27.122  30.367  1.00  0.00     0.049 A 
ATOM     60  H   UNL A   1      43.267  25.405  30.569  1.00  0.00     0.167 HD
ATOM     61  C   UNL A   1      43.851  28.516  32.256  1.00  0.00     0.074 A 
ATOM     62  C   UNL A   1      43.631  29.066  33.585  1.00  0.00     0.031 C 
ATOM     63  C   UNL A   1      44.496  27.400  31.796  1.00  0.00     0.037 A 
BRANCH  50  64
ATOM     64  C   UNL A   1      42.941  23.964  26.965  1.00  0.00     0.057 A 
ATOM     65  C   UNL A   1      42.864  22.602  27.300  1.00  0.00     0.134 A 
ATOM     66  C   UNL A   1      43.257  24.224  25.618  1.00  0.00     0.134 A 
ATOM     67  F   UNL A   1      42.515  22.196  28.528  1.00  0.00    -0.206 F 
ATOM     68  C   UNL A   1      43.135  21.577  26.386  1.00  0.00     0.040 A 
ATOM     69  C   UNL A   1      43.579  23.210  24.705  1.00  0.00     0.040 A 
ATOM     70  F   UNL A   1      43.222  25.466  25.115  1.00  0.00    -0.206 F 
ATOM     71  C   UNL A   1      43.516  21.878  25.088  1.00  0.00     0.006 A 
ENDBRANCH  50  64
BRANCH  51  72
ATOM     72  C   UNL A   1      40.483  31.958  32.098  1.00  0.00     0.057 A 
ATOM     73  C   UNL A   1      40.146  33.299  31.810  1.00  0.00     0.134 A 
ATOM     74  C   UNL A   1      39.422  31.097  32.402  1.00  0.00     0.134 A 
ATOM     75  F   UNL A   1      41.111  34.188  31.524  1.00  0.00    -0.206 F 
ATOM     76  C   UNL A   1      38.820  33.712  31.641  1.00  0.00     0.040 A 
ATOM     77  C   UNL A   1      38.089  31.510  32.260  1.00  0.00     0.040 A 
ATOM     78  F   UNL A   1      39.648  29.809  32.697  1.00  0.00    -0.206 F 
ATOM     79  C   UNL A   1      37.786  32.800  31.822  1.00  0.00     0.006 A 
ENDBRANCH  51  72
BRANCH  63  80
ATOM     80  C   UNL A   1      45.214  26.439  32.704  1.00  0.00     0.057 A 
ATOM     81  C   UNL A   1      46.591  26.213  32.604  1.00  0.00     0.134 A 
ATOM     82  C   UNL A   1      44.536  25.629  33.642  1.00  0.00     0.134 A 
ATOM     83  F   UNL A   1      47.328  26.833  31.670  1.00  0.00    -0.206 F 
ATOM     84  C   UNL A   1      47.263  25.322  33.447  1.00  0.00     0.040 A 
ATOM     85  C   UNL A   1      45.184  24.689  34.441  1.00  0.00     0.040 A 
ATOM     86  F   UNL A   1      43.217  25.723  33.858  1.00  0.00    -0.206 F 
ATOM     87  C   UNL A   1      46.558  24.555  34.368  1.00  0.00     0.006 A 
ENDBRANCH  63  80
ENDBRANCH  37  38
ENDBRANCH  29  32
ENDBRANCH  27  28
ENDBRANCH  26  27
ENDBRANCH  25  26
ENDBRANCH  24  25
ENDBRANCH   1  24
TORSDOF 18
ENDMDL
MODEL 2
REMARK VINA RESULT:     -10.7      1.615      3.200
REMARK SMILES Cc1ccc([C@@H](C)[NH2+][C@@H](C)CCC(=O)NCCCCCCNC(=O)c2ccc(-c3c4nc(c(-c5c(F)cccc5F)c5ccc([nH]5)c(-c5c(F)cccc5F)c5nc(c(-c6c(F)cccc6F)c6ccc3[nH]6)C=C5)C=C4)cc2)cc1F
REMARK SMILES IDX 17 1 16 2 15 3 13 4 14 5 12 7 11 8 9 9 10 10 8 11 6 14 7 15
REMARK SMILES IDX 5 16 1 17 2 18 3 19 80 20 4 21 79 22 81 23 18 24 19 25 20 26
REMARK SMILES IDX 21 27 22 28 23 29 24 31 25 32 26 33 78 34 27 35 77 36 28 37
REMARK SMILES IDX 29 38 30 39 71 40 31 41 76 42 70 43 72 44 32 45 75 46 69 47
REMARK SMILES IDX 68 48 33 50 59 51 42 52 58 53 43 54 46 55 57 56 73 57 44 58
REMARK SMILES IDX 45 59 56 61 74 62 47 63 34 64 35 65 40 66 36 67 37 68 39 69
REMARK SMILES IDX 41 70 38 71 60 72 61 73 66 74 62 75 63 76 65 77 67 78 64 79
REMARK SMILES IDX 48 80 49 81 54 82 50 83 51 84 53 85 55 86 52 87
REMARK H PARENT 15 6 8 12 8 13 22 30 72 49 46 60
REMARK Flexibility Score: inf
ROOT
ATOM      1  C   UNL A   1      31.261  28.690  23.165  1.00  0.00     0.021 C 
ENDROOT
BRANCH   1   2
ATOM      2  C   UNL A   1      30.704  27.358  22.652  1.00  0.00     0.116 C 
BRANCH   2   3
ATOM      3  N   UNL A   1      31.532  26.846  21.592  1.00  0.00    -0.356 N 
ATOM      4  C   UNL A   1      32.634  26.056  21.687  1.00  0.00     0.220 C 
ATOM      5  O   UNL A   1      33.276  25.829  20.660  1.00  0.00    -0.275 OA
ATOM      6  H   UNL A   1      31.264  27.100  20.679  1.00  0.00     0.163 HD
BRANCH   4   7
ATOM      7  C   UNL A   1      33.046  25.464  23.025  1.00  0.00     0.106 C 
BRANCH   7   8
ATOM      8  C   UNL A   1      32.241  24.225  23.432  1.00  0.00     0.074 C 
BRANCH   8   9
ATOM      9  C   UNL A   1      32.074  23.971  24.952  1.00  0.00     0.180 C 
ATOM     10  C   UNL A   1      32.632  25.179  25.716  1.00  0.00     0.075 C 
BRANCH   9  11
ATOM     11  N   UNL A   1      32.725  22.707  25.335  1.00  0.00    -0.338 N 
ATOM     12  H   UNL A   1      33.371  22.911  26.098  1.00  0.00     0.347 HD
ATOM     13  H   UNL A   1      31.962  22.076  25.578  1.00  0.00     0.347 HD
BRANCH  11  14
ATOM     14  C   UNL A   1      33.484  22.006  24.286  1.00  0.00     0.210 C 
ATOM     15  C   UNL A   1      32.988  20.595  23.960  1.00  0.00     0.081 C 
BRANCH  14  16
ATOM     16  C   UNL A   1      34.977  21.951  24.605  1.00  0.00     0.012 A 
ATOM     17  C   UNL A   1      39.096  21.704  25.940  1.00  0.00     0.047 C 
ATOM     18  C   UNL A   1      37.680  21.778  25.456  1.00  0.00    -0.015 A 
ATOM     19  C   UNL A   1      36.921  20.621  25.285  1.00  0.00     0.007 A 
ATOM     20  C   UNL A   1      37.088  23.009  25.163  1.00  0.00     0.126 A 
ATOM     21  C   UNL A   1      35.592  20.712  24.862  1.00  0.00     0.010 A 
ATOM     22  C   UNL A   1      35.758  23.105  24.747  1.00  0.00     0.049 A 
ATOM     23  F   UNL A   1      37.800  24.135  25.308  1.00  0.00    -0.207 F 
ENDBRANCH  14  16
ENDBRANCH  11  14
ENDBRANCH   9  11
ENDBRANCH   8   9
ENDBRANCH   7   8
ENDBRANCH   4   7
ENDBRANCH   2   3
ENDBRANCH   1   2
BRANCH   1  24
ATOM     24  C   UNL A   1      30.856  29.010  24.601  1.00  0.00     0.002 C 
BRANCH  24  25
ATOM     25  C   UNL A   1      31.876  28.582  25.667  1.00  0.00     0.002 C 
BRANCH  25  26
ATOM     26  C   UNL A   1      32.150  29.625  26.754  1.00  0.00     0.021 C 
BRANCH  26  27
ATOM     27  C   UNL A   1      33.590  29.614  27.198  1.00  0.00     0.116 C 
BRANCH  27  28
ATOM     28  N   UNL A   1      34.022  30.956  27.568  1.00  0.00    -0.352 N 
ATOM     29  C   UNL A   1      35.060  31.330  28.383  1.00  0.00     0.251 C 
ATOM     30  H   UNL A   1      33.499  31.694  27.179  1.00  0.00     0.163 HD
ATOM     31  O   UNL A   1      35.121  32.456  28.852  1.00  0.00    -0.269 OA
BRANCH  29  32
ATOM     32  C   UNL A   1      36.150  30.371  28.608  1.00  0.00     0.039 A 
ATOM     33  C   UNL A   1      36.321  29.745  29.848  1.00  0.00     0.014 A 
ATOM     34  C   UNL A   1      37.100  30.237  27.599  1.00  0.00     0.014 A 
ATOM     35  C   UNL A   1      37.509  29.069  30.094  1.00  0.00     0.010 A 
ATOM     36  C   UNL A   1      38.142  29.391  27.753  1.00  0.00     0.010 A 
ATOM     37  C   UNL A   1      38.415  28.958  29.044  1.00  0.00    -0.014 A 
BRANCH  37  38
ATOM     38  C   UNL A   1      39.792  28.552  29.155  1.00  0.00     0.031 A 
ATOM     39  C   UNL A   1      40.147  27.202  28.758  1.00  0.00     0.074 A 
ATOM     40  C   UNL A   1      40.656  29.583  29.304  1.00  0.00     0.049 A 
ATOM     41  N   UNL A   1      41.202  26.601  29.161  1.00  0.00    -0.248 NA
ATOM     42  C   UNL A   1      39.310  26.398  27.869  1.00  0.00     0.031 C 
ATOM     43  C   UNL A   1      42.072  29.693  29.008  1.00  0.00     0.029 A 
ATOM     44  N   UNL A   1      40.338  30.833  29.851  1.00  0.00    -0.354 N 
ATOM     45  C   UNL A   1      41.381  25.544  28.303  1.00  0.00     0.074 A 
ATOM     46  C   UNL A   1      40.108  25.349  27.648  1.00  0.00     0.031 C 
ATOM     47  C   UNL A   1      42.557  30.780  29.642  1.00  0.00     0.029 A 
ATOM     48  C   UNL A   1      41.492  31.317  30.481  1.00  0.00     0.049 A 
ATOM     49  H   UNL A   1      39.465  31.287  29.801  1.00  0.00     0.167 HD
ATOM     50  C   UNL A   1      42.649  25.107  28.073  1.00  0.00     0.037 A 
ATOM     51  C   UNL A   1      41.472  31.337  31.851  1.00  0.00     0.037 A 
ATOM     52  C   UNL A   1      43.615  25.960  28.773  1.00  0.00     0.049 A 
ATOM     53  C   UNL A   1      42.300  30.215  32.452  1.00  0.00     0.074 A 
ATOM     54  C   UNL A   1      44.404  27.035  28.395  1.00  0.00     0.029 A 
ATOM     55  N   UNL A   1      43.554  26.019  30.150  1.00  0.00    -0.354 N 
ATOM     56  N   UNL A   1      42.917  29.302  31.752  1.00  0.00    -0.248 NA
ATOM     57  C   UNL A   1      42.462  30.006  33.888  1.00  0.00     0.031 C 
ATOM     58  C   UNL A   1      44.793  27.741  29.579  1.00  0.00     0.029 A 
ATOM     59  C   UNL A   1      44.244  27.093  30.670  1.00  0.00     0.049 A 
ATOM     60  H   UNL A   1      43.069  25.363  30.703  1.00  0.00     0.167 HD
ATOM     61  C   UNL A   1      43.506  28.390  32.578  1.00  0.00     0.074 A 
ATOM     62  C   UNL A   1      43.186  28.872  33.913  1.00  0.00     0.031 C 
ATOM     63  C   UNL A   1      44.190  27.300  32.112  1.00  0.00     0.037 A 
BRANCH  50  64
ATOM     64  C   UNL A   1      43.014  24.102  27.018  1.00  0.00     0.057 A 
ATOM     65  C   UNL A   1      43.403  24.520  25.734  1.00  0.00     0.134 A 
ATOM     66  C   UNL A   1      43.041  22.709  27.218  1.00  0.00     0.134 A 
ATOM     67  F   UNL A   1      43.484  25.817  25.410  1.00  0.00    -0.206 F 
ATOM     68  C   UNL A   1      43.735  23.626  24.710  1.00  0.00     0.040 A 
ATOM     69  C   UNL A   1      43.326  21.800  26.188  1.00  0.00     0.040 A 
ATOM     70  F   UNL A   1      42.841  22.168  28.428  1.00  0.00    -0.206 F 
ATOM     71  C   UNL A   1      43.677  22.259  24.928  1.00  0.00     0.006 A 
ENDBRANCH  50  64
BRANCH  51  72
ATOM     72  C   UNL A   1      40.134  31.822  32.344  1.00  0.00     0.057 A 
ATOM     73  C   UNL A   1      39.280  30.866  32.938  1.00  0.00     0.134 A 
ATOM     74  C   UNL A   1      39.930  33.157  32.714  1.00  0.00     0.134 A 
ATOM     75  F   UNL A   1      39.404  29.567  32.621  1.00  0.00    -0.206 F 
ATOM     76  C   UNL A   1      38.411  31.194  33.984  1.00  0.00     0.040 A 
ATOM     77  C   UNL A   1      39.041  33.498  33.744  1.00  0.00     0.040 A 
ATOM     78  F   UNL A   1      40.686  34.134  32.194  1.00  0.00    -0.206 F 
ATOM     79  C   UNL A   1      38.324  32.511  34.420  1.00  0.00     0.006 A 
ENDBRANCH  51  72
BRANCH  63  80
ATOM     80  C   UNL A   1      44.848  26.299  33.021  1.00  0.00     0.057 A 
ATOM     81  C   UNL A   1      46.220  26.033  32.963  1.00  0.00     0.134 A 
ATOM     82  C   UNL A   1      44.115  25.488  33.916  1.00  0.00     0.134 A 
ATOM     83  F   UNL A   1      47.008  26.651  32.070  1.00  0.00    -0.206 F 
ATOM     84  C   UNL A   1      46.836  25.104  33.808  1.00  0.00     0.040 A 
ATOM     85  C   UNL A   1      44.706  24.512  34.715  1.00  0.00     0.040 A 
ATOM     86  F   UNL A   1      42.792  25.617  34.089  1.00  0.00    -0.206 F 
ATOM     87  C   UNL A   1      46.078  24.338  34.686  1.00  0.00     0.006 A 
ENDBRANCH  63  80
ENDBRANCH  37  38
ENDBRANCH  29  32
ENDBRANCH  27  28
ENDBRANCH  26  27
ENDBRANCH  25  26
ENDBRANCH  24  25
ENDBRANCH   1  24
TORSDOF 18
ENDMDL
MODEL 3
REMARK VINA RESULT:     -10.7      2.464      4.283
REMARK SMILES Cc1ccc([C@@H](C)[NH2+][C@@H](C)CCC(=O)NCCCCCCNC(=O)c2ccc(-c3c4nc(c(-c5c(F)cccc5F)c5ccc([nH]5)c(-c5c(F)cccc5F)c5nc(c(-c6c(F)cccc6F)c6ccc3[nH]6)C=C5)C=C4)cc2)cc1F
REMARK SMILES IDX 17 1 16 2 15 3 13 4 14 5 12 7 11 8 9 9 10 10 8 11 6 14 7 15
REMARK SMILES IDX 5 16 1 17 2 18 3 19 80 20 4 21 79 22 81 23 18 24 19 25 20 26
REMARK SMILES IDX 21 27 22 28 23 29 24 31 25 32 26 33 78 34 27 35 77 36 28 37
REMARK SMILES IDX 29 38 30 39 71 40 31 41 76 42 70 43 72 44 32 45 75 46 69 47
REMARK SMILES IDX 68 48 33 50 59 51 42 52 58 53 43 54 46 55 57 56 73 57 44 58
REMARK SMILES IDX 45 59 56 61 74 62 47 63 34 64 35 65 40 66 36 67 37 68 39 69
REMARK SMILES IDX 41 70 38 71 60 72 61 73 66 74 62 75 63 76 65 77 67 78 64 79
REMARK SMILES IDX 48 80 49 81 54 82 50 83 51 84 53 85 55 86 52 87
REMARK H PARENT 15 6 8 12 8 13 22 30 72 49 46 60
REMARK Flexibility Score: inf
ROOT
ATOM      1  C   UNL A   1      35.555  30.643  28.421  1.00  0.00     0.021 C 
ENDROOT
BRANCH   1   2
ATOM      2  C   UNL A   1      35.501  29.569  27.329  1.00  0.00     0.116 C 
BRANCH   2   3
ATOM      3  N   UNL A   1      34.390  29.810  26.448  1.00  0.00    -0.356 N 
ATOM      4  C   UNL A   1      33.561  28.904  25.865  1.00  0.00     0.220 C 
ATOM      5  O   UNL A   1      32.743  29.313  25.039  1.00  0.00    -0.275 OA
ATOM      6  H   UNL A   1      34.205  30.755  26.241  1.00  0.00     0.163 HD
BRANCH   4   7
ATOM      7  C   UNL A   1      33.641  27.433  26.239  1.00  0.00     0.106 C 
BRANCH   7   8
ATOM      8  C   UNL A   1      33.733  26.488  25.036  1.00  0.00     0.074 C 
BRANCH   8   9
ATOM      9  C   UNL A   1      32.718  25.318  24.988  1.00  0.00     0.180 C 
ATOM     10  C   UNL A   1      31.525  25.666  25.889  1.00  0.00     0.075 C 
BRANCH   9  11
ATOM     11  N   UNL A   1      33.371  24.056  25.374  1.00  0.00    -0.338 N 
ATOM     12  H   UNL A   1      34.016  24.263  26.137  1.00  0.00     0.347 HD
ATOM     13  H   UNL A   1      32.608  23.424  25.618  1.00  0.00     0.347 HD
BRANCH  11  14
ATOM     14  C   UNL A   1      34.131  23.355  24.327  1.00  0.00     0.210 C 
ATOM     15  C   UNL A   1      33.498  22.053  23.828  1.00  0.00     0.081 C 
BRANCH  14  16
ATOM     16  C   UNL A   1      35.571  23.078  24.758  1.00  0.00     0.012 A 
ATOM     17  C   UNL A   1      39.484  22.006  26.288  1.00  0.00     0.047 C 
ATOM     18  C   UNL A   1      38.143  22.377  25.735  1.00  0.00    -0.015 A 
ATOM     19  C   UNL A   1      37.440  21.500  24.910  1.00  0.00     0.007 A 
ATOM     20  C   UNL A   1      37.565  23.614  26.032  1.00  0.00     0.126 A 
ATOM     21  C   UNL A   1      36.176  21.851  24.429  1.00  0.00     0.010 A 
ATOM     22  C   UNL A   1      36.298  23.967  25.559  1.00  0.00     0.049 A 
ATOM     23  F   UNL A   1      38.225  24.481  26.812  1.00  0.00    -0.207 F 
ENDBRANCH  14  16
ENDBRANCH  11  14
ENDBRANCH   9  11
ENDBRANCH   8   9
ENDBRANCH   7   8
ENDBRANCH   4   7
ENDBRANCH   2   3
ENDBRANCH   1   2
BRANCH   1  24
ATOM     24  C   UNL A   1      34.714  31.878  28.106  1.00  0.00     0.002 C 
BRANCH  24  25
ATOM     25  C   UNL A   1      35.519  33.172  27.918  1.00  0.00     0.002 C 
BRANCH  25  26
ATOM     26  C   UNL A   1      34.843  34.437  28.452  1.00  0.00     0.021 C 
BRANCH  26  27
ATOM     27  C   UNL A   1      34.064  34.173  29.715  1.00  0.00     0.116 C 
BRANCH  27  28
ATOM     28  N   UNL A   1      34.617  34.937  30.827  1.00  0.00    -0.352 N 
ATOM     29  C   UNL A   1      35.524  34.538  31.775  1.00  0.00     0.251 C 
ATOM     30  H   UNL A   1      34.296  35.864  30.907  1.00  0.00     0.163 HD
ATOM     31  O   UNL A   1      35.665  35.161  32.816  1.00  0.00    -0.269 OA
BRANCH  29  32
ATOM     32  C   UNL A   1      36.393  33.393  31.471  1.00  0.00     0.039 A 
ATOM     33  C   UNL A   1      36.116  32.118  31.979  1.00  0.00     0.014 A 
ATOM     34  C   UNL A   1      37.584  33.655  30.801  1.00  0.00     0.014 A 
ATOM     35  C   UNL A   1      37.100  31.141  31.896  1.00  0.00     0.010 A 
ATOM     36  C   UNL A   1      38.440  32.651  30.513  1.00  0.00     0.010 A 
ATOM     37  C   UNL A   1      38.265  31.459  31.204  1.00  0.00    -0.014 A 
BRANCH  37  38
ATOM     38  C   UNL A   1      39.496  30.712  31.234  1.00  0.00     0.031 A 
ATOM     39  C   UNL A   1      39.594  29.513  30.422  1.00  0.00     0.074 A 
ATOM     40  C   UNL A   1      40.538  31.396  31.761  1.00  0.00     0.049 A 
ATOM     41  N   UNL A   1      40.434  28.574  30.645  1.00  0.00    -0.248 NA
ATOM     42  C   UNL A   1      38.719  29.265  29.277  1.00  0.00     0.031 C 
ATOM     43  C   UNL A   1      41.969  31.240  31.583  1.00  0.00     0.029 A 
ATOM     44  N   UNL A   1      40.435  32.446  32.682  1.00  0.00    -0.354 N 
ATOM     45  C   UNL A   1      40.484  27.834  29.490  1.00  0.00     0.074 A 
ATOM     46  C   UNL A   1      39.291  28.177  28.751  1.00  0.00     0.031 C 
ATOM     47  C   UNL A   1      42.597  31.916  32.567  1.00  0.00     0.029 A 
ATOM     48  C   UNL A   1      41.579  32.404  33.489  1.00  0.00     0.049 A 
ATOM     49  H   UNL A   1      39.695  33.093  32.749  1.00  0.00     0.167 HD
ATOM     50  C   UNL A   1      41.644  27.193  29.183  1.00  0.00     0.037 A 
ATOM     51  C   UNL A   1      41.393  31.995  34.783  1.00  0.00     0.037 A 
ATOM     52  C   UNL A   1      42.679  27.514  30.172  1.00  0.00     0.049 A 
ATOM     53  C   UNL A   1      41.876  30.572  35.008  1.00  0.00     0.074 A 
ATOM     54  C   UNL A   1      43.724  28.424  30.215  1.00  0.00     0.029 A 
ATOM     55  N   UNL A   1      42.461  27.147  31.484  1.00  0.00    -0.354 N 
ATOM     56  N   UNL A   1      42.362  29.805  34.069  1.00  0.00    -0.248 NA
ATOM     57  C   UNL A   1      41.809  29.886  36.295  1.00  0.00     0.031 C 
ATOM     58  C   UNL A   1      44.107  28.600  31.583  1.00  0.00     0.029 A 
ATOM     59  C   UNL A   1      43.298  27.796  32.367  1.00  0.00     0.049 A 
ATOM     60  H   UNL A   1      41.780  26.492  31.761  1.00  0.00     0.167 HD
ATOM     61  C   UNL A   1      42.630  28.562  34.565  1.00  0.00     0.074 A 
ATOM     62  C   UNL A   1      42.259  28.661  35.968  1.00  0.00     0.031 C 
ATOM     63  C   UNL A   1      43.112  27.543  33.790  1.00  0.00     0.037 A 
BRANCH  50  64
ATOM     64  C   UNL A   1      41.910  26.517  27.869  1.00  0.00     0.057 A 
ATOM     65  C   UNL A   1      42.270  27.267  26.736  1.00  0.00     0.134 A 
ATOM     66  C   UNL A   1      41.865  25.124  27.664  1.00  0.00     0.134 A 
ATOM     67  F   UNL A   1      42.412  28.598  26.789  1.00  0.00    -0.206 F 
ATOM     68  C   UNL A   1      42.511  26.689  25.485  1.00  0.00     0.040 A 
ATOM     69  C   UNL A   1      42.057  24.536  26.405  1.00  0.00     0.040 A 
ATOM     70  F   UNL A   1      41.683  24.270  28.680  1.00  0.00    -0.206 F 
ATOM     71  C   UNL A   1      42.384  25.320  25.309  1.00  0.00     0.006 A 
ENDBRANCH  50  64
BRANCH  51  72
ATOM     72  C   UNL A   1      40.143  32.613  35.351  1.00  0.00     0.057 A 
ATOM     73  C   UNL A   1      40.165  34.004  35.595  1.00  0.00     0.134 A 
ATOM     74  C   UNL A   1      38.884  32.034  35.149  1.00  0.00     0.134 A 
ATOM     75  F   UNL A   1      41.334  34.628  35.813  1.00  0.00    -0.206 F 
ATOM     76  C   UNL A   1      39.026  34.803  35.452  1.00  0.00     0.040 A 
ATOM     77  C   UNL A   1      37.731  32.825  35.030  1.00  0.00     0.040 A 
ATOM     78  F   UNL A   1      38.765  30.719  34.920  1.00  0.00    -0.206 F 
ATOM     79  C   UNL A   1      37.810  34.215  35.122  1.00  0.00     0.006 A 
ENDBRANCH  51  72
BRANCH  63  80
ATOM     80  C   UNL A   1      43.418  26.175  34.337  1.00  0.00     0.057 A 
ATOM     81  C   UNL A   1      44.697  25.615  34.261  1.00  0.00     0.134 A 
ATOM     82  C   UNL A   1      42.419  25.328  34.865  1.00  0.00     0.134 A 
ATOM     83  F   UNL A   1      45.707  26.273  33.672  1.00  0.00    -0.206 F 
ATOM     84  C   UNL A   1      44.986  24.345  34.770  1.00  0.00     0.040 A 
ATOM     85  C   UNL A   1      42.680  24.035  35.314  1.00  0.00     0.040 A 
ATOM     86  F   UNL A   1      41.144  25.714  35.005  1.00  0.00    -0.206 F 
ATOM     87  C   UNL A   1      43.974  23.549  35.297  1.00  0.00     0.006 A 
ENDBRANCH  63  80
ENDBRANCH  37  38
ENDBRANCH  29  32
ENDBRANCH  27  28
ENDBRANCH  26  27
ENDBRANCH  25  26
ENDBRANCH  24  25
ENDBRANCH   1  24
TORSDOF 18
ENDMDL
