MODEL 1
REMARK VINA RESULT:     -12.3      0.000      0.000
REMARK SMILES O=C(CCC(=O)N1N=C(c2ccc(F)cc2)C[C@@H]1c1ccc2nccnc2c1)NCCCCCCNC(=O)c1ccc(-c2c3nc(c(-c4c(F)cccc4F)c4ccc([nH]4)c(-c4c(F)cccc4F)c4nc(c(-c5c(F)cccc5F)c5ccc2[nH]5)C=C4)C=C3)cc1
REMARK SMILES IDX 31 1 30 2 29 3 1 4 2 5 3 7 4 8 5 9 6 10 7 11 8 12 18 13 9 14
REMARK SMILES IDX 17 15 19 16 20 17 28 18 21 19 27 20 22 21 26 22 23 23 25 24
REMARK SMILES IDX 24 25 10 26 11 27 16 28 12 29 15 30 13 31 14 32 32 33 33 34
REMARK SMILES IDX 34 35 35 36 36 37 37 38 38 40 39 41 40 42 92 43 41 44 91 45
REMARK SMILES IDX 42 46 43 47 44 48 85 49 45 50 90 51 84 52 86 53 46 54 89 55
REMARK SMILES IDX 83 56 82 57 47 59 73 60 56 61 72 62 57 63 60 64 71 65 87 66
REMARK SMILES IDX 58 67 59 68 70 70 88 71 61 72 48 73 49 74 54 75 50 76 51 77
REMARK SMILES IDX 53 78 55 79 52 80 74 81 75 82 80 83 76 84 77 85 79 86 81 87
REMARK SMILES IDX 78 88 62 89 63 90 68 91 64 92 65 93 67 94 69 95 66 96
REMARK H PARENT 29 6 36 39 86 58 60 69
REMARK Flexibility Score: inf
ROOT
ATOM      1  C   UNL A   1      34.907  31.653  28.207  1.00  0.00     0.021 C 
ENDROOT
BRANCH   1   2
ATOM      2  C   UNL A   1      35.411  30.263  27.693  1.00  0.00     0.116 C 
BRANCH   2   3
ATOM      3  N   UNL A   1      34.521  29.096  27.590  1.00  0.00    -0.356 N 
ATOM      4  O   UNL A   1      33.209  29.984  25.922  1.00  0.00    -0.275 OA
ATOM      5  C   UNL A   1      33.541  29.008  26.589  1.00  0.00     0.220 C 
ATOM      6  H   UNL A   1      34.615  28.360  28.237  1.00  0.00     0.163 HD
BRANCH   5   7
ATOM      7  C   UNL A   1      33.031  27.576  26.249  1.00  0.00     0.110 C 
BRANCH   7   8
ATOM      8  C   UNL A   1      33.733  26.956  25.002  1.00  0.00     0.112 C 
BRANCH   8   9
ATOM      9  C   UNL A   1      33.952  25.432  24.682  1.00  0.00     0.243 C 
ATOM     10  O   UNL A   1      34.948  24.877  25.160  1.00  0.00    -0.273 OA
BRANCH   9  11
ATOM     11  N   UNL A   1      32.938  24.695  24.083  1.00  0.00    -0.225 N 
ATOM     12  N   UNL A   1      33.253  23.440  23.498  1.00  0.00    -0.174 NA
ATOM     13  C   UNL A   1      31.563  24.716  24.508  1.00  0.00     0.147 C 
ATOM     14  C   UNL A   1      32.294  22.641  23.873  1.00  0.00     0.071 C 
ATOM     15  C   UNL A   1      31.347  23.257  24.836  1.00  0.00     0.091 C 
BRANCH  13  16
ATOM     16  C   UNL A   1      30.656  25.742  23.835  1.00  0.00    -0.021 A 
ATOM     17  C   UNL A   1      29.309  25.768  24.225  1.00  0.00     0.008 A 
ATOM     18  C   UNL A   1      31.069  26.828  23.055  1.00  0.00     0.036 A 
ATOM     19  C   UNL A   1      28.410  26.767  23.876  1.00  0.00     0.031 A 
ATOM     20  C   UNL A   1      30.187  27.877  22.702  1.00  0.00     0.089 A 
ATOM     21  C   UNL A   1      28.832  27.829  23.127  1.00  0.00     0.089 A 
ATOM     22  N   UNL A   1      30.610  28.948  22.001  1.00  0.00    -0.253 NA
ATOM     23  N   UNL A   1      27.929  28.787  22.865  1.00  0.00    -0.253 NA
ATOM     24  C   UNL A   1      29.696  29.922  21.754  1.00  0.00     0.132 A 
ATOM     25  C   UNL A   1      28.383  29.842  22.172  1.00  0.00     0.132 A 
ENDBRANCH  13  16
BRANCH  14  26
ATOM     26  C   UNL A   1      32.154  21.190  23.668  1.00  0.00    -0.002 A 
ATOM     27  C   UNL A   1      32.474  20.310  24.708  1.00  0.00     0.013 A 
ATOM     28  C   UNL A   1      32.031  20.715  22.355  1.00  0.00     0.013 A 
ATOM     29  C   UNL A   1      32.645  18.947  24.434  1.00  0.00     0.040 A 
ATOM     30  C   UNL A   1      32.203  19.352  22.088  1.00  0.00     0.040 A 
ATOM     31  C   UNL A   1      32.510  18.482  23.128  1.00  0.00     0.123 A 
ATOM     32  F   UNL A   1      32.710  17.184  22.866  1.00  0.00    -0.207 F 
ENDBRANCH  14  26
ENDBRANCH   9  11
ENDBRANCH   8   9
ENDBRANCH   7   8
ENDBRANCH   5   7
ENDBRANCH   2   3
ENDBRANCH   1   2
BRANCH   1  33
ATOM     33  C   UNL A   1      35.511  33.088  28.097  1.00  0.00     0.002 C 
BRANCH  33  34
ATOM     34  C   UNL A   1      34.747  34.419  27.986  1.00  0.00     0.002 C 
BRANCH  34  35
ATOM     35  C   UNL A   1      33.599  34.613  28.974  1.00  0.00     0.021 C 
BRANCH  35  36
ATOM     36  C   UNL A   1      33.748  35.926  29.734  1.00  0.00     0.116 C 
BRANCH  36  37
ATOM     37  N   UNL A   1      32.601  36.232  30.583  1.00  0.00    -0.352 N 
ATOM     38  C   UNL A   1      32.421  35.864  31.910  1.00  0.00     0.251 C 
ATOM     39  H   UNL A   1      31.877  36.757  30.171  1.00  0.00     0.163 HD
ATOM     40  O   UNL A   1      31.381  36.078  32.501  1.00  0.00    -0.269 OA
BRANCH  38  41
ATOM     41  C   UNL A   1      33.537  35.155  32.563  1.00  0.00     0.039 A 
ATOM     42  C   UNL A   1      33.383  33.814  32.920  1.00  0.00     0.014 A 
ATOM     43  C   UNL A   1      34.776  35.789  32.666  1.00  0.00     0.014 A 
ATOM     44  C   UNL A   1      34.508  33.078  33.296  1.00  0.00     0.010 A 
ATOM     45  C   UNL A   1      35.904  35.030  32.935  1.00  0.00     0.010 A 
ATOM     46  C   UNL A   1      35.781  33.670  33.255  1.00  0.00    -0.014 A 
BRANCH  46  47
ATOM     47  C   UNL A   1      37.011  32.902  33.564  1.00  0.00     0.031 A 
ATOM     48  C   UNL A   1      37.754  33.189  34.838  1.00  0.00     0.074 A 
ATOM     49  C   UNL A   1      37.505  32.029  32.665  1.00  0.00     0.049 A 
ATOM     50  N   UNL A   1      38.909  32.730  35.242  1.00  0.00    -0.248 NA
ATOM     51  C   UNL A   1      37.140  34.161  35.757  1.00  0.00     0.031 C 
ATOM     52  C   UNL A   1      36.908  31.719  31.364  1.00  0.00     0.029 A 
ATOM     53  N   UNL A   1      38.632  31.248  32.706  1.00  0.00    -0.354 N 
ATOM     54  C   UNL A   1      39.172  33.383  36.439  1.00  0.00     0.074 A 
ATOM     55  C   UNL A   1      38.091  34.315  36.665  1.00  0.00     0.031 C 
ATOM     56  C   UNL A   1      37.655  30.788  30.748  1.00  0.00     0.029 A 
ATOM     57  C   UNL A   1      38.800  30.462  31.591  1.00  0.00     0.049 A 
ATOM     58  H   UNL A   1      39.262  31.250  33.463  1.00  0.00     0.167 HD
ATOM     59  C   UNL A   1      40.205  33.197  37.291  1.00  0.00     0.037 A 
ATOM     60  C   UNL A   1      39.768  29.576  31.289  1.00  0.00     0.037 A 
ATOM     61  C   UNL A   1      41.236  32.217  37.093  1.00  0.00     0.049 A 
ATOM     62  C   UNL A   1      40.882  29.348  32.272  1.00  0.00     0.074 A 
ATOM     63  C   UNL A   1      42.273  31.876  37.940  1.00  0.00     0.029 A 
ATOM     64  N   UNL A   1      41.349  31.411  35.969  1.00  0.00    -0.354 N 
ATOM     65  N   UNL A   1      41.086  29.925  33.431  1.00  0.00    -0.248 NA
ATOM     66  C   UNL A   1      41.897  28.349  31.911  1.00  0.00     0.031 C 
ATOM     67  C   UNL A   1      43.037  30.887  37.313  1.00  0.00     0.029 A 
ATOM     68  C   UNL A   1      42.452  30.585  36.093  1.00  0.00     0.049 A 
ATOM     69  H   UNL A   1      40.737  31.427  35.197  1.00  0.00     0.167 HD
ATOM     70  C   UNL A   1      42.240  29.352  33.946  1.00  0.00     0.074 A 
ATOM     71  C   UNL A   1      42.686  28.370  32.978  1.00  0.00     0.031 C 
ATOM     72  C   UNL A   1      42.874  29.615  35.114  1.00  0.00     0.037 A 
BRANCH  59  73
ATOM     73  C   UNL A   1      40.251  34.050  38.523  1.00  0.00     0.057 A 
ATOM     74  C   UNL A   1      40.981  35.245  38.537  1.00  0.00     0.134 A 
ATOM     75  C   UNL A   1      39.598  33.678  39.705  1.00  0.00     0.134 A 
ATOM     76  F   UNL A   1      41.632  35.660  37.439  1.00  0.00    -0.206 F 
ATOM     77  C   UNL A   1      41.061  36.037  39.683  1.00  0.00     0.040 A 
ATOM     78  C   UNL A   1      39.646  34.476  40.849  1.00  0.00     0.040 A 
ATOM     79  F   UNL A   1      38.868  32.554  39.753  1.00  0.00    -0.206 F 
ATOM     80  C   UNL A   1      40.387  35.656  40.841  1.00  0.00     0.006 A 
ENDBRANCH  59  73
BRANCH  60  81
ATOM     81  C   UNL A   1      39.688  28.810  30.020  1.00  0.00     0.057 A 
ATOM     82  C   UNL A   1      39.087  27.547  29.960  1.00  0.00     0.134 A 
ATOM     83  C   UNL A   1      40.262  29.308  28.845  1.00  0.00     0.134 A 
ATOM     84  F   UNL A   1      38.528  27.011  31.055  1.00  0.00    -0.206 F 
ATOM     85  C   UNL A   1      39.076  26.798  28.782  1.00  0.00     0.040 A 
ATOM     86  C   UNL A   1      40.241  28.578  27.655  1.00  0.00     0.040 A 
ATOM     87  F   UNL A   1      40.839  30.518  28.837  1.00  0.00    -0.206 F 
ATOM     88  C   UNL A   1      39.655  27.315  27.623  1.00  0.00     0.006 A 
ENDBRANCH  60  81
BRANCH  72  89
ATOM     89  C   UNL A   1      44.113  28.832  35.424  1.00  0.00     0.057 A 
ATOM     90  C   UNL A   1      44.044  27.658  36.183  1.00  0.00     0.134 A 
ATOM     91  C   UNL A   1      45.381  29.300  35.059  1.00  0.00     0.134 A 
ATOM     92  F   UNL A   1      42.858  27.167  36.573  1.00  0.00    -0.206 F 
ATOM     93  C   UNL A   1      45.197  26.984  36.586  1.00  0.00     0.040 A 
ATOM     94  C   UNL A   1      46.540  28.622  35.438  1.00  0.00     0.040 A 
ATOM     95  F   UNL A   1      45.509  30.415  34.325  1.00  0.00    -0.206 F 
ATOM     96  C   UNL A   1      46.449  27.467  36.215  1.00  0.00     0.006 A 
ENDBRANCH  72  89
ENDBRANCH  46  47
ENDBRANCH  38  41
ENDBRANCH  36  37
ENDBRANCH  35  36
ENDBRANCH  34  35
ENDBRANCH  33  34
ENDBRANCH   1  33
TORSDOF 18
ENDMDL
MODEL 2
REMARK VINA RESULT:     -12.0      3.213      6.323
REMARK SMILES O=C(CCC(=O)N1N=C(c2ccc(F)cc2)C[C@@H]1c1ccc2nccnc2c1)NCCCCCCNC(=O)c1ccc(-c2c3nc(c(-c4c(F)cccc4F)c4ccc([nH]4)c(-c4c(F)cccc4F)c4nc(c(-c5c(F)cccc5F)c5ccc2[nH]5)C=C4)C=C3)cc1
REMARK SMILES IDX 31 1 30 2 29 3 1 4 2 5 3 7 4 8 5 9 6 10 7 11 8 12 18 13 9 14
REMARK SMILES IDX 17 15 19 16 20 17 28 18 21 19 27 20 22 21 26 22 23 23 25 24
REMARK SMILES IDX 24 25 10 26 11 27 16 28 12 29 15 30 13 31 14 32 32 33 33 34
REMARK SMILES IDX 34 35 35 36 36 37 37 38 38 40 39 41 40 42 92 43 41 44 91 45
REMARK SMILES IDX 42 46 43 47 44 48 85 49 45 50 90 51 84 52 86 53 46 54 89 55
REMARK SMILES IDX 83 56 82 57 47 59 73 60 56 61 72 62 57 63 60 64 71 65 87 66
REMARK SMILES IDX 58 67 59 68 70 70 88 71 61 72 48 73 49 74 54 75 50 76 51 77
REMARK SMILES IDX 53 78 55 79 52 80 74 81 75 82 80 83 76 84 77 85 79 86 81 87
REMARK SMILES IDX 78 88 62 89 63 90 68 91 64 92 65 93 67 94 69 95 66 96
REMARK H PARENT 29 6 36 39 86 58 60 69
REMARK Flexibility Score: inf
ROOT
ATOM      1  C   UNL A   1      31.633  25.498  26.354  1.00  0.00     0.021 C 
ENDROOT
BRANCH   1   2
ATOM      2  C   UNL A   1      31.261  24.326  25.385  1.00  0.00     0.116 C 
BRANCH   2   3
ATOM      3  N   UNL A   1      31.359  22.915  25.788  1.00  0.00    -0.356 N 
ATOM      4  O   UNL A   1      31.598  22.106  23.648  1.00  0.00    -0.275 OA
ATOM      5  C   UNL A   1      31.656  21.907  24.858  1.00  0.00     0.220 C 
ATOM      6  H   UNL A   1      31.214  22.672  26.732  1.00  0.00     0.163 HD
BRANCH   5   7
ATOM      7  C   UNL A   1      32.235  20.583  25.440  1.00  0.00     0.110 C 
BRANCH   7   8
ATOM      8  C   UNL A   1      33.677  20.744  26.011  1.00  0.00     0.112 C 
BRANCH   8   9
ATOM      9  C   UNL A   1      35.021  20.868  25.206  1.00  0.00     0.243 C 
ATOM     10  O   UNL A   1      35.539  19.829  24.779  1.00  0.00    -0.273 OA
BRANCH   9  11
ATOM     11  N   UNL A   1      35.472  22.116  24.794  1.00  0.00    -0.225 N 
ATOM     12  N   UNL A   1      34.866  22.729  23.667  1.00  0.00    -0.174 NA
ATOM     13  C   UNL A   1      36.005  23.117  25.680  1.00  0.00     0.147 C 
ATOM     14  C   UNL A   1      34.696  23.976  24.009  1.00  0.00     0.071 C 
ATOM     15  C   UNL A   1      35.048  24.257  25.423  1.00  0.00     0.091 C 
BRANCH  13  16
ATOM     16  C   UNL A   1      37.514  23.098  25.904  1.00  0.00    -0.021 A 
ATOM     17  C   UNL A   1      38.092  24.227  26.503  1.00  0.00     0.008 A 
ATOM     18  C   UNL A   1      38.352  21.982  25.809  1.00  0.00     0.036 A 
ATOM     19  C   UNL A   1      39.398  24.285  26.969  1.00  0.00     0.031 A 
ATOM     20  C   UNL A   1      39.681  21.997  26.297  1.00  0.00     0.089 A 
ATOM     21  C   UNL A   1      40.200  23.182  26.884  1.00  0.00     0.089 A 
ATOM     22  N   UNL A   1      40.459  20.897  26.254  1.00  0.00    -0.253 NA
ATOM     23  N   UNL A   1      41.436  23.285  27.397  1.00  0.00    -0.253 NA
ATOM     24  C   UNL A   1      41.703  21.003  26.791  1.00  0.00     0.132 A 
ATOM     25  C   UNL A   1      42.184  22.172  27.346  1.00  0.00     0.132 A 
ENDBRANCH  13  16
BRANCH  14  26
ATOM     26  C   UNL A   1      34.006  25.056  23.287  1.00  0.00    -0.002 A 
ATOM     27  C   UNL A   1      33.957  26.340  23.844  1.00  0.00     0.013 A 
ATOM     28  C   UNL A   1      33.136  24.708  22.243  1.00  0.00     0.013 A 
ATOM     29  C   UNL A   1      33.054  27.282  23.334  1.00  0.00     0.040 A 
ATOM     30  C   UNL A   1      32.237  25.654  21.740  1.00  0.00     0.040 A 
ATOM     31  C   UNL A   1      32.203  26.930  22.290  1.00  0.00     0.123 A 
ATOM     32  F   UNL A   1      31.317  27.823  21.831  1.00  0.00    -0.207 F 
ENDBRANCH  14  26
ENDBRANCH   9  11
ENDBRANCH   8   9
ENDBRANCH   7   8
ENDBRANCH   5   7
ENDBRANCH   2   3
ENDBRANCH   1   2
BRANCH   1  33
ATOM     33  C   UNL A   1      31.071  26.946  26.504  1.00  0.00     0.002 C 
BRANCH  33  34
ATOM     34  C   UNL A   1      31.835  28.205  26.952  1.00  0.00     0.002 C 
BRANCH  34  35
ATOM     35  C   UNL A   1      33.354  28.070  27.034  1.00  0.00     0.021 C 
BRANCH  35  36
ATOM     36  C   UNL A   1      34.044  29.200  26.278  1.00  0.00     0.116 C 
BRANCH  36  37
ATOM     37  N   UNL A   1      33.586  30.525  26.683  1.00  0.00    -0.352 N 
ATOM     38  C   UNL A   1      34.212  31.391  27.570  1.00  0.00     0.251 C 
ATOM     39  H   UNL A   1      32.744  30.840  26.284  1.00  0.00     0.163 HD
ATOM     40  O   UNL A   1      33.696  32.434  27.924  1.00  0.00    -0.269 OA
BRANCH  38  41
ATOM     41  C   UNL A   1      35.520  30.968  28.106  1.00  0.00     0.039 A 
ATOM     42  C   UNL A   1      36.591  31.863  28.088  1.00  0.00     0.014 A 
ATOM     43  C   UNL A   1      35.617  29.741  28.765  1.00  0.00     0.014 A 
ATOM     44  C   UNL A   1      37.741  31.560  28.820  1.00  0.00     0.010 A 
ATOM     45  C   UNL A   1      36.714  29.493  29.575  1.00  0.00     0.010 A 
ATOM     46  C   UNL A   1      37.786  30.397  29.608  1.00  0.00    -0.014 A 
BRANCH  46  47
ATOM     47  C   UNL A   1      38.953  30.081  30.466  1.00  0.00     0.031 A 
ATOM     48  C   UNL A   1      38.986  30.594  31.877  1.00  0.00     0.074 A 
ATOM     49  C   UNL A   1      40.011  29.425  29.951  1.00  0.00     0.049 A 
ATOM     50  N   UNL A   1      39.956  30.543  32.752  1.00  0.00    -0.248 NA
ATOM     51  C   UNL A   1      37.786  31.304  32.351  1.00  0.00     0.031 C 
ATOM     52  C   UNL A   1      40.122  28.939  28.574  1.00  0.00     0.029 A 
ATOM     53  N   UNL A   1      41.203  29.063  30.527  1.00  0.00    -0.354 N 
ATOM     54  C   UNL A   1      39.494  31.243  33.861  1.00  0.00     0.074 A 
ATOM     55  C   UNL A   1      38.187  31.762  33.526  1.00  0.00     0.031 C 
ATOM     56  C   UNL A   1      41.300  28.311  28.423  1.00  0.00     0.029 A 
ATOM     57  C   UNL A   1      42.041  28.381  29.678  1.00  0.00     0.049 A 
ATOM     58  H   UNL A   1      41.436  29.272  31.460  1.00  0.00     0.167 HD
ATOM     59  C   UNL A   1      40.092  31.407  35.061  1.00  0.00     0.037 A 
ATOM     60  C   UNL A   1      43.268  27.869  29.893  1.00  0.00     0.037 A 
ATOM     61  C   UNL A   1      41.360  30.827  35.408  1.00  0.00     0.049 A 
ATOM     62  C   UNL A   1      43.895  28.021  31.250  1.00  0.00     0.074 A 
ATOM     63  C   UNL A   1      42.011  30.847  36.627  1.00  0.00     0.029 A 
ATOM     64  N   UNL A   1      42.161  30.109  34.532  1.00  0.00    -0.354 N 
ATOM     65  N   UNL A   1      43.422  28.629  32.310  1.00  0.00    -0.248 NA
ATOM     66  C   UNL A   1      45.221  27.417  31.444  1.00  0.00     0.031 C 
ATOM     67  C   UNL A   1      43.225  30.171  36.480  1.00  0.00     0.029 A 
ATOM     68  C   UNL A   1      43.311  29.695  35.180  1.00  0.00     0.049 A 
ATOM     69  H   UNL A   1      41.944  29.922  33.589  1.00  0.00     0.167 HD
ATOM     70  C   UNL A   1      44.380  28.470  33.302  1.00  0.00     0.074 A 
ATOM     71  C   UNL A   1      45.458  27.696  32.719  1.00  0.00     0.031 C 
ATOM     72  C   UNL A   1      44.369  28.925  34.578  1.00  0.00     0.037 A 
BRANCH  59  73
ATOM     73  C   UNL A   1      39.369  32.223  36.091  1.00  0.00     0.057 A 
ATOM     74  C   UNL A   1      39.721  33.560  36.319  1.00  0.00     0.134 A 
ATOM     75  C   UNL A   1      38.345  31.681  36.878  1.00  0.00     0.134 A 
ATOM     76  F   UNL A   1      40.695  34.140  35.602  1.00  0.00    -0.206 F 
ATOM     77  C   UNL A   1      39.081  34.326  37.294  1.00  0.00     0.040 A 
ATOM     78  C   UNL A   1      37.677  32.446  37.835  1.00  0.00     0.040 A 
ATOM     79  F   UNL A   1      37.948  30.413  36.698  1.00  0.00    -0.206 F 
ATOM     80  C   UNL A   1      38.051  33.771  38.051  1.00  0.00     0.006 A 
ENDBRANCH  59  73
BRANCH  60  81
ATOM     81  C   UNL A   1      43.951  27.124  28.805  1.00  0.00     0.057 A 
ATOM     82  C   UNL A   1      43.871  25.730  28.706  1.00  0.00     0.134 A 
ATOM     83  C   UNL A   1      44.743  27.794  27.866  1.00  0.00     0.134 A 
ATOM     84  F   UNL A   1      43.134  25.030  29.581  1.00  0.00    -0.206 F 
ATOM     85  C   UNL A   1      44.571  25.026  27.724  1.00  0.00     0.040 A 
ATOM     86  C   UNL A   1      45.434  27.104  26.867  1.00  0.00     0.040 A 
ATOM     87  F   UNL A   1      44.846  29.130  27.901  1.00  0.00    -0.206 F 
ATOM     88  C   UNL A   1      45.356  25.715  26.800  1.00  0.00     0.006 A 
ENDBRANCH  60  81
BRANCH  72  89
ATOM     89  C   UNL A   1      45.548  28.597  35.442  1.00  0.00     0.057 A 
ATOM     90  C   UNL A   1      45.552  27.444  36.237  1.00  0.00     0.134 A 
ATOM     91  C   UNL A   1      46.629  29.478  35.564  1.00  0.00     0.134 A 
ATOM     92  F   UNL A   1      44.537  26.569  36.172  1.00  0.00    -0.206 F 
ATOM     93  C   UNL A   1      46.584  27.188  37.140  1.00  0.00     0.040 A 
ATOM     94  C   UNL A   1      47.678  29.220  36.448  1.00  0.00     0.040 A 
ATOM     95  F   UNL A   1      46.685  30.594  34.823  1.00  0.00    -0.206 F 
ATOM     96  C   UNL A   1      47.650  28.078  37.248  1.00  0.00     0.006 A 
ENDBRANCH  72  89
ENDBRANCH  46  47
ENDBRANCH  38  41
ENDBRANCH  36  37
ENDBRANCH  35  36
ENDBRANCH  34  35
ENDBRANCH  33  34
ENDBRANCH   1  33
TORSDOF 18
ENDMDL
MODEL 3
REMARK VINA RESULT:     -11.7      3.724      6.811
REMARK SMILES O=C(CCC(=O)N1N=C(c2ccc(F)cc2)C[C@@H]1c1ccc2nccnc2c1)NCCCCCCNC(=O)c1ccc(-c2c3nc(c(-c4c(F)cccc4F)c4ccc([nH]4)c(-c4c(F)cccc4F)c4nc(c(-c5c(F)cccc5F)c5ccc2[nH]5)C=C4)C=C3)cc1
REMARK SMILES IDX 31 1 30 2 29 3 1 4 2 5 3 7 4 8 5 9 6 10 7 11 8 12 18 13 9 14
REMARK SMILES IDX 17 15 19 16 20 17 28 18 21 19 27 20 22 21 26 22 23 23 25 24
REMARK SMILES IDX 24 25 10 26 11 27 16 28 12 29 15 30 13 31 14 32 32 33 33 34
REMARK SMILES IDX 34 35 35 36 36 37 37 38 38 40 39 41 40 42 92 43 41 44 91 45
REMARK SMILES IDX 42 46 43 47 44 48 85 49 45 50 90 51 84 52 86 53 46 54 89 55
REMARK SMILES IDX 83 56 82 57 47 59 73 60 56 61 72 62 57 63 60 64 71 65 87 66
REMARK SMILES IDX 58 67 59 68 70 70 88 71 61 72 48 73 49 74 54 75 50 76 51 77
REMARK SMILES IDX 53 78 55 79 52 80 74 81 75 82 80 83 76 84 77 85 79 86 81 87
REMARK SMILES IDX 78 88 62 89 63 90 68 91 64 92 65 93 67 94 69 95 66 96
REMARK H PARENT 29 6 36 39 86 58 60 69
REMARK Flexibility Score: inf
ROOT
ATOM      1  C   UNL A   1      31.821  26.927  26.867  1.00  0.00     0.021 C 
ENDROOT
BRANCH   1   2
ATOM      2  C   UNL A   1      30.851  26.060  25.997  1.00  0.00     0.116 C 
BRANCH   2   3
ATOM      3  N   UNL A   1      30.574  24.648  26.302  1.00  0.00    -0.356 N 
ATOM      4  O   UNL A   1      30.566  23.961  24.107  1.00  0.00    -0.275 OA
ATOM      5  C   UNL A   1      30.582  23.667  25.299  1.00  0.00     0.220 C 
ATOM      6  H   UNL A   1      30.379  24.385  27.231  1.00  0.00     0.163 HD
BRANCH   5   7
ATOM      7  C   UNL A   1      30.793  22.199  25.774  1.00  0.00     0.110 C 
BRANCH   7   8
ATOM      8  C   UNL A   1      32.292  21.842  26.014  1.00  0.00     0.112 C 
BRANCH   8   9
ATOM      9  C   UNL A   1      33.420  21.656  24.934  1.00  0.00     0.243 C 
ATOM     10  O   UNL A   1      33.439  20.600  24.292  1.00  0.00    -0.273 OA
BRANCH   9  11
ATOM     11  N   UNL A   1      34.210  22.737  24.562  1.00  0.00    -0.225 N 
ATOM     12  N   UNL A   1      33.742  23.615  23.549  1.00  0.00    -0.174 NA
ATOM     13  C   UNL A   1      35.102  23.432  25.452  1.00  0.00     0.147 C 
ATOM     14  C   UNL A   1      34.005  24.813  23.991  1.00  0.00     0.071 C 
ATOM     15  C   UNL A   1      34.541  24.832  25.375  1.00  0.00     0.091 C 
BRANCH  13  16
ATOM     16  C   UNL A   1      36.540  22.925  25.512  1.00  0.00    -0.021 A 
ATOM     17  C   UNL A   1      37.489  23.746  26.137  1.00  0.00     0.008 A 
ATOM     18  C   UNL A   1      36.971  21.622  25.237  1.00  0.00     0.036 A 
ATOM     19  C   UNL A   1      38.777  23.346  26.466  1.00  0.00     0.031 A 
ATOM     20  C   UNL A   1      38.269  21.173  25.581  1.00  0.00     0.089 A 
ATOM     21  C   UNL A   1      39.179  22.067  26.205  1.00  0.00     0.089 A 
ATOM     22  N   UNL A   1      38.653  19.899  25.366  1.00  0.00    -0.253 NA
ATOM     23  N   UNL A   1      40.419  21.727  26.591  1.00  0.00    -0.253 NA
ATOM     24  C   UNL A   1      39.903  19.556  25.774  1.00  0.00     0.132 A 
ATOM     25  C   UNL A   1      40.769  20.450  26.370  1.00  0.00     0.132 A 
ENDBRANCH  13  16
BRANCH  14  26
ATOM     26  C   UNL A   1      33.639  26.119  23.421  1.00  0.00    -0.002 A 
ATOM     27  C   UNL A   1      34.012  27.293  24.085  1.00  0.00     0.013 A 
ATOM     28  C   UNL A   1      32.652  26.156  22.426  1.00  0.00     0.013 A 
ATOM     29  C   UNL A   1      33.413  28.510  23.732  1.00  0.00     0.040 A 
ATOM     30  C   UNL A   1      32.057  27.374  22.079  1.00  0.00     0.040 A 
ATOM     31  C   UNL A   1      32.442  28.537  22.735  1.00  0.00     0.123 A 
ATOM     32  F   UNL A   1      31.846  29.697  22.426  1.00  0.00    -0.207 F 
ENDBRANCH  14  26
ENDBRANCH   9  11
ENDBRANCH   8   9
ENDBRANCH   7   8
ENDBRANCH   5   7
ENDBRANCH   2   3
ENDBRANCH   1   2
BRANCH   1  33
ATOM     33  C   UNL A   1      31.660  28.334  27.522  1.00  0.00     0.002 C 
BRANCH  33  34
ATOM     34  C   UNL A   1      32.479  29.603  27.225  1.00  0.00     0.002 C 
BRANCH  34  35
ATOM     35  C   UNL A   1      33.995  29.462  27.341  1.00  0.00     0.021 C 
BRANCH  35  36
ATOM     36  C   UNL A   1      34.671  30.829  27.355  1.00  0.00     0.116 C 
BRANCH  36  37
ATOM     37  N   UNL A   1      34.354  31.615  28.543  1.00  0.00    -0.352 N 
ATOM     38  C   UNL A   1      35.115  31.725  29.700  1.00  0.00     0.251 C 
ATOM     39  H   UNL A   1      33.511  32.122  28.523  1.00  0.00     0.163 HD
ATOM     40  O   UNL A   1      34.714  32.323  30.680  1.00  0.00    -0.269 OA
BRANCH  38  41
ATOM     41  C   UNL A   1      36.422  31.042  29.707  1.00  0.00     0.039 A 
ATOM     42  C   UNL A   1      37.557  31.726  29.268  1.00  0.00     0.014 A 
ATOM     43  C   UNL A   1      36.526  29.783  30.301  1.00  0.00     0.014 A 
ATOM     44  C   UNL A   1      38.817  31.178  29.515  1.00  0.00     0.010 A 
ATOM     45  C   UNL A   1      37.778  29.294  30.639  1.00  0.00     0.010 A 
ATOM     46  C   UNL A   1      38.935  29.985  30.247  1.00  0.00    -0.014 A 
BRANCH  46  47
ATOM     47  C   UNL A   1      40.255  29.413  30.603  1.00  0.00     0.031 A 
ATOM     48  C   UNL A   1      40.936  29.871  31.861  1.00  0.00     0.074 A 
ATOM     49  C   UNL A   1      40.876  28.569  29.757  1.00  0.00     0.049 A 
ATOM     50  N   UNL A   1      42.139  29.600  32.295  1.00  0.00    -0.248 NA
ATOM     51  C   UNL A   1      40.182  30.798  32.722  1.00  0.00     0.031 C 
ATOM     52  C   UNL A   1      40.343  28.107  28.473  1.00  0.00     0.029 A 
ATOM     53  N   UNL A   1      42.100  27.956  29.847  1.00  0.00    -0.354 N 
ATOM     54  C   UNL A   1      42.295  30.349  33.455  1.00  0.00     0.074 A 
ATOM     55  C   UNL A   1      41.092  31.133  33.623  1.00  0.00     0.031 C 
ATOM     56  C   UNL A   1      41.219  27.256  27.915  1.00  0.00     0.029 A 
ATOM     57  C   UNL A   1      42.388  27.140  28.779  1.00  0.00     0.049 A 
ATOM     58  H   UNL A   1      42.714  28.088  30.605  1.00  0.00     0.167 HD
ATOM     59  C   UNL A   1      43.333  30.356  34.320  1.00  0.00     0.037 A 
ATOM     60  C   UNL A   1      43.474  26.382  28.531  1.00  0.00     0.037 A 
ATOM     61  C   UNL A   1      44.493  29.520  34.182  1.00  0.00     0.049 A 
ATOM     62  C   UNL A   1      44.596  26.366  29.530  1.00  0.00     0.074 A 
ATOM     63  C   UNL A   1      45.557  29.374  35.051  1.00  0.00     0.029 A 
ATOM     64  N   UNL A   1      44.730  28.677  33.106  1.00  0.00    -0.354 N 
ATOM     65  N   UNL A   1      44.704  27.030  30.656  1.00  0.00    -0.248 NA
ATOM     66  C   UNL A   1      45.744  25.499  29.230  1.00  0.00     0.031 C 
ATOM     67  C   UNL A   1      46.457  28.468  34.485  1.00  0.00     0.029 A 
ATOM     68  C   UNL A   1      45.934  28.020  33.281  1.00  0.00     0.049 A 
ATOM     69  H   UNL A   1      44.130  28.564  32.332  1.00  0.00     0.167 HD
ATOM     70  C   UNL A   1      45.921  26.652  31.207  1.00  0.00     0.074 A 
ATOM     71  C   UNL A   1      46.510  25.690  30.297  1.00  0.00     0.031 C 
ATOM     72  C   UNL A   1      46.498  27.066  32.360  1.00  0.00     0.037 A 
BRANCH  59  73
ATOM     73  C   UNL A   1      43.246  31.275  35.502  1.00  0.00     0.057 A 
ATOM     74  C   UNL A   1      43.801  32.560  35.450  1.00  0.00     0.134 A 
ATOM     75  C   UNL A   1      42.640  30.881  36.702  1.00  0.00     0.134 A 
ATOM     76  F   UNL A   1      44.398  33.000  34.332  1.00  0.00    -0.206 F 
ATOM     77  C   UNL A   1      43.756  33.418  36.550  1.00  0.00     0.040 A 
ATOM     78  C   UNL A   1      42.563  31.740  37.798  1.00  0.00     0.040 A 
ATOM     79  F   UNL A   1      42.074  29.669  36.812  1.00  0.00    -0.206 F 
ATOM     80  C   UNL A   1      43.131  33.011  37.726  1.00  0.00     0.006 A 
ENDBRANCH  59  73
BRANCH  60  81
ATOM     81  C   UNL A   1      43.516  25.542  27.308  1.00  0.00     0.057 A 
ATOM     82  C   UNL A   1      44.087  26.006  26.116  1.00  0.00     0.134 A 
ATOM     83  C   UNL A   1      42.934  24.270  27.293  1.00  0.00     0.134 A 
ATOM     84  F   UNL A   1      44.651  27.221  26.064  1.00  0.00    -0.206 F 
ATOM     85  C   UNL A   1      44.061  25.241  24.949  1.00  0.00     0.040 A 
ATOM     86  C   UNL A   1      42.919  23.487  26.137  1.00  0.00     0.040 A 
ATOM     87  F   UNL A   1      42.385  23.766  28.407  1.00  0.00    -0.206 F 
ATOM     88  C   UNL A   1      43.476  23.976  24.957  1.00  0.00     0.006 A 
ENDBRANCH  60  81
BRANCH  72  89
ATOM     89  C   UNL A   1      47.830  26.481  32.719  1.00  0.00     0.057 A 
ATOM     90  C   UNL A   1      49.013  27.034  32.214  1.00  0.00     0.134 A 
ATOM     91  C   UNL A   1      47.931  25.309  33.478  1.00  0.00     0.134 A 
ATOM     92  F   UNL A   1      48.978  28.149  31.469  1.00  0.00    -0.206 F 
ATOM     93  C   UNL A   1      50.250  26.430  32.434  1.00  0.00     0.040 A 
ATOM     94  C   UNL A   1      49.166  24.708  33.724  1.00  0.00     0.040 A 
ATOM     95  F   UNL A   1      46.833  24.737  33.996  1.00  0.00    -0.206 F 
ATOM     96  C   UNL A   1      50.328  25.264  33.191  1.00  0.00     0.006 A 
ENDBRANCH  72  89
ENDBRANCH  46  47
ENDBRANCH  38  41
ENDBRANCH  36  37
ENDBRANCH  35  36
ENDBRANCH  34  35
ENDBRANCH  33  34
ENDBRANCH   1  33
TORSDOF 18
ENDMDL
