MODEL 1
REMARK VINA RESULT:     -10.7      0.000      0.000
REMARK SMILES O=C(NCCCCCCNC(=O)c1ccc(-n2cc(CSc3nc4ccccc4c(=O)n3-c3ccc(Br)cc3)nn2)cc1)c1ccc(-c2c3nc(c(-c4c(F)cccc4F)c4ccc([nH]4)c(-c4c(F)cccc4F)c4nc(c(-c5c(F)cccc5F)c5ccc2[nH]5)C=C4)C=C3)cc1
REMARK SMILES IDX 8 1 7 2 6 3 5 4 4 5 3 6 1 7 2 8 44 10 45 11 97 12 46 13
REMARK SMILES IDX 96 14 47 15 48 16 49 17 90 18 50 19 95 20 89 21 91 22 51 23
REMARK SMILES IDX 94 24 88 25 87 26 52 28 78 29 61 30 77 31 62 32 65 33 76 34
REMARK SMILES IDX 92 35 63 36 64 37 75 39 93 40 66 41 53 42 54 43 59 44 55 45
REMARK SMILES IDX 56 46 58 47 60 48 57 49 79 50 80 51 85 52 81 53 82 54 84 55
REMARK SMILES IDX 86 56 83 57 67 58 68 59 73 60 69 61 70 62 72 63 74 64 71 65
REMARK SMILES IDX 9 66 10 67 11 68 12 70 13 71 14 72 43 73 15 74 42 75 16 76
REMARK SMILES IDX 17 77 18 78 41 79 19 80 40 81 20 82 21 83 22 84 23 85 32 86
REMARK SMILES IDX 24 87 30 88 25 89 29 90 31 91 26 92 28 93 27 94 33 95 34 96
REMARK SMILES IDX 39 97 35 98 38 99 36 100 37 101
REMARK H PARENT 3 9 91 27 65 38 10 69
REMARK Flexibility Score: inf
ROOT
ATOM      1  C   UNL A   1      32.171  26.828  25.123  1.00  0.00     0.021 C 
ENDROOT
BRANCH   1   2
ATOM      2  C   UNL A   1      33.425  27.424  25.769  1.00  0.00     0.002 C 
BRANCH   2   3
ATOM      3  C   UNL A   1      33.225  28.098  27.131  1.00  0.00     0.002 C 
BRANCH   3   4
ATOM      4  C   UNL A   1      32.928  29.605  27.113  1.00  0.00     0.021 C 
BRANCH   4   5
ATOM      5  C   UNL A   1      34.105  30.506  27.483  1.00  0.00     0.116 C 
BRANCH   5   6
ATOM      6  N   UNL A   1      33.741  31.628  28.322  1.00  0.00    -0.352 N 
ATOM      7  O   UNL A   1      33.724  33.399  29.629  1.00  0.00    -0.269 OA
ATOM      8  C   UNL A   1      34.386  32.444  29.207  1.00  0.00     0.251 C 
ATOM      9  H   UNL A   1      32.789  31.862  28.231  1.00  0.00     0.163 HD
BRANCH   8  10
ATOM     10  C   UNL A   1      35.769  32.258  29.733  1.00  0.00     0.039 A 
ATOM     11  C   UNL A   1      36.959  32.518  29.055  1.00  0.00     0.014 A 
ATOM     12  C   UNL A   1      35.850  31.745  31.045  1.00  0.00     0.014 A 
ATOM     13  C   UNL A   1      38.189  32.215  29.649  1.00  0.00     0.010 A 
ATOM     14  C   UNL A   1      37.071  31.444  31.641  1.00  0.00     0.010 A 
ATOM     15  C   UNL A   1      38.246  31.650  30.930  1.00  0.00    -0.014 A 
BRANCH  15  16
ATOM     16  C   UNL A   1      39.556  31.422  31.547  1.00  0.00     0.031 A 
ATOM     17  C   UNL A   1      40.286  32.666  31.941  1.00  0.00     0.074 A 
ATOM     18  C   UNL A   1      40.042  30.211  31.898  1.00  0.00     0.049 A 
ATOM     19  N   UNL A   1      41.429  33.093  31.513  1.00  0.00    -0.248 NA
ATOM     20  C   UNL A   1      39.613  33.591  32.866  1.00  0.00     0.031 C 
ATOM     21  C   UNL A   1      39.357  28.916  31.885  1.00  0.00     0.029 A 
ATOM     22  N   UNL A   1      41.263  29.901  32.430  1.00  0.00    -0.354 N 
ATOM     23  C   UNL A   1      41.705  34.259  32.231  1.00  0.00     0.074 A 
ATOM     24  C   UNL A   1      40.504  34.579  32.959  1.00  0.00     0.031 C 
ATOM     25  C   UNL A   1      40.091  28.011  32.576  1.00  0.00     0.029 A 
ATOM     26  C   UNL A   1      41.358  28.616  32.952  1.00  0.00     0.049 A 
ATOM     27  H   UNL A   1      42.014  30.537  32.441  1.00  0.00     0.167 HD
ATOM     28  C   UNL A   1      42.965  34.772  32.314  1.00  0.00     0.037 A 
ATOM     29  C   UNL A   1      42.387  28.100  33.673  1.00  0.00     0.037 A 
ATOM     30  C   UNL A   1      43.813  34.251  31.276  1.00  0.00     0.049 A 
ATOM     31  C   UNL A   1      43.581  28.939  33.418  1.00  0.00     0.074 A 
ATOM     32  C   UNL A   1      43.805  34.293  29.896  1.00  0.00     0.029 A 
ATOM     33  N   UNL A   1      44.704  33.263  31.612  1.00  0.00    -0.354 N 
ATOM     34  N   UNL A   1      44.210  28.990  32.278  1.00  0.00    -0.248 NA
ATOM     35  C   UNL A   1      43.825  30.051  34.322  1.00  0.00     0.031 C 
ATOM     36  C   UNL A   1      44.285  33.014  29.490  1.00  0.00     0.029 A 
ATOM     37  C   UNL A   1      44.609  32.299  30.644  1.00  0.00     0.049 A 
ATOM     38  H   UNL A   1      45.297  33.250  32.396  1.00  0.00     0.167 HD
ATOM     39  C   UNL A   1      44.571  30.320  32.140  1.00  0.00     0.074 A 
ATOM     40  C   UNL A   1      44.388  30.906  33.467  1.00  0.00     0.031 C 
ATOM     41  C   UNL A   1      44.720  30.885  30.908  1.00  0.00     0.037 A 
BRANCH  28  42
ATOM     42  C   UNL A   1      43.534  35.472  33.524  1.00  0.00     0.057 A 
ATOM     43  C   UNL A   1      43.515  34.818  34.773  1.00  0.00     0.134 A 
ATOM     44  C   UNL A   1      43.807  36.853  33.579  1.00  0.00     0.134 A 
ATOM     45  F   UNL A   1      43.262  33.503  34.860  1.00  0.00    -0.206 F 
ATOM     46  C   UNL A   1      43.662  35.506  35.985  1.00  0.00     0.040 A 
ATOM     47  C   UNL A   1      44.004  37.539  34.780  1.00  0.00     0.040 A 
ATOM     48  F   UNL A   1      43.794  37.627  32.487  1.00  0.00    -0.206 F 
ATOM     49  C   UNL A   1      43.896  36.874  35.991  1.00  0.00     0.006 A 
ENDBRANCH  28  42
BRANCH  29  50
ATOM     50  C   UNL A   1      42.358  27.129  34.792  1.00  0.00     0.057 A 
ATOM     51  C   UNL A   1      41.639  27.388  35.970  1.00  0.00     0.134 A 
ATOM     52  C   UNL A   1      42.779  25.801  34.610  1.00  0.00     0.134 A 
ATOM     53  F   UNL A   1      41.154  28.613  36.216  1.00  0.00    -0.206 F 
ATOM     54  C   UNL A   1      41.333  26.381  36.898  1.00  0.00     0.040 A 
ATOM     55  C   UNL A   1      42.484  24.787  35.529  1.00  0.00     0.040 A 
ATOM     56  F   UNL A   1      43.406  25.425  33.486  1.00  0.00    -0.206 F 
ATOM     57  C   UNL A   1      41.746  25.071  36.671  1.00  0.00     0.006 A 
ENDBRANCH  29  50
BRANCH  41  58
ATOM     58  C   UNL A   1      44.741  29.982  29.709  1.00  0.00     0.057 A 
ATOM     59  C   UNL A   1      43.597  29.593  28.996  1.00  0.00     0.134 A 
ATOM     60  C   UNL A   1      45.981  29.646  29.152  1.00  0.00     0.134 A 
ATOM     61  F   UNL A   1      42.371  29.947  29.403  1.00  0.00    -0.206 F 
ATOM     62  C   UNL A   1      43.686  28.881  27.796  1.00  0.00     0.040 A 
ATOM     63  C   UNL A   1      46.083  28.965  27.938  1.00  0.00     0.040 A 
ATOM     64  F   UNL A   1      47.118  30.032  29.753  1.00  0.00    -0.206 F 
ATOM     65  C   UNL A   1      44.933  28.575  27.257  1.00  0.00     0.006 A 
ENDBRANCH  41  58
ENDBRANCH  15  16
ENDBRANCH   8  10
ENDBRANCH   5   6
ENDBRANCH   4   5
ENDBRANCH   3   4
ENDBRANCH   2   3
ENDBRANCH   1   2
BRANCH   1  66
ATOM     66  C   UNL A   1      31.695  25.507  25.723  1.00  0.00     0.116 C 
BRANCH  66  67
ATOM     67  N   UNL A   1      31.053  24.644  24.743  1.00  0.00    -0.352 N 
ATOM     68  C   UNL A   1      31.570  23.573  24.062  1.00  0.00     0.251 C 
ATOM     69  H   UNL A   1      30.114  24.861  24.539  1.00  0.00     0.163 HD
ATOM     70  O   UNL A   1      30.915  23.017  23.176  1.00  0.00    -0.269 OA
BRANCH  68  71
ATOM     71  C   UNL A   1      32.931  23.097  24.367  1.00  0.00     0.039 A 
ATOM     72  C   UNL A   1      34.004  23.609  23.629  1.00  0.00     0.016 A 
ATOM     73  C   UNL A   1      33.145  22.150  25.374  1.00  0.00     0.016 A 
ATOM     74  C   UNL A   1      35.312  23.242  23.953  1.00  0.00     0.029 A 
ATOM     75  C   UNL A   1      34.446  21.753  25.676  1.00  0.00     0.029 A 
ATOM     76  C   UNL A   1      35.529  22.308  24.968  1.00  0.00     0.066 A 
BRANCH  76  77
ATOM     77  N   UNL A   1      36.839  21.854  25.225  1.00  0.00    -0.220 N 
ATOM     78  C   UNL A   1      37.863  22.607  25.728  1.00  0.00     0.141 A 
ATOM     79  N   UNL A   1      37.268  20.591  25.019  1.00  0.00    -0.062 NA
ATOM     80  C   UNL A   1      38.933  21.756  25.853  1.00  0.00     0.093 A 
ATOM     81  N   UNL A   1      38.560  20.536  25.344  1.00  0.00    -0.134 NA
BRANCH  80  82
ATOM     82  C   UNL A   1      40.336  22.079  26.197  1.00  0.00     0.138 C 
BRANCH  82  83
ATOM     83  S   UNL A   1      40.822  22.878  27.728  1.00  0.00    -0.081 SA
BRANCH  83  84
ATOM     84  C   UNL A   1      40.925  24.616  27.612  1.00  0.00     0.176 A 
ATOM     85  N   UNL A   1      39.895  25.196  28.159  1.00  0.00    -0.223 NA
ATOM     86  N   UNL A   1      41.953  25.352  27.040  1.00  0.00    -0.255 N 
ATOM     87  C   UNL A   1      39.763  26.583  28.042  1.00  0.00     0.079 A 
ATOM     88  C   UNL A   1      41.522  26.515  26.380  1.00  0.00     0.266 A 
ATOM     89  C   UNL A   1      38.873  27.293  28.847  1.00  0.00     0.029 A 
ATOM     90  C   UNL A   1      40.431  27.257  27.032  1.00  0.00     0.066 A 
ATOM     91  O   UNL A   1      41.959  26.947  25.316  1.00  0.00    -0.268 OA
ATOM     92  C   UNL A   1      38.604  28.642  28.582  1.00  0.00     0.002 A 
ATOM     93  C   UNL A   1      40.132  28.585  26.715  1.00  0.00     0.016 A 
ATOM     94  C   UNL A   1      39.202  29.275  27.491  1.00  0.00     0.001 A 
BRANCH  86  95
ATOM     95  C   UNL A   1      43.368  25.028  27.009  1.00  0.00     0.051 A 
ATOM     96  C   UNL A   1      44.147  25.145  28.182  1.00  0.00     0.028 A 
ATOM     97  C   UNL A   1      44.059  24.599  25.869  1.00  0.00     0.028 A 
ATOM     98  C   UNL A   1      45.546  25.113  28.157  1.00  0.00     0.018 A 
ATOM     99  C   UNL A   1      45.463  24.630  25.813  1.00  0.00     0.018 A 
ATOM    100  C   UNL A   1      46.199  24.936  26.950  1.00  0.00     0.018 A 
ATOM    101  Br  UNL A   1      48.069  25.151  26.847  1.00  0.00    -0.051 Br
ENDBRANCH  86  95
ENDBRANCH  83  84
ENDBRANCH  82  83
ENDBRANCH  80  82
ENDBRANCH  76  77
ENDBRANCH  68  71
ENDBRANCH  66  67
ENDBRANCH   1  66
TORSDOF 18
ENDMDL
MODEL 2
REMARK VINA RESULT:     -10.5      1.523      3.012
REMARK SMILES O=C(NCCCCCCNC(=O)c1ccc(-n2cc(CSc3nc4ccccc4c(=O)n3-c3ccc(Br)cc3)nn2)cc1)c1ccc(-c2c3nc(c(-c4c(F)cccc4F)c4ccc([nH]4)c(-c4c(F)cccc4F)c4nc(c(-c5c(F)cccc5F)c5ccc2[nH]5)C=C4)C=C3)cc1
REMARK SMILES IDX 8 1 7 2 6 3 5 4 4 5 3 6 1 7 2 8 44 10 45 11 97 12 46 13
REMARK SMILES IDX 96 14 47 15 48 16 49 17 90 18 50 19 95 20 89 21 91 22 51 23
REMARK SMILES IDX 94 24 88 25 87 26 52 28 78 29 61 30 77 31 62 32 65 33 76 34
REMARK SMILES IDX 92 35 63 36 64 37 75 39 93 40 66 41 53 42 54 43 59 44 55 45
REMARK SMILES IDX 56 46 58 47 60 48 57 49 79 50 80 51 85 52 81 53 82 54 84 55
REMARK SMILES IDX 86 56 83 57 67 58 68 59 73 60 69 61 70 62 72 63 74 64 71 65
REMARK SMILES IDX 9 66 10 67 11 68 12 70 13 71 14 72 43 73 15 74 42 75 16 76
REMARK SMILES IDX 17 77 18 78 41 79 19 80 40 81 20 82 21 83 22 84 23 85 32 86
REMARK SMILES IDX 24 87 30 88 25 89 29 90 31 91 26 92 28 93 27 94 33 95 34 96
REMARK SMILES IDX 39 97 35 98 38 99 36 100 37 101
REMARK H PARENT 3 9 91 27 65 38 10 69
REMARK Flexibility Score: inf
ROOT
ATOM      1  C   UNL A   1      32.042  25.814  25.419  1.00  0.00     0.021 C 
ENDROOT
BRANCH   1   2
ATOM      2  C   UNL A   1      32.855  26.764  26.304  1.00  0.00     0.002 C 
BRANCH   2   3
ATOM      3  C   UNL A   1      32.800  28.249  25.925  1.00  0.00     0.002 C 
BRANCH   3   4
ATOM      4  C   UNL A   1      34.066  29.073  26.202  1.00  0.00     0.021 C 
BRANCH   4   5
ATOM      5  C   UNL A   1      34.308  29.425  27.669  1.00  0.00     0.116 C 
BRANCH   5   6
ATOM      6  N   UNL A   1      33.981  30.796  28.002  1.00  0.00    -0.352 N 
ATOM      7  O   UNL A   1      34.022  32.925  28.556  1.00  0.00    -0.269 OA
ATOM      8  C   UNL A   1      34.635  31.852  28.568  1.00  0.00     0.251 C 
ATOM      9  H   UNL A   1      33.055  31.023  27.759  1.00  0.00     0.163 HD
BRANCH   8  10
ATOM     10  C   UNL A   1      35.971  31.812  29.230  1.00  0.00     0.039 A 
ATOM     11  C   UNL A   1      37.140  32.424  28.781  1.00  0.00     0.014 A 
ATOM     12  C   UNL A   1      36.033  31.051  30.417  1.00  0.00     0.014 A 
ATOM     13  C   UNL A   1      38.346  32.230  29.465  1.00  0.00     0.010 A 
ATOM     14  C   UNL A   1      37.229  30.856  31.102  1.00  0.00     0.010 A 
ATOM     15  C   UNL A   1      38.398  31.421  30.608  1.00  0.00    -0.014 A 
BRANCH  15  16
ATOM     16  C   UNL A   1      39.663  31.308  31.339  1.00  0.00     0.031 A 
ATOM     17  C   UNL A   1      40.228  32.608  31.816  1.00  0.00     0.074 A 
ATOM     18  C   UNL A   1      40.233  30.143  31.717  1.00  0.00     0.049 A 
ATOM     19  N   UNL A   1      41.357  33.154  31.501  1.00  0.00    -0.248 NA
ATOM     20  C   UNL A   1      39.386  33.442  32.688  1.00  0.00     0.031 C 
ATOM     21  C   UNL A   1      39.684  28.788  31.623  1.00  0.00     0.029 A 
ATOM     22  N   UNL A   1      41.425  29.941  32.354  1.00  0.00    -0.354 N 
ATOM     23  C   UNL A   1      41.449  34.325  32.257  1.00  0.00     0.074 A 
ATOM     24  C   UNL A   1      40.163  34.510  32.876  1.00  0.00     0.031 C 
ATOM     25  C   UNL A   1      40.439  27.943  32.365  1.00  0.00     0.029 A 
ATOM     26  C   UNL A   1      41.600  28.660  32.865  1.00  0.00     0.049 A 
ATOM     27  H   UNL A   1      42.106  30.647  32.443  1.00  0.00     0.167 HD
ATOM     28  C   UNL A   1      42.640  34.956  32.462  1.00  0.00     0.037 A 
ATOM     29  C   UNL A   1      42.606  28.231  33.670  1.00  0.00     0.037 A 
ATOM     30  C   UNL A   1      43.625  34.544  31.499  1.00  0.00     0.049 A 
ATOM     31  C   UNL A   1      43.729  29.188  33.538  1.00  0.00     0.074 A 
ATOM     32  C   UNL A   1      43.738  34.617  30.125  1.00  0.00     0.029 A 
ATOM     33  N   UNL A   1      44.576  33.641  31.902  1.00  0.00    -0.354 N 
ATOM     34  N   UNL A   1      44.450  29.326  32.461  1.00  0.00    -0.248 NA
ATOM     35  C   UNL A   1      43.780  30.297  34.476  1.00  0.00     0.031 C 
ATOM     36  C   UNL A   1      44.377  33.400  29.747  1.00  0.00     0.029 A 
ATOM     37  C   UNL A   1      44.665  32.694  30.916  1.00  0.00     0.049 A 
ATOM     38  H   UNL A   1      45.095  33.667  32.737  1.00  0.00     0.167 HD
ATOM     39  C   UNL A   1      44.689  30.688  32.375  1.00  0.00     0.074 A 
ATOM     40  C   UNL A   1      44.330  31.223  33.687  1.00  0.00     0.031 C 
ATOM     41  C   UNL A   1      44.891  31.293  31.170  1.00  0.00     0.037 A 
BRANCH  28  42
ATOM     42  C   UNL A   1      43.026  35.680  33.729  1.00  0.00     0.057 A 
ATOM     43  C   UNL A   1      42.907  35.018  34.967  1.00  0.00     0.134 A 
ATOM     44  C   UNL A   1      43.204  37.075  33.815  1.00  0.00     0.134 A 
ATOM     45  F   UNL A   1      42.729  33.689  35.024  1.00  0.00    -0.206 F 
ATOM     46  C   UNL A   1      42.875  35.703  36.189  1.00  0.00     0.040 A 
ATOM     47  C   UNL A   1      43.223  37.763  35.031  1.00  0.00     0.040 A 
ATOM     48  F   UNL A   1      43.266  37.856  32.730  1.00  0.00    -0.206 F 
ATOM     49  C   UNL A   1      43.022  37.083  36.222  1.00  0.00     0.006 A 
ENDBRANCH  28  42
BRANCH  29  50
ATOM     50  C   UNL A   1      42.573  27.236  34.768  1.00  0.00     0.057 A 
ATOM     51  C   UNL A   1      41.811  27.449  35.928  1.00  0.00     0.134 A 
ATOM     52  C   UNL A   1      43.040  25.925  34.573  1.00  0.00     0.134 A 
ATOM     53  F   UNL A   1      41.281  28.654  36.183  1.00  0.00    -0.206 F 
ATOM     54  C   UNL A   1      41.508  26.414  36.826  1.00  0.00     0.040 A 
ATOM     55  C   UNL A   1      42.749  24.884  35.462  1.00  0.00     0.040 A 
ATOM     56  F   UNL A   1      43.713  25.592  33.462  1.00  0.00    -0.206 F 
ATOM     57  C   UNL A   1      41.968  25.122  36.586  1.00  0.00     0.006 A 
ENDBRANCH  29  50
BRANCH  41  58
ATOM     58  C   UNL A   1      45.110  30.423  29.966  1.00  0.00     0.057 A 
ATOM     59  C   UNL A   1      46.355  29.901  29.586  1.00  0.00     0.134 A 
ATOM     60  C   UNL A   1      43.987  29.951  29.275  1.00  0.00     0.134 A 
ATOM     61  F   UNL A   1      47.475  30.224  30.248  1.00  0.00    -0.206 F 
ATOM     62  C   UNL A   1      46.477  28.970  28.550  1.00  0.00     0.040 A 
ATOM     63  C   UNL A   1      44.092  28.997  28.262  1.00  0.00     0.040 A 
ATOM     64  F   UNL A   1      42.758  30.367  29.620  1.00  0.00    -0.206 F 
ATOM     65  C   UNL A   1      45.341  28.506  27.892  1.00  0.00     0.006 A 
ENDBRANCH  41  58
ENDBRANCH  15  16
ENDBRANCH   8  10
ENDBRANCH   5   6
ENDBRANCH   4   5
ENDBRANCH   3   4
ENDBRANCH   2   3
ENDBRANCH   1   2
BRANCH   1  66
ATOM     66  C   UNL A   1      32.585  24.391  25.321  1.00  0.00     0.116 C 
BRANCH  66  67
ATOM     67  N   UNL A   1      32.328  23.779  24.026  1.00  0.00    -0.352 N 
ATOM     68  C   UNL A   1      33.139  22.969  23.275  1.00  0.00     0.251 C 
ATOM     69  H   UNL A   1      31.447  23.976  23.633  1.00  0.00     0.163 HD
ATOM     70  O   UNL A   1      32.804  22.626  22.138  1.00  0.00    -0.269 OA
BRANCH  68  71
ATOM     71  C   UNL A   1      34.436  22.525  23.816  1.00  0.00     0.039 A 
ATOM     72  C   UNL A   1      35.584  23.262  23.502  1.00  0.00     0.016 A 
ATOM     73  C   UNL A   1      34.518  21.388  24.626  1.00  0.00     0.016 A 
ATOM     74  C   UNL A   1      36.812  22.916  24.068  1.00  0.00     0.029 A 
ATOM     75  C   UNL A   1      35.749  21.018  25.163  1.00  0.00     0.029 A 
ATOM     76  C   UNL A   1      36.893  21.789  24.889  1.00  0.00     0.066 A 
BRANCH  76  77
ATOM     77  N   UNL A   1      38.150  21.376  25.376  1.00  0.00    -0.220 N 
ATOM     78  C   UNL A   1      39.113  22.190  25.903  1.00  0.00     0.141 A 
ATOM     79  N   UNL A   1      38.581  20.096  25.400  1.00  0.00    -0.062 NA
ATOM     80  C   UNL A   1      40.142  21.364  26.283  1.00  0.00     0.093 A 
ATOM     81  N   UNL A   1      39.818  20.087  25.898  1.00  0.00    -0.134 NA
BRANCH  80  82
ATOM     82  C   UNL A   1      41.494  21.731  26.762  1.00  0.00     0.138 C 
BRANCH  82  83
ATOM     83  S   UNL A   1      42.641  22.736  25.817  1.00  0.00    -0.081 SA
BRANCH  83  84
ATOM     84  C   UNL A   1      43.586  23.831  26.793  1.00  0.00     0.176 A 
ATOM     85  N   UNL A   1      44.862  23.694  26.571  1.00  0.00    -0.223 NA
ATOM     86  N   UNL A   1      43.104  24.768  27.696  1.00  0.00    -0.255 N 
ATOM     87  C   UNL A   1      45.764  24.411  27.362  1.00  0.00     0.079 A 
ATOM     88  C   UNL A   1      43.913  24.932  28.832  1.00  0.00     0.266 A 
ATOM     89  C   UNL A   1      47.100  24.549  26.987  1.00  0.00     0.029 A 
ATOM     90  C   UNL A   1      45.365  24.892  28.598  1.00  0.00     0.066 A 
ATOM     91  O   UNL A   1      43.518  25.086  29.985  1.00  0.00    -0.268 OA
ATOM     92  C   UNL A   1      48.031  25.092  27.882  1.00  0.00     0.002 A 
ATOM     93  C   UNL A   1      46.289  25.382  29.526  1.00  0.00     0.016 A 
ATOM     94  C   UNL A   1      47.633  25.469  29.166  1.00  0.00     0.001 A 
BRANCH  86  95
ATOM     95  C   UNL A   1      41.869  25.527  27.614  1.00  0.00     0.051 A 
ATOM     96  C   UNL A   1      41.805  26.692  26.817  1.00  0.00     0.028 A 
ATOM     97  C   UNL A   1      40.689  25.198  28.293  1.00  0.00     0.028 A 
ATOM     98  C   UNL A   1      40.749  27.605  26.911  1.00  0.00     0.018 A 
ATOM     99  C   UNL A   1      39.653  26.134  28.449  1.00  0.00     0.018 A 
ATOM    100  C   UNL A   1      39.712  27.356  27.793  1.00  0.00     0.018 A 
ATOM    101  Br  UNL A   1      38.420  28.685  28.131  1.00  0.00    -0.051 Br
ENDBRANCH  86  95
ENDBRANCH  83  84
ENDBRANCH  82  83
ENDBRANCH  80  82
ENDBRANCH  76  77
ENDBRANCH  68  71
ENDBRANCH  66  67
ENDBRANCH   1  66
TORSDOF 18
ENDMDL
MODEL 3
REMARK VINA RESULT:     -10.5      2.331      4.366
REMARK SMILES O=C(NCCCCCCNC(=O)c1ccc(-n2cc(CSc3nc4ccccc4c(=O)n3-c3ccc(Br)cc3)nn2)cc1)c1ccc(-c2c3nc(c(-c4c(F)cccc4F)c4ccc([nH]4)c(-c4c(F)cccc4F)c4nc(c(-c5c(F)cccc5F)c5ccc2[nH]5)C=C4)C=C3)cc1
REMARK SMILES IDX 8 1 7 2 6 3 5 4 4 5 3 6 1 7 2 8 44 10 45 11 97 12 46 13
REMARK SMILES IDX 96 14 47 15 48 16 49 17 90 18 50 19 95 20 89 21 91 22 51 23
REMARK SMILES IDX 94 24 88 25 87 26 52 28 78 29 61 30 77 31 62 32 65 33 76 34
REMARK SMILES IDX 92 35 63 36 64 37 75 39 93 40 66 41 53 42 54 43 59 44 55 45
REMARK SMILES IDX 56 46 58 47 60 48 57 49 79 50 80 51 85 52 81 53 82 54 84 55
REMARK SMILES IDX 86 56 83 57 67 58 68 59 73 60 69 61 70 62 72 63 74 64 71 65
REMARK SMILES IDX 9 66 10 67 11 68 12 70 13 71 14 72 43 73 15 74 42 75 16 76
REMARK SMILES IDX 17 77 18 78 41 79 19 80 40 81 20 82 21 83 22 84 23 85 32 86
REMARK SMILES IDX 24 87 30 88 25 89 29 90 31 91 26 92 28 93 27 94 33 95 34 96
REMARK SMILES IDX 39 97 35 98 38 99 36 100 37 101
REMARK H PARENT 3 9 91 27 65 38 10 69
REMARK Flexibility Score: inf
ROOT
ATOM      1  C   UNL A   1      33.158  27.386  23.864  1.00  0.00     0.021 C 
ENDROOT
BRANCH   1   2
ATOM      2  C   UNL A   1      33.959  27.169  25.151  1.00  0.00     0.002 C 
BRANCH   2   3
ATOM      3  C   UNL A   1      33.181  27.328  26.462  1.00  0.00     0.002 C 
BRANCH   3   4
ATOM      4  C   UNL A   1      32.619  28.726  26.761  1.00  0.00     0.021 C 
BRANCH   4   5
ATOM      5  C   UNL A   1      33.602  29.699  27.409  1.00  0.00     0.116 C 
BRANCH   5   6
ATOM      6  N   UNL A   1      33.138  31.070  27.431  1.00  0.00    -0.352 N 
ATOM      7  O   UNL A   1      32.958  33.261  27.537  1.00  0.00    -0.269 OA
ATOM      8  C   UNL A   1      33.654  32.277  27.810  1.00  0.00     0.251 C 
ATOM      9  H   UNL A   1      32.220  31.154  27.086  1.00  0.00     0.163 HD
BRANCH   8  10
ATOM     10  C   UNL A   1      34.928  32.498  28.552  1.00  0.00     0.039 A 
ATOM     11  C   UNL A   1      36.216  32.225  28.094  1.00  0.00     0.014 A 
ATOM     12  C   UNL A   1      34.783  33.018  29.856  1.00  0.00     0.014 A 
ATOM     13  C   UNL A   1      37.318  32.407  28.937  1.00  0.00     0.010 A 
ATOM     14  C   UNL A   1      35.876  33.203  30.698  1.00  0.00     0.010 A 
ATOM     15  C   UNL A   1      37.147  32.867  30.249  1.00  0.00    -0.014 A 
BRANCH  15  16
ATOM     16  C   UNL A   1      38.334  33.120  31.072  1.00  0.00     0.031 A 
ATOM     17  C   UNL A   1      39.488  33.721  30.336  1.00  0.00     0.074 A 
ATOM     18  C   UNL A   1      38.382  32.988  32.416  1.00  0.00     0.049 A 
ATOM     19  N   UNL A   1      40.671  33.229  30.163  1.00  0.00    -0.248 NA
ATOM     20  C   UNL A   1      39.264  34.995  29.634  1.00  0.00     0.031 C 
ATOM     21  C   UNL A   1      37.281  32.718  33.344  1.00  0.00     0.029 A 
ATOM     22  N   UNL A   1      39.449  33.154  33.254  1.00  0.00    -0.354 N 
ATOM     23  C   UNL A   1      41.400  34.197  29.469  1.00  0.00     0.074 A 
ATOM     24  C   UNL A   1      40.454  35.206  29.069  1.00  0.00     0.031 C 
ATOM     25  C   UNL A   1      37.695  32.947  34.613  1.00  0.00     0.029 A 
ATOM     26  C   UNL A   1      39.120  33.235  34.602  1.00  0.00     0.049 A 
ATOM     27  H   UNL A   1      40.376  33.210  32.928  1.00  0.00     0.167 HD
ATOM     28  C   UNL A   1      42.762  34.184  29.433  1.00  0.00     0.037 A 
ATOM     29  C   UNL A   1      39.950  33.553  35.629  1.00  0.00     0.037 A 
ATOM     30  C   UNL A   1      43.284  32.894  29.793  1.00  0.00     0.049 A 
ATOM     31  C   UNL A   1      41.341  33.336  35.168  1.00  0.00     0.074 A 
ATOM     32  C   UNL A   1      43.185  31.620  29.270  1.00  0.00     0.029 A 
ATOM     33  N   UNL A   1      43.788  32.736  31.059  1.00  0.00    -0.354 N 
ATOM     34  N   UNL A   1      41.855  32.165  34.918  1.00  0.00    -0.248 NA
ATOM     35  C   UNL A   1      42.036  34.468  34.577  1.00  0.00     0.031 C 
ATOM     36  C   UNL A   1      43.142  30.761  30.408  1.00  0.00     0.029 A 
ATOM     37  C   UNL A   1      43.280  31.561  31.544  1.00  0.00     0.049 A 
ATOM     38  H   UNL A   1      44.397  33.349  31.530  1.00  0.00     0.167 HD
ATOM     39  C   UNL A   1      42.656  32.367  33.805  1.00  0.00     0.074 A 
ATOM     40  C   UNL A   1      42.798  33.818  33.695  1.00  0.00     0.031 C 
ATOM     41  C   UNL A   1      42.900  31.359  32.921  1.00  0.00     0.037 A 
BRANCH  28  42
ATOM     42  C   UNL A   1      43.637  35.415  29.415  1.00  0.00     0.057 A 
ATOM     43  C   UNL A   1      43.582  36.318  30.495  1.00  0.00     0.134 A 
ATOM     44  C   UNL A   1      44.282  35.904  28.262  1.00  0.00     0.134 A 
ATOM     45  F   UNL A   1      42.990  35.977  31.650  1.00  0.00    -0.206 F 
ATOM     46  C   UNL A   1      44.050  37.635  30.401  1.00  0.00     0.040 A 
ATOM     47  C   UNL A   1      44.797  37.200  28.174  1.00  0.00     0.040 A 
ATOM     48  F   UNL A   1      44.358  35.194  27.130  1.00  0.00    -0.206 F 
ATOM     49  C   UNL A   1      44.650  38.084  29.232  1.00  0.00     0.006 A 
ENDBRANCH  28  42
BRANCH  29  50
ATOM     50  C   UNL A   1      39.664  34.310  36.871  1.00  0.00     0.057 A 
ATOM     51  C   UNL A   1      39.602  33.673  38.120  1.00  0.00     0.134 A 
ATOM     52  C   UNL A   1      39.748  35.712  36.900  1.00  0.00     0.134 A 
ATOM     53  F   UNL A   1      39.565  32.335  38.202  1.00  0.00    -0.206 F 
ATOM     54  C   UNL A   1      39.650  34.386  39.328  1.00  0.00     0.040 A 
ATOM     55  C   UNL A   1      39.792  36.436  38.097  1.00  0.00     0.040 A 
ATOM     56  F   UNL A   1      39.888  36.418  35.769  1.00  0.00    -0.206 F 
ATOM     57  C   UNL A   1      39.758  35.773  39.317  1.00  0.00     0.006 A 
ENDBRANCH  29  50
BRANCH  41  58
ATOM     58  C   UNL A   1      42.503  29.963  33.306  1.00  0.00     0.057 A 
ATOM     59  C   UNL A   1      43.304  29.098  34.065  1.00  0.00     0.134 A 
ATOM     60  C   UNL A   1      41.188  29.553  33.055  1.00  0.00     0.134 A 
ATOM     61  F   UNL A   1      44.545  29.443  34.433  1.00  0.00    -0.206 F 
ATOM     62  C   UNL A   1      42.824  27.870  34.530  1.00  0.00     0.040 A 
ATOM     63  C   UNL A   1      40.687  28.345  33.541  1.00  0.00     0.040 A 
ATOM     64  F   UNL A   1      40.348  30.355  32.379  1.00  0.00    -0.206 F 
ATOM     65  C   UNL A   1      41.507  27.495  34.278  1.00  0.00     0.006 A 
ENDBRANCH  41  58
ENDBRANCH  15  16
ENDBRANCH   8  10
ENDBRANCH   5   6
ENDBRANCH   4   5
ENDBRANCH   3   4
ENDBRANCH   2   3
ENDBRANCH   1   2
BRANCH   1  66
ATOM     66  C   UNL A   1      33.329  26.304  22.801  1.00  0.00     0.116 C 
BRANCH  66  67
ATOM     67  N   UNL A   1      32.400  25.197  22.971  1.00  0.00    -0.352 N 
ATOM     68  C   UNL A   1      32.633  23.941  23.466  1.00  0.00     0.251 C 
ATOM     69  H   UNL A   1      31.473  25.376  22.692  1.00  0.00     0.163 HD
ATOM     70  O   UNL A   1      31.747  23.081  23.436  1.00  0.00    -0.269 OA
BRANCH  68  71
ATOM     71  C   UNL A   1      33.959  23.600  24.012  1.00  0.00     0.039 A 
ATOM     72  C   UNL A   1      34.178  23.744  25.386  1.00  0.00     0.016 A 
ATOM     73  C   UNL A   1      34.979  23.143  23.171  1.00  0.00     0.016 A 
ATOM     74  C   UNL A   1      35.395  23.349  25.945  1.00  0.00     0.029 A 
ATOM     75  C   UNL A   1      36.208  22.782  23.719  1.00  0.00     0.029 A 
ATOM     76  C   UNL A   1      36.410  22.879  25.108  1.00  0.00     0.066 A 
BRANCH  76  77
ATOM     77  N   UNL A   1      37.675  22.580  25.654  1.00  0.00    -0.220 N 
ATOM     78  C   UNL A   1      38.410  23.398  26.466  1.00  0.00     0.141 A 
ATOM     79  N   UNL A   1      38.342  21.422  25.460  1.00  0.00    -0.062 NA
ATOM     80  C   UNL A   1      39.543  22.692  26.790  1.00  0.00     0.093 A 
ATOM     81  N   UNL A   1      39.508  21.505  26.102  1.00  0.00    -0.134 NA
BRANCH  80  82
ATOM     82  C   UNL A   1      40.749  23.159  27.510  1.00  0.00     0.138 C 
BRANCH  82  83
ATOM     83  S   UNL A   1      41.775  24.519  26.946  1.00  0.00    -0.081 SA
BRANCH  83  84
ATOM     84  C   UNL A   1      41.420  26.038  27.727  1.00  0.00     0.176 A 
ATOM     85  N   UNL A   1      40.372  25.950  28.495  1.00  0.00    -0.223 NA
ATOM     86  N   UNL A   1      42.133  27.222  27.605  1.00  0.00    -0.255 N 
ATOM     87  C   UNL A   1      39.880  27.112  29.097  1.00  0.00     0.079 A 
ATOM     88  C   UNL A   1      41.329  28.374  27.627  1.00  0.00     0.266 A 
ATOM     89  C   UNL A   1      38.971  27.047  30.154  1.00  0.00     0.029 A 
ATOM     90  C   UNL A   1      40.198  28.352  28.567  1.00  0.00     0.066 A 
ATOM     91  O   UNL A   1      41.480  29.374  26.928  1.00  0.00    -0.268 OA
ATOM     92  C   UNL A   1      38.336  28.209  30.610  1.00  0.00     0.002 A 
ATOM     93  C   UNL A   1      39.531  29.513  28.969  1.00  0.00     0.016 A 
ATOM     94  C   UNL A   1      38.586  29.434  29.990  1.00  0.00     0.001 A 
BRANCH  86  95
ATOM     95  C   UNL A   1      43.563  27.384  27.411  1.00  0.00     0.051 A 
ATOM     96  C   UNL A   1      44.406  27.615  28.520  1.00  0.00     0.028 A 
ATOM     97  C   UNL A   1      44.205  27.336  26.167  1.00  0.00     0.028 A 
ATOM     98  C   UNL A   1      45.730  28.045  28.376  1.00  0.00     0.018 A 
ATOM     99  C   UNL A   1      45.509  27.830  26.001  1.00  0.00     0.018 A 
ATOM    100  C   UNL A   1      46.249  28.229  27.106  1.00  0.00     0.018 A 
ATOM    101  Br  UNL A   1      47.930  29.053  26.883  1.00  0.00    -0.051 Br
ENDBRANCH  86  95
ENDBRANCH  83  84
ENDBRANCH  82  83
ENDBRANCH  80  82
ENDBRANCH  76  77
ENDBRANCH  68  71
ENDBRANCH  66  67
ENDBRANCH   1  66
TORSDOF 18
ENDMDL
