MODEL 1
REMARK VINA RESULT:     -11.3      0.000      0.000
REMARK SMILES Cc1cscc1C(=O)N[C@H](C(=O)NCCCCCCNC(=O)c1ccc(-c2c3nc(c(-c4c(F)cccc4F)c4ccc([nH]4)c(-c4c(F)cccc4F)c4nc(c(-c5c(F)cccc5F)c5ccc2[nH]5)C=C4)C=C3)cc1)c1ccccc1
REMARK SMILES IDX 16 1 15 2 14 3 13 4 11 5 12 6 10 8 9 9 7 10 8 11 6 13 1 14
REMARK SMILES IDX 2 15 3 16 4 17 5 18 77 19 78 20 82 21 79 22 81 23 80 24
REMARK SMILES IDX 17 25 18 26 19 27 20 28 21 29 22 31 23 32 24 33 76 34 25 35
REMARK SMILES IDX 75 36 26 37 27 38 28 39 69 40 29 41 74 42 68 43 70 44 30 45
REMARK SMILES IDX 73 46 67 47 66 48 31 50 57 51 40 52 56 53 41 54 44 55 55 56
REMARK SMILES IDX 71 57 42 58 43 59 54 61 72 62 45 63 32 64 33 65 38 66 34 67
REMARK SMILES IDX 35 68 37 69 39 70 36 71 58 72 59 73 64 74 60 75 61 76 63 77
REMARK SMILES IDX 65 78 62 79 46 80 47 81 52 82 48 83 49 84 51 85 53 86 50 87
REMARK H PARENT 13 7 9 12 20 30 70 49 44 60
REMARK Flexibility Score: inf
ROOT
ATOM      1  C   UNL A   1      37.470  22.260  25.200  1.00  0.00     0.002 C 
ENDROOT
BRANCH   1   2
ATOM      2  C   UNL A   1      36.416  23.377  25.079  1.00  0.00     0.021 C 
BRANCH   2   3
ATOM      3  C   UNL A   1      35.321  23.361  26.147  1.00  0.00     0.116 C 
BRANCH   3   4
ATOM      4  N   UNL A   1      34.033  23.508  25.524  1.00  0.00    -0.354 N 
ATOM      5  C   UNL A   1      33.193  24.579  25.666  1.00  0.00     0.247 C 
ATOM      6  O   UNL A   1      32.015  24.276  25.809  1.00  0.00    -0.272 OA
ATOM      7  H   UNL A   1      33.728  22.772  24.946  1.00  0.00     0.163 HD
BRANCH   5   8
ATOM      8  C   UNL A   1      33.738  25.976  25.349  1.00  0.00     0.202 C 
BRANCH   8   9
ATOM      9  N   UNL A   1      33.790  26.092  23.907  1.00  0.00    -0.336 N 
ATOM     10  C   UNL A   1      33.054  26.660  22.917  1.00  0.00     0.253 C 
ATOM     11  O   UNL A   1      33.628  26.531  21.824  1.00  0.00    -0.269 OA
ATOM     12  H   UNL A   1      34.579  25.631  23.543  1.00  0.00     0.165 HD
BRANCH  10  13
ATOM     13  C   UNL A   1      31.712  27.302  22.960  1.00  0.00     0.053 A 
ATOM     14  C   UNL A   1      29.672  25.894  24.160  1.00  0.00     0.046 C 
ATOM     15  C   UNL A   1      30.336  27.038  23.445  1.00  0.00    -0.028 A 
ATOM     16  C   UNL A   1      29.506  28.126  23.185  1.00  0.00     0.069 A 
ATOM     17  S   UNL A   1      30.271  29.445  22.463  1.00  0.00    -0.151 S 
ATOM     18  C   UNL A   1      31.733  28.599  22.433  1.00  0.00     0.079 A 
ENDBRANCH  10  13
ENDBRANCH   8   9
BRANCH   8  19
ATOM     19  C   UNL A   1      33.263  27.247  26.031  1.00  0.00    -0.016 A 
ATOM     20  C   UNL A   1      33.906  28.472  25.783  1.00  0.00     0.006 A 
ATOM     21  C   UNL A   1      32.064  27.298  26.768  1.00  0.00     0.006 A 
ATOM     22  C   UNL A   1      33.383  29.675  26.282  1.00  0.00     0.000 A 
ATOM     23  C   UNL A   1      31.579  28.483  27.322  1.00  0.00     0.000 A 
ATOM     24  C   UNL A   1      32.234  29.677  27.070  1.00  0.00     0.000 A 
ENDBRANCH   8  19
ENDBRANCH   5   8
ENDBRANCH   3   4
ENDBRANCH   2   3
ENDBRANCH   1   2
BRANCH   1  25
ATOM     25  C   UNL A   1      37.067  20.873  24.683  1.00  0.00     0.002 C 
BRANCH  25  26
ATOM     26  C   UNL A   1      38.070  19.757  24.951  1.00  0.00     0.021 C 
BRANCH  26  27
ATOM     27  C   UNL A   1      39.193  20.150  25.891  1.00  0.00     0.116 C 
BRANCH  27  28
ATOM     28  N   UNL A   1      40.303  19.219  25.824  1.00  0.00    -0.352 N 
ATOM     29  C   UNL A   1      41.634  19.490  26.010  1.00  0.00     0.251 C 
ATOM     30  H   UNL A   1      40.074  18.283  25.621  1.00  0.00     0.163 HD
ATOM     31  O   UNL A   1      42.495  18.666  25.710  1.00  0.00    -0.269 OA
BRANCH  29  32
ATOM     32  C   UNL A   1      42.020  20.807  26.555  1.00  0.00     0.039 A 
ATOM     33  C   UNL A   1      42.476  21.795  25.683  1.00  0.00     0.014 A 
ATOM     34  C   UNL A   1      41.875  21.076  27.921  1.00  0.00     0.014 A 
ATOM     35  C   UNL A   1      42.751  23.070  26.177  1.00  0.00     0.010 A 
ATOM     36  C   UNL A   1      42.057  22.370  28.392  1.00  0.00     0.010 A 
ATOM     37  C   UNL A   1      42.516  23.376  27.529  1.00  0.00    -0.014 A 
BRANCH  37  38
ATOM     38  C   UNL A   1      42.776  24.735  28.064  1.00  0.00     0.031 A 
ATOM     39  C   UNL A   1      44.172  25.123  28.472  1.00  0.00     0.074 A 
ATOM     40  C   UNL A   1      41.754  25.598  28.227  1.00  0.00     0.049 A 
ATOM     41  N   UNL A   1      44.598  26.243  28.999  1.00  0.00    -0.248 NA
ATOM     42  C   UNL A   1      45.223  24.109  28.293  1.00  0.00     0.031 C 
ATOM     43  C   UNL A   1      40.352  25.322  27.913  1.00  0.00     0.029 A 
ATOM     44  N   UNL A   1      41.740  26.885  28.702  1.00  0.00    -0.354 N 
ATOM     45  C   UNL A   1      45.956  26.061  29.225  1.00  0.00     0.074 A 
ATOM     46  C   UNL A   1      46.274  24.705  28.837  1.00  0.00     0.031 C 
ATOM     47  C   UNL A   1      39.619  26.416  28.172  1.00  0.00     0.029 A 
ATOM     48  C   UNL A   1      40.490  27.456  28.710  1.00  0.00     0.049 A 
ATOM     49  H   UNL A   1      42.549  27.356  29.008  1.00  0.00     0.167 HD
ATOM     50  C   UNL A   1      46.863  26.951  29.691  1.00  0.00     0.037 A 
ATOM     51  C   UNL A   1      40.093  28.678  29.112  1.00  0.00     0.037 A 
ATOM     52  C   UNL A   1      46.547  28.309  30.046  1.00  0.00     0.049 A 
ATOM     53  C   UNL A   1      41.120  29.644  29.637  1.00  0.00     0.074 A 
ATOM     54  C   UNL A   1      47.405  29.312  30.460  1.00  0.00     0.029 A 
ATOM     55  N   UNL A   1      45.271  28.851  30.035  1.00  0.00    -0.354 N 
ATOM     56  N   UNL A   1      42.415  29.485  29.770  1.00  0.00    -0.248 NA
ATOM     57  C   UNL A   1      40.631  30.962  30.064  1.00  0.00     0.031 C 
ATOM     58  C   UNL A   1      46.640  30.444  30.757  1.00  0.00     0.029 A 
ATOM     59  C   UNL A   1      45.314  30.166  30.466  1.00  0.00     0.049 A 
ATOM     60  H   UNL A   1      44.455  28.372  29.760  1.00  0.00     0.167 HD
ATOM     61  C   UNL A   1      42.898  30.691  30.261  1.00  0.00     0.074 A 
ATOM     62  C   UNL A   1      41.759  31.576  30.389  1.00  0.00     0.031 C 
ATOM     63  C   UNL A   1      44.171  31.037  30.577  1.00  0.00     0.037 A 
BRANCH  50  64
ATOM     64  C   UNL A   1      48.282  26.486  29.844  1.00  0.00     0.057 A 
ATOM     65  C   UNL A   1      48.740  25.865  31.014  1.00  0.00     0.134 A 
ATOM     66  C   UNL A   1      49.194  26.623  28.789  1.00  0.00     0.134 A 
ATOM     67  F   UNL A   1      47.924  25.713  32.068  1.00  0.00    -0.206 F 
ATOM     68  C   UNL A   1      50.058  25.422  31.138  1.00  0.00     0.040 A 
ATOM     69  C   UNL A   1      50.504  26.157  28.890  1.00  0.00     0.040 A 
ATOM     70  F   UNL A   1      48.821  27.204  27.638  1.00  0.00    -0.206 F 
ATOM     71  C   UNL A   1      50.942  25.560  30.070  1.00  0.00     0.006 A 
ENDBRANCH  50  64
BRANCH  51  72
ATOM     72  C   UNL A   1      38.662  29.070  29.021  1.00  0.00     0.057 A 
ATOM     73  C   UNL A   1      38.122  29.561  27.826  1.00  0.00     0.134 A 
ATOM     74  C   UNL A   1      37.808  28.990  30.127  1.00  0.00     0.134 A 
ATOM     75  F   UNL A   1      38.893  29.678  26.734  1.00  0.00    -0.206 F 
ATOM     76  C   UNL A   1      36.795  29.986  27.741  1.00  0.00     0.040 A 
ATOM     77  C   UNL A   1      36.470  29.383  30.048  1.00  0.00     0.040 A 
ATOM     78  F   UNL A   1      38.259  28.520  31.299  1.00  0.00    -0.206 F 
ATOM     79  C   UNL A   1      35.964  29.894  28.856  1.00  0.00     0.006 A 
ENDBRANCH  51  72
BRANCH  63  80
ATOM     80  C   UNL A   1      44.405  32.442  31.050  1.00  0.00     0.057 A 
ATOM     81  C   UNL A   1      44.629  33.498  30.158  1.00  0.00     0.134 A 
ATOM     82  C   UNL A   1      44.363  32.748  32.417  1.00  0.00     0.134 A 
ATOM     83  F   UNL A   1      44.692  33.272  28.837  1.00  0.00    -0.206 F 
ATOM     84  C   UNL A   1      44.832  34.804  30.611  1.00  0.00     0.040 A 
ATOM     85  C   UNL A   1      44.531  34.053  32.879  1.00  0.00     0.040 A 
ATOM     86  F   UNL A   1      44.141  31.785  33.324  1.00  0.00    -0.206 F 
ATOM     87  C   UNL A   1      44.775  35.085  31.975  1.00  0.00     0.006 A 
ENDBRANCH  63  80
ENDBRANCH  37  38
ENDBRANCH  29  32
ENDBRANCH  27  28
ENDBRANCH  26  27
ENDBRANCH  25  26
ENDBRANCH   1  25
TORSDOF 16
ENDMDL
MODEL 2
REMARK VINA RESULT:     -11.3      1.026      6.256
REMARK SMILES Cc1cscc1C(=O)N[C@H](C(=O)NCCCCCCNC(=O)c1ccc(-c2c3nc(c(-c4c(F)cccc4F)c4ccc([nH]4)c(-c4c(F)cccc4F)c4nc(c(-c5c(F)cccc5F)c5ccc2[nH]5)C=C4)C=C3)cc1)c1ccccc1
REMARK SMILES IDX 16 1 15 2 14 3 13 4 11 5 12 6 10 8 9 9 7 10 8 11 6 13 1 14
REMARK SMILES IDX 2 15 3 16 4 17 5 18 77 19 78 20 82 21 79 22 81 23 80 24
REMARK SMILES IDX 17 25 18 26 19 27 20 28 21 29 22 31 23 32 24 33 76 34 25 35
REMARK SMILES IDX 75 36 26 37 27 38 28 39 69 40 29 41 74 42 68 43 70 44 30 45
REMARK SMILES IDX 73 46 67 47 66 48 31 50 57 51 40 52 56 53 41 54 44 55 55 56
REMARK SMILES IDX 71 57 42 58 43 59 54 61 72 62 45 63 32 64 33 65 38 66 34 67
REMARK SMILES IDX 35 68 37 69 39 70 36 71 58 72 59 73 64 74 60 75 61 76 63 77
REMARK SMILES IDX 65 78 62 79 46 80 47 81 52 82 48 83 49 84 51 85 53 86 50 87
REMARK H PARENT 13 7 9 12 20 30 70 49 44 60
REMARK Flexibility Score: inf
ROOT
ATOM      1  C   UNL A   1      35.944  22.040  25.902  1.00  0.00     0.002 C 
ENDROOT
BRANCH   1   2
ATOM      2  C   UNL A   1      34.642  21.469  26.496  1.00  0.00     0.021 C 
BRANCH   2   3
ATOM      3  C   UNL A   1      33.876  22.416  27.422  1.00  0.00     0.116 C 
BRANCH   3   4
ATOM      4  N   UNL A   1      32.492  22.463  27.033  1.00  0.00    -0.354 N 
ATOM      5  C   UNL A   1      31.740  23.597  26.890  1.00  0.00     0.247 C 
ATOM      6  O   UNL A   1      30.608  23.508  27.349  1.00  0.00    -0.272 OA
ATOM      7  H   UNL A   1      32.047  21.603  26.856  1.00  0.00     0.163 HD
BRANCH   5   8
ATOM      8  C   UNL A   1      32.256  24.698  25.958  1.00  0.00     0.202 C 
BRANCH   8   9
ATOM      9  N   UNL A   1      31.496  24.603  24.729  1.00  0.00    -0.336 N 
ATOM     10  C   UNL A   1      31.359  25.305  23.575  1.00  0.00     0.253 C 
ATOM     11  O   UNL A   1      30.613  24.701  22.788  1.00  0.00    -0.269 OA
ATOM     12  H   UNL A   1      30.916  23.808  24.732  1.00  0.00     0.165 HD
BRANCH  10  13
ATOM     13  C   UNL A   1      31.888  26.642  23.191  1.00  0.00     0.053 A 
ATOM     14  C   UNL A   1      30.346  28.839  23.807  1.00  0.00     0.046 C 
ATOM     15  C   UNL A   1      31.523  28.077  23.263  1.00  0.00    -0.028 A 
ATOM     16  C   UNL A   1      32.532  28.868  22.717  1.00  0.00     0.069 A 
ATOM     17  S   UNL A   1      33.891  28.021  22.189  1.00  0.00    -0.151 S 
ATOM     18  C   UNL A   1      33.168  26.559  22.630  1.00  0.00     0.079 A 
ENDBRANCH  10  13
ENDBRANCH   8   9
BRANCH   8  19
ATOM     19  C   UNL A   1      32.505  26.132  26.394  1.00  0.00    -0.016 A 
ATOM     20  C   UNL A   1      33.733  26.757  26.120  1.00  0.00     0.006 A 
ATOM     21  C   UNL A   1      31.476  26.950  26.899  1.00  0.00     0.006 A 
ATOM     22  C   UNL A   1      33.920  28.124  26.376  1.00  0.00     0.000 A 
ATOM     23  C   UNL A   1      31.679  28.293  27.218  1.00  0.00     0.000 A 
ATOM     24  C   UNL A   1      32.901  28.885  26.946  1.00  0.00     0.000 A 
ENDBRANCH   8  19
ENDBRANCH   5   8
ENDBRANCH   3   4
ENDBRANCH   2   3
ENDBRANCH   1   2
BRANCH   1  25
ATOM     25  C   UNL A   1      36.507  21.328  24.666  1.00  0.00     0.002 C 
BRANCH  25  26
ATOM     26  C   UNL A   1      37.471  20.183  24.951  1.00  0.00     0.021 C 
BRANCH  26  27
ATOM     27  C   UNL A   1      38.752  20.612  25.639  1.00  0.00     0.116 C 
BRANCH  27  28
ATOM     28  N   UNL A   1      39.711  19.527  25.721  1.00  0.00    -0.352 N 
ATOM     29  C   UNL A   1      41.041  19.609  26.041  1.00  0.00     0.251 C 
ATOM     30  H   UNL A   1      39.366  18.626  25.523  1.00  0.00     0.163 HD
ATOM     31  O   UNL A   1      41.794  18.655  25.861  1.00  0.00    -0.269 OA
BRANCH  29  32
ATOM     32  C   UNL A   1      41.563  20.880  26.584  1.00  0.00     0.039 A 
ATOM     33  C   UNL A   1      42.076  21.833  25.706  1.00  0.00     0.014 A 
ATOM     34  C   UNL A   1      41.490  21.144  27.956  1.00  0.00     0.014 A 
ATOM     35  C   UNL A   1      42.482  23.072  26.201  1.00  0.00     0.010 A 
ATOM     36  C   UNL A   1      41.804  22.411  28.432  1.00  0.00     0.010 A 
ATOM     37  C   UNL A   1      42.322  23.382  27.563  1.00  0.00    -0.014 A 
BRANCH  37  38
ATOM     38  C   UNL A   1      42.722  24.705  28.101  1.00  0.00     0.031 A 
ATOM     39  C   UNL A   1      41.677  25.763  28.338  1.00  0.00     0.074 A 
ATOM     40  C   UNL A   1      44.023  24.969  28.330  1.00  0.00     0.049 A 
ATOM     41  N   UNL A   1      41.827  26.991  28.762  1.00  0.00    -0.248 NA
ATOM     42  C   UNL A   1      40.284  25.402  28.029  1.00  0.00     0.031 C 
ATOM     43  C   UNL A   1      45.131  24.043  28.095  1.00  0.00     0.029 A 
ATOM     44  N   UNL A   1      44.633  26.101  28.811  1.00  0.00    -0.354 N 
ATOM     45  C   UNL A   1      40.556  27.550  28.756  1.00  0.00     0.074 A 
ATOM     46  C   UNL A   1      39.654  26.550  28.229  1.00  0.00     0.031 C 
ATOM     47  C   UNL A   1      46.281  24.630  28.463  1.00  0.00     0.029 A 
ATOM     48  C   UNL A   1      45.998  25.987  28.918  1.00  0.00     0.049 A 
ATOM     49  H   UNL A   1      44.139  26.917  29.055  1.00  0.00     0.167 HD
ATOM     50  C   UNL A   1      40.169  28.778  29.174  1.00  0.00     0.037 A 
ATOM     51  C   UNL A   1      46.916  26.881  29.332  1.00  0.00     0.037 A 
ATOM     52  C   UNL A   1      41.066  29.758  29.727  1.00  0.00     0.049 A 
ATOM     53  C   UNL A   1      46.461  28.243  29.780  1.00  0.00     0.074 A 
ATOM     54  C   UNL A   1      40.765  31.004  30.247  1.00  0.00     0.029 A 
ATOM     55  N   UNL A   1      42.441  29.604  29.824  1.00  0.00    -0.354 N 
ATOM     56  N   UNL A   1      45.244  28.730  29.845  1.00  0.00    -0.248 NA
ATOM     57  C   UNL A   1      47.505  29.179  30.218  1.00  0.00     0.031 C 
ATOM     58  C   UNL A   1      41.963  31.628  30.604  1.00  0.00     0.029 A 
ATOM     59  C   UNL A   1      43.006  30.746  30.366  1.00  0.00     0.049 A 
ATOM     60  H   UNL A   1      42.941  28.801  29.550  1.00  0.00     0.167 HD
ATOM     61  C   UNL A   1      45.375  30.012  30.362  1.00  0.00     0.074 A 
ATOM     62  C   UNL A   1      46.786  30.221  30.607  1.00  0.00     0.031 C 
ATOM     63  C   UNL A   1      44.413  30.934  30.614  1.00  0.00     0.037 A 
BRANCH  50  64
ATOM     64  C   UNL A   1      38.715  29.131  29.051  1.00  0.00     0.057 A 
ATOM     65  C   UNL A   1      37.838  29.064  30.141  1.00  0.00     0.134 A 
ATOM     66  C   UNL A   1      38.194  29.587  27.833  1.00  0.00     0.134 A 
ATOM     67  F   UNL A   1      38.267  28.624  31.334  1.00  0.00    -0.206 F 
ATOM     68  C   UNL A   1      36.491  29.411  30.019  1.00  0.00     0.040 A 
ATOM     69  C   UNL A   1      36.858  29.966  27.705  1.00  0.00     0.040 A 
ATOM     70  F   UNL A   1      38.979  29.681  26.748  1.00  0.00    -0.206 F 
ATOM     71  C   UNL A   1      36.000  29.872  28.799  1.00  0.00     0.006 A 
ENDBRANCH  50  64
BRANCH  51  72
ATOM     72  C   UNL A   1      48.357  26.518  29.359  1.00  0.00     0.057 A 
ATOM     73  C   UNL A   1      49.186  26.765  28.258  1.00  0.00     0.134 A 
ATOM     74  C   UNL A   1      48.936  25.895  30.471  1.00  0.00     0.134 A 
ATOM     75  F   UNL A   1      48.688  27.344  27.155  1.00  0.00    -0.206 F 
ATOM     76  C   UNL A   1      50.528  26.379  28.248  1.00  0.00     0.040 A 
ATOM     77  C   UNL A   1      50.284  25.531  30.487  1.00  0.00     0.040 A 
ATOM     78  F   UNL A   1      48.201  25.639  31.563  1.00  0.00    -0.206 F 
ATOM     79  C   UNL A   1      51.080  25.762  29.369  1.00  0.00     0.006 A 
ENDBRANCH  51  72
BRANCH  63  80
ATOM     80  C   UNL A   1      44.848  32.235  31.223  1.00  0.00     0.057 A 
ATOM     81  C   UNL A   1      44.952  32.409  32.609  1.00  0.00     0.134 A 
ATOM     82  C   UNL A   1      45.210  33.315  30.407  1.00  0.00     0.134 A 
ATOM     83  F   UNL A   1      44.610  31.418  33.446  1.00  0.00    -0.206 F 
ATOM     84  C   UNL A   1      45.372  33.620  33.162  1.00  0.00     0.040 A 
ATOM     85  C   UNL A   1      45.662  34.519  30.947  1.00  0.00     0.040 A 
ATOM     86  F   UNL A   1      45.145  33.211  29.071  1.00  0.00    -0.206 F 
ATOM     87  C   UNL A   1      45.736  34.677  32.329  1.00  0.00     0.006 A 
ENDBRANCH  63  80
ENDBRANCH  37  38
ENDBRANCH  29  32
ENDBRANCH  27  28
ENDBRANCH  26  27
ENDBRANCH  25  26
ENDBRANCH   1  25
TORSDOF 16
ENDMDL
MODEL 3
REMARK VINA RESULT:     -11.2      4.075      8.970
REMARK SMILES Cc1cscc1C(=O)N[C@H](C(=O)NCCCCCCNC(=O)c1ccc(-c2c3nc(c(-c4c(F)cccc4F)c4ccc([nH]4)c(-c4c(F)cccc4F)c4nc(c(-c5c(F)cccc5F)c5ccc2[nH]5)C=C4)C=C3)cc1)c1ccccc1
REMARK SMILES IDX 16 1 15 2 14 3 13 4 11 5 12 6 10 8 9 9 7 10 8 11 6 13 1 14
REMARK SMILES IDX 2 15 3 16 4 17 5 18 77 19 78 20 82 21 79 22 81 23 80 24
REMARK SMILES IDX 17 25 18 26 19 27 20 28 21 29 22 31 23 32 24 33 76 34 25 35
REMARK SMILES IDX 75 36 26 37 27 38 28 39 69 40 29 41 74 42 68 43 70 44 30 45
REMARK SMILES IDX 73 46 67 47 66 48 31 50 57 51 40 52 56 53 41 54 44 55 55 56
REMARK SMILES IDX 71 57 42 58 43 59 54 61 72 62 45 63 32 64 33 65 38 66 34 67
REMARK SMILES IDX 35 68 37 69 39 70 36 71 58 72 59 73 64 74 60 75 61 76 63 77
REMARK SMILES IDX 65 78 62 79 46 80 47 81 52 82 48 83 49 84 51 85 53 86 50 87
REMARK H PARENT 13 7 9 12 20 30 70 49 44 60
REMARK Flexibility Score: inf
ROOT
ATOM      1  C   UNL A   1      30.172  30.099  23.963  1.00  0.00     0.002 C 
ENDROOT
BRANCH   1   2
ATOM      2  C   UNL A   1      30.616  29.448  22.640  1.00  0.00     0.021 C 
BRANCH   2   3
ATOM      3  C   UNL A   1      30.382  27.940  22.541  1.00  0.00     0.116 C 
BRANCH   3   4
ATOM      4  N   UNL A   1      31.487  27.318  21.862  1.00  0.00    -0.354 N 
ATOM      5  C   UNL A   1      32.723  27.080  22.399  1.00  0.00     0.247 C 
ATOM      6  O   UNL A   1      33.654  27.333  21.644  1.00  0.00    -0.272 OA
ATOM      7  H   UNL A   1      31.342  27.042  20.930  1.00  0.00     0.163 HD
BRANCH   5   8
ATOM      8  C   UNL A   1      32.807  26.283  23.706  1.00  0.00     0.202 C 
BRANCH   8   9
ATOM      9  N   UNL A   1      33.839  25.284  23.527  1.00  0.00    -0.336 N 
ATOM     10  C   UNL A   1      34.185  24.089  24.069  1.00  0.00     0.253 C 
ATOM     11  O   UNL A   1      35.142  23.594  23.451  1.00  0.00    -0.269 OA
ATOM     12  H   UNL A   1      34.464  25.545  22.813  1.00  0.00     0.165 HD
BRANCH  10  13
ATOM     13  C   UNL A   1      33.655  23.383  25.268  1.00  0.00     0.053 A 
ATOM     14  C   UNL A   1      30.920  23.285  25.574  1.00  0.00     0.046 C 
ATOM     15  C   UNL A   1      32.365  23.036  25.910  1.00  0.00    -0.028 A 
ATOM     16  C   UNL A   1      32.577  22.289  27.067  1.00  0.00     0.069 A 
ATOM     17  S   UNL A   1      34.192  21.934  27.396  1.00  0.00    -0.151 S 
ATOM     18  C   UNL A   1      34.676  22.797  26.027  1.00  0.00     0.079 A 
ENDBRANCH  10  13
ENDBRANCH   8   9
BRANCH   8  19
ATOM     19  C   UNL A   1      32.825  26.917  25.086  1.00  0.00    -0.016 A 
ATOM     20  C   UNL A   1      33.911  27.711  25.492  1.00  0.00     0.006 A 
ATOM     21  C   UNL A   1      31.697  26.908  25.929  1.00  0.00     0.006 A 
ATOM     22  C   UNL A   1      33.870  28.428  26.697  1.00  0.00     0.000 A 
ATOM     23  C   UNL A   1      31.679  27.565  27.160  1.00  0.00     0.000 A 
ATOM     24  C   UNL A   1      32.766  28.335  27.541  1.00  0.00     0.000 A 
ENDBRANCH   8  19
ENDBRANCH   5   8
ENDBRANCH   3   4
ENDBRANCH   2   3
ENDBRANCH   1   2
BRANCH   1  25
ATOM     25  C   UNL A   1      31.272  30.395  24.989  1.00  0.00     0.002 C 
BRANCH  25  26
ATOM     26  C   UNL A   1      30.968  31.522  25.968  1.00  0.00     0.021 C 
BRANCH  26  27
ATOM     27  C   UNL A   1      32.141  31.908  26.848  1.00  0.00     0.116 C 
BRANCH  27  28
ATOM     28  N   UNL A   1      32.154  33.328  27.140  1.00  0.00    -0.352 N 
ATOM     29  C   UNL A   1      33.011  34.005  27.969  1.00  0.00     0.251 C 
ATOM     30  H   UNL A   1      31.465  33.871  26.691  1.00  0.00     0.163 HD
ATOM     31  O   UNL A   1      32.783  35.165  28.304  1.00  0.00    -0.269 OA
BRANCH  29  32
ATOM     32  C   UNL A   1      34.208  33.303  28.476  1.00  0.00     0.039 A 
ATOM     33  C   UNL A   1      35.415  33.995  28.560  1.00  0.00     0.014 A 
ATOM     34  C   UNL A   1      34.115  31.978  28.917  1.00  0.00     0.014 A 
ATOM     35  C   UNL A   1      36.525  33.368  29.126  1.00  0.00     0.010 A 
ATOM     36  C   UNL A   1      35.194  31.392  29.567  1.00  0.00     0.010 A 
ATOM     37  C   UNL A   1      36.416  32.073  29.661  1.00  0.00    -0.014 A 
BRANCH  37  38
ATOM     38  C   UNL A   1      37.579  31.403  30.291  1.00  0.00     0.031 A 
ATOM     39  C   UNL A   1      37.930  31.705  31.723  1.00  0.00     0.074 A 
ATOM     40  C   UNL A   1      38.344  30.563  29.566  1.00  0.00     0.049 A 
ATOM     41  N   UNL A   1      38.928  31.257  32.442  1.00  0.00    -0.248 NA
ATOM     42  C   UNL A   1      37.063  32.658  32.434  1.00  0.00     0.031 C 
ATOM     43  C   UNL A   1      38.133  30.227  28.156  1.00  0.00     0.029 A 
ATOM     44  N   UNL A   1      39.456  29.841  29.916  1.00  0.00    -0.354 N 
ATOM     45  C   UNL A   1      38.816  31.884  33.676  1.00  0.00     0.074 A 
ATOM     46  C   UNL A   1      37.692  32.790  33.592  1.00  0.00     0.031 C 
ATOM     47  C   UNL A   1      39.064  29.340  27.771  1.00  0.00     0.029 A 
ATOM     48  C   UNL A   1      39.963  29.077  28.891  1.00  0.00     0.049 A 
ATOM     49  H   UNL A   1      39.855  29.867  30.815  1.00  0.00     0.167 HD
ATOM     50  C   UNL A   1      39.567  31.705  34.787  1.00  0.00     0.037 A 
ATOM     51  C   UNL A   1      41.034  28.263  28.859  1.00  0.00     0.037 A 
ATOM     52  C   UNL A   1      40.665  30.779  34.875  1.00  0.00     0.049 A 
ATOM     53  C   UNL A   1      41.859  28.091  30.105  1.00  0.00     0.074 A 
ATOM     54  C   UNL A   1      41.444  30.470  35.975  1.00  0.00     0.029 A 
ATOM     55  N   UNL A   1      41.143  30.020  33.817  1.00  0.00    -0.354 N 
ATOM     56  N   UNL A   1      41.692  28.629  31.290  1.00  0.00    -0.248 NA
ATOM     57  C   UNL A   1      43.018  27.193  30.013  1.00  0.00     0.031 C 
ATOM     58  C   UNL A   1      42.432  29.568  35.570  1.00  0.00     0.029 A 
ATOM     59  C   UNL A   1      42.229  29.266  34.232  1.00  0.00     0.049 A 
ATOM     60  H   UNL A   1      40.767  30.017  32.907  1.00  0.00     0.167 HD
ATOM     61  C   UNL A   1      42.702  28.110  32.089  1.00  0.00     0.074 A 
ATOM     62  C   UNL A   1      43.467  27.203  31.259  1.00  0.00     0.031 C 
ATOM     63  C   UNL A   1      42.972  28.359  33.395  1.00  0.00     0.037 A 
BRANCH  50  64
ATOM     64  C   UNL A   1      39.227  32.524  35.999  1.00  0.00     0.057 A 
ATOM     65  C   UNL A   1      38.346  32.064  36.986  1.00  0.00     0.134 A 
ATOM     66  C   UNL A   1      39.823  33.776  36.201  1.00  0.00     0.134 A 
ATOM     67  F   UNL A   1      37.730  30.880  36.849  1.00  0.00    -0.206 F 
ATOM     68  C   UNL A   1      38.050  32.828  38.116  1.00  0.00     0.040 A 
ATOM     69  C   UNL A   1      39.560  34.535  37.341  1.00  0.00     0.040 A 
ATOM     70  F   UNL A   1      40.681  34.277  35.298  1.00  0.00    -0.206 F 
ATOM     71  C   UNL A   1      38.665  34.064  38.300  1.00  0.00     0.006 A 
ENDBRANCH  50  64
BRANCH  51  72
ATOM     72  C   UNL A   1      41.385  27.533  27.613  1.00  0.00     0.057 A 
ATOM     73  C   UNL A   1      42.116  28.154  26.593  1.00  0.00     0.134 A 
ATOM     74  C   UNL A   1      40.979  26.211  27.398  1.00  0.00     0.134 A 
ATOM     75  F   UNL A   1      42.520  29.426  26.730  1.00  0.00    -0.206 F 
ATOM     76  C   UNL A   1      42.405  27.499  25.394  1.00  0.00     0.040 A 
ATOM     77  C   UNL A   1      41.286  25.533  26.216  1.00  0.00     0.040 A 
ATOM     78  F   UNL A   1      40.284  25.554  28.338  1.00  0.00    -0.206 F 
ATOM     79  C   UNL A   1      41.991  26.182  25.206  1.00  0.00     0.006 A 
ENDBRANCH  51  72
BRANCH  63  80
ATOM     80  C   UNL A   1      44.114  27.610  34.017  1.00  0.00     0.057 A 
ATOM     81  C   UNL A   1      45.410  28.138  34.067  1.00  0.00     0.134 A 
ATOM     82  C   UNL A   1      43.902  26.359  34.612  1.00  0.00     0.134 A 
ATOM     83  F   UNL A   1      45.683  29.326  33.507  1.00  0.00    -0.206 F 
ATOM     84  C   UNL A   1      46.461  27.436  34.662  1.00  0.00     0.040 A 
ATOM     85  C   UNL A   1      44.936  25.663  35.237  1.00  0.00     0.040 A 
ATOM     86  F   UNL A   1      42.682  25.801  34.609  1.00  0.00    -0.206 F 
ATOM     87  C   UNL A   1      46.223  26.197  35.256  1.00  0.00     0.006 A 
ENDBRANCH  63  80
ENDBRANCH  37  38
ENDBRANCH  29  32
ENDBRANCH  27  28
ENDBRANCH  26  27
ENDBRANCH  25  26
ENDBRANCH   1  25
TORSDOF 16
ENDMDL
