MODEL 1
REMARK VINA RESULT:     -10.6      0.000      0.000
REMARK SMILES C[C@@H]1c2ccccc2-c2ccc(C(=O)NCCCCCCNC(=O)c3ccc(-c4c5nc(c(-c6c(F)cccc6F)c6ccc([nH]6)c(-c6c(F)cccc6F)c6nc(c(-c7c(F)cccc7F)c7ccc4[nH]7)C=C6)C=C5)cc3)cc21
REMARK SMILES IDX 19 1 18 2 17 3 16 4 15 5 13 6 14 7 12 9 1 10 2 11 3 12 80 13
REMARK SMILES IDX 4 14 8 15 9 16 79 17 5 18 7 19 10 20 6 21 11 22 20 23 21 24
REMARK SMILES IDX 22 25 23 26 24 28 25 29 26 30 78 31 27 32 77 33 28 34 29 35
REMARK SMILES IDX 30 36 71 37 31 38 76 39 70 40 72 41 32 42 75 43 69 44 68 45
REMARK SMILES IDX 33 47 59 48 42 49 58 50 43 51 46 52 57 53 73 54 44 55 45 56
REMARK SMILES IDX 56 58 74 59 47 60 34 61 35 62 40 63 36 64 37 65 39 66 41 67
REMARK SMILES IDX 38 68 60 69 61 70 66 71 62 72 63 73 65 74 67 75 64 76 48 77
REMARK SMILES IDX 49 78 54 79 50 80 51 81 53 82 55 83 52 84
REMARK H PARENT 15 8 22 27 72 46 46 57
REMARK Flexibility Score: inf
ROOT
ATOM      1  C   UNL A   1      33.959  35.030  30.351  1.00  0.00     0.002 C 
ENDROOT
BRANCH   1   2
ATOM      2  C   UNL A   1      32.827  35.857  30.976  1.00  0.00     0.002 C 
BRANCH   2   3
ATOM      3  C   UNL A   1      32.921  36.026  32.499  1.00  0.00     0.021 C 
BRANCH   3   4
ATOM      4  C   UNL A   1      34.365  36.108  33.002  1.00  0.00     0.116 C 
BRANCH   4   5
ATOM      5  N   UNL A   1      34.605  35.080  33.993  1.00  0.00    -0.352 N 
ATOM      6  C   UNL A   1      35.664  34.247  34.249  1.00  0.00     0.251 C 
ATOM      7  O   UNL A   1      35.527  33.454  35.183  1.00  0.00    -0.269 OA
ATOM      8  H   UNL A   1      33.851  34.952  34.613  1.00  0.00     0.163 HD
BRANCH   6   9
ATOM      9  C   UNL A   1      36.963  34.280  33.513  1.00  0.00     0.040 A 
ATOM     10  C   UNL A   1      38.185  33.488  29.190  1.00  0.00     0.018 C 
ATOM     11  C   UNL A   1      38.742  34.572  30.100  1.00  0.00     0.047 C 
ATOM     12  C   UNL A   1      40.261  34.604  30.172  1.00  0.00    -0.033 A 
ATOM     13  C   UNL A   1      38.367  34.396  31.567  1.00  0.00    -0.032 A 
ATOM     14  C   UNL A   1      41.173  34.713  29.134  1.00  0.00     0.005 A 
ATOM     15  C   UNL A   1      40.685  34.546  31.518  1.00  0.00    -0.014 A 
ATOM     16  C   UNL A   1      39.522  34.450  32.372  1.00  0.00    -0.014 A 
ATOM     17  C   UNL A   1      37.100  34.254  32.122  1.00  0.00     0.018 A 
ATOM     18  C   UNL A   1      42.532  34.739  29.453  1.00  0.00     0.000 A 
ATOM     19  C   UNL A   1      42.034  34.570  31.833  1.00  0.00     0.009 A 
ATOM     20  C   UNL A   1      39.414  34.407  33.749  1.00  0.00     0.010 A 
ATOM     21  C   UNL A   1      42.959  34.664  30.789  1.00  0.00     0.001 A 
ATOM     22  C   UNL A   1      38.132  34.340  34.312  1.00  0.00     0.014 A 
ENDBRANCH   6   9
ENDBRANCH   4   5
ENDBRANCH   3   4
ENDBRANCH   2   3
ENDBRANCH   1   2
BRANCH   1  23
ATOM     23  C   UNL A   1      33.603  34.339  29.031  1.00  0.00     0.021 C 
BRANCH  23  24
ATOM     24  C   UNL A   1      34.571  33.234  28.623  1.00  0.00     0.116 C 
BRANCH  24  25
ATOM     25  N   UNL A   1      33.883  32.141  27.954  1.00  0.00    -0.352 N 
ATOM     26  C   UNL A   1      34.346  30.892  27.628  1.00  0.00     0.251 C 
ATOM     27  H   UNL A   1      32.949  32.324  27.699  1.00  0.00     0.163 HD
ATOM     28  O   UNL A   1      33.715  30.181  26.853  1.00  0.00    -0.269 OA
BRANCH  26  29
ATOM     29  C   UNL A   1      35.615  30.405  28.208  1.00  0.00     0.039 A 
ATOM     30  C   UNL A   1      35.597  29.816  29.475  1.00  0.00     0.014 A 
ATOM     31  C   UNL A   1      36.820  30.553  27.515  1.00  0.00     0.014 A 
ATOM     32  C   UNL A   1      36.784  29.329  30.026  1.00  0.00     0.010 A 
ATOM     33  C   UNL A   1      37.989  30.008  28.037  1.00  0.00     0.010 A 
ATOM     34  C   UNL A   1      37.983  29.398  29.299  1.00  0.00    -0.014 A 
BRANCH  34  35
ATOM     35  C   UNL A   1      39.246  28.843  29.846  1.00  0.00     0.031 A 
ATOM     36  C   UNL A   1      39.879  29.461  31.061  1.00  0.00     0.074 A 
ATOM     37  C   UNL A   1      39.854  27.823  29.210  1.00  0.00     0.049 A 
ATOM     38  N   UNL A   1      41.012  29.165  31.645  1.00  0.00    -0.248 NA
ATOM     39  C   UNL A   1      39.156  30.581  31.686  1.00  0.00     0.031 C 
ATOM     40  C   UNL A   1      39.363  27.169  27.997  1.00  0.00     0.029 A 
ATOM     41  N   UNL A   1      41.025  27.167  29.492  1.00  0.00    -0.354 N 
ATOM     42  C   UNL A   1      41.144  30.067  32.693  1.00  0.00     0.074 A 
ATOM     43  C   UNL A   1      40.003  30.955  32.633  1.00  0.00     0.031 C 
ATOM     44  C   UNL A   1      40.214  26.191  27.649  1.00  0.00     0.029 A 
ATOM     45  C   UNL A   1      41.328  26.173  28.592  1.00  0.00     0.049 A 
ATOM     46  H   UNL A   1      41.594  27.386  30.263  1.00  0.00     0.167 HD
ATOM     47  C   UNL A   1      42.117  30.135  33.633  1.00  0.00     0.037 A 
ATOM     48  C   UNL A   1      42.387  25.346  28.532  1.00  0.00     0.037 A 
ATOM     49  C   UNL A   1      43.238  29.235  33.703  1.00  0.00     0.049 A 
ATOM     50  C   UNL A   1      43.455  25.442  29.586  1.00  0.00     0.074 A 
ATOM     51  C   UNL A   1      44.244  29.182  34.651  1.00  0.00     0.029 A 
ATOM     52  N   UNL A   1      43.499  28.228  32.785  1.00  0.00    -0.354 N 
ATOM     53  N   UNL A   1      43.534  26.257  30.609  1.00  0.00    -0.248 NA
ATOM     54  C   UNL A   1      44.577  24.498  29.480  1.00  0.00     0.031 C 
ATOM     55  C   UNL A   1      45.138  28.170  34.284  1.00  0.00     0.029 A 
ATOM     56  C   UNL A   1      44.663  27.562  33.133  1.00  0.00     0.049 A 
ATOM     57  H   UNL A   1      42.941  28.019  32.002  1.00  0.00     0.167 HD
ATOM     58  C   UNL A   1      44.696  25.908  31.285  1.00  0.00     0.074 A 
ATOM     59  C   UNL A   1      45.283  24.800  30.561  1.00  0.00     0.031 C 
ATOM     60  C   UNL A   1      45.230  26.457  32.404  1.00  0.00     0.037 A 
BRANCH  47  61
ATOM     61  C   UNL A   1      42.008  31.223  34.663  1.00  0.00     0.057 A 
ATOM     62  C   UNL A   1      42.766  32.399  34.578  1.00  0.00     0.134 A 
ATOM     63  C   UNL A   1      41.115  31.107  35.735  1.00  0.00     0.134 A 
ATOM     64  F   UNL A   1      43.648  32.568  33.583  1.00  0.00    -0.206 F 
ATOM     65  C   UNL A   1      42.659  33.406  35.538  1.00  0.00     0.040 A 
ATOM     66  C   UNL A   1      40.979  32.119  36.686  1.00  0.00     0.040 A 
ATOM     67  F   UNL A   1      40.354  30.010  35.872  1.00  0.00    -0.206 F 
ATOM     68  C   UNL A   1      41.760  33.271  36.593  1.00  0.00     0.006 A 
ENDBRANCH  47  61
BRANCH  48  69
ATOM     69  C   UNL A   1      42.479  24.335  27.448  1.00  0.00     0.057 A 
ATOM     70  C   UNL A   1      43.046  24.656  26.210  1.00  0.00     0.134 A 
ATOM     71  C   UNL A   1      42.007  23.029  27.624  1.00  0.00     0.134 A 
ATOM     72  F   UNL A   1      43.501  25.896  25.977  1.00  0.00    -0.206 F 
ATOM     73  C   UNL A   1      43.124  23.721  25.177  1.00  0.00     0.040 A 
ATOM     74  C   UNL A   1      42.100  22.077  26.607  1.00  0.00     0.040 A 
ATOM     75  F   UNL A   1      41.460  22.657  28.790  1.00  0.00    -0.206 F 
ATOM     76  C   UNL A   1      42.653  22.425  25.377  1.00  0.00     0.006 A 
ENDBRANCH  48  69
BRANCH  60  77
ATOM     77  C   UNL A   1      46.494  25.844  32.931  1.00  0.00     0.057 A 
ATOM     78  C   UNL A   1      46.476  24.810  33.875  1.00  0.00     0.134 A 
ATOM     79  C   UNL A   1      47.742  26.270  32.459  1.00  0.00     0.134 A 
ATOM     80  F   UNL A   1      45.314  24.366  34.377  1.00  0.00    -0.206 F 
ATOM     81  C   UNL A   1      47.657  24.235  34.346  1.00  0.00     0.040 A 
ATOM     82  C   UNL A   1      48.928  25.685  32.904  1.00  0.00     0.040 A 
ATOM     83  F   UNL A   1      47.828  27.252  31.548  1.00  0.00    -0.206 F 
ATOM     84  C   UNL A   1      48.887  24.668  33.855  1.00  0.00     0.006 A 
ENDBRANCH  60  77
ENDBRANCH  34  35
ENDBRANCH  26  29
ENDBRANCH  24  25
ENDBRANCH  23  24
ENDBRANCH   1  23
TORSDOF 13
ENDMDL
MODEL 2
REMARK VINA RESULT:     -10.5      4.971     10.376
REMARK SMILES C[C@@H]1c2ccccc2-c2ccc(C(=O)NCCCCCCNC(=O)c3ccc(-c4c5nc(c(-c6c(F)cccc6F)c6ccc([nH]6)c(-c6c(F)cccc6F)c6nc(c(-c7c(F)cccc7F)c7ccc4[nH]7)C=C6)C=C5)cc3)cc21
REMARK SMILES IDX 19 1 18 2 17 3 16 4 15 5 13 6 14 7 12 9 1 10 2 11 3 12 80 13
REMARK SMILES IDX 4 14 8 15 9 16 79 17 5 18 7 19 10 20 6 21 11 22 20 23 21 24
REMARK SMILES IDX 22 25 23 26 24 28 25 29 26 30 78 31 27 32 77 33 28 34 29 35
REMARK SMILES IDX 30 36 71 37 31 38 76 39 70 40 72 41 32 42 75 43 69 44 68 45
REMARK SMILES IDX 33 47 59 48 42 49 58 50 43 51 46 52 57 53 73 54 44 55 45 56
REMARK SMILES IDX 56 58 74 59 47 60 34 61 35 62 40 63 36 64 37 65 39 66 41 67
REMARK SMILES IDX 38 68 60 69 61 70 66 71 62 72 63 73 65 74 67 75 64 76 48 77
REMARK SMILES IDX 49 78 54 79 50 80 51 81 53 82 55 83 52 84
REMARK H PARENT 15 8 22 27 72 46 46 57
REMARK Flexibility Score: inf
ROOT
ATOM      1  C   UNL A   1      36.213  20.959  24.722  1.00  0.00     0.002 C 
ENDROOT
BRANCH   1   2
ATOM      2  C   UNL A   1      34.896  20.694  25.464  1.00  0.00     0.002 C 
BRANCH   2   3
ATOM      3  C   UNL A   1      34.116  19.466  24.971  1.00  0.00     0.021 C 
BRANCH   3   4
ATOM      4  C   UNL A   1      32.618  19.738  24.808  1.00  0.00     0.116 C 
BRANCH   4   5
ATOM      5  N   UNL A   1      32.330  20.133  23.444  1.00  0.00    -0.352 N 
ATOM      6  C   UNL A   1      32.182  21.347  22.827  1.00  0.00     0.251 C 
ATOM      7  O   UNL A   1      31.912  21.325  21.624  1.00  0.00    -0.269 OA
ATOM      8  H   UNL A   1      32.218  19.369  22.833  1.00  0.00     0.163 HD
BRANCH   6   9
ATOM      9  C   UNL A   1      32.375  22.667  23.500  1.00  0.00     0.040 A 
ATOM     10  C   UNL A   1      29.593  25.567  25.659  1.00  0.00     0.018 C 
ATOM     11  C   UNL A   1      31.022  25.225  26.054  1.00  0.00     0.047 C 
ATOM     12  C   UNL A   1      31.912  26.437  26.278  1.00  0.00    -0.033 A 
ATOM     13  C   UNL A   1      31.792  24.469  24.979  1.00  0.00    -0.032 A 
ATOM     14  C   UNL A   1      31.712  27.513  27.129  1.00  0.00     0.005 A 
ATOM     15  C   UNL A   1      33.083  26.331  25.494  1.00  0.00    -0.014 A 
ATOM     16  C   UNL A   1      33.021  25.110  24.722  1.00  0.00    -0.014 A 
ATOM     17  C   UNL A   1      31.440  23.289  24.334  1.00  0.00     0.018 A 
ATOM     18  C   UNL A   1      32.691  28.507  27.175  1.00  0.00     0.000 A 
ATOM     19  C   UNL A   1      34.052  27.320  25.538  1.00  0.00     0.009 A 
ATOM     20  C   UNL A   1      33.930  24.547  23.847  1.00  0.00     0.010 A 
ATOM     21  C   UNL A   1      33.848  28.415  26.384  1.00  0.00     0.001 A 
ATOM     22  C   UNL A   1      33.608  23.319  23.254  1.00  0.00     0.014 A 
ENDBRANCH   6   9
ENDBRANCH   4   5
ENDBRANCH   3   4
ENDBRANCH   2   3
ENDBRANCH   1   2
BRANCH   1  23
ATOM     23  C   UNL A   1      37.314  19.924  24.969  1.00  0.00     0.021 C 
BRANCH  23  24
ATOM     24  C   UNL A   1      38.632  20.517  25.457  1.00  0.00     0.116 C 
BRANCH  24  25
ATOM     25  N   UNL A   1      39.639  19.487  25.661  1.00  0.00    -0.352 N 
ATOM     26  C   UNL A   1      40.947  19.616  26.051  1.00  0.00     0.251 C 
ATOM     27  H   UNL A   1      39.337  18.565  25.495  1.00  0.00     0.163 HD
ATOM     28  O   UNL A   1      41.721  18.672  25.941  1.00  0.00    -0.269 OA
BRANCH  26  29
ATOM     29  C   UNL A   1      41.426  20.901  26.603  1.00  0.00     0.039 A 
ATOM     30  C   UNL A   1      41.966  21.852  25.733  1.00  0.00     0.014 A 
ATOM     31  C   UNL A   1      41.365  21.155  27.976  1.00  0.00     0.014 A 
ATOM     32  C   UNL A   1      42.399  23.079  26.235  1.00  0.00     0.010 A 
ATOM     33  C   UNL A   1      41.735  22.403  28.465  1.00  0.00     0.010 A 
ATOM     34  C   UNL A   1      42.263  23.374  27.601  1.00  0.00    -0.014 A 
BRANCH  34  35
ATOM     35  C   UNL A   1      42.672  24.691  28.148  1.00  0.00     0.031 A 
ATOM     36  C   UNL A   1      41.646  25.764  28.382  1.00  0.00     0.074 A 
ATOM     37  C   UNL A   1      43.976  24.940  28.374  1.00  0.00     0.049 A 
ATOM     38  N   UNL A   1      41.815  26.997  28.786  1.00  0.00    -0.248 NA
ATOM     39  C   UNL A   1      40.245  25.413  28.095  1.00  0.00     0.031 C 
ATOM     40  C   UNL A   1      45.071  23.997  28.144  1.00  0.00     0.029 A 
ATOM     41  N   UNL A   1      44.602  26.070  28.838  1.00  0.00    -0.354 N 
ATOM     42  C   UNL A   1      40.550  27.571  28.788  1.00  0.00     0.074 A 
ATOM     43  C   UNL A   1      39.630  26.569  28.295  1.00  0.00     0.031 C 
ATOM     44  C   UNL A   1      46.231  24.578  28.485  1.00  0.00     0.029 A 
ATOM     45  C   UNL A   1      45.968  25.945  28.924  1.00  0.00     0.049 A 
ATOM     46  H   UNL A   1      44.120  26.891  29.084  1.00  0.00     0.167 HD
ATOM     47  C   UNL A   1      40.186  28.813  29.186  1.00  0.00     0.037 A 
ATOM     48  C   UNL A   1      46.901  26.834  29.308  1.00  0.00     0.037 A 
ATOM     49  C   UNL A   1      41.100  29.799  29.698  1.00  0.00     0.049 A 
ATOM     50  C   UNL A   1      46.471  28.207  29.744  1.00  0.00     0.074 A 
ATOM     51  C   UNL A   1      40.822  31.064  30.185  1.00  0.00     0.029 A 
ATOM     52  N   UNL A   1      42.474  29.627  29.790  1.00  0.00    -0.354 N 
ATOM     53  N   UNL A   1      45.264  28.715  29.803  1.00  0.00    -0.248 NA
ATOM     54  C   UNL A   1      47.534  29.129  30.173  1.00  0.00     0.031 C 
ATOM     55  C   UNL A   1      42.033  31.675  30.532  1.00  0.00     0.029 A 
ATOM     56  C   UNL A   1      43.060  30.772  30.306  1.00  0.00     0.049 A 
ATOM     57  H   UNL A   1      42.960  28.813  29.527  1.00  0.00     0.167 HD
ATOM     58  C   UNL A   1      45.417  30.003  30.301  1.00  0.00     0.074 A 
ATOM     59  C   UNL A   1      46.833  30.194  30.539  1.00  0.00     0.031 C 
ATOM     60  C   UNL A   1      44.470  30.943  30.540  1.00  0.00     0.037 A 
BRANCH  47  61
ATOM     61  C   UNL A   1      38.731  29.173  29.082  1.00  0.00     0.057 A 
ATOM     62  C   UNL A   1      37.872  29.102  30.188  1.00  0.00     0.134 A 
ATOM     63  C   UNL A   1      38.189  29.624  27.872  1.00  0.00     0.134 A 
ATOM     64  F   UNL A   1      38.325  28.668  31.373  1.00  0.00    -0.206 F 
ATOM     65  C   UNL A   1      36.522  29.439  30.085  1.00  0.00     0.040 A 
ATOM     66  C   UNL A   1      36.847  29.989  27.764  1.00  0.00     0.040 A 
ATOM     67  F   UNL A   1      38.957  29.722  26.776  1.00  0.00    -0.206 F 
ATOM     68  C   UNL A   1      36.006  29.889  28.872  1.00  0.00     0.006 A 
ENDBRANCH  47  61
BRANCH  48  69
ATOM     69  C   UNL A   1      48.334  26.447  29.323  1.00  0.00     0.057 A 
ATOM     70  C   UNL A   1      49.161  26.702  28.224  1.00  0.00     0.134 A 
ATOM     71  C   UNL A   1      48.910  25.816  30.432  1.00  0.00     0.134 A 
ATOM     72  F   UNL A   1      48.662  27.289  27.127  1.00  0.00    -0.206 F 
ATOM     73  C   UNL A   1      50.506  26.328  28.218  1.00  0.00     0.040 A 
ATOM     74  C   UNL A   1      50.259  25.458  30.449  1.00  0.00     0.040 A 
ATOM     75  F   UNL A   1      48.172  25.551  31.520  1.00  0.00    -0.206 F 
ATOM     76  C   UNL A   1      51.059  25.708  29.336  1.00  0.00     0.006 A 
ENDBRANCH  48  69
BRANCH  60  77
ATOM     77  C   UNL A   1      44.932  32.249  31.117  1.00  0.00     0.057 A 
ATOM     78  C   UNL A   1      45.275  33.336  30.305  1.00  0.00     0.134 A 
ATOM     79  C   UNL A   1      44.996  32.430  32.505  1.00  0.00     0.134 A 
ATOM     80  F   UNL A   1      45.248  33.222  28.969  1.00  0.00    -0.206 F 
ATOM     81  C   UNL A   1      45.686  34.552  30.852  1.00  0.00     0.040 A 
ATOM     82  C   UNL A   1      45.381  33.649  33.064  1.00  0.00     0.040 A 
ATOM     83  F   UNL A   1      44.673  31.430  33.340  1.00  0.00    -0.206 F 
ATOM     84  C   UNL A   1      45.733  34.713  32.235  1.00  0.00     0.006 A 
ENDBRANCH  60  77
ENDBRANCH  34  35
ENDBRANCH  26  29
ENDBRANCH  24  25
ENDBRANCH  23  24
ENDBRANCH   1  23
TORSDOF 13
ENDMDL
MODEL 3
REMARK VINA RESULT:     -10.5      3.816      7.569
REMARK SMILES C[C@@H]1c2ccccc2-c2ccc(C(=O)NCCCCCCNC(=O)c3ccc(-c4c5nc(c(-c6c(F)cccc6F)c6ccc([nH]6)c(-c6c(F)cccc6F)c6nc(c(-c7c(F)cccc7F)c7ccc4[nH]7)C=C6)C=C5)cc3)cc21
REMARK SMILES IDX 19 1 18 2 17 3 16 4 15 5 13 6 14 7 12 9 1 10 2 11 3 12 80 13
REMARK SMILES IDX 4 14 8 15 9 16 79 17 5 18 7 19 10 20 6 21 11 22 20 23 21 24
REMARK SMILES IDX 22 25 23 26 24 28 25 29 26 30 78 31 27 32 77 33 28 34 29 35
REMARK SMILES IDX 30 36 71 37 31 38 76 39 70 40 72 41 32 42 75 43 69 44 68 45
REMARK SMILES IDX 33 47 59 48 42 49 58 50 43 51 46 52 57 53 73 54 44 55 45 56
REMARK SMILES IDX 56 58 74 59 47 60 34 61 35 62 40 63 36 64 37 65 39 66 41 67
REMARK SMILES IDX 38 68 60 69 61 70 66 71 62 72 63 73 65 74 67 75 64 76 48 77
REMARK SMILES IDX 49 78 54 79 50 80 51 81 53 82 55 83 52 84
REMARK H PARENT 15 8 22 27 72 46 46 57
REMARK Flexibility Score: inf
ROOT
ATOM      1  C   UNL A   1      31.763  28.124  26.733  1.00  0.00     0.002 C 
ENDROOT
BRANCH   1   2
ATOM      2  C   UNL A   1      31.213  27.784  25.342  1.00  0.00     0.002 C 
BRANCH   2   3
ATOM      3  C   UNL A   1      31.039  28.990  24.407  1.00  0.00     0.021 C 
BRANCH   3   4
ATOM      4  C   UNL A   1      31.030  28.600  22.926  1.00  0.00     0.116 C 
BRANCH   4   5
ATOM      5  N   UNL A   1      32.364  28.717  22.374  1.00  0.00    -0.352 N 
ATOM      6  C   UNL A   1      33.420  27.850  22.270  1.00  0.00     0.251 C 
ATOM      7  O   UNL A   1      34.446  28.291  21.748  1.00  0.00    -0.269 OA
ATOM      8  H   UNL A   1      32.551  29.606  21.993  1.00  0.00     0.163 HD
BRANCH   6   9
ATOM      9  C   UNL A   1      33.383  26.418  22.696  1.00  0.00     0.040 A 
ATOM     10  C   UNL A   1      35.653  23.973  25.807  1.00  0.00     0.018 C 
ATOM     11  C   UNL A   1      34.177  23.844  25.460  1.00  0.00     0.047 C 
ATOM     12  C   UNL A   1      33.731  22.422  25.157  1.00  0.00    -0.033 A 
ATOM     13  C   UNL A   1      33.780  24.573  24.182  1.00  0.00    -0.032 A 
ATOM     14  C   UNL A   1      33.860  21.288  25.944  1.00  0.00     0.005 A 
ATOM     15  C   UNL A   1      33.082  22.374  23.902  1.00  0.00    -0.014 A 
ATOM     16  C   UNL A   1      33.086  23.698  23.322  1.00  0.00    -0.014 A 
ATOM     17  C   UNL A   1      33.982  25.908  23.852  1.00  0.00     0.018 A 
ATOM     18  C   UNL A   1      33.351  20.085  25.453  1.00  0.00     0.000 A 
ATOM     19  C   UNL A   1      32.580  21.179  23.416  1.00  0.00     0.009 A 
ATOM     20  C   UNL A   1      32.546  24.168  22.140  1.00  0.00     0.010 A 
ATOM     21  C   UNL A   1      32.721  20.029  24.199  1.00  0.00     0.001 A 
ATOM     22  C   UNL A   1      32.684  25.530  21.842  1.00  0.00     0.014 A 
ENDBRANCH   6   9
ENDBRANCH   4   5
ENDBRANCH   3   4
ENDBRANCH   2   3
ENDBRANCH   1   2
BRANCH   1  23
ATOM     23  C   UNL A   1      33.279  27.967  26.885  1.00  0.00     0.021 C 
BRANCH  23  24
ATOM     24  C   UNL A   1      34.095  28.996  26.111  1.00  0.00     0.116 C 
BRANCH  24  25
ATOM     25  N   UNL A   1      33.939  30.331  26.668  1.00  0.00    -0.352 N 
ATOM     26  C   UNL A   1      34.623  30.930  27.695  1.00  0.00     0.251 C 
ATOM     27  H   UNL A   1      33.242  30.884  26.246  1.00  0.00     0.163 HD
ATOM     28  O   UNL A   1      34.204  31.968  28.194  1.00  0.00    -0.269 OA
BRANCH  26  29
ATOM     29  C   UNL A   1      35.867  30.317  28.204  1.00  0.00     0.039 A 
ATOM     30  C   UNL A   1      37.041  30.449  27.460  1.00  0.00     0.014 A 
ATOM     31  C   UNL A   1      35.867  29.592  29.399  1.00  0.00     0.014 A 
ATOM     32  C   UNL A   1      38.230  29.897  27.940  1.00  0.00     0.010 A 
ATOM     33  C   UNL A   1      37.064  29.100  29.909  1.00  0.00     0.010 A 
ATOM     34  C   UNL A   1      38.255  29.241  29.181  1.00  0.00    -0.014 A 
BRANCH  34  35
ATOM     35  C   UNL A   1      39.516  28.688  29.733  1.00  0.00     0.031 A 
ATOM     36  C   UNL A   1      40.143  29.308  30.951  1.00  0.00     0.074 A 
ATOM     37  C   UNL A   1      40.129  27.670  29.101  1.00  0.00     0.049 A 
ATOM     38  N   UNL A   1      41.274  29.015  31.540  1.00  0.00    -0.248 NA
ATOM     39  C   UNL A   1      39.415  30.427  31.573  1.00  0.00     0.031 C 
ATOM     40  C   UNL A   1      39.644  27.014  27.885  1.00  0.00     0.029 A 
ATOM     41  N   UNL A   1      41.300  27.016  29.387  1.00  0.00    -0.354 N 
ATOM     42  C   UNL A   1      41.400  29.917  32.588  1.00  0.00     0.074 A 
ATOM     43  C   UNL A   1      40.258  30.803  32.524  1.00  0.00     0.031 C 
ATOM     44  C   UNL A   1      40.499  26.039  27.541  1.00  0.00     0.029 A 
ATOM     45  C   UNL A   1      41.609  26.023  28.489  1.00  0.00     0.049 A 
ATOM     46  H   UNL A   1      41.866  27.237  30.161  1.00  0.00     0.167 HD
ATOM     47  C   UNL A   1      42.369  29.988  33.532  1.00  0.00     0.037 A 
ATOM     48  C   UNL A   1      42.670  25.198  28.434  1.00  0.00     0.037 A 
ATOM     49  C   UNL A   1      43.491  29.090  33.607  1.00  0.00     0.049 A 
ATOM     50  C   UNL A   1      43.733  25.296  29.492  1.00  0.00     0.074 A 
ATOM     51  C   UNL A   1      44.493  29.039  34.560  1.00  0.00     0.029 A 
ATOM     52  N   UNL A   1      43.758  28.083  32.690  1.00  0.00    -0.354 N 
ATOM     53  N   UNL A   1      43.806  26.112  30.516  1.00  0.00    -0.248 NA
ATOM     54  C   UNL A   1      44.858  24.355  29.391  1.00  0.00     0.031 C 
ATOM     55  C   UNL A   1      45.391  28.029  34.197  1.00  0.00     0.029 A 
ATOM     56  C   UNL A   1      44.922  27.419  33.044  1.00  0.00     0.049 A 
ATOM     57  H   UNL A   1      43.203  27.872  31.906  1.00  0.00     0.167 HD
ATOM     58  C   UNL A   1      44.966  25.765  31.196  1.00  0.00     0.074 A 
ATOM     59  C   UNL A   1      45.559  24.657  30.475  1.00  0.00     0.031 C 
ATOM     60  C   UNL A   1      45.494  26.315  32.317  1.00  0.00     0.037 A 
BRANCH  47  61
ATOM     61  C   UNL A   1      42.253  31.075  34.561  1.00  0.00     0.057 A 
ATOM     62  C   UNL A   1      41.545  30.889  35.756  1.00  0.00     0.134 A 
ATOM     63  C   UNL A   1      42.881  32.312  34.370  1.00  0.00     0.134 A 
ATOM     64  F   UNL A   1      40.911  29.732  35.997  1.00  0.00    -0.206 F 
ATOM     65  C   UNL A   1      41.441  31.903  36.709  1.00  0.00     0.040 A 
ATOM     66  C   UNL A   1      42.808  33.325  35.328  1.00  0.00     0.040 A 
ATOM     67  F   UNL A   1      43.581  32.555  33.251  1.00  0.00    -0.206 F 
ATOM     68  C   UNL A   1      42.079  33.124  36.499  1.00  0.00     0.006 A 
ENDBRANCH  47  61
BRANCH  48  69
ATOM     69  C   UNL A   1      42.769  24.187  27.350  1.00  0.00     0.057 A 
ATOM     70  C   UNL A   1      43.362  24.502  26.123  1.00  0.00     0.134 A 
ATOM     71  C   UNL A   1      42.277  22.886  27.516  1.00  0.00     0.134 A 
ATOM     72  F   UNL A   1      43.837  25.735  25.900  1.00  0.00    -0.206 F 
ATOM     73  C   UNL A   1      43.446  23.566  25.091  1.00  0.00     0.040 A 
ATOM     74  C   UNL A   1      42.376  21.934  26.500  1.00  0.00     0.040 A 
ATOM     75  F   UNL A   1      41.705  22.521  28.672  1.00  0.00    -0.206 F 
ATOM     76  C   UNL A   1      42.956  22.276  25.281  1.00  0.00     0.006 A 
ENDBRANCH  48  69
BRANCH  60  77
ATOM     77  C   UNL A   1      46.757  25.705  32.851  1.00  0.00     0.057 A 
ATOM     78  C   UNL A   1      48.021  26.125  32.419  1.00  0.00     0.134 A 
ATOM     79  C   UNL A   1      46.705  24.711  33.837  1.00  0.00     0.134 A 
ATOM     80  F   UNL A   1      48.138  27.063  31.467  1.00  0.00    -0.206 F 
ATOM     81  C   UNL A   1      49.189  25.563  32.934  1.00  0.00     0.040 A 
ATOM     82  C   UNL A   1      47.867  24.160  34.378  1.00  0.00     0.040 A 
ATOM     83  F   UNL A   1      45.525  24.270  34.300  1.00  0.00    -0.206 F 
ATOM     84  C   UNL A   1      49.114  24.582  33.922  1.00  0.00     0.006 A 
ENDBRANCH  60  77
ENDBRANCH  34  35
ENDBRANCH  26  29
ENDBRANCH  24  25
ENDBRANCH  23  24
ENDBRANCH   1  23
TORSDOF 13
ENDMDL
