MODEL 1
REMARK VINA RESULT:     -12.3      0.000      0.000
REMARK SMILES Cc1ccc(NC(=O)C[C@H]2SC[C@H](C(=O)NCCCCCCNC(=O)c3ccc(-c4c5nc(c(-c6c(F)cccc6F)c6ccc([nH]6)c(-c6c(F)cccc6F)c6nc(c(-c7c(F)cccc7F)c7ccc4[nH]7)C=C6)C=C5)cc3)NC2=O)cc1
REMARK SMILES IDX 19 1 18 2 17 3 16 4 14 5 15 6 13 8 10 9 11 10 81 11 12 12
REMARK SMILES IDX 80 13 82 14 9 16 7 17 6 18 8 20 5 21 1 22 2 23 3 24 84 25
REMARK SMILES IDX 4 26 83 27 20 28 21 29 22 30 23 31 24 32 25 34 26 35 27 36
REMARK SMILES IDX 79 37 28 38 78 39 29 40 30 41 31 42 72 43 32 44 77 45 71 46
REMARK SMILES IDX 73 47 33 48 76 49 70 50 69 51 34 53 60 54 43 55 59 56 44 57
REMARK SMILES IDX 47 58 58 59 74 60 45 61 46 62 57 64 75 65 48 66 35 67 36 68
REMARK SMILES IDX 41 69 37 70 38 71 40 72 42 73 39 74 61 75 62 76 67 77 63 78
REMARK SMILES IDX 64 79 66 80 68 81 65 82 49 83 50 84 55 85 51 86 52 87 54 88
REMARK SMILES IDX 56 89 53 90
REMARK H PARENT 16 7 80 15 6 19 23 33 73 52 47 63
REMARK Flexibility Score: inf
ROOT
ATOM      1  C   UNL A   1      33.468  28.284  26.216  1.00  0.00     0.002 C 
ENDROOT
BRANCH   1   2
ATOM      2  C   UNL A   1      32.728  29.222  25.246  1.00  0.00     0.021 C 
BRANCH   2   3
ATOM      3  C   UNL A   1      33.055  29.024  23.762  1.00  0.00     0.116 C 
BRANCH   3   4
ATOM      4  N   UNL A   1      31.983  29.518  22.920  1.00  0.00    -0.354 N 
ATOM      5  C   UNL A   1      30.921  28.883  22.351  1.00  0.00     0.243 C 
ATOM      6  O   UNL A   1      30.175  29.560  21.638  1.00  0.00    -0.273 OA
ATOM      7  H   UNL A   1      32.032  30.482  22.724  1.00  0.00     0.163 HD
BRANCH   5   8
ATOM      8  C   UNL A   1      30.626  27.396  22.599  1.00  0.00     0.181 C 
ATOM      9  C   UNL A   1      30.944  24.995  24.430  1.00  0.00     0.145 C 
ATOM     10  S   UNL A   1      31.477  24.755  22.679  1.00  0.00    -0.145 SA
ATOM     11  C   UNL A   1      29.791  26.006  24.495  1.00  0.00     0.234 C 
ATOM     12  C   UNL A   1      31.816  26.498  22.274  1.00  0.00     0.105 C 
ATOM     13  N   UNL A   1      30.015  27.232  23.916  1.00  0.00    -0.343 N 
ATOM     14  O   UNL A   1      28.745  25.853  25.116  1.00  0.00    -0.274 OA
ATOM     15  H   UNL A   1      29.752  28.039  24.414  1.00  0.00     0.164 HD
BRANCH   9  16
ATOM     16  C   UNL A   1      30.761  23.630  25.101  1.00  0.00     0.124 C 
BRANCH  16  17
ATOM     17  C   UNL A   1      31.001  23.503  26.591  1.00  0.00     0.226 C 
ATOM     18  N   UNL A   1      32.236  23.439  27.153  1.00  0.00    -0.326 N 
ATOM     19  H   UNL A   1      32.216  23.460  28.137  1.00  0.00     0.169 HD
ATOM     20  O   UNL A   1      30.030  23.452  27.356  1.00  0.00    -0.275 OA
BRANCH  18  21
ATOM     21  C   UNL A   1      33.530  23.349  26.628  1.00  0.00     0.041 A 
ATOM     22  C   UNL A   1      37.560  22.797  25.191  1.00  0.00     0.044 C 
ATOM     23  C   UNL A   1      36.150  22.976  25.669  1.00  0.00    -0.051 A 
ATOM     24  C   UNL A   1      35.507  24.212  25.534  1.00  0.00     0.005 A 
ATOM     25  C   UNL A   1      35.462  21.919  26.268  1.00  0.00     0.005 A 
ATOM     26  C   UNL A   1      34.200  24.396  26.004  1.00  0.00     0.026 A 
ATOM     27  C   UNL A   1      34.155  22.101  26.725  1.00  0.00     0.026 A 
ENDBRANCH  18  21
ENDBRANCH  16  17
ENDBRANCH   9  16
ENDBRANCH   5   8
ENDBRANCH   3   4
ENDBRANCH   2   3
ENDBRANCH   1   2
BRANCH   1  28
ATOM     28  C   UNL A   1      34.379  28.950  27.260  1.00  0.00     0.002 C 
BRANCH  28  29
ATOM     29  C   UNL A   1      33.957  30.344  27.729  1.00  0.00     0.021 C 
BRANCH  29  30
ATOM     30  C   UNL A   1      35.037  31.412  27.589  1.00  0.00     0.116 C 
BRANCH  30  31
ATOM     31  N   UNL A   1      35.580  31.885  28.848  1.00  0.00    -0.352 N 
ATOM     32  C   UNL A   1      36.515  31.283  29.690  1.00  0.00     0.251 C 
ATOM     33  H   UNL A   1      35.239  32.757  29.153  1.00  0.00     0.163 HD
ATOM     34  O   UNL A   1      36.840  31.822  30.725  1.00  0.00    -0.269 OA
BRANCH  32  35
ATOM     35  C   UNL A   1      37.204  30.046  29.236  1.00  0.00     0.039 A 
ATOM     36  C   UNL A   1      37.348  29.009  30.165  1.00  0.00     0.014 A 
ATOM     37  C   UNL A   1      37.859  29.978  28.010  1.00  0.00     0.014 A 
ATOM     38  C   UNL A   1      38.344  28.051  29.973  1.00  0.00     0.010 A 
ATOM     39  C   UNL A   1      38.903  29.083  27.853  1.00  0.00     0.010 A 
ATOM     40  C   UNL A   1      39.193  28.172  28.871  1.00  0.00    -0.014 A 
BRANCH  40  41
ATOM     41  C   UNL A   1      40.502  27.529  28.824  1.00  0.00     0.031 A 
ATOM     42  C   UNL A   1      40.664  26.104  28.481  1.00  0.00     0.074 A 
ATOM     43  C   UNL A   1      41.608  28.263  29.083  1.00  0.00     0.049 A 
ATOM     44  N   UNL A   1      41.595  25.356  28.975  1.00  0.00    -0.248 NA
ATOM     45  C   UNL A   1      39.776  25.402  27.561  1.00  0.00     0.031 C 
ATOM     46  C   UNL A   1      42.999  27.871  28.871  1.00  0.00     0.029 A 
ATOM     47  N   UNL A   1      41.688  29.463  29.799  1.00  0.00    -0.354 N 
ATOM     48  C   UNL A   1      41.605  24.189  28.253  1.00  0.00     0.074 A 
ATOM     49  C   UNL A   1      40.409  24.229  27.439  1.00  0.00     0.031 C 
ATOM     50  C   UNL A   1      43.787  28.634  29.644  1.00  0.00     0.029 A 
ATOM     51  C   UNL A   1      42.920  29.446  30.481  1.00  0.00     0.049 A 
ATOM     52  H   UNL A   1      41.013  30.179  29.820  1.00  0.00     0.167 HD
ATOM     53  C   UNL A   1      42.691  23.367  28.283  1.00  0.00     0.037 A 
ATOM     54  C   UNL A   1      42.992  29.529  31.839  1.00  0.00     0.037 A 
ATOM     55  C   UNL A   1      43.764  23.890  29.116  1.00  0.00     0.049 A 
ATOM     56  C   UNL A   1      43.690  28.362  32.495  1.00  0.00     0.074 A 
ATOM     57  C   UNL A   1      44.906  24.613  28.809  1.00  0.00     0.029 A 
ATOM     58  N   UNL A   1      43.607  23.973  30.495  1.00  0.00    -0.354 N 
ATOM     59  N   UNL A   1      43.895  27.217  31.907  1.00  0.00    -0.248 NA
ATOM     60  C   UNL A   1      44.154  28.369  33.880  1.00  0.00     0.031 C 
ATOM     61  C   UNL A   1      45.425  25.155  30.006  1.00  0.00     0.029 A 
ATOM     62  C   UNL A   1      44.602  24.759  31.045  1.00  0.00     0.049 A 
ATOM     63  H   UNL A   1      42.890  23.533  31.006  1.00  0.00     0.167 HD
ATOM     64  C   UNL A   1      44.434  26.333  32.807  1.00  0.00     0.074 A 
ATOM     65  C   UNL A   1      44.611  27.112  34.016  1.00  0.00     0.031 C 
ATOM     66  C   UNL A   1      44.655  25.027  32.473  1.00  0.00     0.037 A 
BRANCH  53  67
ATOM     67  C   UNL A   1      42.853  22.258  27.280  1.00  0.00     0.057 A 
ATOM     68  C   UNL A   1      42.102  21.071  27.357  1.00  0.00     0.134 A 
ATOM     69  C   UNL A   1      43.794  22.302  26.238  1.00  0.00     0.134 A 
ATOM     70  F   UNL A   1      41.122  20.910  28.254  1.00  0.00    -0.206 F 
ATOM     71  C   UNL A   1      42.343  19.969  26.528  1.00  0.00     0.040 A 
ATOM     72  C   UNL A   1      44.074  21.193  25.428  1.00  0.00     0.040 A 
ATOM     73  F   UNL A   1      44.481  23.425  25.978  1.00  0.00    -0.206 F 
ATOM     74  C   UNL A   1      43.356  20.015  25.583  1.00  0.00     0.006 A 
ENDBRANCH  53  67
BRANCH  54  75
ATOM     75  C   UNL A   1      41.862  30.272  32.453  1.00  0.00     0.057 A 
ATOM     76  C   UNL A   1      40.748  29.554  32.920  1.00  0.00     0.134 A 
ATOM     77  C   UNL A   1      42.006  31.589  32.896  1.00  0.00     0.134 A 
ATOM     78  F   UNL A   1      40.557  28.281  32.540  1.00  0.00    -0.206 F 
ATOM     79  C   UNL A   1      39.871  30.089  33.867  1.00  0.00     0.040 A 
ATOM     80  C   UNL A   1      41.128  32.139  33.836  1.00  0.00     0.040 A 
ATOM     81  F   UNL A   1      43.056  32.329  32.512  1.00  0.00    -0.206 F 
ATOM     82  C   UNL A   1      40.079  31.377  34.350  1.00  0.00     0.006 A 
ENDBRANCH  54  75
BRANCH  66  83
ATOM     83  C   UNL A   1      45.027  23.909  33.416  1.00  0.00     0.057 A 
ATOM     84  C   UNL A   1      44.161  22.877  33.805  1.00  0.00     0.134 A 
ATOM     85  C   UNL A   1      46.362  23.764  33.858  1.00  0.00     0.134 A 
ATOM     86  F   UNL A   1      42.894  22.823  33.372  1.00  0.00    -0.206 F 
ATOM     87  C   UNL A   1      44.575  21.811  34.616  1.00  0.00     0.040 A 
ATOM     88  C   UNL A   1      46.799  22.678  34.623  1.00  0.00     0.040 A 
ATOM     89  F   UNL A   1      47.311  24.660  33.544  1.00  0.00    -0.206 F 
ATOM     90  C   UNL A   1      45.900  21.702  35.019  1.00  0.00     0.006 A 
ENDBRANCH  66  83
ENDBRANCH  40  41
ENDBRANCH  32  35
ENDBRANCH  30  31
ENDBRANCH  29  30
ENDBRANCH  28  29
ENDBRANCH   1  28
TORSDOF 16
ENDMDL
MODEL 2
REMARK VINA RESULT:     -11.9      2.387      3.592
REMARK SMILES Cc1ccc(NC(=O)C[C@H]2SC[C@H](C(=O)NCCCCCCNC(=O)c3ccc(-c4c5nc(c(-c6c(F)cccc6F)c6ccc([nH]6)c(-c6c(F)cccc6F)c6nc(c(-c7c(F)cccc7F)c7ccc4[nH]7)C=C6)C=C5)cc3)NC2=O)cc1
REMARK SMILES IDX 19 1 18 2 17 3 16 4 14 5 15 6 13 8 10 9 11 10 81 11 12 12
REMARK SMILES IDX 80 13 82 14 9 16 7 17 6 18 8 20 5 21 1 22 2 23 3 24 84 25
REMARK SMILES IDX 4 26 83 27 20 28 21 29 22 30 23 31 24 32 25 34 26 35 27 36
REMARK SMILES IDX 79 37 28 38 78 39 29 40 30 41 31 42 72 43 32 44 77 45 71 46
REMARK SMILES IDX 73 47 33 48 76 49 70 50 69 51 34 53 60 54 43 55 59 56 44 57
REMARK SMILES IDX 47 58 58 59 74 60 45 61 46 62 57 64 75 65 48 66 35 67 36 68
REMARK SMILES IDX 41 69 37 70 38 71 40 72 42 73 39 74 61 75 62 76 67 77 63 78
REMARK SMILES IDX 64 79 66 80 68 81 65 82 49 83 50 84 55 85 51 86 52 87 54 88
REMARK SMILES IDX 56 89 53 90
REMARK H PARENT 16 7 80 15 6 19 23 33 73 52 47 63
REMARK Flexibility Score: inf
ROOT
ATOM      1  C   UNL A   1      32.359  28.922  27.130  1.00  0.00     0.002 C 
ENDROOT
BRANCH   1   2
ATOM      2  C   UNL A   1      31.828  29.549  25.829  1.00  0.00     0.021 C 
BRANCH   2   3
ATOM      3  C   UNL A   1      32.600  29.178  24.558  1.00  0.00     0.116 C 
BRANCH   3   4
ATOM      4  N   UNL A   1      31.696  28.841  23.477  1.00  0.00    -0.354 N 
ATOM      5  C   UNL A   1      31.316  27.638  22.963  1.00  0.00     0.243 C 
ATOM      6  O   UNL A   1      30.546  27.652  21.999  1.00  0.00    -0.273 OA
ATOM      7  H   UNL A   1      31.284  29.618  23.034  1.00  0.00     0.163 HD
BRANCH   5   8
ATOM      8  C   UNL A   1      31.787  26.305  23.566  1.00  0.00     0.181 C 
ATOM      9  C   UNL A   1      32.306  23.345  23.137  1.00  0.00     0.145 C 
ATOM     10  S   UNL A   1      31.213  23.778  24.561  1.00  0.00    -0.145 SA
ATOM     11  C   UNL A   1      33.332  24.462  22.903  1.00  0.00     0.234 C 
ATOM     12  C   UNL A   1      30.627  25.392  23.951  1.00  0.00     0.105 C 
ATOM     13  N   UNL A   1      32.830  25.728  22.721  1.00  0.00    -0.343 N 
ATOM     14  O   UNL A   1      34.537  24.299  22.747  1.00  0.00    -0.274 OA
ATOM     15  H   UNL A   1      33.191  26.273  21.985  1.00  0.00     0.164 HD
BRANCH   9  16
ATOM     16  C   UNL A   1      32.811  21.907  23.299  1.00  0.00     0.124 C 
BRANCH  16  17
ATOM     17  C   UNL A   1      32.705  21.237  24.653  1.00  0.00     0.226 C 
ATOM     18  N   UNL A   1      33.578  21.451  25.672  1.00  0.00    -0.326 N 
ATOM     19  H   UNL A   1      33.308  21.016  26.513  1.00  0.00     0.169 HD
ATOM     20  O   UNL A   1      31.776  20.446  24.863  1.00  0.00    -0.275 OA
BRANCH  18  21
ATOM     21  C   UNL A   1      34.781  22.158  25.776  1.00  0.00     0.041 A 
ATOM     22  C   UNL A   1      38.643  24.046  26.140  1.00  0.00     0.044 C 
ATOM     23  C   UNL A   1      37.303  23.390  25.987  1.00  0.00    -0.051 A 
ATOM     24  C   UNL A   1      36.127  24.133  26.147  1.00  0.00     0.005 A 
ATOM     25  C   UNL A   1      37.207  22.028  25.697  1.00  0.00     0.005 A 
ATOM     26  C   UNL A   1      34.872  23.522  26.035  1.00  0.00     0.026 A 
ATOM     27  C   UNL A   1      35.954  21.423  25.574  1.00  0.00     0.026 A 
ENDBRANCH  18  21
ENDBRANCH  16  17
ENDBRANCH   9  16
ENDBRANCH   5   8
ENDBRANCH   3   4
ENDBRANCH   2   3
ENDBRANCH   1   2
BRANCH   1  28
ATOM     28  C   UNL A   1      33.856  28.576  27.168  1.00  0.00     0.002 C 
BRANCH  28  29
ATOM     29  C   UNL A   1      34.743  29.516  27.988  1.00  0.00     0.021 C 
BRANCH  29  30
ATOM     30  C   UNL A   1      34.969  30.885  27.355  1.00  0.00     0.116 C 
BRANCH  30  31
ATOM     31  N   UNL A   1      34.117  31.936  27.879  1.00  0.00    -0.352 N 
ATOM     32  C   UNL A   1      34.319  32.776  28.974  1.00  0.00     0.251 C 
ATOM     33  H   UNL A   1      33.273  32.076  27.391  1.00  0.00     0.163 HD
ATOM     34  O   UNL A   1      33.478  33.593  29.279  1.00  0.00    -0.269 OA
BRANCH  32  35
ATOM     35  C   UNL A   1      35.631  32.747  29.673  1.00  0.00     0.039 A 
ATOM     36  C   UNL A   1      36.669  33.513  29.129  1.00  0.00     0.014 A 
ATOM     37  C   UNL A   1      35.893  31.852  30.705  1.00  0.00     0.014 A 
ATOM     38  C   UNL A   1      37.990  33.190  29.435  1.00  0.00     0.010 A 
ATOM     39  C   UNL A   1      37.201  31.470  30.948  1.00  0.00     0.010 A 
ATOM     40  C   UNL A   1      38.244  32.087  30.253  1.00  0.00    -0.014 A 
BRANCH  40  41
ATOM     41  C   UNL A   1      39.534  31.405  30.261  1.00  0.00     0.031 A 
ATOM     42  C   UNL A   1      39.762  30.150  29.520  1.00  0.00     0.074 A 
ATOM     43  C   UNL A   1      40.563  31.946  30.952  1.00  0.00     0.049 A 
ATOM     44  N   UNL A   1      40.571  29.225  29.922  1.00  0.00    -0.248 NA
ATOM     45  C   UNL A   1      39.084  29.831  28.269  1.00  0.00     0.031 C 
ATOM     46  C   UNL A   1      41.967  31.549  30.902  1.00  0.00     0.029 A 
ATOM     47  N   UNL A   1      40.493  32.854  32.014  1.00  0.00    -0.354 N 
ATOM     48  C   UNL A   1      40.729  28.345  28.882  1.00  0.00     0.074 A 
ATOM     49  C   UNL A   1      39.728  28.716  27.905  1.00  0.00     0.031 C 
ATOM     50  C   UNL A   1      42.578  31.977  32.018  1.00  0.00     0.029 A 
ATOM     51  C   UNL A   1      41.558  32.544  32.883  1.00  0.00     0.049 A 
ATOM     52  H   UNL A   1      39.829  33.571  32.131  1.00  0.00     0.167 HD
ATOM     53  C   UNL A   1      41.785  27.484  28.860  1.00  0.00     0.037 A 
ATOM     54  C   UNL A   1      41.347  32.193  34.183  1.00  0.00     0.037 A 
ATOM     55  C   UNL A   1      42.663  27.648  30.009  1.00  0.00     0.049 A 
ATOM     56  C   UNL A   1      41.894  30.836  34.555  1.00  0.00     0.074 A 
ATOM     57  C   UNL A   1      43.844  28.354  30.179  1.00  0.00     0.029 A 
ATOM     58  N   UNL A   1      42.224  27.306  31.283  1.00  0.00    -0.354 N 
ATOM     59  N   UNL A   1      42.215  29.921  33.685  1.00  0.00    -0.248 NA
ATOM     60  C   UNL A   1      42.061  30.380  35.933  1.00  0.00     0.031 C 
ATOM     61  C   UNL A   1      44.104  28.459  31.564  1.00  0.00     0.029 A 
ATOM     62  C   UNL A   1      43.084  27.814  32.239  1.00  0.00     0.049 A 
ATOM     63  H   UNL A   1      41.417  26.778  31.476  1.00  0.00     0.167 HD
ATOM     64  C   UNL A   1      42.556  28.766  34.342  1.00  0.00     0.074 A 
ATOM     65  C   UNL A   1      42.480  29.115  35.747  1.00  0.00     0.031 C 
ATOM     66  C   UNL A   1      42.840  27.618  33.660  1.00  0.00     0.037 A 
BRANCH  53  67
ATOM     67  C   UNL A   1      42.151  26.735  27.608  1.00  0.00     0.057 A 
ATOM     68  C   UNL A   1      41.912  25.356  27.470  1.00  0.00     0.134 A 
ATOM     69  C   UNL A   1      42.801  27.340  26.519  1.00  0.00     0.134 A 
ATOM     70  F   UNL A   1      41.242  24.658  28.394  1.00  0.00    -0.206 F 
ATOM     71  C   UNL A   1      42.379  24.613  26.379  1.00  0.00     0.040 A 
ATOM     72  C   UNL A   1      43.310  26.602  25.441  1.00  0.00     0.040 A 
ATOM     73  F   UNL A   1      42.971  28.670  26.470  1.00  0.00    -0.206 F 
ATOM     74  C   UNL A   1      43.112  25.229  25.377  1.00  0.00     0.006 A 
ENDBRANCH  53  67
BRANCH  54  75
ATOM     75  C   UNL A   1      40.114  32.781  34.768  1.00  0.00     0.057 A 
ATOM     76  C   UNL A   1      38.929  32.026  34.760  1.00  0.00     0.134 A 
ATOM     77  C   UNL A   1      40.164  33.886  35.621  1.00  0.00     0.134 A 
ATOM     78  F   UNL A   1      38.821  30.947  33.969  1.00  0.00    -0.206 F 
ATOM     79  C   UNL A   1      37.877  32.298  35.638  1.00  0.00     0.040 A 
ATOM     80  C   UNL A   1      39.112  34.173  36.498  1.00  0.00     0.040 A 
ATOM     81  F   UNL A   1      41.270  34.639  35.702  1.00  0.00    -0.206 F 
ATOM     82  C   UNL A   1      37.981  33.358  36.532  1.00  0.00     0.006 A 
ENDBRANCH  54  75
BRANCH  66  83
ATOM     83  C   UNL A   1      43.009  26.239  34.250  1.00  0.00     0.057 A 
ATOM     84  C   UNL A   1      42.018  25.558  34.970  1.00  0.00     0.134 A 
ATOM     85  C   UNL A   1      44.171  25.482  33.972  1.00  0.00     0.134 A 
ATOM     86  F   UNL A   1      40.822  26.110  35.214  1.00  0.00    -0.206 F 
ATOM     87  C   UNL A   1      42.189  24.244  35.428  1.00  0.00     0.040 A 
ATOM     88  C   UNL A   1      44.331  24.154  34.378  1.00  0.00     0.040 A 
ATOM     89  F   UNL A   1      45.194  25.993  33.271  1.00  0.00    -0.206 F 
ATOM     90  C   UNL A   1      43.343  23.532  35.123  1.00  0.00     0.006 A 
ENDBRANCH  66  83
ENDBRANCH  40  41
ENDBRANCH  32  35
ENDBRANCH  30  31
ENDBRANCH  29  30
ENDBRANCH  28  29
ENDBRANCH   1  28
TORSDOF 16
ENDMDL
MODEL 3
REMARK VINA RESULT:     -11.9      3.442      8.514
REMARK SMILES Cc1ccc(NC(=O)C[C@H]2SC[C@H](C(=O)NCCCCCCNC(=O)c3ccc(-c4c5nc(c(-c6c(F)cccc6F)c6ccc([nH]6)c(-c6c(F)cccc6F)c6nc(c(-c7c(F)cccc7F)c7ccc4[nH]7)C=C6)C=C5)cc3)NC2=O)cc1
REMARK SMILES IDX 19 1 18 2 17 3 16 4 14 5 15 6 13 8 10 9 11 10 81 11 12 12
REMARK SMILES IDX 80 13 82 14 9 16 7 17 6 18 8 20 5 21 1 22 2 23 3 24 84 25
REMARK SMILES IDX 4 26 83 27 20 28 21 29 22 30 23 31 24 32 25 34 26 35 27 36
REMARK SMILES IDX 79 37 28 38 78 39 29 40 30 41 31 42 72 43 32 44 77 45 71 46
REMARK SMILES IDX 73 47 33 48 76 49 70 50 69 51 34 53 60 54 43 55 59 56 44 57
REMARK SMILES IDX 47 58 58 59 74 60 45 61 46 62 57 64 75 65 48 66 35 67 36 68
REMARK SMILES IDX 41 69 37 70 38 71 40 72 42 73 39 74 61 75 62 76 67 77 63 78
REMARK SMILES IDX 64 79 66 80 68 81 65 82 49 83 50 84 55 85 51 86 52 87 54 88
REMARK SMILES IDX 56 89 53 90
REMARK H PARENT 16 7 80 15 6 19 23 33 73 52 47 63
REMARK Flexibility Score: inf
ROOT
ATOM      1  C   UNL A   1      37.710  21.496  24.751  1.00  0.00     0.002 C 
ENDROOT
BRANCH   1   2
ATOM      2  C   UNL A   1      36.671  20.412  25.088  1.00  0.00     0.021 C 
BRANCH   2   3
ATOM      3  C   UNL A   1      35.266  20.927  25.417  1.00  0.00     0.116 C 
BRANCH   3   4
ATOM      4  N   UNL A   1      34.336  19.831  25.601  1.00  0.00    -0.354 N 
ATOM      5  C   UNL A   1      33.000  19.734  25.356  1.00  0.00     0.243 C 
ATOM      6  O   UNL A   1      32.447  18.671  25.648  1.00  0.00    -0.273 OA
ATOM      7  H   UNL A   1      34.741  19.011  25.968  1.00  0.00     0.163 HD
BRANCH   5   8
ATOM      8  C   UNL A   1      32.200  20.878  24.711  1.00  0.00     0.181 C 
ATOM      9  C   UNL A   1      32.250  23.630  23.431  1.00  0.00     0.145 C 
ATOM     10  S   UNL A   1      31.094  23.420  24.855  1.00  0.00    -0.145 SA
ATOM     11  C   UNL A   1      32.399  22.304  22.674  1.00  0.00     0.234 C 
ATOM     12  C   UNL A   1      31.948  22.034  25.674  1.00  0.00     0.105 C 
ATOM     13  N   UNL A   1      32.786  21.213  23.415  1.00  0.00    -0.343 N 
ATOM     14  O   UNL A   1      32.318  22.166  21.458  1.00  0.00    -0.274 OA
ATOM     15  H   UNL A   1      33.492  20.630  23.055  1.00  0.00     0.164 HD
BRANCH   9  16
ATOM     16  C   UNL A   1      31.866  24.887  22.642  1.00  0.00     0.124 C 
BRANCH  16  17
ATOM     17  C   UNL A   1      32.956  25.699  21.975  1.00  0.00     0.226 C 
ATOM     18  N   UNL A   1      33.581  26.752  22.564  1.00  0.00    -0.326 N 
ATOM     19  H   UNL A   1      34.331  27.104  22.034  1.00  0.00     0.169 HD
ATOM     20  O   UNL A   1      33.311  25.404  20.826  1.00  0.00    -0.275 OA
BRANCH  18  21
ATOM     21  C   UNL A   1      33.381  27.439  23.766  1.00  0.00     0.041 A 
ATOM     22  C   UNL A   1      32.686  29.828  27.291  1.00  0.00     0.044 C 
ATOM     23  C   UNL A   1      32.903  28.988  26.067  1.00  0.00    -0.051 A 
ATOM     24  C   UNL A   1      33.636  27.798  26.145  1.00  0.00     0.005 A 
ATOM     25  C   UNL A   1      32.389  29.386  24.831  1.00  0.00     0.005 A 
ATOM     26  C   UNL A   1      33.868  27.024  25.001  1.00  0.00     0.026 A 
ATOM     27  C   UNL A   1      32.612  28.606  23.695  1.00  0.00     0.026 A 
ENDBRANCH  18  21
ENDBRANCH  16  17
ENDBRANCH   9  16
ENDBRANCH   5   8
ENDBRANCH   3   4
ENDBRANCH   2   3
ENDBRANCH   1   2
BRANCH   1  28
ATOM     28  C   UNL A   1      38.279  22.296  25.934  1.00  0.00     0.002 C 
BRANCH  28  29
ATOM     29  C   UNL A   1      39.794  22.213  26.135  1.00  0.00     0.021 C 
BRANCH  29  30
ATOM     30  C   UNL A   1      40.287  20.877  26.681  1.00  0.00     0.116 C 
BRANCH  30  31
ATOM     31  N   UNL A   1      41.330  20.254  25.888  1.00  0.00    -0.352 N 
ATOM     32  C   UNL A   1      42.678  20.593  25.776  1.00  0.00     0.251 C 
ATOM     33  H   UNL A   1      41.045  19.479  25.351  1.00  0.00     0.163 HD
ATOM     34  O   UNL A   1      43.406  19.963  25.040  1.00  0.00    -0.269 OA
BRANCH  32  35
ATOM     35  C   UNL A   1      43.235  21.643  26.668  1.00  0.00     0.039 A 
ATOM     36  C   UNL A   1      42.979  21.528  28.040  1.00  0.00     0.014 A 
ATOM     37  C   UNL A   1      43.815  22.803  26.164  1.00  0.00     0.014 A 
ATOM     38  C   UNL A   1      43.058  22.661  28.849  1.00  0.00     0.010 A 
ATOM     39  C   UNL A   1      43.814  23.949  26.941  1.00  0.00     0.010 A 
ATOM     40  C   UNL A   1      43.361  23.891  28.260  1.00  0.00    -0.014 A 
BRANCH  40  41
ATOM     41  C   UNL A   1      43.028  25.160  28.898  1.00  0.00     0.031 A 
ATOM     42  C   UNL A   1      41.827  25.933  28.527  1.00  0.00     0.074 A 
ATOM     43  C   UNL A   1      43.830  25.640  29.875  1.00  0.00     0.049 A 
ATOM     44  N   UNL A   1      41.776  27.224  28.559  1.00  0.00    -0.248 NA
ATOM     45  C   UNL A   1      40.589  25.309  28.074  1.00  0.00     0.031 C 
ATOM     46  C   UNL A   1      43.555  26.754  30.777  1.00  0.00     0.029 A 
ATOM     47  N   UNL A   1      45.173  25.323  30.108  1.00  0.00    -0.354 N 
ATOM     48  C   UNL A   1      40.460  27.581  28.408  1.00  0.00     0.074 A 
ATOM     49  C   UNL A   1      39.770  26.367  28.031  1.00  0.00     0.031 C 
ATOM     50  C   UNL A   1      44.718  27.211  31.268  1.00  0.00     0.029 A 
ATOM     51  C   UNL A   1      45.787  26.495  30.592  1.00  0.00     0.049 A 
ATOM     52  H   UNL A   1      45.605  24.451  29.961  1.00  0.00     0.167 HD
ATOM     53  C   UNL A   1      40.037  28.827  28.764  1.00  0.00     0.037 A 
ATOM     54  C   UNL A   1      46.837  27.077  29.947  1.00  0.00     0.037 A 
ATOM     55  C   UNL A   1      41.109  29.646  29.310  1.00  0.00     0.049 A 
ATOM     56  C   UNL A   1      46.594  28.508  29.533  1.00  0.00     0.074 A 
ATOM     57  C   UNL A   1      41.498  29.916  30.613  1.00  0.00     0.029 A 
ATOM     58  N   UNL A   1      42.151  30.074  28.494  1.00  0.00    -0.354 N 
ATOM     59  N   UNL A   1      45.411  29.049  29.456  1.00  0.00    -0.248 NA
ATOM     60  C   UNL A   1      47.654  29.422  29.112  1.00  0.00     0.031 C 
ATOM     61  C   UNL A   1      42.789  30.487  30.583  1.00  0.00     0.029 A 
ATOM     62  C   UNL A   1      43.188  30.569  29.262  1.00  0.00     0.049 A 
ATOM     63  H   UNL A   1      42.148  30.032  27.511  1.00  0.00     0.167 HD
ATOM     64  C   UNL A   1      45.520  30.312  28.931  1.00  0.00     0.074 A 
ATOM     65  C   UNL A   1      46.946  30.513  28.768  1.00  0.00     0.031 C 
ATOM     66  C   UNL A   1      44.414  31.062  28.653  1.00  0.00     0.037 A 
BRANCH  53  67
ATOM     67  C   UNL A   1      38.572  29.140  28.899  1.00  0.00     0.057 A 
ATOM     68  C   UNL A   1      37.826  29.674  27.832  1.00  0.00     0.134 A 
ATOM     69  C   UNL A   1      37.863  28.979  30.100  1.00  0.00     0.134 A 
ATOM     70  F   UNL A   1      38.346  29.822  26.609  1.00  0.00    -0.206 F 
ATOM     71  C   UNL A   1      36.505  30.112  27.979  1.00  0.00     0.040 A 
ATOM     72  C   UNL A   1      36.555  29.451  30.273  1.00  0.00     0.040 A 
ATOM     73  F   UNL A   1      38.423  28.362  31.153  1.00  0.00    -0.206 F 
ATOM     74  C   UNL A   1      35.876  30.035  29.213  1.00  0.00     0.006 A 
ENDBRANCH  53  67
BRANCH  54  75
ATOM     75  C   UNL A   1      47.670  26.119  29.176  1.00  0.00     0.057 A 
ATOM     76  C   UNL A   1      47.409  25.939  27.807  1.00  0.00     0.134 A 
ATOM     77  C   UNL A   1      48.897  25.660  29.659  1.00  0.00     0.134 A 
ATOM     78  F   UNL A   1      46.251  26.366  27.277  1.00  0.00    -0.206 F 
ATOM     79  C   UNL A   1      48.369  25.419  26.936  1.00  0.00     0.040 A 
ATOM     80  C   UNL A   1      49.863  25.129  28.798  1.00  0.00     0.040 A 
ATOM     81  F   UNL A   1      49.226  25.819  30.949  1.00  0.00    -0.206 F 
ATOM     82  C   UNL A   1      49.614  25.040  27.429  1.00  0.00     0.006 A 
ENDBRANCH  54  75
BRANCH  66  83
ATOM     83  C   UNL A   1      44.378  32.358  27.879  1.00  0.00     0.057 A 
ATOM     84  C   UNL A   1      43.998  33.595  28.420  1.00  0.00     0.134 A 
ATOM     85  C   UNL A   1      44.880  32.414  26.559  1.00  0.00     0.134 A 
ATOM     86  F   UNL A   1      43.605  33.712  29.695  1.00  0.00    -0.206 F 
ATOM     87  C   UNL A   1      44.060  34.788  27.687  1.00  0.00     0.040 A 
ATOM     88  C   UNL A   1      44.996  33.606  25.836  1.00  0.00     0.040 A 
ATOM     89  F   UNL A   1      45.305  31.315  25.918  1.00  0.00    -0.206 F 
ATOM     90  C   UNL A   1      44.571  34.800  26.395  1.00  0.00     0.006 A 
ENDBRANCH  66  83
ENDBRANCH  40  41
ENDBRANCH  32  35
ENDBRANCH  30  31
ENDBRANCH  29  30
ENDBRANCH  28  29
ENDBRANCH   1  28
TORSDOF 16
ENDMDL
