MODEL 1
REMARK VINA RESULT:     -12.2      0.000      0.000
REMARK SMILES O=C(NCCCCCCNC(=O)c1ccccc1Nc1nc(Cl)nc(Nc2ccc(N3CCOCC3=O)cc2)n1)c1ccc(-c2c3nc(c(-c4c(F)cccc4F)c4ccc([nH]4)c(-c4c(F)cccc4F)c4nc(c(-c5c(F)cccc5F)c5ccc2[nH]5)C=C4)C=C3)cc1
REMARK SMILES IDX 8 1 7 2 6 3 5 4 4 5 3 6 1 7 2 8 41 10 42 11 94 12 43 13
REMARK SMILES IDX 93 14 44 15 45 16 46 17 87 18 47 19 92 20 86 21 88 22 48 23
REMARK SMILES IDX 91 24 85 25 84 26 49 28 75 29 58 30 74 31 59 32 62 33 73 34
REMARK SMILES IDX 89 35 60 36 61 37 72 39 90 40 63 41 50 42 51 43 56 44 52 45
REMARK SMILES IDX 53 46 55 47 57 48 54 49 76 50 77 51 82 52 78 53 79 54 81 55
REMARK SMILES IDX 83 56 80 57 64 58 65 59 70 60 66 61 67 62 69 63 71 64 68 65
REMARK SMILES IDX 9 66 10 67 11 68 12 70 13 71 14 72 18 73 15 74 17 75 16 76
REMARK SMILES IDX 19 77 20 79 21 80 40 81 22 82 25 83 23 84 24 85 26 86 27 88
REMARK SMILES IDX 28 89 39 90 29 91 38 92 30 93 31 94 32 95 36 96 33 97 35 98
REMARK SMILES IDX 37 99 34 100
REMARK H PARENT 3 9 88 27 62 38 10 69 19 78 26 87
REMARK Flexibility Score: inf
ROOT
ATOM      1  C   UNL A   1      32.428  28.764  27.538  1.00  0.00     0.021 C 
ENDROOT
BRANCH   1   2
ATOM      2  C   UNL A   1      33.876  29.245  27.388  1.00  0.00     0.002 C 
BRANCH   2   3
ATOM      3  C   UNL A   1      34.110  30.743  27.608  1.00  0.00     0.002 C 
BRANCH   3   4
ATOM      4  C   UNL A   1      32.850  31.604  27.674  1.00  0.00     0.021 C 
BRANCH   4   5
ATOM      5  C   UNL A   1      32.938  32.934  26.937  1.00  0.00     0.116 C 
BRANCH   5   6
ATOM      6  N   UNL A   1      32.561  34.065  27.769  1.00  0.00    -0.352 N 
ATOM      7  O   UNL A   1      32.632  35.432  29.564  1.00  0.00    -0.269 OA
ATOM      8  C   UNL A   1      33.172  34.554  28.897  1.00  0.00     0.251 C 
ATOM      9  H   UNL A   1      31.752  34.547  27.484  1.00  0.00     0.163 HD
BRANCH   8  10
ATOM     10  C   UNL A   1      34.476  34.004  29.323  1.00  0.00     0.039 A 
ATOM     11  C   UNL A   1      35.640  34.293  28.607  1.00  0.00     0.014 A 
ATOM     12  C   UNL A   1      34.532  33.186  30.454  1.00  0.00     0.014 A 
ATOM     13  C   UNL A   1      36.831  33.656  28.937  1.00  0.00     0.010 A 
ATOM     14  C   UNL A   1      35.747  32.615  30.837  1.00  0.00     0.010 A 
ATOM     15  C   UNL A   1      36.901  32.823  30.065  1.00  0.00    -0.014 A 
BRANCH  15  16
ATOM     16  C   UNL A   1      38.202  32.224  30.455  1.00  0.00     0.031 A 
ATOM     17  C   UNL A   1      38.679  30.934  29.850  1.00  0.00     0.074 A 
ATOM     18  C   UNL A   1      38.959  32.864  31.368  1.00  0.00     0.049 A 
ATOM     19  N   UNL A   1      39.774  30.262  30.099  1.00  0.00    -0.248 NA
ATOM     20  C   UNL A   1      37.809  30.313  28.840  1.00  0.00     0.031 C 
ATOM     21  C   UNL A   1      38.598  34.121  32.029  1.00  0.00     0.029 A 
ATOM     22  N   UNL A   1      40.186  32.553  31.894  1.00  0.00    -0.354 N 
ATOM     23  C   UNL A   1      39.719  29.131  29.294  1.00  0.00     0.074 A 
ATOM     24  C   UNL A   1      38.468  29.195  28.568  1.00  0.00     0.031 C 
ATOM     25  C   UNL A   1      39.595  34.489  32.847  1.00  0.00     0.029 A 
ATOM     26  C   UNL A   1      40.631  33.464  32.819  1.00  0.00     0.049 A 
ATOM     27  H   UNL A   1      40.698  31.753  31.635  1.00  0.00     0.167 HD
ATOM     28  C   UNL A   1      40.633  28.138  29.167  1.00  0.00     0.037 A 
ATOM     29  C   UNL A   1      41.740  33.465  33.582  1.00  0.00     0.037 A 
ATOM     30  C   UNL A   1      41.879  28.087  29.892  1.00  0.00     0.049 A 
ATOM     31  C   UNL A   1      42.714  32.331  33.455  1.00  0.00     0.074 A 
ATOM     32  C   UNL A   1      42.885  27.141  29.811  1.00  0.00     0.029 A 
ATOM     33  N   UNL A   1      42.283  29.018  30.838  1.00  0.00    -0.354 N 
ATOM     34  N   UNL A   1      42.666  31.287  32.664  1.00  0.00    -0.248 NA
ATOM     35  C   UNL A   1      43.895  32.375  34.326  1.00  0.00     0.031 C 
ATOM     36  C   UNL A   1      43.872  27.469  30.746  1.00  0.00     0.029 A 
ATOM     37  C   UNL A   1      43.511  28.653  31.368  1.00  0.00     0.049 A 
ATOM     38  H   UNL A   1      41.773  29.819  31.096  1.00  0.00     0.167 HD
ATOM     39  C   UNL A   1      43.819  30.562  32.924  1.00  0.00     0.074 A 
ATOM     40  C   UNL A   1      44.555  31.294  33.935  1.00  0.00     0.031 C 
ATOM     41  C   UNL A   1      44.233  29.394  32.373  1.00  0.00     0.037 A 
BRANCH  28  42
ATOM     42  C   UNL A   1      40.308  27.010  28.229  1.00  0.00     0.057 A 
ATOM     43  C   UNL A   1      40.841  26.939  26.935  1.00  0.00     0.134 A 
ATOM     44  C   UNL A   1      39.476  25.959  28.639  1.00  0.00     0.134 A 
ATOM     45  F   UNL A   1      41.639  27.914  26.475  1.00  0.00    -0.206 F 
ATOM     46  C   UNL A   1      40.535  25.883  26.074  1.00  0.00     0.040 A 
ATOM     47  C   UNL A   1      39.185  24.883  27.798  1.00  0.00     0.040 A 
ATOM     48  F   UNL A   1      38.938  25.955  29.869  1.00  0.00    -0.206 F 
ATOM     49  C   UNL A   1      39.709  24.847  26.507  1.00  0.00     0.006 A 
ENDBRANCH  28  42
BRANCH  29  50
ATOM     50  C   UNL A   1      41.972  34.576  34.537  1.00  0.00     0.057 A 
ATOM     51  C   UNL A   1      42.666  35.728  34.153  1.00  0.00     0.134 A 
ATOM     52  C   UNL A   1      41.490  34.522  35.851  1.00  0.00     0.134 A 
ATOM     53  F   UNL A   1      43.165  35.833  32.912  1.00  0.00    -0.206 F 
ATOM     54  C   UNL A   1      42.883  36.782  35.042  1.00  0.00     0.040 A 
ATOM     55  C   UNL A   1      41.674  35.578  36.742  1.00  0.00     0.040 A 
ATOM     56  F   UNL A   1      40.807  33.448  36.278  1.00  0.00    -0.206 F 
ATOM     57  C   UNL A   1      42.380  36.710  36.340  1.00  0.00     0.006 A 
ENDBRANCH  29  50
BRANCH  41  58
ATOM     58  C   UNL A   1      45.561  28.858  32.824  1.00  0.00     0.057 A 
ATOM     59  C   UNL A   1      45.671  27.927  33.865  1.00  0.00     0.134 A 
ATOM     60  C   UNL A   1      46.742  29.257  32.185  1.00  0.00     0.134 A 
ATOM     61  F   UNL A   1      44.580  27.517  34.528  1.00  0.00    -0.206 F 
ATOM     62  C   UNL A   1      46.912  27.431  34.270  1.00  0.00     0.040 A 
ATOM     63  C   UNL A   1      47.984  28.746  32.562  1.00  0.00     0.040 A 
ATOM     64  F   UNL A   1      46.706  30.140  31.176  1.00  0.00    -0.206 F 
ATOM     65  C   UNL A   1      48.072  27.835  33.612  1.00  0.00     0.006 A 
ENDBRANCH  41  58
ENDBRANCH  15  16
ENDBRANCH   8  10
ENDBRANCH   5   6
ENDBRANCH   4   5
ENDBRANCH   3   4
ENDBRANCH   2   3
ENDBRANCH   1   2
BRANCH   1  66
ATOM     66  C   UNL A   1      31.763  28.278  26.253  1.00  0.00     0.116 C 
BRANCH  66  67
ATOM     67  N   UNL A   1      32.570  28.548  25.074  1.00  0.00    -0.352 N 
ATOM     68  C   UNL A   1      32.176  29.007  23.844  1.00  0.00     0.253 C 
ATOM     69  H   UNL A   1      33.534  28.377  25.174  1.00  0.00     0.163 HD
ATOM     70  O   UNL A   1      32.994  29.112  22.935  1.00  0.00    -0.269 OA
BRANCH  68  71
ATOM     71  C   UNL A   1      30.761  29.353  23.591  1.00  0.00     0.063 A 
ATOM     72  C   UNL A   1      30.319  30.585  24.099  1.00  0.00     0.016 A 
ATOM     73  C   UNL A   1      29.883  28.496  22.902  1.00  0.00     0.054 A 
ATOM     74  C   UNL A   1      29.007  31.001  23.881  1.00  0.00     0.001 A 
ATOM     75  C   UNL A   1      28.579  28.963  22.658  1.00  0.00     0.027 A 
ATOM     76  C   UNL A   1      28.142  30.196  23.149  1.00  0.00     0.002 A 
BRANCH  73  77
ATOM     77  N   UNL A   1      30.281  27.226  22.455  1.00  0.00    -0.323 N 
ATOM     78  H   UNL A   1      30.423  27.147  21.485  1.00  0.00     0.170 HD
BRANCH  77  79
ATOM     79  C   UNL A   1      30.503  26.062  23.183  1.00  0.00     0.233 A 
ATOM     80  N   UNL A   1      30.034  25.970  24.417  1.00  0.00    -0.182 NA
ATOM     81  N   UNL A   1      31.178  25.096  22.569  1.00  0.00    -0.176 NA
ATOM     82  C   UNL A   1      30.285  24.811  24.997  1.00  0.00     0.228 A 
ATOM     83  C   UNL A   1      31.424  23.999  23.279  1.00  0.00     0.233 A 
ATOM     84  Cl  UNL A   1      29.699  24.625  26.590  1.00  0.00    -0.041 Cl
ATOM     85  N   UNL A   1      30.961  23.793  24.501  1.00  0.00    -0.182 NA
BRANCH  83  86
ATOM     86  N   UNL A   1      32.314  23.090  22.711  1.00  0.00    -0.324 N 
ATOM     87  H   UNL A   1      32.764  23.391  21.889  1.00  0.00     0.170 HD
BRANCH  86  88
ATOM     88  C   UNL A   1      32.656  21.809  23.151  1.00  0.00     0.041 A 
ATOM     89  C   UNL A   1      33.524  21.653  24.237  1.00  0.00     0.028 A 
ATOM     90  C   UNL A   1      32.070  20.668  22.600  1.00  0.00     0.028 A 
ATOM     91  C   UNL A   1      33.784  20.384  24.772  1.00  0.00     0.028 A 
ATOM     92  C   UNL A   1      32.374  19.397  23.091  1.00  0.00     0.028 A 
ATOM     93  C   UNL A   1      33.222  19.243  24.191  1.00  0.00     0.044 A 
BRANCH  93  94
ATOM     94  N   UNL A   1      33.453  17.950  24.743  1.00  0.00    -0.308 N 
ATOM     95  C   UNL A   1      32.267  17.114  24.977  1.00  0.00     0.154 C 
ATOM     96  C   UNL A   1      34.734  17.387  24.719  1.00  0.00     0.253 C 
ATOM     97  C   UNL A   1      32.569  15.825  25.730  1.00  0.00     0.183 C 
ATOM     98  C   UNL A   1      34.824  15.925  25.178  1.00  0.00     0.260 C 
ATOM     99  O   UNL A   1      35.765  18.005  24.448  1.00  0.00    -0.272 OA
ATOM    100  O   UNL A   1      33.645  15.140  25.096  1.00  0.00    -0.370 OA
ENDBRANCH  93  94
ENDBRANCH  86  88
ENDBRANCH  83  86
ENDBRANCH  77  79
ENDBRANCH  73  77
ENDBRANCH  68  71
ENDBRANCH  66  67
ENDBRANCH   1  66
TORSDOF 18
ENDMDL
MODEL 2
REMARK VINA RESULT:     -11.9      5.803     10.083
REMARK SMILES O=C(NCCCCCCNC(=O)c1ccccc1Nc1nc(Cl)nc(Nc2ccc(N3CCOCC3=O)cc2)n1)c1ccc(-c2c3nc(c(-c4c(F)cccc4F)c4ccc([nH]4)c(-c4c(F)cccc4F)c4nc(c(-c5c(F)cccc5F)c5ccc2[nH]5)C=C4)C=C3)cc1
REMARK SMILES IDX 8 1 7 2 6 3 5 4 4 5 3 6 1 7 2 8 41 10 42 11 94 12 43 13
REMARK SMILES IDX 93 14 44 15 45 16 46 17 87 18 47 19 92 20 86 21 88 22 48 23
REMARK SMILES IDX 91 24 85 25 84 26 49 28 75 29 58 30 74 31 59 32 62 33 73 34
REMARK SMILES IDX 89 35 60 36 61 37 72 39 90 40 63 41 50 42 51 43 56 44 52 45
REMARK SMILES IDX 53 46 55 47 57 48 54 49 76 50 77 51 82 52 78 53 79 54 81 55
REMARK SMILES IDX 83 56 80 57 64 58 65 59 70 60 66 61 67 62 69 63 71 64 68 65
REMARK SMILES IDX 9 66 10 67 11 68 12 70 13 71 14 72 18 73 15 74 17 75 16 76
REMARK SMILES IDX 19 77 20 79 21 80 40 81 22 82 25 83 23 84 24 85 26 86 27 88
REMARK SMILES IDX 28 89 39 90 29 91 38 92 30 93 31 94 32 95 36 96 33 97 35 98
REMARK SMILES IDX 37 99 34 100
REMARK H PARENT 3 9 88 27 62 38 10 69 19 78 26 87
REMARK Flexibility Score: inf
ROOT
ATOM      1  C   UNL A   1      40.091  29.124  28.261  1.00  0.00     0.021 C 
ENDROOT
BRANCH   1   2
ATOM      2  C   UNL A   1      40.875  27.854  27.912  1.00  0.00     0.002 C 
BRANCH   2   3
ATOM      3  C   UNL A   1      40.626  26.643  28.818  1.00  0.00     0.002 C 
BRANCH   3   4
ATOM      4  C   UNL A   1      39.679  25.584  28.256  1.00  0.00     0.021 C 
BRANCH   4   5
ATOM      5  C   UNL A   1      39.886  25.249  26.785  1.00  0.00     0.116 C 
BRANCH   5   6
ATOM      6  N   UNL A   1      40.455  23.926  26.584  1.00  0.00    -0.352 N 
ATOM      7  O   UNL A   1      42.031  22.412  26.017  1.00  0.00    -0.269 OA
ATOM      8  C   UNL A   1      41.752  23.573  26.304  1.00  0.00     0.251 C 
ATOM      9  H   UNL A   1      39.820  23.177  26.658  1.00  0.00     0.163 HD
BRANCH   8  10
ATOM     10  C   UNL A   1      42.813  24.602  26.325  1.00  0.00     0.039 A 
ATOM     11  C   UNL A   1      43.516  24.878  27.500  1.00  0.00     0.014 A 
ATOM     12  C   UNL A   1      43.107  25.299  25.150  1.00  0.00     0.014 A 
ATOM     13  C   UNL A   1      44.410  25.942  27.537  1.00  0.00     0.010 A 
ATOM     14  C   UNL A   1      44.069  26.311  25.168  1.00  0.00     0.010 A 
ATOM     15  C   UNL A   1      44.708  26.659  26.368  1.00  0.00    -0.014 A 
BRANCH  15  16
ATOM     16  C   UNL A   1      45.734  27.732  26.407  1.00  0.00     0.031 A 
ATOM     17  C   UNL A   1      45.347  29.172  26.597  1.00  0.00     0.074 A 
ATOM     18  C   UNL A   1      47.030  27.392  26.270  1.00  0.00     0.049 A 
ATOM     19  N   UNL A   1      46.112  30.233  26.626  1.00  0.00    -0.248 NA
ATOM     20  C   UNL A   1      43.916  29.459  26.767  1.00  0.00     0.031 C 
ATOM     21  C   UNL A   1      47.525  26.026  26.074  1.00  0.00     0.029 A 
ATOM     22  N   UNL A   1      48.165  28.159  26.280  1.00  0.00    -0.354 N 
ATOM     23  C   UNL A   1      45.258  31.315  26.800  1.00  0.00     0.074 A 
ATOM     24  C   UNL A   1      43.912  30.783  26.841  1.00  0.00     0.031 C 
ATOM     25  C   UNL A   1      48.864  26.050  26.015  1.00  0.00     0.029 A 
ATOM     26  C   UNL A   1      49.317  27.433  26.100  1.00  0.00     0.049 A 
ATOM     27  H   UNL A   1      48.157  29.135  26.403  1.00  0.00     0.167 HD
ATOM     28  C   UNL A   1      45.571  32.628  26.922  1.00  0.00     0.037 A 
ATOM     29  C   UNL A   1      50.596  27.836  25.990  1.00  0.00     0.037 A 
ATOM     30  C   UNL A   1      46.915  33.148  26.884  1.00  0.00     0.049 A 
ATOM     31  C   UNL A   1      50.911  29.299  26.084  1.00  0.00     0.074 A 
ATOM     32  C   UNL A   1      47.339  34.457  27.029  1.00  0.00     0.029 A 
ATOM     33  N   UNL A   1      48.054  32.382  26.676  1.00  0.00    -0.354 N 
ATOM     34  N   UNL A   1      50.096  30.308  26.283  1.00  0.00    -0.248 NA
ATOM     35  C   UNL A   1      52.320  29.682  25.938  1.00  0.00     0.031 C 
ATOM     36  C   UNL A   1      48.726  34.492  26.856  1.00  0.00     0.029 A 
ATOM     37  C   UNL A   1      49.177  33.196  26.663  1.00  0.00     0.049 A 
ATOM     38  H   UNL A   1      48.064  31.405  26.556  1.00  0.00     0.167 HD
ATOM     39  C   UNL A   1      50.896  31.441  26.310  1.00  0.00     0.074 A 
ATOM     40  C   UNL A   1      52.261  30.993  26.122  1.00  0.00     0.031 C 
ATOM     41  C   UNL A   1      50.531  32.735  26.477  1.00  0.00     0.037 A 
BRANCH  28  42
ATOM     42  C   UNL A   1      44.436  33.601  27.080  1.00  0.00     0.057 A 
ATOM     43  C   UNL A   1      43.903  33.927  28.335  1.00  0.00     0.134 A 
ATOM     44  C   UNL A   1      43.890  34.247  25.963  1.00  0.00     0.134 A 
ATOM     45  F   UNL A   1      44.373  33.340  29.446  1.00  0.00    -0.206 F 
ATOM     46  C   UNL A   1      42.852  34.836  28.470  1.00  0.00     0.040 A 
ATOM     47  C   UNL A   1      42.857  35.179  26.087  1.00  0.00     0.040 A 
ATOM     48  F   UNL A   1      44.357  33.992  24.731  1.00  0.00    -0.206 F 
ATOM     49  C   UNL A   1      42.329  35.470  27.344  1.00  0.00     0.006 A 
ENDBRANCH  28  42
BRANCH  29  50
ATOM     50  C   UNL A   1      51.665  26.831  25.770  1.00  0.00     0.057 A 
ATOM     51  C   UNL A   1      52.116  26.523  24.482  1.00  0.00     0.134 A 
ATOM     52  C   UNL A   1      52.275  26.169  26.843  1.00  0.00     0.134 A 
ATOM     53  F   UNL A   1      51.560  27.114  23.413  1.00  0.00    -0.206 F 
ATOM     54  C   UNL A   1      53.127  25.585  24.267  1.00  0.00     0.040 A 
ATOM     55  C   UNL A   1      53.306  25.250  26.644  1.00  0.00     0.040 A 
ATOM     56  F   UNL A   1      51.895  26.428  28.103  1.00  0.00    -0.206 F 
ATOM     57  C   UNL A   1      53.729  24.950  25.352  1.00  0.00     0.006 A 
ENDBRANCH  29  50
BRANCH  41  58
ATOM     58  C   UNL A   1      51.631  33.758  26.503  1.00  0.00     0.057 A 
ATOM     59  C   UNL A   1      52.291  34.108  27.688  1.00  0.00     0.134 A 
ATOM     60  C   UNL A   1      52.053  34.377  25.320  1.00  0.00     0.134 A 
ATOM     61  F   UNL A   1      51.924  33.564  28.858  1.00  0.00    -0.206 F 
ATOM     62  C   UNL A   1      53.317  35.055  27.697  1.00  0.00     0.040 A 
ATOM     63  C   UNL A   1      53.096  35.304  25.313  1.00  0.00     0.040 A 
ATOM     64  F   UNL A   1      51.466  34.082  24.150  1.00  0.00    -0.206 F 
ATOM     65  C   UNL A   1      53.726  35.650  26.506  1.00  0.00     0.006 A 
ENDBRANCH  41  58
ENDBRANCH  15  16
ENDBRANCH   8  10
ENDBRANCH   5   6
ENDBRANCH   4   5
ENDBRANCH   3   4
ENDBRANCH   2   3
ENDBRANCH   1   2
BRANCH   1  66
ATOM     66  C   UNL A   1      38.581  29.039  28.053  1.00  0.00     0.116 C 
BRANCH  66  67
ATOM     67  N   UNL A   1      37.864  28.789  29.293  1.00  0.00    -0.352 N 
ATOM     68  C   UNL A   1      36.979  29.599  29.957  1.00  0.00     0.253 C 
ATOM     69  H   UNL A   1      38.037  27.916  29.713  1.00  0.00     0.163 HD
ATOM     70  O   UNL A   1      36.517  29.248  31.039  1.00  0.00    -0.269 OA
BRANCH  68  71
ATOM     71  C   UNL A   1      36.597  30.911  29.395  1.00  0.00     0.063 A 
ATOM     72  C   UNL A   1      37.347  32.017  29.826  1.00  0.00     0.016 A 
ATOM     73  C   UNL A   1      35.527  31.069  28.495  1.00  0.00     0.054 A 
ATOM     74  C   UNL A   1      37.071  33.288  29.325  1.00  0.00     0.001 A 
ATOM     75  C   UNL A   1      35.303  32.354  27.971  1.00  0.00     0.027 A 
ATOM     76  C   UNL A   1      36.058  33.453  28.387  1.00  0.00     0.002 A 
BRANCH  73  77
ATOM     77  N   UNL A   1      34.714  29.990  28.111  1.00  0.00    -0.323 N 
ATOM     78  H   UNL A   1      34.715  29.222  28.725  1.00  0.00     0.170 HD
BRANCH  77  79
ATOM     79  C   UNL A   1      33.906  29.849  26.987  1.00  0.00     0.233 A 
ATOM     80  N   UNL A   1      32.783  30.543  26.904  1.00  0.00    -0.182 NA
ATOM     81  N   UNL A   1      34.337  29.014  26.047  1.00  0.00    -0.176 NA
ATOM     82  C   UNL A   1      32.116  30.346  25.782  1.00  0.00     0.228 A 
ATOM     83  C   UNL A   1      33.546  28.850  24.990  1.00  0.00     0.233 A 
ATOM     84  Cl  UNL A   1      30.659  31.219  25.610  1.00  0.00    -0.041 Cl
ATOM     85  N   UNL A   1      32.428  29.530  24.794  1.00  0.00    -0.182 NA
BRANCH  83  86
ATOM     86  N   UNL A   1      33.892  27.817  24.122  1.00  0.00    -0.324 N 
ATOM     87  H   UNL A   1      34.292  28.096  23.267  1.00  0.00     0.170 HD
BRANCH  86  88
ATOM     88  C   UNL A   1      33.750  26.439  24.301  1.00  0.00     0.041 A 
ATOM     89  C   UNL A   1      33.756  25.586  23.191  1.00  0.00     0.028 A 
ATOM     90  C   UNL A   1      33.705  25.870  25.576  1.00  0.00     0.028 A 
ATOM     91  C   UNL A   1      33.738  24.195  23.355  1.00  0.00     0.028 A 
ATOM     92  C   UNL A   1      33.626  24.487  25.741  1.00  0.00     0.028 A 
ATOM     93  C   UNL A   1      33.658  23.634  24.633  1.00  0.00     0.044 A 
BRANCH  93  94
ATOM     94  N   UNL A   1      33.670  22.222  24.816  1.00  0.00    -0.308 N 
ATOM     95  C   UNL A   1      32.410  21.514  24.549  1.00  0.00     0.154 C 
ATOM     96  C   UNL A   1      34.882  21.525  24.887  1.00  0.00     0.253 C 
ATOM     97  C   UNL A   1      32.444  20.040  24.935  1.00  0.00     0.183 C 
ATOM     98  C   UNL A   1      34.767  19.995  24.905  1.00  0.00     0.260 C 
ATOM     99  O   UNL A   1      35.986  22.055  25.024  1.00  0.00    -0.272 OA
ATOM    100  O   UNL A   1      33.591  19.421  24.359  1.00  0.00    -0.370 OA
ENDBRANCH  93  94
ENDBRANCH  86  88
ENDBRANCH  83  86
ENDBRANCH  77  79
ENDBRANCH  73  77
ENDBRANCH  68  71
ENDBRANCH  66  67
ENDBRANCH   1  66
TORSDOF 18
ENDMDL
MODEL 3
REMARK VINA RESULT:     -11.8      5.888     11.124
REMARK SMILES O=C(NCCCCCCNC(=O)c1ccccc1Nc1nc(Cl)nc(Nc2ccc(N3CCOCC3=O)cc2)n1)c1ccc(-c2c3nc(c(-c4c(F)cccc4F)c4ccc([nH]4)c(-c4c(F)cccc4F)c4nc(c(-c5c(F)cccc5F)c5ccc2[nH]5)C=C4)C=C3)cc1
REMARK SMILES IDX 8 1 7 2 6 3 5 4 4 5 3 6 1 7 2 8 41 10 42 11 94 12 43 13
REMARK SMILES IDX 93 14 44 15 45 16 46 17 87 18 47 19 92 20 86 21 88 22 48 23
REMARK SMILES IDX 91 24 85 25 84 26 49 28 75 29 58 30 74 31 59 32 62 33 73 34
REMARK SMILES IDX 89 35 60 36 61 37 72 39 90 40 63 41 50 42 51 43 56 44 52 45
REMARK SMILES IDX 53 46 55 47 57 48 54 49 76 50 77 51 82 52 78 53 79 54 81 55
REMARK SMILES IDX 83 56 80 57 64 58 65 59 70 60 66 61 67 62 69 63 71 64 68 65
REMARK SMILES IDX 9 66 10 67 11 68 12 70 13 71 14 72 18 73 15 74 17 75 16 76
REMARK SMILES IDX 19 77 20 79 21 80 40 81 22 82 25 83 23 84 24 85 26 86 27 88
REMARK SMILES IDX 28 89 39 90 29 91 38 92 30 93 31 94 32 95 36 96 33 97 35 98
REMARK SMILES IDX 37 99 34 100
REMARK H PARENT 3 9 88 27 62 38 10 69 19 78 26 87
REMARK Flexibility Score: inf
ROOT
ATOM      1  C   UNL A   1      39.388  29.446  27.877  1.00  0.00     0.021 C 
ENDROOT
BRANCH   1   2
ATOM      2  C   UNL A   1      40.274  28.381  27.220  1.00  0.00     0.002 C 
BRANCH   2   3
ATOM      3  C   UNL A   1      40.605  27.160  28.084  1.00  0.00     0.002 C 
BRANCH   3   4
ATOM      4  C   UNL A   1      39.748  25.921  27.828  1.00  0.00     0.021 C 
BRANCH   4   5
ATOM      5  C   UNL A   1      39.915  25.294  26.450  1.00  0.00     0.116 C 
BRANCH   5   6
ATOM      6  N   UNL A   1      40.502  23.965  26.503  1.00  0.00    -0.352 N 
ATOM      7  O   UNL A   1      42.134  22.412  26.346  1.00  0.00    -0.269 OA
ATOM      8  C   UNL A   1      41.823  23.597  26.434  1.00  0.00     0.251 C 
ATOM      9  H   UNL A   1      39.862  23.224  26.602  1.00  0.00     0.163 HD
BRANCH   8  10
ATOM     10  C   UNL A   1      42.876  24.635  26.441  1.00  0.00     0.039 A 
ATOM     11  C   UNL A   1      43.510  24.999  27.632  1.00  0.00     0.014 A 
ATOM     12  C   UNL A   1      43.230  25.252  25.239  1.00  0.00     0.014 A 
ATOM     13  C   UNL A   1      44.394  26.072  27.643  1.00  0.00     0.010 A 
ATOM     14  C   UNL A   1      44.183  26.272  25.239  1.00  0.00     0.010 A 
ATOM     15  C   UNL A   1      44.753  26.710  26.445  1.00  0.00    -0.014 A 
BRANCH  15  16
ATOM     16  C   UNL A   1      45.768  27.793  26.466  1.00  0.00     0.031 A 
ATOM     17  C   UNL A   1      45.368  29.231  26.637  1.00  0.00     0.074 A 
ATOM     18  C   UNL A   1      47.067  27.463  26.330  1.00  0.00     0.049 A 
ATOM     19  N   UNL A   1      46.123  30.300  26.650  1.00  0.00    -0.248 NA
ATOM     20  C   UNL A   1      43.935  29.507  26.808  1.00  0.00     0.031 C 
ATOM     21  C   UNL A   1      47.575  26.100  26.152  1.00  0.00     0.029 A 
ATOM     22  N   UNL A   1      48.195  28.241  26.326  1.00  0.00    -0.354 N 
ATOM     23  C   UNL A   1      45.260  31.376  26.811  1.00  0.00     0.074 A 
ATOM     24  C   UNL A   1      43.918  30.832  26.864  1.00  0.00     0.031 C 
ATOM     25  C   UNL A   1      48.913  26.135  26.087  1.00  0.00     0.029 A 
ATOM     26  C   UNL A   1      49.353  27.523  26.152  1.00  0.00     0.049 A 
ATOM     27  H   UNL A   1      48.177  29.219  26.435  1.00  0.00     0.167 HD
ATOM     28  C   UNL A   1      45.560  32.694  26.913  1.00  0.00     0.037 A 
ATOM     29  C   UNL A   1      50.628  27.937  26.032  1.00  0.00     0.037 A 
ATOM     30  C   UNL A   1      46.899  33.225  26.863  1.00  0.00     0.049 A 
ATOM     31  C   UNL A   1      50.929  29.404  26.105  1.00  0.00     0.074 A 
ATOM     32  C   UNL A   1      47.311  34.541  26.990  1.00  0.00     0.029 A 
ATOM     33  N   UNL A   1      48.045  32.468  26.663  1.00  0.00    -0.354 N 
ATOM     34  N   UNL A   1      50.105  30.407  26.293  1.00  0.00    -0.248 NA
ATOM     35  C   UNL A   1      52.334  29.799  25.949  1.00  0.00     0.031 C 
ATOM     36  C   UNL A   1      48.697  34.586  26.811  1.00  0.00     0.029 A 
ATOM     37  C   UNL A   1      49.160  33.292  26.635  1.00  0.00     0.049 A 
ATOM     38  H   UNL A   1      48.063  31.489  26.556  1.00  0.00     0.167 HD
ATOM     39  C   UNL A   1      50.894  31.548  26.301  1.00  0.00     0.074 A 
ATOM     40  C   UNL A   1      52.263  31.112  26.115  1.00  0.00     0.031 C 
ATOM     41  C   UNL A   1      50.517  32.842  26.451  1.00  0.00     0.037 A 
BRANCH  28  42
ATOM     42  C   UNL A   1      44.416  33.658  27.061  1.00  0.00     0.057 A 
ATOM     43  C   UNL A   1      43.893  34.006  28.314  1.00  0.00     0.134 A 
ATOM     44  C   UNL A   1      43.852  34.273  25.936  1.00  0.00     0.134 A 
ATOM     45  F   UNL A   1      44.380  33.449  29.433  1.00  0.00    -0.206 F 
ATOM     46  C   UNL A   1      42.833  34.907  28.440  1.00  0.00     0.040 A 
ATOM     47  C   UNL A   1      42.811  35.197  26.050  1.00  0.00     0.040 A 
ATOM     48  F   UNL A   1      44.310  33.995  24.706  1.00  0.00    -0.206 F 
ATOM     49  C   UNL A   1      42.293  35.510  27.306  1.00  0.00     0.006 A 
ENDBRANCH  28  42
BRANCH  29  50
ATOM     50  C   UNL A   1      51.706  26.939  25.823  1.00  0.00     0.057 A 
ATOM     51  C   UNL A   1      52.380  26.362  26.904  1.00  0.00     0.134 A 
ATOM     52  C   UNL A   1      52.075  26.525  24.537  1.00  0.00     0.134 A 
ATOM     53  F   UNL A   1      52.081  26.730  28.159  1.00  0.00    -0.206 F 
ATOM     54  C   UNL A   1      53.390  25.418  26.716  1.00  0.00     0.040 A 
ATOM     55  C   UNL A   1      53.063  25.561  24.334  1.00  0.00     0.040 A 
ATOM     56  F   UNL A   1      51.459  27.033  23.458  1.00  0.00    -0.206 F 
ATOM     57  C   UNL A   1      53.729  25.011  25.427  1.00  0.00     0.006 A 
ENDBRANCH  29  50
BRANCH  41  58
ATOM     58  C   UNL A   1      51.607  33.875  26.460  1.00  0.00     0.057 A 
ATOM     59  C   UNL A   1      52.024  34.525  25.291  1.00  0.00     0.134 A 
ATOM     60  C   UNL A   1      52.226  34.244  27.661  1.00  0.00     0.134 A 
ATOM     61  F   UNL A   1      51.483  34.207  24.106  1.00  0.00    -0.206 F 
ATOM     62  C   UNL A   1      53.033  35.489  25.314  1.00  0.00     0.040 A 
ATOM     63  C   UNL A   1      53.216  35.226  27.701  1.00  0.00     0.040 A 
ATOM     64  F   UNL A   1      51.870  33.664  28.817  1.00  0.00    -0.206 F 
ATOM     65  C   UNL A   1      53.628  35.847  26.523  1.00  0.00     0.006 A 
ENDBRANCH  41  58
ENDBRANCH  15  16
ENDBRANCH   8  10
ENDBRANCH   5   6
ENDBRANCH   4   5
ENDBRANCH   3   4
ENDBRANCH   2   3
ENDBRANCH   1   2
BRANCH   1  66
ATOM     66  C   UNL A   1      39.542  29.586  29.388  1.00  0.00     0.116 C 
BRANCH  66  67
ATOM     67  N   UNL A   1      38.264  29.725  30.066  1.00  0.00    -0.352 N 
ATOM     68  C   UNL A   1      37.708  30.838  30.641  1.00  0.00     0.253 C 
ATOM     69  H   UNL A   1      37.722  28.905  30.119  1.00  0.00     0.163 HD
ATOM     70  O   UNL A   1      36.638  30.755  31.237  1.00  0.00    -0.269 OA
BRANCH  68  71
ATOM     71  C   UNL A   1      38.403  32.141  30.577  1.00  0.00     0.063 A 
ATOM     72  C   UNL A   1      39.193  32.483  31.686  1.00  0.00     0.016 A 
ATOM     73  C   UNL A   1      38.274  33.017  29.483  1.00  0.00     0.054 A 
ATOM     74  C   UNL A   1      39.905  33.681  31.696  1.00  0.00     0.001 A 
ATOM     75  C   UNL A   1      39.039  34.196  29.501  1.00  0.00     0.027 A 
ATOM     76  C   UNL A   1      39.838  34.530  30.597  1.00  0.00     0.002 A 
BRANCH  73  77
ATOM     77  N   UNL A   1      37.428  32.732  28.398  1.00  0.00    -0.323 N 
ATOM     78  H   UNL A   1      37.875  32.378  27.598  1.00  0.00     0.170 HD
BRANCH  77  79
ATOM     79  C   UNL A   1      36.049  32.879  28.292  1.00  0.00     0.233 A 
ATOM     80  N   UNL A   1      35.508  34.074  28.461  1.00  0.00    -0.182 NA
ATOM     81  N   UNL A   1      35.355  31.781  28.008  1.00  0.00    -0.176 NA
ATOM     82  C   UNL A   1      34.197  34.093  28.310  1.00  0.00     0.228 A 
ATOM     83  C   UNL A   1      34.033  31.913  27.944  1.00  0.00     0.233 A 
ATOM     84  Cl  UNL A   1      33.438  35.609  28.508  1.00  0.00    -0.041 Cl
ATOM     85  N   UNL A   1      33.402  33.071  28.054  1.00  0.00    -0.182 NA
BRANCH  83  86
ATOM     86  N   UNL A   1      33.303  30.729  27.868  1.00  0.00    -0.324 N 
ATOM     87  H   UNL A   1      32.837  30.463  28.693  1.00  0.00     0.170 HD
BRANCH  86  88
ATOM     88  C   UNL A   1      33.141  29.870  26.779  1.00  0.00     0.041 A 
ATOM     89  C   UNL A   1      33.914  28.707  26.685  1.00  0.00     0.028 A 
ATOM     90  C   UNL A   1      32.145  30.084  25.823  1.00  0.00     0.028 A 
ATOM     91  C   UNL A   1      33.683  27.771  25.668  1.00  0.00     0.028 A 
ATOM     92  C   UNL A   1      31.953  29.184  24.774  1.00  0.00     0.028 A 
ATOM     93  C   UNL A   1      32.709  28.011  24.695  1.00  0.00     0.044 A 
BRANCH  93  94
ATOM     94  N   UNL A   1      32.443  27.054  23.673  1.00  0.00    -0.308 N 
ATOM     95  C   UNL A   1      33.387  27.014  22.549  1.00  0.00     0.154 C 
ATOM     96  C   UNL A   1      31.562  25.992  23.908  1.00  0.00     0.253 C 
ATOM     97  C   UNL A   1      32.945  26.098  21.413  1.00  0.00     0.183 C 
ATOM     98  C   UNL A   1      31.493  24.930  22.802  1.00  0.00     0.260 C 
ATOM     99  O   UNL A   1      30.801  25.914  24.875  1.00  0.00    -0.272 OA
ATOM    100  O   UNL A   1      32.611  24.816  21.936  1.00  0.00    -0.370 OA
ENDBRANCH  93  94
ENDBRANCH  86  88
ENDBRANCH  83  86
ENDBRANCH  77  79
ENDBRANCH  73  77
ENDBRANCH  68  71
ENDBRANCH  66  67
ENDBRANCH   1  66
TORSDOF 18
ENDMDL
