MODEL 1
REMARK VINA RESULT:     -10.4      0.000      0.000
REMARK SMILES O=C(Cc1ccc(CBr)cc1)NCCCCCCNC(=O)c1ccc(-c2c3nc(c(-c4c(F)cccc4F)c4ccc([nH]4)c(-c4c(F)cccc4F)c4nc(c(-c5c(F)cccc5F)c5ccc2[nH]5)C=C4)C=C3)cc1
REMARK SMILES IDX 15 1 14 2 13 3 12 4 1 5 2 6 3 8 4 9 5 10 11 11 6 12 10 13
REMARK SMILES IDX 7 14 8 15 9 16 16 17 17 18 18 19 19 20 20 21 21 23 22 24
REMARK SMILES IDX 23 25 75 26 24 27 74 28 25 29 26 30 27 31 68 32 28 33 73 34
REMARK SMILES IDX 67 35 69 36 29 37 72 38 66 39 65 40 30 42 56 43 39 44 55 45
REMARK SMILES IDX 40 46 43 47 54 48 70 49 41 50 42 51 53 53 71 54 44 55 31 56
REMARK SMILES IDX 32 57 37 58 33 59 34 60 36 61 38 62 35 63 57 64 58 65 63 66
REMARK SMILES IDX 59 67 60 68 62 69 64 70 61 71 45 72 46 73 51 74 47 75 48 76
REMARK SMILES IDX 50 77 52 78 49 79
REMARK H PARENT 12 7 19 22 69 41 43 52
REMARK Flexibility Score: inf
ROOT
ATOM      1  C   UNL A   1      32.309  30.007  25.726  1.00  0.00     0.002 C 
ENDROOT
BRANCH   1   2
ATOM      2  C   UNL A   1      32.898  29.045  26.768  1.00  0.00     0.021 C 
BRANCH   2   3
ATOM      3  C   UNL A   1      32.731  27.559  26.444  1.00  0.00     0.116 C 
BRANCH   3   4
ATOM      4  N   UNL A   1      31.844  27.363  25.318  1.00  0.00    -0.356 N 
ATOM      5  O   UNL A   1      30.258  26.114  26.411  1.00  0.00    -0.275 OA
ATOM      6  C   UNL A   1      30.677  26.635  25.380  1.00  0.00     0.224 C 
ATOM      7  H   UNL A   1      32.089  27.774  24.458  1.00  0.00     0.163 HD
BRANCH   6   8
ATOM      8  C   UNL A   1      29.990  26.430  24.037  1.00  0.00     0.135 C 
BRANCH   8   9
ATOM      9  C   UNL A   1      29.600  27.711  23.338  1.00  0.00    -0.039 A 
ATOM     10  C   UNL A   1      30.556  28.480  22.660  1.00  0.00     0.004 A 
ATOM     11  C   UNL A   1      28.276  28.164  23.381  1.00  0.00     0.004 A 
ATOM     12  C   UNL A   1      30.200  29.688  22.059  1.00  0.00     0.005 A 
ATOM     13  C   UNL A   1      27.917  29.367  22.767  1.00  0.00     0.005 A 
ATOM     14  C   UNL A   1      28.876  30.145  22.106  1.00  0.00    -0.037 A 
BRANCH  14  15
ATOM     15  C   UNL A   1      28.496  31.448  21.469  1.00  0.00     0.116 C 
ATOM     16  Br  UNL A   1      28.752  32.895  22.743  1.00  0.00    -0.088 Br
ENDBRANCH  14  15
ENDBRANCH   8   9
ENDBRANCH   6   8
ENDBRANCH   3   4
ENDBRANCH   2   3
ENDBRANCH   1   2
BRANCH   1  17
ATOM     17  C   UNL A   1      31.028  30.735  26.143  1.00  0.00     0.002 C 
BRANCH  17  18
ATOM     18  C   UNL A   1      31.176  32.240  26.380  1.00  0.00     0.021 C 
BRANCH  18  19
ATOM     19  C   UNL A   1      32.548  32.691  26.870  1.00  0.00     0.116 C 
BRANCH  19  20
ATOM     20  N   UNL A   1      32.524  34.010  27.483  1.00  0.00    -0.352 N 
ATOM     21  C   UNL A   1      33.301  34.513  28.495  1.00  0.00     0.251 C 
ATOM     22  H   UNL A   1      31.852  34.631  27.119  1.00  0.00     0.163 HD
ATOM     23  O   UNL A   1      33.039  35.615  28.981  1.00  0.00    -0.269 OA
BRANCH  21  24
ATOM     24  C   UNL A   1      34.438  33.732  29.029  1.00  0.00     0.039 A 
ATOM     25  C   UNL A   1      35.736  34.213  28.837  1.00  0.00     0.014 A 
ATOM     26  C   UNL A   1      34.236  32.522  29.699  1.00  0.00     0.014 A 
ATOM     27  C   UNL A   1      36.824  33.513  29.363  1.00  0.00     0.010 A 
ATOM     28  C   UNL A   1      35.315  31.859  30.283  1.00  0.00     0.010 A 
ATOM     29  C   UNL A   1      36.620  32.344  30.116  1.00  0.00    -0.014 A 
BRANCH  29  30
ATOM     30  C   UNL A   1      37.764  31.611  30.720  1.00  0.00     0.031 A 
ATOM     31  C   UNL A   1      38.199  31.917  32.127  1.00  0.00     0.074 A 
ATOM     32  C   UNL A   1      38.442  30.705  29.989  1.00  0.00     0.049 A 
ATOM     33  N   UNL A   1      39.207  31.431  32.807  1.00  0.00    -0.248 NA
ATOM     34  C   UNL A   1      37.409  32.919  32.861  1.00  0.00     0.031 C 
ATOM     35  C   UNL A   1      38.151  30.349  28.599  1.00  0.00     0.029 A 
ATOM     36  N   UNL A   1      39.525  29.927  30.311  1.00  0.00    -0.354 N 
ATOM     37  C   UNL A   1      39.176  32.070  34.040  1.00  0.00     0.074 A 
ATOM     38  C   UNL A   1      38.087  33.021  33.995  1.00  0.00     0.031 C 
ATOM     39  C   UNL A   1      39.023  29.410  28.194  1.00  0.00     0.029 A 
ATOM     40  C   UNL A   1      39.951  29.122  29.283  1.00  0.00     0.049 A 
ATOM     41  H   UNL A   1      39.956  29.942  31.197  1.00  0.00     0.167 HD
ATOM     42  C   UNL A   1      39.964  31.865  35.123  1.00  0.00     0.037 A 
ATOM     43  C   UNL A   1      40.978  28.254  29.221  1.00  0.00     0.037 A 
ATOM     44  C   UNL A   1      41.039  30.909  35.176  1.00  0.00     0.049 A 
ATOM     45  C   UNL A   1      41.842  28.047  30.437  1.00  0.00     0.074 A 
ATOM     46  C   UNL A   1      41.879  30.611  36.235  1.00  0.00     0.029 A 
ATOM     47  N   UNL A   1      41.417  30.088  34.123  1.00  0.00    -0.354 N 
ATOM     48  N   UNL A   1      41.768  28.622  31.612  1.00  0.00    -0.248 NA
ATOM     49  C   UNL A   1      42.922  27.058  30.320  1.00  0.00     0.031 C 
ATOM     50  C   UNL A   1      42.785  29.631  35.813  1.00  0.00     0.029 A 
ATOM     51  C   UNL A   1      42.481  29.289  34.506  1.00  0.00     0.049 A 
ATOM     52  H   UNL A   1      40.992  30.077  33.234  1.00  0.00     0.167 HD
ATOM     53  C   UNL A   1      42.768  28.044  32.382  1.00  0.00     0.074 A 
ATOM     54  C   UNL A   1      43.425  27.061  31.546  1.00  0.00     0.031 C 
ATOM     55  C   UNL A   1      43.112  28.302  33.668  1.00  0.00     0.037 A 
BRANCH  42  56
ATOM     56  C   UNL A   1      39.678  32.685  36.348  1.00  0.00     0.057 A 
ATOM     57  C   UNL A   1      38.686  32.312  37.264  1.00  0.00     0.134 A 
ATOM     58  C   UNL A   1      40.421  33.837  36.632  1.00  0.00     0.134 A 
ATOM     59  F   UNL A   1      37.931  31.225  37.043  1.00  0.00    -0.206 F 
ATOM     60  C   UNL A   1      38.424  33.070  38.406  1.00  0.00     0.040 A 
ATOM     61  C   UNL A   1      40.186  34.589  37.786  1.00  0.00     0.040 A 
ATOM     62  F   UNL A   1      41.391  34.247  35.801  1.00  0.00    -0.206 F 
ATOM     63  C   UNL A   1      39.181  34.209  38.674  1.00  0.00     0.006 A 
ENDBRANCH  42  56
BRANCH  43  64
ATOM     64  C   UNL A   1      41.242  27.493  27.973  1.00  0.00     0.057 A 
ATOM     65  C   UNL A   1      40.696  26.219  27.774  1.00  0.00     0.134 A 
ATOM     66  C   UNL A   1      42.066  28.007  26.965  1.00  0.00     0.134 A 
ATOM     67  F   UNL A   1      39.915  25.666  28.712  1.00  0.00    -0.206 F 
ATOM     68  C   UNL A   1      40.982  25.472  26.630  1.00  0.00     0.040 A 
ATOM     69  C   UNL A   1      42.340  27.282  25.804  1.00  0.00     0.040 A 
ATOM     70  F   UNL A   1      42.613  29.225  27.092  1.00  0.00    -0.206 F 
ATOM     71  C   UNL A   1      41.804  26.005  25.640  1.00  0.00     0.006 A 
ENDBRANCH  43  64
BRANCH  55  72
ATOM     72  C   UNL A   1      44.214  27.475  34.261  1.00  0.00     0.057 A 
ATOM     73  C   UNL A   1      45.550  27.896  34.247  1.00  0.00     0.134 A 
ATOM     74  C   UNL A   1      43.928  26.250  34.879  1.00  0.00     0.134 A 
ATOM     75  F   UNL A   1      45.891  29.053  33.659  1.00  0.00    -0.206 F 
ATOM     76  C   UNL A   1      46.565  27.115  34.800  1.00  0.00     0.040 A 
ATOM     77  C   UNL A   1      44.931  25.473  35.459  1.00  0.00     0.040 A 
ATOM     78  F   UNL A   1      42.668  25.793  34.934  1.00  0.00    -0.206 F 
ATOM     79  C   UNL A   1      46.256  25.903  35.413  1.00  0.00     0.006 A 
ENDBRANCH  55  72
ENDBRANCH  29  30
ENDBRANCH  21  24
ENDBRANCH  19  20
ENDBRANCH  18  19
ENDBRANCH  17  18
ENDBRANCH   1  17
TORSDOF 15
ENDMDL
MODEL 2
REMARK VINA RESULT:     -10.2      6.800     11.885
REMARK SMILES O=C(Cc1ccc(CBr)cc1)NCCCCCCNC(=O)c1ccc(-c2c3nc(c(-c4c(F)cccc4F)c4ccc([nH]4)c(-c4c(F)cccc4F)c4nc(c(-c5c(F)cccc5F)c5ccc2[nH]5)C=C4)C=C3)cc1
REMARK SMILES IDX 15 1 14 2 13 3 12 4 1 5 2 6 3 8 4 9 5 10 11 11 6 12 10 13
REMARK SMILES IDX 7 14 8 15 9 16 16 17 17 18 18 19 19 20 20 21 21 23 22 24
REMARK SMILES IDX 23 25 75 26 24 27 74 28 25 29 26 30 27 31 68 32 28 33 73 34
REMARK SMILES IDX 67 35 69 36 29 37 72 38 66 39 65 40 30 42 56 43 39 44 55 45
REMARK SMILES IDX 40 46 43 47 54 48 70 49 41 50 42 51 53 53 71 54 44 55 31 56
REMARK SMILES IDX 32 57 37 58 33 59 34 60 36 61 38 62 35 63 57 64 58 65 63 66
REMARK SMILES IDX 59 67 60 68 62 69 64 70 61 71 45 72 46 73 51 74 47 75 48 76
REMARK SMILES IDX 50 77 52 78 49 79
REMARK H PARENT 12 7 19 22 69 41 43 52
REMARK Flexibility Score: inf
ROOT
ATOM      1  C   UNL A   1      40.758  21.628  27.177  1.00  0.00     0.002 C 
ENDROOT
BRANCH   1   2
ATOM      2  C   UNL A   1      39.700  22.063  26.152  1.00  0.00     0.021 C 
BRANCH   2   3
ATOM      3  C   UNL A   1      38.940  23.341  26.511  1.00  0.00     0.116 C 
BRANCH   3   4
ATOM      4  N   UNL A   1      37.514  23.103  26.578  1.00  0.00    -0.356 N 
ATOM      5  O   UNL A   1      37.051  23.483  24.362  1.00  0.00    -0.275 OA
ATOM      6  C   UNL A   1      36.668  23.211  25.497  1.00  0.00     0.224 C 
ATOM      7  H   UNL A   1      37.127  22.849  27.446  1.00  0.00     0.163 HD
BRANCH   6   8
ATOM      8  C   UNL A   1      35.191  23.073  25.838  1.00  0.00     0.135 C 
BRANCH   8   9
ATOM      9  C   UNL A   1      34.518  21.875  25.210  1.00  0.00    -0.039 A 
ATOM     10  C   UNL A   1      33.237  21.980  24.652  1.00  0.00     0.004 A 
ATOM     11  C   UNL A   1      35.159  20.630  25.202  1.00  0.00     0.004 A 
ATOM     12  C   UNL A   1      32.600  20.858  24.119  1.00  0.00     0.005 A 
ATOM     13  C   UNL A   1      34.527  19.510  24.655  1.00  0.00     0.005 A 
ATOM     14  C   UNL A   1      33.238  19.611  24.114  1.00  0.00    -0.037 A 
BRANCH  14  15
ATOM     15  C   UNL A   1      32.550  18.403  23.552  1.00  0.00     0.116 C 
ATOM     16  Br  UNL A   1      33.779  16.896  23.543  1.00  0.00    -0.088 Br
ENDBRANCH  14  15
ENDBRANCH   8   9
ENDBRANCH   6   8
ENDBRANCH   3   4
ENDBRANCH   2   3
ENDBRANCH   1   2
BRANCH   1  17
ATOM     17  C   UNL A   1      42.077  21.114  26.592  1.00  0.00     0.002 C 
BRANCH  17  18
ATOM     18  C   UNL A   1      41.991  19.775  25.855  1.00  0.00     0.021 C 
BRANCH  18  19
ATOM     19  C   UNL A   1      43.170  18.832  26.078  1.00  0.00     0.116 C 
BRANCH  19  20
ATOM     20  N   UNL A   1      43.922  18.571  24.861  1.00  0.00    -0.352 N 
ATOM     21  C   UNL A   1      44.655  19.435  24.088  1.00  0.00     0.251 C 
ATOM     22  H   UNL A   1      43.902  17.638  24.546  1.00  0.00     0.163 HD
ATOM     23  O   UNL A   1      45.111  19.058  23.008  1.00  0.00    -0.269 OA
BRANCH  21  24
ATOM     24  C   UNL A   1      44.880  20.829  24.529  1.00  0.00     0.039 A 
ATOM     25  C   UNL A   1      44.374  21.873  23.747  1.00  0.00     0.014 A 
ATOM     26  C   UNL A   1      45.601  21.116  25.692  1.00  0.00     0.014 A 
ATOM     27  C   UNL A   1      44.542  23.197  24.161  1.00  0.00     0.010 A 
ATOM     28  C   UNL A   1      45.709  22.432  26.138  1.00  0.00     0.010 A 
ATOM     29  C   UNL A   1      45.187  23.486  25.375  1.00  0.00    -0.014 A 
BRANCH  29  30
ATOM     30  C   UNL A   1      45.334  24.887  25.851  1.00  0.00     0.031 A 
ATOM     31  C   UNL A   1      46.677  25.563  25.804  1.00  0.00     0.074 A 
ATOM     32  C   UNL A   1      44.273  25.535  26.370  1.00  0.00     0.049 A 
ATOM     33  N   UNL A   1      47.020  26.754  26.227  1.00  0.00    -0.248 NA
ATOM     34  C   UNL A   1      47.788  24.790  25.225  1.00  0.00     0.031 C 
ATOM     35  C   UNL A   1      42.928  24.978  26.514  1.00  0.00     0.029 A 
ATOM     36  N   UNL A   1      44.164  26.803  26.883  1.00  0.00    -0.354 N 
ATOM     37  C   UNL A   1      48.381  26.869  25.972  1.00  0.00     0.074 A 
ATOM     38  C   UNL A   1      48.814  25.607  25.413  1.00  0.00     0.031 C 
ATOM     39  C   UNL A   1      42.124  25.904  27.062  1.00  0.00     0.029 A 
ATOM     40  C   UNL A   1      42.903  27.108  27.337  1.00  0.00     0.049 A 
ATOM     41  H   UNL A   1      44.918  27.436  26.922  1.00  0.00     0.167 HD
ATOM     42  C   UNL A   1      49.193  27.938  26.160  1.00  0.00     0.037 A 
ATOM     43  C   UNL A   1      42.430  28.228  27.914  1.00  0.00     0.037 A 
ATOM     44  C   UNL A   1      48.762  29.200  26.702  1.00  0.00     0.049 A 
ATOM     45  C   UNL A   1      43.353  29.399  28.115  1.00  0.00     0.074 A 
ATOM     46  C   UNL A   1      49.504  30.350  26.909  1.00  0.00     0.029 A 
ATOM     47  N   UNL A   1      47.468  29.479  27.118  1.00  0.00    -0.354 N 
ATOM     48  N   UNL A   1      44.626  29.510  27.822  1.00  0.00    -0.248 NA
ATOM     49  C   UNL A   1      42.768  30.607  28.714  1.00  0.00     0.031 C 
ATOM     50  C   UNL A   1      48.666  31.316  27.478  1.00  0.00     0.029 A 
ATOM     51  C   UNL A   1      47.393  30.780  27.584  1.00  0.00     0.049 A 
ATOM     52  H   UNL A   1      46.715  28.844  27.087  1.00  0.00     0.167 HD
ATOM     53  C   UNL A   1      44.984  30.806  28.169  1.00  0.00     0.074 A 
ATOM     54  C   UNL A   1      43.792  31.448  28.682  1.00  0.00     0.031 C 
ATOM     55  C   UNL A   1      46.194  31.411  28.074  1.00  0.00     0.037 A 
BRANCH  42  56
ATOM     56  C   UNL A   1      50.632  27.789  25.757  1.00  0.00     0.057 A 
ATOM     57  C   UNL A   1      51.042  27.956  24.429  1.00  0.00     0.134 A 
ATOM     58  C   UNL A   1      51.620  27.509  26.709  1.00  0.00     0.134 A 
ATOM     59  F   UNL A   1      50.143  28.214  23.467  1.00  0.00    -0.206 F 
ATOM     60  C   UNL A   1      52.380  27.824  24.055  1.00  0.00     0.040 A 
ATOM     61  C   UNL A   1      52.966  27.401  26.351  1.00  0.00     0.040 A 
ATOM     62  F   UNL A   1      51.298  27.343  28.000  1.00  0.00    -0.206 F 
ATOM     63  C   UNL A   1      53.348  27.552  25.020  1.00  0.00     0.006 A 
ENDBRANCH  42  56
BRANCH  43  64
ATOM     64  C   UNL A   1      41.006  28.312  28.328  1.00  0.00     0.057 A 
ATOM     65  C   UNL A   1      40.035  28.848  27.473  1.00  0.00     0.134 A 
ATOM     66  C   UNL A   1      40.587  27.888  29.594  1.00  0.00     0.134 A 
ATOM     67  F   UNL A   1      40.379  29.289  26.254  1.00  0.00    -0.206 F 
ATOM     68  C   UNL A   1      38.705  28.984  27.872  1.00  0.00     0.040 A 
ATOM     69  C   UNL A   1      39.255  27.994  29.997  1.00  0.00     0.040 A 
ATOM     70  F   UNL A   1      41.467  27.359  30.457  1.00  0.00    -0.206 F 
ATOM     71  C   UNL A   1      38.311  28.553  29.137  1.00  0.00     0.006 A 
ENDBRANCH  43  64
BRANCH  55  72
ATOM     72  C   UNL A   1      46.273  32.852  28.483  1.00  0.00     0.057 A 
ATOM     73  C   UNL A   1      46.059  33.895  27.572  1.00  0.00     0.134 A 
ATOM     74  C   UNL A   1      46.542  33.200  29.813  1.00  0.00     0.134 A 
ATOM     75  F   UNL A   1      45.810  33.630  26.280  1.00  0.00    -0.206 F 
ATOM     76  C   UNL A   1      46.138  35.232  27.965  1.00  0.00     0.040 A 
ATOM     77  C   UNL A   1      46.597  34.532  30.223  1.00  0.00     0.040 A 
ATOM     78  F   UNL A   1      46.748  32.249  30.736  1.00  0.00    -0.206 F 
ATOM     79  C   UNL A   1      46.402  35.553  29.295  1.00  0.00     0.006 A 
ENDBRANCH  55  72
ENDBRANCH  29  30
ENDBRANCH  21  24
ENDBRANCH  19  20
ENDBRANCH  18  19
ENDBRANCH  17  18
ENDBRANCH   1  17
TORSDOF 15
ENDMDL
MODEL 3
REMARK VINA RESULT:     -10.2      6.322     11.538
REMARK SMILES O=C(Cc1ccc(CBr)cc1)NCCCCCCNC(=O)c1ccc(-c2c3nc(c(-c4c(F)cccc4F)c4ccc([nH]4)c(-c4c(F)cccc4F)c4nc(c(-c5c(F)cccc5F)c5ccc2[nH]5)C=C4)C=C3)cc1
REMARK SMILES IDX 15 1 14 2 13 3 12 4 1 5 2 6 3 8 4 9 5 10 11 11 6 12 10 13
REMARK SMILES IDX 7 14 8 15 9 16 16 17 17 18 18 19 19 20 20 21 21 23 22 24
REMARK SMILES IDX 23 25 75 26 24 27 74 28 25 29 26 30 27 31 68 32 28 33 73 34
REMARK SMILES IDX 67 35 69 36 29 37 72 38 66 39 65 40 30 42 56 43 39 44 55 45
REMARK SMILES IDX 40 46 43 47 54 48 70 49 41 50 42 51 53 53 71 54 44 55 31 56
REMARK SMILES IDX 32 57 37 58 33 59 34 60 36 61 38 62 35 63 57 64 58 65 63 66
REMARK SMILES IDX 59 67 60 68 62 69 64 70 61 71 45 72 46 73 51 74 47 75 48 76
REMARK SMILES IDX 50 77 52 78 49 79
REMARK H PARENT 12 7 19 22 69 41 43 52
REMARK Flexibility Score: inf
ROOT
ATOM      1  C   UNL A   1      40.842  21.514  27.246  1.00  0.00     0.002 C 
ENDROOT
BRANCH   1   2
ATOM      2  C   UNL A   1      39.708  22.477  26.864  1.00  0.00     0.021 C 
BRANCH   2   3
ATOM      3  C   UNL A   1      38.746  21.953  25.796  1.00  0.00     0.116 C 
BRANCH   3   4
ATOM      4  N   UNL A   1      37.376  22.292  26.111  1.00  0.00    -0.356 N 
ATOM      5  O   UNL A   1      36.383  20.527  25.031  1.00  0.00    -0.275 OA
ATOM      6  C   UNL A   1      36.288  21.561  25.687  1.00  0.00     0.224 C 
ATOM      7  H   UNL A   1      37.210  23.092  26.661  1.00  0.00     0.163 HD
BRANCH   6   8
ATOM      8  C   UNL A   1      34.941  22.196  26.002  1.00  0.00     0.135 C 
BRANCH   8   9
ATOM      9  C   UNL A   1      34.472  23.199  24.975  1.00  0.00    -0.039 A 
ATOM     10  C   UNL A   1      34.098  22.789  23.688  1.00  0.00     0.004 A 
ATOM     11  C   UNL A   1      34.430  24.563  25.288  1.00  0.00     0.004 A 
ATOM     12  C   UNL A   1      33.715  23.726  22.727  1.00  0.00     0.005 A 
ATOM     13  C   UNL A   1      34.031  25.499  24.331  1.00  0.00     0.005 A 
ATOM     14  C   UNL A   1      33.677  25.091  23.038  1.00  0.00    -0.037 A 
BRANCH  14  15
ATOM     15  C   UNL A   1      33.275  26.099  22.003  1.00  0.00     0.116 C 
ATOM     16  Br  UNL A   1      33.374  27.888  22.760  1.00  0.00    -0.088 Br
ENDBRANCH  14  15
ENDBRANCH   8   9
ENDBRANCH   6   8
ENDBRANCH   3   4
ENDBRANCH   2   3
ENDBRANCH   1   2
BRANCH   1  17
ATOM     17  C   UNL A   1      41.753  21.073  26.098  1.00  0.00     0.002 C 
BRANCH  17  18
ATOM     18  C   UNL A   1      41.793  19.566  25.833  1.00  0.00     0.021 C 
BRANCH  18  19
ATOM     19  C   UNL A   1      43.121  18.884  26.148  1.00  0.00     0.116 C 
BRANCH  19  20
ATOM     20  N   UNL A   1      43.904  18.595  24.956  1.00  0.00    -0.352 N 
ATOM     21  C   UNL A   1      44.670  19.438  24.193  1.00  0.00     0.251 C 
ATOM     22  H   UNL A   1      43.880  17.658  24.654  1.00  0.00     0.163 HD
ATOM     23  O   UNL A   1      45.152  19.039  23.131  1.00  0.00    -0.269 OA
BRANCH  21  24
ATOM     24  C   UNL A   1      44.902  20.836  24.619  1.00  0.00     0.039 A 
ATOM     25  C   UNL A   1      44.495  21.874  23.776  1.00  0.00     0.014 A 
ATOM     26  C   UNL A   1      45.534  21.129  25.831  1.00  0.00     0.014 A 
ATOM     27  C   UNL A   1      44.670  23.203  24.173  1.00  0.00     0.010 A 
ATOM     28  C   UNL A   1      45.645  22.452  26.257  1.00  0.00     0.010 A 
ATOM     29  C   UNL A   1      45.221  23.502  25.430  1.00  0.00    -0.014 A 
BRANCH  29  30
ATOM     30  C   UNL A   1      45.373  24.909  25.886  1.00  0.00     0.031 A 
ATOM     31  C   UNL A   1      46.719  25.579  25.833  1.00  0.00     0.074 A 
ATOM     32  C   UNL A   1      44.313  25.569  26.392  1.00  0.00     0.049 A 
ATOM     33  N   UNL A   1      47.066  26.775  26.239  1.00  0.00    -0.248 NA
ATOM     34  C   UNL A   1      47.828  24.793  25.268  1.00  0.00     0.031 C 
ATOM     35  C   UNL A   1      42.965  25.019  26.541  1.00  0.00     0.029 A 
ATOM     36  N   UNL A   1      44.207  26.844  26.886  1.00  0.00    -0.354 N 
ATOM     37  C   UNL A   1      48.427  26.881  25.986  1.00  0.00     0.074 A 
ATOM     38  C   UNL A   1      48.857  25.609  25.447  1.00  0.00     0.031 C 
ATOM     39  C   UNL A   1      42.164  25.957  27.073  1.00  0.00     0.029 A 
ATOM     40  C   UNL A   1      42.947  27.161  27.332  1.00  0.00     0.049 A 
ATOM     41  H   UNL A   1      44.964  27.475  26.918  1.00  0.00     0.167 HD
ATOM     42  C   UNL A   1      49.243  27.949  26.160  1.00  0.00     0.037 A 
ATOM     43  C   UNL A   1      42.477  28.292  27.891  1.00  0.00     0.037 A 
ATOM     44  C   UNL A   1      48.816  29.220  26.683  1.00  0.00     0.049 A 
ATOM     45  C   UNL A   1      43.404  29.462  28.077  1.00  0.00     0.074 A 
ATOM     46  C   UNL A   1      49.562  30.370  26.875  1.00  0.00     0.029 A 
ATOM     47  N   UNL A   1      47.522  29.511  27.091  1.00  0.00    -0.354 N 
ATOM     48  N   UNL A   1      44.678  29.564  27.787  1.00  0.00    -0.248 NA
ATOM     49  C   UNL A   1      42.822  30.681  28.657  1.00  0.00     0.031 C 
ATOM     50  C   UNL A   1      48.726  31.348  27.427  1.00  0.00     0.029 A 
ATOM     51  C   UNL A   1      47.451  30.819  27.538  1.00  0.00     0.049 A 
ATOM     52  H   UNL A   1      46.767  28.879  27.067  1.00  0.00     0.167 HD
ATOM     53  C   UNL A   1      45.041  30.862  28.116  1.00  0.00     0.074 A 
ATOM     54  C   UNL A   1      43.850  31.517  28.615  1.00  0.00     0.031 C 
ATOM     55  C   UNL A   1      46.253  31.461  28.015  1.00  0.00     0.037 A 
BRANCH  42  56
ATOM     56  C   UNL A   1      50.682  27.788  25.764  1.00  0.00     0.057 A 
ATOM     57  C   UNL A   1      51.675  27.506  26.711  1.00  0.00     0.134 A 
ATOM     58  C   UNL A   1      51.075  27.883  24.424  1.00  0.00     0.134 A 
ATOM     59  F   UNL A   1      51.367  27.414  28.013  1.00  0.00    -0.206 F 
ATOM     60  C   UNL A   1      53.013  27.351  26.342  1.00  0.00     0.040 A 
ATOM     61  C   UNL A   1      52.406  27.703  24.040  1.00  0.00     0.040 A 
ATOM     62  F   UNL A   1      50.174  28.144  23.465  1.00  0.00    -0.206 F 
ATOM     63  C   UNL A   1      53.380  27.442  25.002  1.00  0.00     0.006 A 
ENDBRANCH  42  56
BRANCH  43  64
ATOM     64  C   UNL A   1      41.052  28.388  28.299  1.00  0.00     0.057 A 
ATOM     65  C   UNL A   1      40.631  27.954  29.562  1.00  0.00     0.134 A 
ATOM     66  C   UNL A   1      40.075  28.886  27.430  1.00  0.00     0.134 A 
ATOM     67  F   UNL A   1      41.517  27.448  30.432  1.00  0.00    -0.206 F 
ATOM     68  C   UNL A   1      39.287  27.987  29.936  1.00  0.00     0.040 A 
ATOM     69  C   UNL A   1      38.731  28.950  27.800  1.00  0.00     0.040 A 
ATOM     70  F   UNL A   1      40.415  29.325  26.209  1.00  0.00    -0.206 F 
ATOM     71  C   UNL A   1      38.332  28.489  29.054  1.00  0.00     0.006 A 
ENDBRANCH  43  64
BRANCH  55  72
ATOM     72  C   UNL A   1      46.337  32.908  28.403  1.00  0.00     0.057 A 
ATOM     73  C   UNL A   1      46.649  33.310  29.708  1.00  0.00     0.134 A 
ATOM     74  C   UNL A   1      46.126  33.913  27.450  1.00  0.00     0.134 A 
ATOM     75  F   UNL A   1      46.850  32.397  30.671  1.00  0.00    -0.206 F 
ATOM     76  C   UNL A   1      46.721  34.660  30.057  1.00  0.00     0.040 A 
ATOM     77  C   UNL A   1      46.221  35.265  27.780  1.00  0.00     0.040 A 
ATOM     78  F   UNL A   1      45.831  33.595  26.180  1.00  0.00    -0.206 F 
ATOM     79  C   UNL A   1      46.512  35.641  29.090  1.00  0.00     0.006 A 
ENDBRANCH  55  72
ENDBRANCH  29  30
ENDBRANCH  21  24
ENDBRANCH  19  20
ENDBRANCH  18  19
ENDBRANCH  17  18
ENDBRANCH   1  17
TORSDOF 15
ENDMDL
