MODEL 1
REMARK VINA RESULT:     -12.1      0.000      0.000
REMARK SMILES O=C(NCCCCCCNC(=O)[C@@H]1CN(C(=O)CCC(F)(F)F)C[C@H]1c1ccc2c(c1)OCO2)c1ccc(-c2c3nc(c(-c4c(F)cccc4F)c4ccc([nH]4)c(-c4c(F)cccc4F)c4nc(c(-c5c(F)cccc5F)c5ccc2[nH]5)C=C4)C=C3)cc1
REMARK SMILES IDX 7 1 6 2 5 3 4 4 3 5 1 6 2 7 35 9 36 10 88 11 37 12 87 13
REMARK SMILES IDX 38 14 39 15 40 16 81 17 41 18 86 19 80 20 82 21 42 22 85 23
REMARK SMILES IDX 79 24 78 25 43 27 69 28 52 29 68 30 53 31 56 32 67 33 83 34
REMARK SMILES IDX 54 35 55 36 66 38 84 39 57 40 44 41 45 42 50 43 46 44 47 45
REMARK SMILES IDX 49 46 51 47 48 48 70 49 71 50 76 51 72 52 73 53 75 54 77 55
REMARK SMILES IDX 74 56 58 57 59 58 64 59 60 60 61 61 63 62 65 63 62 64 8 65
REMARK SMILES IDX 9 66 10 67 11 68 12 70 13 71 14 72 25 73 15 74 24 75 26 76
REMARK SMILES IDX 27 77 31 78 28 79 30 80 29 81 32 82 34 83 33 84 16 85 17 86
REMARK SMILES IDX 18 87 19 88 20 89 21 90 22 91 23 92
REMARK H PARENT 3 8 82 26 56 37 10 69
REMARK Flexibility Score: inf
ROOT
ATOM      1  C   UNL A   1      34.158  32.089  28.738  1.00  0.00     0.002 C 
ENDROOT
BRANCH   1   2
ATOM      2  C   UNL A   1      34.386  33.601  28.645  1.00  0.00     0.002 C 
BRANCH   2   3
ATOM      3  C   UNL A   1      33.151  34.490  28.775  1.00  0.00     0.021 C 
BRANCH   3   4
ATOM      4  C   UNL A   1      33.398  35.889  29.309  1.00  0.00     0.116 C 
BRANCH   4   5
ATOM      5  N   UNL A   1      32.528  36.252  30.414  1.00  0.00    -0.352 N 
ATOM      6  O   UNL A   1      31.749  36.206  32.532  1.00  0.00    -0.269 OA
ATOM      7  C   UNL A   1      32.627  35.896  31.740  1.00  0.00     0.251 C 
ATOM      8  H   UNL A   1      31.764  36.829  30.182  1.00  0.00     0.163 HD
BRANCH   7   9
ATOM      9  C   UNL A   1      33.793  35.104  32.198  1.00  0.00     0.039 A 
ATOM     10  C   UNL A   1      35.071  35.665  32.225  1.00  0.00     0.014 A 
ATOM     11  C   UNL A   1      33.605  33.777  32.596  1.00  0.00     0.014 A 
ATOM     12  C   UNL A   1      36.172  34.864  32.497  1.00  0.00     0.010 A 
ATOM     13  C   UNL A   1      34.705  32.998  32.971  1.00  0.00     0.010 A 
ATOM     14  C   UNL A   1      36.002  33.528  32.900  1.00  0.00    -0.014 A 
BRANCH  14  15
ATOM     15  C   UNL A   1      37.199  32.758  33.326  1.00  0.00     0.031 A 
ATOM     16  C   UNL A   1      37.843  31.736  32.433  1.00  0.00     0.074 A 
ATOM     17  C   UNL A   1      37.736  33.042  34.529  1.00  0.00     0.049 A 
ATOM     18  N   UNL A   1      38.927  31.031  32.644  1.00  0.00    -0.248 NA
ATOM     19  C   UNL A   1      37.192  31.460  31.144  1.00  0.00     0.031 C 
ATOM     20  C   UNL A   1      37.180  33.997  35.493  1.00  0.00     0.029 A 
ATOM     21  N   UNL A   1      38.879  32.590  35.135  1.00  0.00    -0.354 N 
ATOM     22  C   UNL A   1      39.083  30.222  31.525  1.00  0.00     0.074 A 
ATOM     23  C   UNL A   1      37.966  30.504  30.646  1.00  0.00     0.031 C 
ATOM     24  C   UNL A   1      38.014  34.107  36.535  1.00  0.00     0.029 A 
ATOM     25  C   UNL A   1      39.126  33.186  36.348  1.00  0.00     0.049 A 
ATOM     26  H   UNL A   1      39.466  31.905  34.739  1.00  0.00     0.167 HD
ATOM     27  C   UNL A   1      40.069  29.334  31.256  1.00  0.00     0.037 A 
ATOM     28  C   UNL A   1      40.132  33.004  37.222  1.00  0.00     0.037 A 
ATOM     29  C   UNL A   1      41.182  29.063  32.133  1.00  0.00     0.049 A 
ATOM     30  C   UNL A   1      41.210  32.017  36.893  1.00  0.00     0.074 A 
ATOM     31  C   UNL A   1      42.237  28.186  31.942  1.00  0.00     0.029 A 
ATOM     32  N   UNL A   1      41.385  29.668  33.364  1.00  0.00    -0.354 N 
ATOM     33  N   UNL A   1      41.349  31.274  35.822  1.00  0.00    -0.248 NA
ATOM     34  C   UNL A   1      42.269  31.838  37.895  1.00  0.00     0.031 C 
ATOM     35  C   UNL A   1      43.061  28.237  33.073  1.00  0.00     0.029 A 
ATOM     36  C   UNL A   1      42.543  29.176  33.948  1.00  0.00     0.049 A 
ATOM     37  H   UNL A   1      40.795  30.346  33.764  1.00  0.00     0.167 HD
ATOM     38  C   UNL A   1      42.508  30.539  36.020  1.00  0.00     0.074 A 
ATOM     39  C   UNL A   1      43.054  30.956  37.296  1.00  0.00     0.031 C 
ATOM     40  C   UNL A   1      43.064  29.594  35.223  1.00  0.00     0.037 A 
BRANCH  27  41
ATOM     41  C   UNL A   1      39.996  28.578  29.961  1.00  0.00     0.057 A 
ATOM     42  C   UNL A   1      40.672  29.013  28.815  1.00  0.00     0.134 A 
ATOM     43  C   UNL A   1      39.300  27.364  29.878  1.00  0.00     0.134 A 
ATOM     44  F   UNL A   1      41.351  30.172  28.825  1.00  0.00    -0.206 F 
ATOM     45  C   UNL A   1      40.651  28.275  27.630  1.00  0.00     0.040 A 
ATOM     46  C   UNL A   1      39.289  26.607  28.704  1.00  0.00     0.040 A 
ATOM     47  F   UNL A   1      38.636  26.886  30.941  1.00  0.00    -0.206 F 
ATOM     48  C   UNL A   1      39.965  27.064  27.575  1.00  0.00     0.006 A 
ENDBRANCH  27  41
BRANCH  28  49
ATOM     49  C   UNL A   1      40.150  33.765  38.496  1.00  0.00     0.057 A 
ATOM     50  C   UNL A   1      40.898  34.940  38.631  1.00  0.00     0.134 A 
ATOM     51  C   UNL A   1      39.412  33.337  39.607  1.00  0.00     0.134 A 
ATOM     52  F   UNL A   1      41.636  35.392  37.607  1.00  0.00    -0.206 F 
ATOM     53  C   UNL A   1      40.927  35.651  39.831  1.00  0.00     0.040 A 
ATOM     54  C   UNL A   1      39.408  34.055  40.802  1.00  0.00     0.040 A 
ATOM     55  F   UNL A   1      38.667  32.224  39.536  1.00  0.00    -0.206 F 
ATOM     56  C   UNL A   1      40.174  35.212  40.919  1.00  0.00     0.006 A 
ENDBRANCH  28  49
BRANCH  40  57
ATOM     57  C   UNL A   1      44.328  28.960  35.720  1.00  0.00     0.057 A 
ATOM     58  C   UNL A   1      45.587  29.482  35.397  1.00  0.00     0.134 A 
ATOM     59  C   UNL A   1      44.286  27.814  36.523  1.00  0.00     0.134 A 
ATOM     60  F   UNL A   1      45.692  30.567  34.617  1.00  0.00    -0.206 F 
ATOM     61  C   UNL A   1      46.762  28.866  35.828  1.00  0.00     0.040 A 
ATOM     62  C   UNL A   1      45.454  27.204  36.982  1.00  0.00     0.040 A 
ATOM     63  F   UNL A   1      43.111  27.268  36.872  1.00  0.00    -0.206 F 
ATOM     64  C   UNL A   1      46.698  27.726  36.626  1.00  0.00     0.006 A 
ENDBRANCH  40  57
ENDBRANCH  14  15
ENDBRANCH   7   9
ENDBRANCH   4   5
ENDBRANCH   3   4
ENDBRANCH   2   3
ENDBRANCH   1   2
BRANCH   1  65
ATOM     65  C   UNL A   1      34.866  31.208  27.702  1.00  0.00     0.021 C 
BRANCH  65  66
ATOM     66  C   UNL A   1      33.971  30.286  26.884  1.00  0.00     0.116 C 
BRANCH  66  67
ATOM     67  N   UNL A   1      32.912  29.684  27.662  1.00  0.00    -0.356 N 
ATOM     68  C   UNL A   1      32.119  28.623  27.353  1.00  0.00     0.225 C 
ATOM     69  H   UNL A   1      32.741  30.100  28.538  1.00  0.00     0.163 HD
ATOM     70  O   UNL A   1      31.440  28.140  28.258  1.00  0.00    -0.275 OA
BRANCH  68  71
ATOM     71  C   UNL A   1      32.098  28.070  25.941  1.00  0.00     0.107 C 
ATOM     72  C   UNL A   1      31.182  28.933  25.083  1.00  0.00     0.133 C 
ATOM     73  C   UNL A   1      31.469  26.662  25.871  1.00  0.00     0.053 C 
ATOM     74  N   UNL A   1      30.630  28.037  24.088  1.00  0.00    -0.341 N 
ATOM     75  C   UNL A   1      30.663  26.659  24.555  1.00  0.00     0.128 C 
BRANCH  73  76
ATOM     76  C   UNL A   1      32.530  25.580  26.006  1.00  0.00    -0.038 A 
ATOM     77  C   UNL A   1      33.808  25.803  25.436  1.00  0.00     0.008 A 
ATOM     78  C   UNL A   1      32.258  24.328  26.586  1.00  0.00     0.054 A 
ATOM     79  C   UNL A   1      34.781  24.797  25.408  1.00  0.00     0.051 A 
ATOM     80  C   UNL A   1      33.245  23.362  26.561  1.00  0.00     0.166 A 
ATOM     81  C   UNL A   1      34.466  23.585  25.977  1.00  0.00     0.165 A 
ATOM     82  O   UNL A   1      33.131  22.101  27.062  1.00  0.00    -0.454 OA
ATOM     83  O   UNL A   1      35.270  22.489  26.016  1.00  0.00    -0.454 OA
ATOM     84  C   UNL A   1      34.433  21.564  26.742  1.00  0.00     0.468 C 
ENDBRANCH  73  76
BRANCH  74  85
ATOM     85  C   UNL A   1      29.975  28.369  22.926  1.00  0.00     0.222 C 
ATOM     86  O   UNL A   1      30.467  28.154  21.816  1.00  0.00    -0.275 OA
BRANCH  85  87
ATOM     87  C   UNL A   1      28.608  29.020  23.024  1.00  0.00     0.109 C 
BRANCH  87  88
ATOM     88  C   UNL A   1      28.568  30.395  22.368  1.00  0.00     0.125 C 
BRANCH  88  89
ATOM     89  C   UNL A   1      28.350  31.517  23.354  1.00  0.00     0.389 C 
ATOM     90  F   UNL A   1      29.315  31.520  24.300  1.00  0.00    -0.171 F 
ATOM     91  F   UNL A   1      28.395  32.714  22.728  1.00  0.00    -0.171 F 
ATOM     92  F   UNL A   1      27.157  31.423  23.969  1.00  0.00    -0.171 F 
ENDBRANCH  88  89
ENDBRANCH  87  88
ENDBRANCH  85  87
ENDBRANCH  74  85
ENDBRANCH  68  71
ENDBRANCH  66  67
ENDBRANCH  65  66
ENDBRANCH   1  65
TORSDOF 18
ENDMDL
MODEL 2
REMARK VINA RESULT:     -12.0      6.004     10.281
REMARK SMILES O=C(NCCCCCCNC(=O)[C@@H]1CN(C(=O)CCC(F)(F)F)C[C@H]1c1ccc2c(c1)OCO2)c1ccc(-c2c3nc(c(-c4c(F)cccc4F)c4ccc([nH]4)c(-c4c(F)cccc4F)c4nc(c(-c5c(F)cccc5F)c5ccc2[nH]5)C=C4)C=C3)cc1
REMARK SMILES IDX 7 1 6 2 5 3 4 4 3 5 1 6 2 7 35 9 36 10 88 11 37 12 87 13
REMARK SMILES IDX 38 14 39 15 40 16 81 17 41 18 86 19 80 20 82 21 42 22 85 23
REMARK SMILES IDX 79 24 78 25 43 27 69 28 52 29 68 30 53 31 56 32 67 33 83 34
REMARK SMILES IDX 54 35 55 36 66 38 84 39 57 40 44 41 45 42 50 43 46 44 47 45
REMARK SMILES IDX 49 46 51 47 48 48 70 49 71 50 76 51 72 52 73 53 75 54 77 55
REMARK SMILES IDX 74 56 58 57 59 58 64 59 60 60 61 61 63 62 65 63 62 64 8 65
REMARK SMILES IDX 9 66 10 67 11 68 12 70 13 71 14 72 25 73 15 74 24 75 26 76
REMARK SMILES IDX 27 77 31 78 28 79 30 80 29 81 32 82 34 83 33 84 16 85 17 86
REMARK SMILES IDX 18 87 19 88 20 89 21 90 22 91 23 92
REMARK H PARENT 3 8 82 26 56 37 10 69
REMARK Flexibility Score: inf
ROOT
ATOM      1  C   UNL A   1      36.869  21.779  24.261  1.00  0.00     0.002 C 
ENDROOT
BRANCH   1   2
ATOM      2  C   UNL A   1      36.615  20.424  24.931  1.00  0.00     0.002 C 
BRANCH   2   3
ATOM      3  C   UNL A   1      37.793  19.454  24.985  1.00  0.00     0.021 C 
BRANCH   3   4
ATOM      4  C   UNL A   1      38.992  19.917  25.793  1.00  0.00     0.116 C 
BRANCH   4   5
ATOM      5  N   UNL A   1      40.112  18.993  25.751  1.00  0.00    -0.352 N 
ATOM      6  O   UNL A   1      42.282  18.372  25.799  1.00  0.00    -0.269 OA
ATOM      7  C   UNL A   1      41.447  19.248  25.971  1.00  0.00     0.251 C 
ATOM      8  H   UNL A   1      39.885  18.059  25.536  1.00  0.00     0.163 HD
BRANCH   7   9
ATOM      9  C   UNL A   1      41.871  20.606  26.390  1.00  0.00     0.039 A 
ATOM     10  C   UNL A   1      42.077  21.612  25.444  1.00  0.00     0.014 A 
ATOM     11  C   UNL A   1      42.076  20.871  27.747  1.00  0.00     0.014 A 
ATOM     12  C   UNL A   1      42.632  22.824  25.835  1.00  0.00     0.010 A 
ATOM     13  C   UNL A   1      42.537  22.129  28.151  1.00  0.00     0.010 A 
ATOM     14  C   UNL A   1      42.843  23.108  27.194  1.00  0.00    -0.014 A 
BRANCH  14  15
ATOM     15  C   UNL A   1      43.295  24.472  27.572  1.00  0.00     0.031 A 
ATOM     16  C   UNL A   1      44.725  24.906  27.415  1.00  0.00     0.074 A 
ATOM     17  C   UNL A   1      42.367  25.344  28.012  1.00  0.00     0.049 A 
ATOM     18  N   UNL A   1      45.254  26.082  27.643  1.00  0.00    -0.248 NA
ATOM     19  C   UNL A   1      45.688  23.896  26.950  1.00  0.00     0.031 C 
ATOM     20  C   UNL A   1      40.952  25.026  28.232  1.00  0.00     0.029 A 
ATOM     21  N   UNL A   1      42.457  26.676  28.323  1.00  0.00    -0.354 N 
ATOM     22  C   UNL A   1      46.609  25.954  27.363  1.00  0.00     0.074 A 
ATOM     23  C   UNL A   1      46.827  24.577  26.971  1.00  0.00     0.031 C 
ATOM     24  C   UNL A   1      40.298  26.143  28.575  1.00  0.00     0.029 A 
ATOM     25  C   UNL A   1      41.252  27.239  28.667  1.00  0.00     0.049 A 
ATOM     26  H   UNL A   1      43.303  27.180  28.301  1.00  0.00     0.167 HD
ATOM     27  C   UNL A   1      47.576  26.901  27.422  1.00  0.00     0.037 A 
ATOM     28  C   UNL A   1      40.947  28.498  29.029  1.00  0.00     0.037 A 
ATOM     29  C   UNL A   1      47.350  28.273  27.806  1.00  0.00     0.049 A 
ATOM     30  C   UNL A   1      42.039  29.523  29.079  1.00  0.00     0.074 A 
ATOM     31  C   UNL A   1      48.266  29.308  27.887  1.00  0.00     0.029 A 
ATOM     32  N   UNL A   1      46.120  28.800  28.172  1.00  0.00    -0.354 N 
ATOM     33  N   UNL A   1      43.311  29.387  28.794  1.00  0.00    -0.248 NA
ATOM     34  C   UNL A   1      41.656  30.875  29.507  1.00  0.00     0.031 C 
ATOM     35  C   UNL A   1      47.597  30.454  28.332  1.00  0.00     0.029 A 
ATOM     36  C   UNL A   1      46.256  30.143  28.488  1.00  0.00     0.049 A 
ATOM     37  H   UNL A   1      45.276  28.296  28.202  1.00  0.00     0.167 HD
ATOM     38  C   UNL A   1      43.882  30.633  29.007  1.00  0.00     0.074 A 
ATOM     39  C   UNL A   1      42.808  31.521  29.408  1.00  0.00     0.031 C 
ATOM     40  C   UNL A   1      45.179  31.007  28.896  1.00  0.00     0.037 A 
BRANCH  27  41
ATOM     41  C   UNL A   1      48.977  26.493  27.067  1.00  0.00     0.057 A 
ATOM     42  C   UNL A   1      49.871  26.013  28.032  1.00  0.00     0.134 A 
ATOM     43  C   UNL A   1      49.413  26.514  25.735  1.00  0.00     0.134 A 
ATOM     44  F   UNL A   1      49.518  25.975  29.326  1.00  0.00    -0.206 F 
ATOM     45  C   UNL A   1      51.152  25.578  27.687  1.00  0.00     0.040 A 
ATOM     46  C   UNL A   1      50.685  26.062  25.376  1.00  0.00     0.040 A 
ATOM     47  F   UNL A   1      48.605  26.956  24.760  1.00  0.00    -0.206 F 
ATOM     48  C   UNL A   1      51.559  25.594  26.355  1.00  0.00     0.006 A 
ENDBRANCH  27  41
BRANCH  28  49
ATOM     49  C   UNL A   1      39.550  28.847  29.385  1.00  0.00     0.057 A 
ATOM     50  C   UNL A   1      39.066  28.678  30.687  1.00  0.00     0.134 A 
ATOM     51  C   UNL A   1      38.667  29.366  28.429  1.00  0.00     0.134 A 
ATOM     52  F   UNL A   1      39.860  28.173  31.641  1.00  0.00    -0.206 F 
ATOM     53  C   UNL A   1      37.749  28.994  31.021  1.00  0.00     0.040 A 
ATOM     54  C   UNL A   1      37.357  29.714  28.757  1.00  0.00     0.040 A 
ATOM     55  F   UNL A   1      39.074  29.561  27.166  1.00  0.00    -0.206 F 
ATOM     56  C   UNL A   1      36.892  29.520  30.056  1.00  0.00     0.006 A 
ENDBRANCH  28  49
BRANCH  40  57
ATOM     57  C   UNL A   1      45.493  32.439  29.209  1.00  0.00     0.057 A 
ATOM     58  C   UNL A   1      45.422  33.437  28.229  1.00  0.00     0.134 A 
ATOM     59  C   UNL A   1      45.874  32.822  30.500  1.00  0.00     0.134 A 
ATOM     60  F   UNL A   1      45.079  33.129  26.969  1.00  0.00    -0.206 F 
ATOM     61  C   UNL A   1      45.752  34.762  28.514  1.00  0.00     0.040 A 
ATOM     62  C   UNL A   1      46.183  34.148  30.805  1.00  0.00     0.040 A 
ATOM     63  F   UNL A   1      45.957  31.914  31.485  1.00  0.00    -0.206 F 
ATOM     64  C   UNL A   1      46.130  35.122  29.807  1.00  0.00     0.006 A 
ENDBRANCH  40  57
ENDBRANCH  14  15
ENDBRANCH   7   9
ENDBRANCH   4   5
ENDBRANCH   3   4
ENDBRANCH   2   3
ENDBRANCH   1   2
BRANCH   1  65
ATOM     65  C   UNL A   1      37.407  22.909  25.147  1.00  0.00     0.021 C 
BRANCH  65  66
ATOM     66  C   UNL A   1      36.363  23.834  25.760  1.00  0.00     0.116 C 
BRANCH  66  67
ATOM     67  N   UNL A   1      35.660  23.239  26.874  1.00  0.00    -0.356 N 
ATOM     68  C   UNL A   1      34.397  22.738  26.920  1.00  0.00     0.225 C 
ATOM     69  H   UNL A   1      36.167  23.189  27.717  1.00  0.00     0.163 HD
ATOM     70  O   UNL A   1      34.086  22.073  27.908  1.00  0.00    -0.275 OA
BRANCH  68  71
ATOM     71  C   UNL A   1      33.430  22.995  25.780  1.00  0.00     0.107 C 
ATOM     72  C   UNL A   1      32.798  24.368  25.964  1.00  0.00     0.133 C 
ATOM     73  C   UNL A   1      32.232  22.021  25.794  1.00  0.00     0.053 C 
ATOM     74  N   UNL A   1      31.475  24.264  25.387  1.00  0.00    -0.341 N 
ATOM     75  C   UNL A   1      31.024  22.881  25.366  1.00  0.00     0.128 C 
BRANCH  73  76
ATOM     76  C   UNL A   1      32.514  20.793  24.941  1.00  0.00    -0.038 A 
ATOM     77  C   UNL A   1      32.153  20.818  23.570  1.00  0.00     0.008 A 
ATOM     78  C   UNL A   1      33.025  19.601  25.484  1.00  0.00     0.054 A 
ATOM     79  C   UNL A   1      32.261  19.677  22.766  1.00  0.00     0.051 A 
ATOM     80  C   UNL A   1      33.138  18.497  24.660  1.00  0.00     0.166 A 
ATOM     81  C   UNL A   1      32.754  18.530  23.344  1.00  0.00     0.165 A 
ATOM     82  O   UNL A   1      33.595  17.272  25.037  1.00  0.00    -0.454 OA
ATOM     83  O   UNL A   1      32.901  17.327  22.728  1.00  0.00    -0.454 OA
ATOM     84  C   UNL A   1      33.473  16.543  23.797  1.00  0.00     0.468 C 
ENDBRANCH  73  76
BRANCH  74  85
ATOM     85  C   UNL A   1      30.617  25.286  25.053  1.00  0.00     0.222 C 
ATOM     86  O   UNL A   1      29.902  25.837  25.891  1.00  0.00    -0.275 OA
BRANCH  85  87
ATOM     87  C   UNL A   1      30.558  25.738  23.606  1.00  0.00     0.109 C 
BRANCH  87  88
ATOM     88  C   UNL A   1      31.893  26.280  23.108  1.00  0.00     0.125 C 
BRANCH  88  89
ATOM     89  C   UNL A   1      32.668  25.282  22.283  1.00  0.00     0.389 C 
ATOM     90  F   UNL A   1      32.689  25.648  20.982  1.00  0.00    -0.171 F 
ATOM     91  F   UNL A   1      33.951  25.214  22.703  1.00  0.00    -0.171 F 
ATOM     92  F   UNL A   1      32.146  24.045  22.364  1.00  0.00    -0.171 F 
ENDBRANCH  88  89
ENDBRANCH  87  88
ENDBRANCH  85  87
ENDBRANCH  74  85
ENDBRANCH  68  71
ENDBRANCH  66  67
ENDBRANCH  65  66
ENDBRANCH   1  65
TORSDOF 18
ENDMDL
MODEL 3
REMARK VINA RESULT:     -11.9      0.376      6.058
REMARK SMILES O=C(NCCCCCCNC(=O)[C@@H]1CN(C(=O)CCC(F)(F)F)C[C@H]1c1ccc2c(c1)OCO2)c1ccc(-c2c3nc(c(-c4c(F)cccc4F)c4ccc([nH]4)c(-c4c(F)cccc4F)c4nc(c(-c5c(F)cccc5F)c5ccc2[nH]5)C=C4)C=C3)cc1
REMARK SMILES IDX 7 1 6 2 5 3 4 4 3 5 1 6 2 7 35 9 36 10 88 11 37 12 87 13
REMARK SMILES IDX 38 14 39 15 40 16 81 17 41 18 86 19 80 20 82 21 42 22 85 23
REMARK SMILES IDX 79 24 78 25 43 27 69 28 52 29 68 30 53 31 56 32 67 33 83 34
REMARK SMILES IDX 54 35 55 36 66 38 84 39 57 40 44 41 45 42 50 43 46 44 47 45
REMARK SMILES IDX 49 46 51 47 48 48 70 49 71 50 76 51 72 52 73 53 75 54 77 55
REMARK SMILES IDX 74 56 58 57 59 58 64 59 60 60 61 61 63 62 65 63 62 64 8 65
REMARK SMILES IDX 9 66 10 67 11 68 12 70 13 71 14 72 25 73 15 74 24 75 26 76
REMARK SMILES IDX 27 77 31 78 28 79 30 80 29 81 32 82 34 83 33 84 16 85 17 86
REMARK SMILES IDX 18 87 19 88 20 89 21 90 22 91 23 92
REMARK H PARENT 3 8 82 26 56 37 10 69
REMARK Flexibility Score: inf
ROOT
ATOM      1  C   UNL A   1      34.153  32.039  28.690  1.00  0.00     0.002 C 
ENDROOT
BRANCH   1   2
ATOM      2  C   UNL A   1      34.442  33.543  28.658  1.00  0.00     0.002 C 
BRANCH   2   3
ATOM      3  C   UNL A   1      33.233  34.472  28.576  1.00  0.00     0.021 C 
BRANCH   3   4
ATOM      4  C   UNL A   1      33.414  35.847  29.193  1.00  0.00     0.116 C 
BRANCH   4   5
ATOM      5  N   UNL A   1      32.528  36.101  30.315  1.00  0.00    -0.352 N 
ATOM      6  O   UNL A   1      31.775  35.919  32.436  1.00  0.00    -0.269 OA
ATOM      7  C   UNL A   1      32.667  35.708  31.628  1.00  0.00     0.251 C 
ATOM      8  H   UNL A   1      31.719  36.623  30.110  1.00  0.00     0.163 HD
BRANCH   7   9
ATOM      9  C   UNL A   1      33.898  34.995  32.050  1.00  0.00     0.039 A 
ATOM     10  C   UNL A   1      35.116  35.669  32.144  1.00  0.00     0.014 A 
ATOM     11  C   UNL A   1      33.830  33.630  32.344  1.00  0.00     0.014 A 
ATOM     12  C   UNL A   1      36.284  34.955  32.379  1.00  0.00     0.010 A 
ATOM     13  C   UNL A   1      34.994  32.930  32.682  1.00  0.00     0.010 A 
ATOM     14  C   UNL A   1      36.235  33.583  32.678  1.00  0.00    -0.014 A 
BRANCH  14  15
ATOM     15  C   UNL A   1      37.493  32.898  33.070  1.00  0.00     0.031 A 
ATOM     16  C   UNL A   1      38.159  33.156  34.391  1.00  0.00     0.074 A 
ATOM     17  C   UNL A   1      38.001  31.981  32.223  1.00  0.00     0.049 A 
ATOM     18  N   UNL A   1      39.226  32.588  34.896  1.00  0.00    -0.248 NA
ATOM     19  C   UNL A   1      37.564  34.186  35.256  1.00  0.00     0.031 C 
ATOM     20  C   UNL A   1      37.456  31.665  30.899  1.00  0.00     0.029 A 
ATOM     21  N   UNL A   1      39.063  31.123  32.354  1.00  0.00    -0.354 N 
ATOM     22  C   UNL A   1      39.437  33.194  36.129  1.00  0.00     0.074 A 
ATOM     23  C   UNL A   1      38.401  34.195  36.286  1.00  0.00     0.031 C 
ATOM     24  C   UNL A   1      38.142  30.644  30.371  1.00  0.00     0.029 A 
ATOM     25  C   UNL A   1      39.216  30.276  31.284  1.00  0.00     0.049 A 
ATOM     26  H   UNL A   1      39.657  31.115  33.139  1.00  0.00     0.167 HD
ATOM     27  C   UNL A   1      40.401  32.934  37.044  1.00  0.00     0.037 A 
ATOM     28  C   UNL A   1      40.127  29.314  31.053  1.00  0.00     0.037 A 
ATOM     29  C   UNL A   1      41.426  31.931  36.885  1.00  0.00     0.049 A 
ATOM     30  C   UNL A   1      41.178  29.047  32.087  1.00  0.00     0.074 A 
ATOM     31  C   UNL A   1      42.441  31.587  37.762  1.00  0.00     0.029 A 
ATOM     32  N   UNL A   1      41.563  31.109  35.775  1.00  0.00    -0.354 N 
ATOM     33  N   UNL A   1      41.350  29.619  33.254  1.00  0.00    -0.248 NA
ATOM     34  C   UNL A   1      42.164  28.005  31.773  1.00  0.00     0.031 C 
ATOM     35  C   UNL A   1      43.211  30.580  37.169  1.00  0.00     0.029 A 
ATOM     36  C   UNL A   1      42.651  30.267  35.942  1.00  0.00     0.049 A 
ATOM     37  H   UNL A   1      40.975  31.122  34.987  1.00  0.00     0.167 HD
ATOM     38  C   UNL A   1      42.463  29.009  33.813  1.00  0.00     0.074 A 
ATOM     39  C   UNL A   1      42.900  27.996  32.873  1.00  0.00     0.031 C 
ATOM     40  C   UNL A   1      43.078  29.273  34.992  1.00  0.00     0.037 A 
BRANCH  27  41
ATOM     41  C   UNL A   1      40.405  33.747  38.307  1.00  0.00     0.057 A 
ATOM     42  C   UNL A   1      39.620  33.395  39.411  1.00  0.00     0.134 A 
ATOM     43  C   UNL A   1      41.256  34.851  38.444  1.00  0.00     0.134 A 
ATOM     44  F   UNL A   1      38.778  32.352  39.342  1.00  0.00    -0.206 F 
ATOM     45  C   UNL A   1      39.673  34.118  40.604  1.00  0.00     0.040 A 
ATOM     46  C   UNL A   1      41.333  35.570  39.639  1.00  0.00     0.040 A 
ATOM     47  F   UNL A   1      42.041  35.238  37.427  1.00  0.00    -0.206 F 
ATOM     48  C   UNL A   1      40.538  35.205  40.723  1.00  0.00     0.006 A 
ENDBRANCH  27  41
BRANCH  28  49
ATOM     49  C   UNL A   1      40.089  28.549  29.782  1.00  0.00     0.057 A 
ATOM     50  C   UNL A   1      39.303  27.399  29.648  1.00  0.00     0.134 A 
ATOM     51  C   UNL A   1      40.833  28.956  28.668  1.00  0.00     0.134 A 
ATOM     52  F   UNL A   1      38.579  26.951  30.685  1.00  0.00    -0.206 F 
ATOM     53  C   UNL A   1      39.274  26.670  28.459  1.00  0.00     0.040 A 
ATOM     54  C   UNL A   1      40.790  28.255  27.464  1.00  0.00     0.040 A 
ATOM     55  F   UNL A   1      41.597  30.056  28.730  1.00  0.00    -0.206 F 
ATOM     56  C   UNL A   1      40.014  27.102  27.359  1.00  0.00     0.006 A 
ENDBRANCH  28  49
BRANCH  40  57
ATOM     57  C   UNL A   1      44.282  28.443  35.319  1.00  0.00     0.057 A 
ATOM     58  C   UNL A   1      44.172  27.234  36.020  1.00  0.00     0.134 A 
ATOM     59  C   UNL A   1      45.563  28.857  34.936  1.00  0.00     0.134 A 
ATOM     60  F   UNL A   1      42.973  26.793  36.429  1.00  0.00    -0.206 F 
ATOM     61  C   UNL A   1      45.298  26.484  36.357  1.00  0.00     0.040 A 
ATOM     62  C   UNL A   1      46.695  28.103  35.245  1.00  0.00     0.040 A 
ATOM     63  F   UNL A   1      45.735  30.003  34.259  1.00  0.00    -0.206 F 
ATOM     64  C   UNL A   1      46.564  26.916  35.966  1.00  0.00     0.006 A 
ENDBRANCH  40  57
ENDBRANCH  14  15
ENDBRANCH   7   9
ENDBRANCH   4   5
ENDBRANCH   3   4
ENDBRANCH   2   3
ENDBRANCH   1   2
BRANCH   1  65
ATOM     65  C   UNL A   1      34.912  31.158  27.691  1.00  0.00     0.021 C 
BRANCH  65  66
ATOM     66  C   UNL A   1      34.066  30.185  26.879  1.00  0.00     0.116 C 
BRANCH  66  67
ATOM     67  N   UNL A   1      32.952  29.642  27.623  1.00  0.00    -0.356 N 
ATOM     68  C   UNL A   1      32.114  28.625  27.288  1.00  0.00     0.225 C 
ATOM     69  H   UNL A   1      32.777  30.067  28.493  1.00  0.00     0.163 HD
ATOM     70  O   UNL A   1      31.382  28.179  28.171  1.00  0.00    -0.275 OA
BRANCH  68  71
ATOM     71  C   UNL A   1      32.107  28.072  25.875  1.00  0.00     0.107 C 
ATOM     72  C   UNL A   1      31.217  28.947  25.003  1.00  0.00     0.133 C 
ATOM     73  C   UNL A   1      31.460  26.673  25.795  1.00  0.00     0.053 C 
ATOM     74  N   UNL A   1      30.669  28.060  24.000  1.00  0.00    -0.341 N 
ATOM     75  C   UNL A   1      30.675  26.681  24.466  1.00  0.00     0.128 C 
BRANCH  73  76
ATOM     76  C   UNL A   1      32.504  25.576  25.947  1.00  0.00    -0.038 A 
ATOM     77  C   UNL A   1      33.798  25.786  25.408  1.00  0.00     0.008 A 
ATOM     78  C   UNL A   1      32.202  24.323  26.511  1.00  0.00     0.054 A 
ATOM     79  C   UNL A   1      34.758  24.768  25.396  1.00  0.00     0.051 A 
ATOM     80  C   UNL A   1      33.177  23.345  26.502  1.00  0.00     0.166 A 
ATOM     81  C   UNL A   1      34.414  23.556  25.947  1.00  0.00     0.165 A 
ATOM     82  O   UNL A   1      33.036  22.082  26.990  1.00  0.00    -0.454 OA
ATOM     83  O   UNL A   1      35.203  22.450  25.997  1.00  0.00    -0.454 OA
ATOM     84  C   UNL A   1      34.337  21.530  26.697  1.00  0.00     0.468 C 
ENDBRANCH  73  76
BRANCH  74  85
ATOM     85  C   UNL A   1      30.037  28.400  22.827  1.00  0.00     0.222 C 
ATOM     86  O   UNL A   1      30.474  28.056  21.728  1.00  0.00    -0.275 OA
BRANCH  85  87
ATOM     87  C   UNL A   1      28.767  29.226  22.902  1.00  0.00     0.109 C 
BRANCH  87  88
ATOM     88  C   UNL A   1      28.901  30.569  22.192  1.00  0.00     0.125 C 
BRANCH  88  89
ATOM     89  C   UNL A   1      28.589  31.745  23.085  1.00  0.00     0.389 C 
ATOM     90  F   UNL A   1      29.216  31.624  24.276  1.00  0.00    -0.171 F 
ATOM     91  F   UNL A   1      29.016  32.896  22.519  1.00  0.00    -0.171 F 
ATOM     92  F   UNL A   1      27.268  31.869  23.314  1.00  0.00    -0.171 F 
ENDBRANCH  88  89
ENDBRANCH  87  88
ENDBRANCH  85  87
ENDBRANCH  74  85
ENDBRANCH  68  71
ENDBRANCH  66  67
ENDBRANCH  65  66
ENDBRANCH   1  65
TORSDOF 18
ENDMDL
