MODEL 1
REMARK VINA RESULT:      -9.5      0.000      0.000
REMARK SMILES Cc1ccc(S(=O)(=O)n2cc(C(=O)C(=O)N[C@@H](Cc3cnc[nH]3)C(=O)NCCCCCCNC(=O)c3ccc(-c4c5nc(c(-c6c(F)cccc6F)c6ccc([nH]6)c(-c6c(F)cccc6F)c6nc(c(-c7c(F)cccc7F)c7ccc4[nH]7)C=C6)C=C5)cc3)c3ccccc32)cc1
REMARK SMILES IDX 28 1 27 2 26 3 24 4 25 5 17 7 16 8 14 9 15 10 12 12 13 13
REMARK SMILES IDX 11 14 9 15 10 16 95 17 90 18 94 19 91 20 93 21 92 22 6 23
REMARK SMILES IDX 7 24 8 25 5 26 1 27 2 28 3 29 97 30 4 31 96 32 18 33 19 34
REMARK SMILES IDX 20 35 23 36 21 37 22 38 29 40 30 41 31 42 32 43 33 44 34 45
REMARK SMILES IDX 35 47 36 48 37 49 89 50 38 51 88 52 39 53 40 54 41 55 82 56
REMARK SMILES IDX 42 57 87 58 81 59 83 60 43 61 86 62 80 63 79 64 44 66 70 67
REMARK SMILES IDX 53 68 69 69 54 70 57 71 68 72 84 73 55 74 56 75 67 77 85 78
REMARK SMILES IDX 58 79 45 80 46 81 51 82 47 83 48 84 50 85 52 86 49 87 71 88
REMARK SMILES IDX 72 89 77 90 73 91 74 92 76 93 78 94 75 95 59 96 60 97 65 98
REMARK SMILES IDX 61 99 62 100 64 101 66 102 63 103
REMARK H PARENT 26 6 16 11 23 39 33 46 83 65 57 76
REMARK Flexibility Score: inf
ROOT
ATOM      1  C   UNL A   1      45.738  23.890  27.884  1.00  0.00     0.021 C 
ENDROOT
BRANCH   1   2
ATOM      2  C   UNL A   1      44.887  22.692  27.495  1.00  0.00     0.116 C 
BRANCH   2   3
ATOM      3  N   UNL A   1      44.529  22.616  26.101  1.00  0.00    -0.354 N 
ATOM      4  C   UNL A   1      43.378  22.118  25.556  1.00  0.00     0.242 C 
ATOM      5  O   UNL A   1      43.011  22.624  24.489  1.00  0.00    -0.273 OA
ATOM      6  H   UNL A   1      45.193  22.966  25.464  1.00  0.00     0.163 HD
BRANCH   4   7
ATOM      7  C   UNL A   1      42.491  21.062  26.266  1.00  0.00     0.177 C 
BRANCH   7   8
ATOM      8  N   UNL A   1      41.090  21.480  26.431  1.00  0.00    -0.337 N 
ATOM      9  C   UNL A   1      40.538  22.612  26.990  1.00  0.00     0.293 C 
ATOM     10  O   UNL A   1      39.342  22.810  26.803  1.00  0.00    -0.265 OA
ATOM     11  H   UNL A   1      40.431  20.838  26.081  1.00  0.00     0.164 HD
BRANCH   9  12
ATOM     12  C   UNL A   1      41.371  23.582  27.865  1.00  0.00     0.252 C 
ATOM     13  O   UNL A   1      41.877  23.152  28.897  1.00  0.00    -0.283 OA
BRANCH  12  14
ATOM     14  C   UNL A   1      41.534  25.001  27.523  1.00  0.00     0.054 A 
ATOM     15  N   UNL A   1      42.212  26.922  26.610  1.00  0.00    -0.240 N 
ATOM     16  C   UNL A   1      42.454  25.574  26.664  1.00  0.00     0.117 A 
ATOM     17  C   UNL A   1      41.152  27.274  27.419  1.00  0.00     0.065 A 
ATOM     18  C   UNL A   1      40.731  26.086  28.031  1.00  0.00     0.012 A 
ATOM     19  C   UNL A   1      40.537  28.508  27.696  1.00  0.00     0.028 A 
ATOM     20  C   UNL A   1      39.669  26.151  28.962  1.00  0.00     0.011 A 
ATOM     21  C   UNL A   1      39.499  28.538  28.632  1.00  0.00     0.002 A 
ATOM     22  C   UNL A   1      39.071  27.376  29.261  1.00  0.00     0.001 A 
BRANCH  15  23
ATOM     23  S   UNL A   1      43.141  28.011  25.688  1.00  0.00     0.268 S 
ATOM     24  O   UNL A   1      43.198  29.223  26.477  1.00  0.00    -0.201 OA
ATOM     25  O   UNL A   1      42.568  27.987  24.352  1.00  0.00    -0.201 OA
BRANCH  23  26
ATOM     26  C   UNL A   1      44.788  27.365  25.561  1.00  0.00     0.088 A 
ATOM     27  C   UNL A   1      48.830  25.900  25.649  1.00  0.00     0.044 C 
ATOM     28  C   UNL A   1      47.421  26.415  25.592  1.00  0.00    -0.051 A 
ATOM     29  C   UNL A   1      47.126  27.690  26.090  1.00  0.00     0.005 A 
ATOM     30  C   UNL A   1      46.392  25.638  25.048  1.00  0.00     0.005 A 
ATOM     31  C   UNL A   1      45.814  28.163  26.080  1.00  0.00     0.022 A 
ATOM     32  C   UNL A   1      45.078  26.113  25.018  1.00  0.00     0.022 A 
ENDBRANCH  23  26
ENDBRANCH  15  23
ENDBRANCH  12  14
ENDBRANCH   9  12
ENDBRANCH   7   8
BRANCH   7  33
ATOM     33  C   UNL A   1      42.653  19.619  25.750  1.00  0.00     0.090 C 
BRANCH  33  34
ATOM     34  C   UNL A   1      44.012  19.214  25.293  1.00  0.00     0.037 A 
ATOM     35  C   UNL A   1      44.645  19.274  24.069  1.00  0.00     0.134 A 
ATOM     36  N   UNL A   1      44.924  18.602  26.121  1.00  0.00    -0.348 N 
ATOM     37  N   UNL A   1      45.938  18.829  24.168  1.00  0.00    -0.245 NA
ATOM     38  C   UNL A   1      46.070  18.409  25.405  1.00  0.00     0.196 A 
ATOM     39  H   UNL A   1      44.776  18.348  27.061  1.00  0.00     0.167 HD
ENDBRANCH  33  34
ENDBRANCH   7  33
ENDBRANCH   4   7
ENDBRANCH   2   3
ENDBRANCH   1   2
BRANCH   1  40
ATOM     40  C   UNL A   1      45.084  24.875  28.857  1.00  0.00     0.002 C 
BRANCH  40  41
ATOM     41  C   UNL A   1      44.930  24.415  30.317  1.00  0.00     0.002 C 
BRANCH  41  42
ATOM     42  C   UNL A   1      44.604  25.495  31.348  1.00  0.00     0.021 C 
BRANCH  42  43
ATOM     43  C   UNL A   1      45.680  25.732  32.389  1.00  0.00     0.116 C 
BRANCH  43  44
ATOM     44  N   UNL A   1      47.016  25.345  31.952  1.00  0.00    -0.352 N 
ATOM     45  C   UNL A   1      47.908  26.008  31.127  1.00  0.00     0.251 C 
ATOM     46  H   UNL A   1      47.333  24.480  32.298  1.00  0.00     0.163 HD
ATOM     47  O   UNL A   1      48.984  25.486  30.848  1.00  0.00    -0.269 OA
BRANCH  45  48
ATOM     48  C   UNL A   1      47.656  27.423  30.753  1.00  0.00     0.039 A 
ATOM     49  C   UNL A   1      47.690  28.341  31.811  1.00  0.00     0.014 A 
ATOM     50  C   UNL A   1      46.982  27.724  29.578  1.00  0.00     0.014 A 
ATOM     51  C   UNL A   1      46.742  29.349  31.845  1.00  0.00     0.010 A 
ATOM     52  C   UNL A   1      45.950  28.621  29.664  1.00  0.00     0.010 A 
ATOM     53  C   UNL A   1      45.790  29.364  30.835  1.00  0.00    -0.014 A 
BRANCH  53  54
ATOM     54  C   UNL A   1      44.581  30.154  30.881  1.00  0.00     0.031 A 
ATOM     55  C   UNL A   1      44.703  31.558  30.482  1.00  0.00     0.074 A 
ATOM     56  C   UNL A   1      43.417  29.532  31.165  1.00  0.00     0.049 A 
ATOM     57  N   UNL A   1      43.947  32.505  30.902  1.00  0.00    -0.248 NA
ATOM     58  C   UNL A   1      45.783  32.022  29.617  1.00  0.00     0.031 C 
ATOM     59  C   UNL A   1      42.057  30.028  31.003  1.00  0.00     0.029 A 
ATOM     60  N   UNL A   1      43.262  28.318  31.845  1.00  0.00    -0.354 N 
ATOM     61  C   UNL A   1      44.228  33.618  30.136  1.00  0.00     0.074 A 
ATOM     62  C   UNL A   1      45.458  33.306  29.455  1.00  0.00     0.031 C 
ATOM     63  C   UNL A   1      41.233  29.300  31.783  1.00  0.00     0.029 A 
ATOM     64  C   UNL A   1      42.066  28.417  32.586  1.00  0.00     0.049 A 
ATOM     65  H   UNL A   1      43.870  27.544  31.812  1.00  0.00     0.167 HD
ATOM     66  C   UNL A   1      43.279  34.591  30.042  1.00  0.00     0.037 A 
ATOM     67  C   UNL A   1      42.112  28.419  33.953  1.00  0.00     0.037 A 
ATOM     68  C   UNL A   1      42.137  34.233  30.886  1.00  0.00     0.049 A 
ATOM     69  C   UNL A   1      41.691  29.750  34.537  1.00  0.00     0.074 A 
ATOM     70  C   UNL A   1      40.973  33.539  30.597  1.00  0.00     0.029 A 
ATOM     71  N   UNL A   1      42.286  34.203  32.267  1.00  0.00    -0.354 N 
ATOM     72  N   UNL A   1      41.744  30.879  33.883  1.00  0.00    -0.248 NA
ATOM     73  C   UNL A   1      41.168  29.907  35.891  1.00  0.00     0.031 C 
ATOM     74  C   UNL A   1      40.472  33.010  31.813  1.00  0.00     0.029 A 
ATOM     75  C   UNL A   1      41.309  33.410  32.842  1.00  0.00     0.049 A 
ATOM     76  H   UNL A   1      42.989  34.678  32.766  1.00  0.00     0.167 HD
ATOM     77  C   UNL A   1      41.298  31.891  34.689  1.00  0.00     0.074 A 
ATOM     78  C   UNL A   1      40.932  31.229  35.928  1.00  0.00     0.031 C 
ATOM     79  C   UNL A   1      41.272  33.195  34.281  1.00  0.00     0.037 A 
BRANCH  66  80
ATOM     80  C   UNL A   1      43.216  35.656  28.968  1.00  0.00     0.057 A 
ATOM     81  C   UNL A   1      43.275  37.020  29.327  1.00  0.00     0.134 A 
ATOM     82  C   UNL A   1      43.053  35.438  27.588  1.00  0.00     0.134 A 
ATOM     83  F   UNL A   1      43.511  37.407  30.588  1.00  0.00    -0.206 F 
ATOM     84  C   UNL A   1      43.098  38.065  28.411  1.00  0.00     0.040 A 
ATOM     85  C   UNL A   1      42.838  36.473  26.665  1.00  0.00     0.040 A 
ATOM     86  F   UNL A   1      43.148  34.221  27.045  1.00  0.00    -0.206 F 
ATOM     87  C   UNL A   1      42.852  37.795  27.075  1.00  0.00     0.006 A 
ENDBRANCH  66  80
BRANCH  67  88
ATOM     88  C   UNL A   1      43.216  27.561  34.478  1.00  0.00     0.057 A 
ATOM     89  C   UNL A   1      44.404  28.200  34.882  1.00  0.00     0.134 A 
ATOM     90  C   UNL A   1      42.962  26.296  35.015  1.00  0.00     0.134 A 
ATOM     91  F   UNL A   1      44.726  29.403  34.380  1.00  0.00    -0.206 F 
ATOM     92  C   UNL A   1      45.199  27.694  35.914  1.00  0.00     0.040 A 
ATOM     93  C   UNL A   1      43.769  25.768  36.030  1.00  0.00     0.040 A 
ATOM     94  F   UNL A   1      41.861  25.613  34.670  1.00  0.00    -0.206 F 
ATOM     95  C   UNL A   1      44.850  26.496  36.526  1.00  0.00     0.006 A 
ENDBRANCH  67  88
BRANCH  79  96
ATOM     96  C   UNL A   1      41.108  34.381  35.198  1.00  0.00     0.057 A 
ATOM     97  C   UNL A   1      39.894  35.056  35.393  1.00  0.00     0.134 A 
ATOM     98  C   UNL A   1      42.164  34.797  36.040  1.00  0.00     0.134 A 
ATOM     99  F   UNL A   1      38.768  34.672  34.777  1.00  0.00    -0.206 F 
ATOM    100  C   UNL A   1      39.765  36.128  36.283  1.00  0.00     0.040 A 
ATOM    101  C   UNL A   1      42.027  35.818  36.983  1.00  0.00     0.040 A 
ATOM    102  F   UNL A   1      43.371  34.212  36.006  1.00  0.00    -0.206 F 
ATOM    103  C   UNL A   1      40.831  36.508  37.087  1.00  0.00     0.006 A 
ENDBRANCH  79  96
ENDBRANCH  53  54
ENDBRANCH  45  48
ENDBRANCH  43  44
ENDBRANCH  42  43
ENDBRANCH  41  42
ENDBRANCH  40  41
ENDBRANCH   1  40
TORSDOF 20
ENDMDL
MODEL 2
REMARK VINA RESULT:      -8.7      4.188      7.616
REMARK SMILES Cc1ccc(S(=O)(=O)n2cc(C(=O)C(=O)N[C@@H](Cc3cnc[nH]3)C(=O)NCCCCCCNC(=O)c3ccc(-c4c5nc(c(-c6c(F)cccc6F)c6ccc([nH]6)c(-c6c(F)cccc6F)c6nc(c(-c7c(F)cccc7F)c7ccc4[nH]7)C=C6)C=C5)cc3)c3ccccc32)cc1
REMARK SMILES IDX 28 1 27 2 26 3 24 4 25 5 17 7 16 8 14 9 15 10 12 12 13 13
REMARK SMILES IDX 11 14 9 15 10 16 95 17 90 18 94 19 91 20 93 21 92 22 6 23
REMARK SMILES IDX 7 24 8 25 5 26 1 27 2 28 3 29 97 30 4 31 96 32 18 33 19 34
REMARK SMILES IDX 20 35 23 36 21 37 22 38 29 40 30 41 31 42 32 43 33 44 34 45
REMARK SMILES IDX 35 47 36 48 37 49 89 50 38 51 88 52 39 53 40 54 41 55 82 56
REMARK SMILES IDX 42 57 87 58 81 59 83 60 43 61 86 62 80 63 79 64 44 66 70 67
REMARK SMILES IDX 53 68 69 69 54 70 57 71 68 72 84 73 55 74 56 75 67 77 85 78
REMARK SMILES IDX 58 79 45 80 46 81 51 82 47 83 48 84 50 85 52 86 49 87 71 88
REMARK SMILES IDX 72 89 77 90 73 91 74 92 76 93 78 94 75 95 59 96 60 97 65 98
REMARK SMILES IDX 61 99 62 100 64 101 66 102 63 103
REMARK H PARENT 26 6 16 11 23 39 33 46 83 65 57 76
REMARK Flexibility Score: inf
ROOT
ATOM      1  C   UNL A   1      45.864  28.389  27.160  1.00  0.00     0.021 C 
ENDROOT
BRANCH   1   2
ATOM      2  C   UNL A   1      45.956  27.890  25.727  1.00  0.00     0.116 C 
BRANCH   2   3
ATOM      3  N   UNL A   1      46.274  26.492  25.580  1.00  0.00    -0.354 N 
ATOM      4  C   UNL A   1      45.440  25.477  25.203  1.00  0.00     0.242 C 
ATOM      5  O   UNL A   1      45.962  24.528  24.607  1.00  0.00    -0.273 OA
ATOM      6  H   UNL A   1      47.205  26.237  25.774  1.00  0.00     0.163 HD
BRANCH   4   7
ATOM      7  C   UNL A   1      43.900  25.531  25.386  1.00  0.00     0.177 C 
BRANCH   7   8
ATOM      8  N   UNL A   1      43.279  26.742  24.830  1.00  0.00    -0.337 N 
ATOM      9  C   UNL A   1      42.260  27.541  25.300  1.00  0.00     0.293 C 
ATOM     10  O   UNL A   1      42.082  28.620  24.743  1.00  0.00    -0.265 OA
ATOM     11  H   UNL A   1      43.658  27.034  23.969  1.00  0.00     0.164 HD
BRANCH   9  12
ATOM     12  C   UNL A   1      41.333  27.088  26.456  1.00  0.00     0.252 C 
ATOM     13  O   UNL A   1      40.580  26.138  26.265  1.00  0.00    -0.283 OA
BRANCH  12  14
ATOM     14  C   UNL A   1      41.296  27.785  27.750  1.00  0.00     0.054 A 
ATOM     15  N   UNL A   1      40.710  29.077  29.473  1.00  0.00    -0.240 N 
ATOM     16  C   UNL A   1      40.390  28.736  28.184  1.00  0.00     0.117 A 
ATOM     17  C   UNL A   1      41.816  28.383  29.916  1.00  0.00     0.065 A 
ATOM     18  C   UNL A   1      42.224  27.589  28.836  1.00  0.00     0.012 A 
ATOM     19  C   UNL A   1      42.513  28.387  31.138  1.00  0.00     0.028 A 
ATOM     20  C   UNL A   1      43.378  26.789  28.991  1.00  0.00     0.011 A 
ATOM     21  C   UNL A   1      43.659  27.594  31.250  1.00  0.00     0.002 A 
ATOM     22  C   UNL A   1      44.090  26.807  30.191  1.00  0.00     0.001 A 
BRANCH  15  23
ATOM     23  S   UNL A   1      39.861  30.244  30.376  1.00  0.00     0.268 S 
ATOM     24  O   UNL A   1      40.601  31.474  30.197  1.00  0.00    -0.201 OA
ATOM     25  O   UNL A   1      39.654  29.653  31.689  1.00  0.00    -0.201 OA
BRANCH  23  26
ATOM     26  C   UNL A   1      38.261  30.458  29.642  1.00  0.00     0.088 A 
ATOM     27  C   UNL A   1      34.569  31.185  27.561  1.00  0.00     0.044 C 
ATOM     28  C   UNL A   1      35.844  30.929  28.310  1.00  0.00    -0.051 A 
ATOM     29  C   UNL A   1      36.729  31.984  28.560  1.00  0.00     0.005 A 
ATOM     30  C   UNL A   1      36.166  29.644  28.766  1.00  0.00     0.005 A 
ATOM     31  C   UNL A   1      37.936  31.751  29.218  1.00  0.00     0.022 A 
ATOM     32  C   UNL A   1      37.365  29.407  29.443  1.00  0.00     0.022 A 
ENDBRANCH  23  26
ENDBRANCH  15  23
ENDBRANCH  12  14
ENDBRANCH   9  12
ENDBRANCH   7   8
BRANCH   7  33
ATOM     33  C   UNL A   1      43.153  24.230  25.031  1.00  0.00     0.090 C 
BRANCH  33  34
ATOM     34  C   UNL A   1      42.774  23.340  26.164  1.00  0.00     0.037 A 
ATOM     35  C   UNL A   1      42.791  21.969  26.325  1.00  0.00     0.134 A 
ATOM     36  N   UNL A   1      42.239  23.816  27.338  1.00  0.00    -0.348 N 
ATOM     37  N   UNL A   1      42.399  21.623  27.592  1.00  0.00    -0.245 NA
ATOM     38  C   UNL A   1      42.050  22.750  28.170  1.00  0.00     0.196 A 
ATOM     39  H   UNL A   1      42.031  24.757  27.542  1.00  0.00     0.167 HD
ENDBRANCH  33  34
ENDBRANCH   7  33
ENDBRANCH   4   7
ENDBRANCH   2   3
ENDBRANCH   1   2
BRANCH   1  40
ATOM     40  C   UNL A   1      45.071  29.684  27.357  1.00  0.00     0.002 C 
BRANCH  40  41
ATOM     41  C   UNL A   1      45.222  30.396  28.712  1.00  0.00     0.002 C 
BRANCH  41  42
ATOM     42  C   UNL A   1      45.805  31.808  28.687  1.00  0.00     0.021 C 
BRANCH  42  43
ATOM     43  C   UNL A   1      46.353  32.251  27.345  1.00  0.00     0.116 C 
BRANCH  43  44
ATOM     44  N   UNL A   1      47.755  31.907  27.140  1.00  0.00    -0.352 N 
ATOM     45  C   UNL A   1      48.790  32.666  26.620  1.00  0.00     0.251 C 
ATOM     46  H   UNL A   1      48.006  30.996  27.416  1.00  0.00     0.163 HD
ATOM     47  O   UNL A   1      49.907  32.171  26.495  1.00  0.00    -0.269 OA
BRANCH  45  48
ATOM     48  C   UNL A   1      48.602  34.124  26.410  1.00  0.00     0.039 A 
ATOM     49  C   UNL A   1      48.860  34.932  27.525  1.00  0.00     0.014 A 
ATOM     50  C   UNL A   1      47.794  34.581  25.379  1.00  0.00     0.014 A 
ATOM     51  C   UNL A   1      48.010  35.994  27.787  1.00  0.00     0.010 A 
ATOM     52  C   UNL A   1      46.860  35.533  25.694  1.00  0.00     0.010 A 
ATOM     53  C   UNL A   1      46.929  36.170  26.934  1.00  0.00    -0.014 A 
BRANCH  53  54
ATOM     54  C   UNL A   1      45.806  37.030  27.228  1.00  0.00     0.031 A 
ATOM     55  C   UNL A   1      45.875  38.395  26.701  1.00  0.00     0.074 A 
ATOM     56  C   UNL A   1      44.733  36.498  27.851  1.00  0.00     0.049 A 
ATOM     57  N   UNL A   1      45.293  39.411  27.224  1.00  0.00    -0.248 NA
ATOM     58  C   UNL A   1      46.709  38.736  25.552  1.00  0.00     0.031 C 
ATOM     59  C   UNL A   1      43.399  37.062  28.007  1.00  0.00     0.029 A 
ATOM     60  N   UNL A   1      44.713  35.344  28.643  1.00  0.00    -0.354 N 
ATOM     61  C   UNL A   1      45.408  40.452  26.325  1.00  0.00     0.074 A 
ATOM     62  C   UNL A   1      46.403  40.023  25.377  1.00  0.00     0.031 C 
ATOM     63  C   UNL A   1      42.780  36.438  29.028  1.00  0.00     0.029 A 
ATOM     64  C   UNL A   1      43.758  35.563  29.657  1.00  0.00     0.049 A 
ATOM     65  H   UNL A   1      45.261  34.535  28.516  1.00  0.00     0.167 HD
ATOM     66  C   UNL A   1      44.506  41.471  26.402  1.00  0.00     0.037 A 
ATOM     67  C   UNL A   1      44.160  35.653  30.961  1.00  0.00     0.037 A 
ATOM     68  C   UNL A   1      43.612  41.238  27.538  1.00  0.00     0.049 A 
ATOM     69  C   UNL A   1      43.960  37.042  31.526  1.00  0.00     0.074 A 
ATOM     70  C   UNL A   1      42.387  40.596  27.615  1.00  0.00     0.029 A 
ATOM     71  N   UNL A   1      44.115  41.291  28.831  1.00  0.00    -0.354 N 
ATOM     72  N   UNL A   1      43.885  38.120  30.793  1.00  0.00    -0.248 NA
ATOM     73  C   UNL A   1      43.816  37.320  32.952  1.00  0.00     0.031 C 
ATOM     74  C   UNL A   1      42.200  40.180  28.958  1.00  0.00     0.029 A 
ATOM     75  C   UNL A   1      43.292  40.597  29.700  1.00  0.00     0.049 A 
ATOM     76  H   UNL A   1      44.943  41.757  29.093  1.00  0.00     0.167 HD
ATOM     77  C   UNL A   1      43.705  39.209  31.603  1.00  0.00     0.074 A 
ATOM     78  C   UNL A   1      43.650  38.654  32.943  1.00  0.00     0.031 C 
ATOM     79  C   UNL A   1      43.625  40.482  31.113  1.00  0.00     0.037 A 
BRANCH  66  80
ATOM     80  C   UNL A   1      44.207  42.464  25.299  1.00  0.00     0.057 A 
ATOM     81  C   UNL A   1      45.037  43.592  25.125  1.00  0.00     0.134 A 
ATOM     82  C   UNL A   1      43.117  42.416  24.410  1.00  0.00     0.134 A 
ATOM     83  F   UNL A   1      46.164  43.753  25.831  1.00  0.00    -0.206 F 
ATOM     84  C   UNL A   1      44.758  44.620  24.214  1.00  0.00     0.040 A 
ATOM     85  C   UNL A   1      42.805  43.455  23.519  1.00  0.00     0.040 A 
ATOM     86  F   UNL A   1      42.327  41.344  24.310  1.00  0.00    -0.206 F 
ATOM     87  C   UNL A   1      43.623  44.568  23.423  1.00  0.00     0.006 A 
ENDBRANCH  66  80
BRANCH  67  88
ATOM     88  C   UNL A   1      45.329  34.768  31.250  1.00  0.00     0.057 A 
ATOM     89  C   UNL A   1      46.592  35.377  31.380  1.00  0.00     0.134 A 
ATOM     90  C   UNL A   1      45.162  33.516  31.849  1.00  0.00     0.134 A 
ATOM     91  F   UNL A   1      46.830  36.566  30.803  1.00  0.00    -0.206 F 
ATOM     92  C   UNL A   1      47.577  34.858  32.226  1.00  0.00     0.040 A 
ATOM     93  C   UNL A   1      46.154  32.975  32.675  1.00  0.00     0.040 A 
ATOM     94  F   UNL A   1      43.996  32.863  31.759  1.00  0.00    -0.206 F 
ATOM     95  C   UNL A   1      47.336  33.675  32.917  1.00  0.00     0.006 A 
ENDBRANCH  67  88
BRANCH  79  96
ATOM     96  C   UNL A   1      43.754  41.734  31.944  1.00  0.00     0.057 A 
ATOM     97  C   UNL A   1      44.976  42.234  32.418  1.00  0.00     0.134 A 
ATOM     98  C   UNL A   1      42.637  42.569  32.174  1.00  0.00     0.134 A 
ATOM     99  F   UNL A   1      46.139  41.628  32.144  1.00  0.00    -0.206 F 
ATOM    100  C   UNL A   1      45.066  43.422  33.153  1.00  0.00     0.040 A 
ATOM    101  C   UNL A   1      42.728  43.791  32.842  1.00  0.00     0.040 A 
ATOM    102  F   UNL A   1      41.410  42.249  31.734  1.00  0.00    -0.206 F 
ATOM    103  C   UNL A   1      43.942  44.209  33.360  1.00  0.00     0.006 A 
ENDBRANCH  79  96
ENDBRANCH  53  54
ENDBRANCH  45  48
ENDBRANCH  43  44
ENDBRANCH  42  43
ENDBRANCH  41  42
ENDBRANCH  40  41
ENDBRANCH   1  40
TORSDOF 20
ENDMDL
MODEL 3
REMARK VINA RESULT:      -8.5      6.603     11.674
REMARK SMILES Cc1ccc(S(=O)(=O)n2cc(C(=O)C(=O)N[C@@H](Cc3cnc[nH]3)C(=O)NCCCCCCNC(=O)c3ccc(-c4c5nc(c(-c6c(F)cccc6F)c6ccc([nH]6)c(-c6c(F)cccc6F)c6nc(c(-c7c(F)cccc7F)c7ccc4[nH]7)C=C6)C=C5)cc3)c3ccccc32)cc1
REMARK SMILES IDX 28 1 27 2 26 3 24 4 25 5 17 7 16 8 14 9 15 10 12 12 13 13
REMARK SMILES IDX 11 14 9 15 10 16 95 17 90 18 94 19 91 20 93 21 92 22 6 23
REMARK SMILES IDX 7 24 8 25 5 26 1 27 2 28 3 29 97 30 4 31 96 32 18 33 19 34
REMARK SMILES IDX 20 35 23 36 21 37 22 38 29 40 30 41 31 42 32 43 33 44 34 45
REMARK SMILES IDX 35 47 36 48 37 49 89 50 38 51 88 52 39 53 40 54 41 55 82 56
REMARK SMILES IDX 42 57 87 58 81 59 83 60 43 61 86 62 80 63 79 64 44 66 70 67
REMARK SMILES IDX 53 68 69 69 54 70 57 71 68 72 84 73 55 74 56 75 67 77 85 78
REMARK SMILES IDX 58 79 45 80 46 81 51 82 47 83 48 84 50 85 52 86 49 87 71 88
REMARK SMILES IDX 72 89 77 90 73 91 74 92 76 93 78 94 75 95 59 96 60 97 65 98
REMARK SMILES IDX 61 99 62 100 64 101 66 102 63 103
REMARK H PARENT 26 6 16 11 23 39 33 46 83 65 57 76
REMARK Flexibility Score: inf
ROOT
ATOM      1  C   UNL A   1      37.083  29.983  28.738  1.00  0.00     0.021 C 
ENDROOT
BRANCH   1   2
ATOM      2  C   UNL A   1      36.242  29.887  27.476  1.00  0.00     0.116 C 
BRANCH   2   3
ATOM      3  N   UNL A   1      35.281  28.813  27.454  1.00  0.00    -0.354 N 
ATOM      4  C   UNL A   1      34.252  28.624  26.574  1.00  0.00     0.242 C 
ATOM      5  O   UNL A   1      33.923  27.452  26.357  1.00  0.00    -0.273 OA
ATOM      6  H   UNL A   1      35.378  28.132  28.159  1.00  0.00     0.163 HD
BRANCH   4   7
ATOM      7  C   UNL A   1      33.592  29.781  25.780  1.00  0.00     0.177 C 
BRANCH   7   8
ATOM      8  N   UNL A   1      33.432  29.500  24.345  1.00  0.00    -0.337 N 
ATOM      9  C   UNL A   1      32.522  28.719  23.667  1.00  0.00     0.293 C 
ATOM     10  O   UNL A   1      32.479  28.831  22.446  1.00  0.00    -0.265 OA
ATOM     11  H   UNL A   1      34.092  29.948  23.768  1.00  0.00     0.164 HD
BRANCH   9  12
ATOM     12  C   UNL A   1      31.616  27.697  24.397  1.00  0.00     0.252 C 
ATOM     13  O   UNL A   1      30.737  28.121  25.142  1.00  0.00    -0.283 OA
BRANCH  12  14
ATOM     14  C   UNL A   1      31.803  26.246  24.261  1.00  0.00     0.054 A 
ATOM     15  N   UNL A   1      32.480  24.224  23.599  1.00  0.00    -0.240 N 
ATOM     16  C   UNL A   1      32.554  25.565  23.320  1.00  0.00     0.117 A 
ATOM     17  C   UNL A   1      31.690  23.985  24.704  1.00  0.00     0.065 A 
ATOM     18  C   UNL A   1      31.223  25.240  25.117  1.00  0.00     0.012 A 
ATOM     19  C   UNL A   1      31.318  22.801  25.366  1.00  0.00     0.028 A 
ATOM     20  C   UNL A   1      30.342  25.298  26.219  1.00  0.00     0.011 A 
ATOM     21  C   UNL A   1      30.433  22.895  26.444  1.00  0.00     0.002 A 
ATOM     22  C   UNL A   1      29.947  24.125  26.865  1.00  0.00     0.001 A 
BRANCH  15  23
ATOM     23  S   UNL A   1      33.241  23.024  22.663  1.00  0.00     0.268 S 
ATOM     24  O   UNL A   1      33.675  23.700  21.459  1.00  0.00    -0.201 OA
ATOM     25  O   UNL A   1      32.314  21.904  22.626  1.00  0.00    -0.201 OA
BRANCH  23  26
ATOM     26  C   UNL A   1      34.687  22.477  23.531  1.00  0.00     0.088 A 
ATOM     27  C   UNL A   1      38.267  21.545  25.724  1.00  0.00     0.044 C 
ATOM     28  C   UNL A   1      37.021  21.848  24.945  1.00  0.00    -0.051 A 
ATOM     29  C   UNL A   1      37.038  22.847  23.965  1.00  0.00     0.005 A 
ATOM     30  C   UNL A   1      35.834  21.143  25.183  1.00  0.00     0.005 A 
ATOM     31  C   UNL A   1      35.875  23.166  23.264  1.00  0.00     0.022 A 
ATOM     32  C   UNL A   1      34.670  21.445  24.470  1.00  0.00     0.022 A 
ENDBRANCH  23  26
ENDBRANCH  15  23
ENDBRANCH  12  14
ENDBRANCH   9  12
ENDBRANCH   7   8
BRANCH   7  33
ATOM     33  C   UNL A   1      32.339  30.392  26.437  1.00  0.00     0.090 C 
BRANCH  33  34
ATOM     34  C   UNL A   1      32.474  31.765  27.001  1.00  0.00     0.037 A 
ATOM     35  C   UNL A   1      31.695  32.900  26.901  1.00  0.00     0.134 A 
ATOM     36  N   UNL A   1      33.556  32.157  27.753  1.00  0.00    -0.348 N 
ATOM     37  N   UNL A   1      32.215  33.914  27.664  1.00  0.00    -0.245 NA
ATOM     38  C   UNL A   1      33.344  33.448  28.144  1.00  0.00     0.196 A 
ATOM     39  H   UNL A   1      34.343  31.605  27.972  1.00  0.00     0.167 HD
ENDBRANCH  33  34
ENDBRANCH   7  33
ENDBRANCH   4   7
ENDBRANCH   2   3
ENDBRANCH   1   2
BRANCH   1  40
ATOM     40  C   UNL A   1      38.571  30.271  28.517  1.00  0.00     0.002 C 
BRANCH  40  41
ATOM     41  C   UNL A   1      39.435  30.480  29.773  1.00  0.00     0.002 C 
BRANCH  41  42
ATOM     42  C   UNL A   1      39.619  31.919  30.250  1.00  0.00     0.021 C 
BRANCH  42  43
ATOM     43  C   UNL A   1      40.924  32.194  30.971  1.00  0.00     0.116 C 
BRANCH  43  44
ATOM     44  N   UNL A   1      40.837  33.264  31.957  1.00  0.00    -0.352 N 
ATOM     45  C   UNL A   1      41.698  34.320  32.201  1.00  0.00     0.251 C 
ATOM     46  H   UNL A   1      40.043  33.231  32.539  1.00  0.00     0.163 HD
ATOM     47  O   UNL A   1      41.459  35.103  33.117  1.00  0.00    -0.269 OA
BRANCH  45  48
ATOM     48  C   UNL A   1      42.784  34.625  31.235  1.00  0.00     0.039 A 
ATOM     49  C   UNL A   1      44.085  34.564  31.751  1.00  0.00     0.014 A 
ATOM     50  C   UNL A   1      42.512  35.360  30.090  1.00  0.00     0.014 A 
ATOM     51  C   UNL A   1      44.996  35.535  31.371  1.00  0.00     0.010 A 
ATOM     52  C   UNL A   1      43.348  36.410  29.811  1.00  0.00     0.010 A 
ATOM     53  C   UNL A   1      44.546  36.533  30.518  1.00  0.00    -0.014 A 
BRANCH  53  54
ATOM     54  C   UNL A   1      45.268  37.758  30.262  1.00  0.00     0.031 A 
ATOM     55  C   UNL A   1      44.656  38.992  30.760  1.00  0.00     0.074 A 
ATOM     56  C   UNL A   1      46.494  37.677  29.702  1.00  0.00     0.049 A 
ATOM     57  N   UNL A   1      44.832  40.153  30.245  1.00  0.00    -0.248 NA
ATOM     58  C   UNL A   1      43.696  38.987  31.860  1.00  0.00     0.031 C 
ATOM     59  C   UNL A   1      47.518  38.708  29.601  1.00  0.00     0.029 A 
ATOM     60  N   UNL A   1      46.994  36.618  28.934  1.00  0.00    -0.354 N 
ATOM     61  C   UNL A   1      44.282  41.071  31.118  1.00  0.00     0.074 A 
ATOM     62  C   UNL A   1      43.478  40.293  32.024  1.00  0.00     0.031 C 
ATOM     63  C   UNL A   1      48.380  38.368  28.623  1.00  0.00     0.029 A 
ATOM     64  C   UNL A   1      47.845  37.187  27.964  1.00  0.00     0.049 A 
ATOM     65  H   UNL A   1      46.791  35.661  29.051  1.00  0.00     0.167 HD
ATOM     66  C   UNL A   1      44.729  42.357  31.066  1.00  0.00     0.037 A 
ATOM     67  C   UNL A   1      47.507  37.117  26.640  1.00  0.00     0.037 A 
ATOM     68  C   UNL A   1      45.702  42.485  29.979  1.00  0.00     0.049 A 
ATOM     69  C   UNL A   1      47.191  38.478  26.060  1.00  0.00     0.074 A 
ATOM     70  C   UNL A   1      47.082  42.360  29.974  1.00  0.00     0.029 A 
ATOM     71  N   UNL A   1      45.285  42.342  28.662  1.00  0.00    -0.354 N 
ATOM     72  N   UNL A   1      46.811  39.502  26.775  1.00  0.00    -0.248 NA
ATOM     73  C   UNL A   1      47.292  38.791  24.637  1.00  0.00     0.031 C 
ATOM     74  C   UNL A   1      47.483  42.048  28.650  1.00  0.00     0.029 A 
ATOM     75  C   UNL A   1      46.354  42.017  27.847  1.00  0.00     0.049 A 
ATOM     76  H   UNL A   1      44.357  42.457  28.351  1.00  0.00     0.167 HD
ATOM     77  C   UNL A   1      46.603  40.577  25.954  1.00  0.00     0.074 A 
ATOM     78  C   UNL A   1      46.935  40.087  24.629  1.00  0.00     0.031 C 
ATOM     79  C   UNL A   1      46.165  41.784  26.422  1.00  0.00     0.037 A 
BRANCH  66  80
ATOM     80  C   UNL A   1      44.568  43.388  32.162  1.00  0.00     0.057 A 
ATOM     81  C   UNL A   1      43.327  44.036  32.342  1.00  0.00     0.134 A 
ATOM     82  C   UNL A   1      45.574  43.833  33.040  1.00  0.00     0.134 A 
ATOM     83  F   UNL A   1      42.239  43.677  31.647  1.00  0.00    -0.206 F 
ATOM     84  C   UNL A   1      43.131  45.087  33.246  1.00  0.00     0.040 A 
ATOM     85  C   UNL A   1      45.403  44.909  33.925  1.00  0.00     0.040 A 
ATOM     86  F   UNL A   1      46.757  43.219  33.134  1.00  0.00    -0.206 F 
ATOM     87  C   UNL A   1      44.179  45.548  34.026  1.00  0.00     0.006 A 
ENDBRANCH  66  80
BRANCH  67  88
ATOM     88  C   UNL A   1      46.782  35.853  26.312  1.00  0.00     0.057 A 
ATOM     89  C   UNL A   1      47.543  34.673  26.208  1.00  0.00     0.134 A 
ATOM     90  C   UNL A   1      45.417  35.708  26.578  1.00  0.00     0.134 A 
ATOM     91  F   UNL A   1      48.853  34.738  25.923  1.00  0.00    -0.206 F 
ATOM     92  C   UNL A   1      47.014  33.423  26.542  1.00  0.00     0.040 A 
ATOM     93  C   UNL A   1      44.873  34.456  26.886  1.00  0.00     0.040 A 
ATOM     94  F   UNL A   1      44.621  36.781  26.677  1.00  0.00    -0.206 F 
ATOM     95  C   UNL A   1      45.683  33.322  26.933  1.00  0.00     0.006 A 
ENDBRANCH  67  88
BRANCH  79  96
ATOM     96  C   UNL A   1      45.611  42.892  25.563  1.00  0.00     0.057 A 
ATOM     97  C   UNL A   1      46.402  43.880  24.957  1.00  0.00     0.134 A 
ATOM     98  C   UNL A   1      44.247  42.911  25.196  1.00  0.00     0.134 A 
ATOM     99  F   UNL A   1      47.735  43.896  25.091  1.00  0.00    -0.206 F 
ATOM    100  C   UNL A   1      45.862  44.873  24.131  1.00  0.00     0.040 A 
ATOM    101  C   UNL A   1      43.711  43.852  24.314  1.00  0.00     0.040 A 
ATOM    102  F   UNL A   1      43.377  41.998  25.653  1.00  0.00    -0.206 F 
ATOM    103  C   UNL A   1      44.514  44.856  23.801  1.00  0.00     0.006 A 
ENDBRANCH  79  96
ENDBRANCH  53  54
ENDBRANCH  45  48
ENDBRANCH  43  44
ENDBRANCH  42  43
ENDBRANCH  41  42
ENDBRANCH  40  41
ENDBRANCH   1  40
TORSDOF 20
ENDMDL
