MODEL 1
REMARK VINA RESULT:     -10.0      0.000      0.000
REMARK SMILES CCC[C@@H]([NH2+]Cc1cncn1C1CC1)C(=O)NCCCCCCNC(=O)c1ccc(-c2c3nc(c(-c4c(F)cccc4F)c4ccc([nH]4)c(-c4c(F)cccc4F)c4nc(c(-c5c(F)cccc5F)c5ccc2[nH]5)C=C4)C=C3)cc1
REMARK SMILES IDX 19 1 18 2 17 3 15 4 16 5 4 7 3 8 2 9 1 10 5 11 6 14 7 15
REMARK SMILES IDX 8 16 11 17 9 18 10 19 12 20 13 21 14 22 20 23 21 24 22 25
REMARK SMILES IDX 23 26 24 27 25 28 26 30 27 31 28 32 80 33 29 34 79 35 30 36
REMARK SMILES IDX 31 37 32 38 73 39 33 40 78 41 72 42 74 43 34 44 77 45 71 46
REMARK SMILES IDX 70 47 35 49 61 50 44 51 60 52 45 53 48 54 59 55 75 56 46 57
REMARK SMILES IDX 47 58 58 60 76 61 49 62 36 63 37 64 42 65 38 66 39 67 41 68
REMARK SMILES IDX 43 69 40 70 62 71 63 72 68 73 64 74 65 75 67 76 69 77 66 78
REMARK SMILES IDX 50 79 51 80 56 81 52 82 53 83 55 84 57 85 54 86
REMARK H PARENT 17 6 5 12 5 13 24 29 74 48 48 59
REMARK Flexibility Score: inf
ROOT
ATOM      1  C   UNL A   1      38.751  21.318  25.750  1.00  0.00     0.021 C 
ENDROOT
BRANCH   1   2
ATOM      2  C   UNL A   1      37.775  22.491  25.734  1.00  0.00     0.116 C 
BRANCH   2   3
ATOM      3  N   UNL A   1      36.553  22.078  26.395  1.00  0.00    -0.351 N 
ATOM      4  C   UNL A   1      35.306  22.598  26.215  1.00  0.00     0.278 C 
ATOM      5  O   UNL A   1      34.481  22.476  27.123  1.00  0.00    -0.268 OA
ATOM      6  H   UNL A   1      36.633  21.343  27.046  1.00  0.00     0.163 HD
BRANCH   4   7
ATOM      7  C   UNL A   1      34.960  23.314  24.900  1.00  0.00     0.272 C 
BRANCH   7   8
ATOM      8  C   UNL A   1      34.463  22.261  23.888  1.00  0.00     0.075 C 
BRANCH   8   9
ATOM      9  C   UNL A   1      32.966  21.963  23.919  1.00  0.00     0.003 C 
ATOM     10  C   UNL A   1      32.664  20.478  23.876  1.00  0.00     0.004 C 
ENDBRANCH   8   9
ENDBRANCH   7   8
BRANCH   7  11
ATOM     11  N   UNL A   1      33.996  24.423  25.137  1.00  0.00    -0.331 N 
ATOM     12  H   UNL A   1      34.023  24.668  26.127  1.00  0.00     0.347 HD
ATOM     13  H   UNL A   1      33.078  24.088  24.843  1.00  0.00     0.347 HD
BRANCH  11  14
ATOM     14  C   UNL A   1      34.281  25.638  24.351  1.00  0.00     0.318 C 
BRANCH  14  15
ATOM     15  C   UNL A   1      33.232  25.900  23.337  1.00  0.00     0.093 A 
ATOM     16  C   UNL A   1      33.235  25.526  22.000  1.00  0.00     0.140 A 
ATOM     17  N   UNL A   1      32.027  26.555  23.487  1.00  0.00    -0.327 N 
ATOM     18  N   UNL A   1      32.124  25.956  21.341  1.00  0.00    -0.245 NA
ATOM     19  C   UNL A   1      31.418  26.572  22.258  1.00  0.00     0.200 A 
BRANCH  17  20
ATOM     20  C   UNL A   1      31.385  27.210  24.612  1.00  0.00     0.089 C 
ATOM     21  C   UNL A   1      32.000  28.181  25.597  1.00  0.00     0.027 C 
ATOM     22  C   UNL A   1      31.025  28.678  24.590  1.00  0.00     0.027 C 
ENDBRANCH  17  20
ENDBRANCH  14  15
ENDBRANCH  11  14
ENDBRANCH   7  11
ENDBRANCH   4   7
ENDBRANCH   2   3
ENDBRANCH   1   2
BRANCH   1  23
ATOM     23  C   UNL A   1      40.168  21.759  26.129  1.00  0.00     0.002 C 
BRANCH  23  24
ATOM     24  C   UNL A   1      40.967  20.692  26.895  1.00  0.00     0.002 C 
BRANCH  24  25
ATOM     25  C   UNL A   1      41.680  19.664  26.006  1.00  0.00     0.021 C 
BRANCH  25  26
ATOM     26  C   UNL A   1      42.950  19.132  26.645  1.00  0.00     0.116 C 
BRANCH  26  27
ATOM     27  N   UNL A   1      44.044  19.000  25.683  1.00  0.00    -0.352 N 
ATOM     28  C   UNL A   1      44.482  19.951  24.784  1.00  0.00     0.251 C 
ATOM     29  H   UNL A   1      44.520  18.138  25.676  1.00  0.00     0.163 HD
ATOM     30  O   UNL A   1      45.112  19.632  23.770  1.00  0.00    -0.269 OA
BRANCH  28  31
ATOM     31  C   UNL A   1      44.259  21.371  25.113  1.00  0.00     0.039 A 
ATOM     32  C   UNL A   1      43.504  22.269  24.361  1.00  0.00     0.014 A 
ATOM     33  C   UNL A   1      44.895  21.826  26.256  1.00  0.00     0.014 A 
ATOM     34  C   UNL A   1      43.447  23.611  24.790  1.00  0.00     0.010 A 
ATOM     35  C   UNL A   1      44.421  22.955  26.850  1.00  0.00     0.010 A 
ATOM     36  C   UNL A   1      43.995  23.979  26.041  1.00  0.00    -0.014 A 
BRANCH  36  37
ATOM     37  C   UNL A   1      43.720  25.233  26.773  1.00  0.00     0.031 A 
ATOM     38  C   UNL A   1      44.790  26.217  26.404  1.00  0.00     0.074 A 
ATOM     39  C   UNL A   1      42.593  25.487  27.522  1.00  0.00     0.049 A 
ATOM     40  N   UNL A   1      45.851  26.446  27.104  1.00  0.00    -0.248 NA
ATOM     41  C   UNL A   1      44.918  26.744  25.024  1.00  0.00     0.031 C 
ATOM     42  C   UNL A   1      41.426  24.619  27.796  1.00  0.00     0.029 A 
ATOM     43  N   UNL A   1      42.244  26.614  28.263  1.00  0.00    -0.354 N 
ATOM     44  C   UNL A   1      46.552  27.438  26.425  1.00  0.00     0.074 A 
ATOM     45  C   UNL A   1      46.099  27.374  25.070  1.00  0.00     0.031 C 
ATOM     46  C   UNL A   1      40.428  25.308  28.421  1.00  0.00     0.029 A 
ATOM     47  C   UNL A   1      40.891  26.645  28.743  1.00  0.00     0.049 A 
ATOM     48  H   UNL A   1      42.882  27.341  28.446  1.00  0.00     0.167 HD
ATOM     49  C   UNL A   1      47.110  28.449  27.149  1.00  0.00     0.037 A 
ATOM     50  C   UNL A   1      40.285  27.621  29.510  1.00  0.00     0.037 A 
ATOM     51  C   UNL A   1      47.146  28.056  28.542  1.00  0.00     0.049 A 
ATOM     52  C   UNL A   1      41.392  28.358  30.150  1.00  0.00     0.074 A 
ATOM     53  C   UNL A   1      47.837  27.124  29.288  1.00  0.00     0.029 A 
ATOM     54  N   UNL A   1      45.942  28.262  29.165  1.00  0.00    -0.354 N 
ATOM     55  N   UNL A   1      42.159  27.817  31.051  1.00  0.00    -0.248 NA
ATOM     56  C   UNL A   1      41.946  29.467  29.399  1.00  0.00     0.031 C 
ATOM     57  C   UNL A   1      46.917  26.647  30.271  1.00  0.00     0.029 A 
ATOM     58  C   UNL A   1      45.755  27.411  30.212  1.00  0.00     0.049 A 
ATOM     59  H   UNL A   1      45.290  28.945  28.887  1.00  0.00     0.167 HD
ATOM     60  C   UNL A   1      43.432  28.179  30.650  1.00  0.00     0.074 A 
ATOM     61  C   UNL A   1      43.235  29.273  29.686  1.00  0.00     0.031 C 
ATOM     62  C   UNL A   1      44.479  27.328  30.872  1.00  0.00     0.037 A 
BRANCH  49  63
ATOM     63  C   UNL A   1      47.055  29.920  26.768  1.00  0.00     0.057 A 
ATOM     64  C   UNL A   1      48.222  30.697  26.914  1.00  0.00     0.134 A 
ATOM     65  C   UNL A   1      45.875  30.666  26.569  1.00  0.00     0.134 A 
ATOM     66  F   UNL A   1      49.411  30.115  27.131  1.00  0.00    -0.206 F 
ATOM     67  C   UNL A   1      48.204  32.099  26.919  1.00  0.00     0.040 A 
ATOM     68  C   UNL A   1      45.852  32.066  26.532  1.00  0.00     0.040 A 
ATOM     69  F   UNL A   1      44.666  30.099  26.493  1.00  0.00    -0.206 F 
ATOM     70  C   UNL A   1      47.015  32.790  26.731  1.00  0.00     0.006 A 
ENDBRANCH  49  63
BRANCH  50  71
ATOM     71  C   UNL A   1      38.917  28.260  29.535  1.00  0.00     0.057 A 
ATOM     72  C   UNL A   1      38.141  28.421  30.714  1.00  0.00     0.134 A 
ATOM     73  C   UNL A   1      38.522  29.075  28.466  1.00  0.00     0.134 A 
ATOM     74  F   UNL A   1      38.455  27.755  31.837  1.00  0.00    -0.206 F 
ATOM     75  C   UNL A   1      37.062  29.329  30.811  1.00  0.00     0.040 A 
ATOM     76  C   UNL A   1      37.459  29.995  28.554  1.00  0.00     0.040 A 
ATOM     77  F   UNL A   1      39.234  29.080  27.332  1.00  0.00    -0.206 F 
ATOM     78  C   UNL A   1      36.727  30.133  29.728  1.00  0.00     0.006 A 
ENDBRANCH  50  71
BRANCH  62  79
ATOM     79  C   UNL A   1      44.273  26.196  31.837  1.00  0.00     0.057 A 
ATOM     80  C   UNL A   1      44.151  24.837  31.505  1.00  0.00     0.134 A 
ATOM     81  C   UNL A   1      44.322  26.510  33.196  1.00  0.00     0.134 A 
ATOM     82  F   UNL A   1      44.192  24.427  30.231  1.00  0.00    -0.206 F 
ATOM     83  C   UNL A   1      44.038  23.844  32.488  1.00  0.00     0.040 A 
ATOM     84  C   UNL A   1      44.242  25.532  34.185  1.00  0.00     0.040 A 
ATOM     85  F   UNL A   1      44.502  27.782  33.582  1.00  0.00    -0.206 F 
ATOM     86  C   UNL A   1      44.083  24.194  33.835  1.00  0.00     0.006 A 
ENDBRANCH  62  79
ENDBRANCH  36  37
ENDBRANCH  28  31
ENDBRANCH  26  27
ENDBRANCH  25  26
ENDBRANCH  24  25
ENDBRANCH  23  24
ENDBRANCH   1  23
TORSDOF 19
ENDMDL
MODEL 2
REMARK VINA RESULT:      -9.4      4.149      9.468
REMARK SMILES CCC[C@@H]([NH2+]Cc1cncn1C1CC1)C(=O)NCCCCCCNC(=O)c1ccc(-c2c3nc(c(-c4c(F)cccc4F)c4ccc([nH]4)c(-c4c(F)cccc4F)c4nc(c(-c5c(F)cccc5F)c5ccc2[nH]5)C=C4)C=C3)cc1
REMARK SMILES IDX 19 1 18 2 17 3 15 4 16 5 4 7 3 8 2 9 1 10 5 11 6 14 7 15
REMARK SMILES IDX 8 16 11 17 9 18 10 19 12 20 13 21 14 22 20 23 21 24 22 25
REMARK SMILES IDX 23 26 24 27 25 28 26 30 27 31 28 32 80 33 29 34 79 35 30 36
REMARK SMILES IDX 31 37 32 38 73 39 33 40 78 41 72 42 74 43 34 44 77 45 71 46
REMARK SMILES IDX 70 47 35 49 61 50 44 51 60 52 45 53 48 54 59 55 75 56 46 57
REMARK SMILES IDX 47 58 58 60 76 61 49 62 36 63 37 64 42 65 38 66 39 67 41 68
REMARK SMILES IDX 43 69 40 70 62 71 63 72 68 73 64 74 65 75 67 76 69 77 66 78
REMARK SMILES IDX 50 79 51 80 56 81 52 82 53 83 55 84 57 85 54 86
REMARK H PARENT 17 6 5 12 5 13 24 29 74 48 48 59
REMARK Flexibility Score: inf
ROOT
ATOM      1  C   UNL A   1      33.069  29.679  27.094  1.00  0.00     0.021 C 
ENDROOT
BRANCH   1   2
ATOM      2  C   UNL A   1      34.013  28.780  26.300  1.00  0.00     0.116 C 
BRANCH   2   3
ATOM      3  N   UNL A   1      33.858  29.083  24.892  1.00  0.00    -0.351 N 
ATOM      4  C   UNL A   1      33.595  28.201  23.887  1.00  0.00     0.278 C 
ATOM      5  O   UNL A   1      33.925  28.505  22.738  1.00  0.00    -0.268 OA
ATOM      6  H   UNL A   1      33.953  30.029  24.633  1.00  0.00     0.163 HD
BRANCH   4   7
ATOM      7  C   UNL A   1      32.902  26.867  24.202  1.00  0.00     0.272 C 
BRANCH   7   8
ATOM      8  C   UNL A   1      31.547  26.836  23.465  1.00  0.00     0.075 C 
BRANCH   8   9
ATOM      9  C   UNL A   1      30.554  27.928  23.854  1.00  0.00     0.003 C 
ATOM     10  C   UNL A   1      29.678  28.363  22.696  1.00  0.00     0.004 C 
ENDBRANCH   8   9
ENDBRANCH   7   8
BRANCH   7  11
ATOM     11  N   UNL A   1      33.790  25.717  23.878  1.00  0.00    -0.331 N 
ATOM     12  H   UNL A   1      34.467  26.020  23.177  1.00  0.00     0.347 HD
ATOM     13  H   UNL A   1      33.190  24.964  23.542  1.00  0.00     0.347 HD
BRANCH  11  14
ATOM     14  C   UNL A   1      34.530  25.190  25.040  1.00  0.00     0.318 C 
BRANCH  14  15
ATOM     15  C   UNL A   1      33.919  23.947  25.568  1.00  0.00     0.093 A 
ATOM     16  C   UNL A   1      32.591  23.741  25.920  1.00  0.00     0.140 A 
ATOM     17  N   UNL A   1      34.513  22.728  25.818  1.00  0.00    -0.327 N 
ATOM     18  N   UNL A   1      32.375  22.485  26.401  1.00  0.00    -0.245 NA
ATOM     19  C   UNL A   1      33.546  21.901  26.330  1.00  0.00     0.200 A 
BRANCH  17  20
ATOM     20  C   UNL A   1      35.874  22.241  25.688  1.00  0.00     0.089 C 
ATOM     21  C   UNL A   1      36.343  20.954  25.043  1.00  0.00     0.027 C 
ATOM     22  C   UNL A   1      36.610  22.251  24.367  1.00  0.00     0.027 C 
ENDBRANCH  17  20
ENDBRANCH  14  15
ENDBRANCH  11  14
ENDBRANCH   7  11
ENDBRANCH   4   7
ENDBRANCH   2   3
ENDBRANCH   1   2
BRANCH   1  23
ATOM     23  C   UNL A   1      31.984  30.296  26.205  1.00  0.00     0.002 C 
BRANCH  23  24
ATOM     24  C   UNL A   1      31.683  31.769  26.525  1.00  0.00     0.002 C 
BRANCH  24  25
ATOM     25  C   UNL A   1      32.477  32.342  27.707  1.00  0.00     0.021 C 
BRANCH  25  26
ATOM     26  C   UNL A   1      33.053  33.713  27.403  1.00  0.00     0.116 C 
BRANCH  26  27
ATOM     27  N   UNL A   1      32.796  34.676  28.473  1.00  0.00    -0.352 N 
ATOM     28  C   UNL A   1      33.291  34.641  29.760  1.00  0.00     0.251 C 
ATOM     29  H   UNL A   1      32.204  35.431  28.251  1.00  0.00     0.163 HD
ATOM     30  O   UNL A   1      32.723  35.239  30.681  1.00  0.00    -0.269 OA
BRANCH  28  31
ATOM     31  C   UNL A   1      34.572  33.949  29.993  1.00  0.00     0.039 A 
ATOM     32  C   UNL A   1      34.743  32.795  30.756  1.00  0.00     0.014 A 
ATOM     33  C   UNL A   1      35.684  34.540  29.416  1.00  0.00     0.014 A 
ATOM     34  C   UNL A   1      36.052  32.299  30.926  1.00  0.00     0.010 A 
ATOM     35  C   UNL A   1      36.792  33.773  29.222  1.00  0.00     0.010 A 
ATOM     36  C   UNL A   1      37.123  32.862  30.192  1.00  0.00    -0.014 A 
BRANCH  36  37
ATOM     37  C   UNL A   1      38.455  32.251  29.997  1.00  0.00     0.031 A 
ATOM     38  C   UNL A   1      38.250  30.916  29.346  1.00  0.00     0.074 A 
ATOM     39  C   UNL A   1      39.660  32.877  30.225  1.00  0.00     0.049 A 
ATOM     40  N   UNL A   1      38.207  29.790  29.976  1.00  0.00    -0.248 NA
ATOM     41  C   UNL A   1      37.705  30.797  27.972  1.00  0.00     0.031 C 
ATOM     42  C   UNL A   1      39.933  34.247  30.716  1.00  0.00     0.029 A 
ATOM     43  N   UNL A   1      40.961  32.395  30.096  1.00  0.00    -0.354 N 
ATOM     44  C   UNL A   1      38.032  28.811  29.003  1.00  0.00     0.074 A 
ATOM     45  C   UNL A   1      37.463  29.484  27.876  1.00  0.00     0.031 C 
ATOM     46  C   UNL A   1      41.260  34.555  30.620  1.00  0.00     0.029 A 
ATOM     47  C   UNL A   1      42.000  33.380  30.196  1.00  0.00     0.049 A 
ATOM     48  H   UNL A   1      41.155  31.441  29.947  1.00  0.00     0.167 HD
ATOM     49  C   UNL A   1      38.752  27.658  29.104  1.00  0.00     0.037 A 
ATOM     50  C   UNL A   1      43.365  33.184  30.124  1.00  0.00     0.037 A 
ATOM     51  C   UNL A   1      39.295  27.568  30.443  1.00  0.00     0.049 A 
ATOM     52  C   UNL A   1      43.570  31.754  30.423  1.00  0.00     0.074 A 
ATOM     53  C   UNL A   1      38.779  27.370  31.707  1.00  0.00     0.029 A 
ATOM     54  N   UNL A   1      40.441  28.309  30.584  1.00  0.00    -0.354 N 
ATOM     55  N   UNL A   1      43.337  31.248  31.599  1.00  0.00    -0.248 NA
ATOM     56  C   UNL A   1      43.505  30.844  29.296  1.00  0.00     0.031 C 
ATOM     57  C   UNL A   1      39.562  28.184  32.582  1.00  0.00     0.029 A 
ATOM     58  C   UNL A   1      40.630  28.719  31.869  1.00  0.00     0.049 A 
ATOM     59  H   UNL A   1      41.054  28.519  29.843  1.00  0.00     0.167 HD
ATOM     60  C   UNL A   1      42.626  30.097  31.322  1.00  0.00     0.074 A 
ATOM     61  C   UNL A   1      42.842  29.847  29.887  1.00  0.00     0.031 C 
ATOM     62  C   UNL A   1      41.662  29.669  32.191  1.00  0.00     0.037 A 
BRANCH  49  63
ATOM     63  C   UNL A   1      39.454  26.972  27.944  1.00  0.00     0.057 A 
ATOM     64  C   UNL A   1      39.425  25.564  27.877  1.00  0.00     0.134 A 
ATOM     65  C   UNL A   1      40.395  27.580  27.085  1.00  0.00     0.134 A 
ATOM     66  F   UNL A   1      38.591  24.858  28.657  1.00  0.00    -0.206 F 
ATOM     67  C   UNL A   1      40.298  24.824  27.067  1.00  0.00     0.040 A 
ATOM     68  C   UNL A   1      41.244  26.851  26.243  1.00  0.00     0.040 A 
ATOM     69  F   UNL A   1      40.617  28.898  27.076  1.00  0.00    -0.206 F 
ATOM     70  C   UNL A   1      41.216  25.467  26.248  1.00  0.00     0.006 A 
ENDBRANCH  49  63
BRANCH  50  71
ATOM     71  C   UNL A   1      44.519  33.939  29.509  1.00  0.00     0.057 A 
ATOM     72  C   UNL A   1      44.632  34.217  28.121  1.00  0.00     0.134 A 
ATOM     73  C   UNL A   1      45.327  34.739  30.327  1.00  0.00     0.134 A 
ATOM     74  F   UNL A   1      43.862  33.575  27.228  1.00  0.00    -0.206 F 
ATOM     75  C   UNL A   1      45.484  35.219  27.600  1.00  0.00     0.040 A 
ATOM     76  C   UNL A   1      46.167  35.752  29.823  1.00  0.00     0.040 A 
ATOM     77  F   UNL A   1      45.238  34.635  31.660  1.00  0.00    -0.206 F 
ATOM     78  C   UNL A   1      46.245  36.003  28.458  1.00  0.00     0.006 A 
ENDBRANCH  50  71
BRANCH  62  79
ATOM     79  C   UNL A   1      41.644  30.266  33.570  1.00  0.00     0.057 A 
ATOM     80  C   UNL A   1      40.835  31.330  34.001  1.00  0.00     0.134 A 
ATOM     81  C   UNL A   1      42.419  29.631  34.541  1.00  0.00     0.134 A 
ATOM     82  F   UNL A   1      39.986  31.939  33.165  1.00  0.00    -0.206 F 
ATOM     83  C   UNL A   1      40.837  31.766  35.334  1.00  0.00     0.040 A 
ATOM     84  C   UNL A   1      42.409  30.032  35.875  1.00  0.00     0.040 A 
ATOM     85  F   UNL A   1      43.166  28.566  34.209  1.00  0.00    -0.206 F 
ATOM     86  C   UNL A   1      41.629  31.113  36.275  1.00  0.00     0.006 A 
ENDBRANCH  62  79
ENDBRANCH  36  37
ENDBRANCH  28  31
ENDBRANCH  26  27
ENDBRANCH  25  26
ENDBRANCH  24  25
ENDBRANCH  23  24
ENDBRANCH   1  23
TORSDOF 19
ENDMDL
MODEL 3
REMARK VINA RESULT:      -9.1      2.830      8.494
REMARK SMILES CCC[C@@H]([NH2+]Cc1cncn1C1CC1)C(=O)NCCCCCCNC(=O)c1ccc(-c2c3nc(c(-c4c(F)cccc4F)c4ccc([nH]4)c(-c4c(F)cccc4F)c4nc(c(-c5c(F)cccc5F)c5ccc2[nH]5)C=C4)C=C3)cc1
REMARK SMILES IDX 19 1 18 2 17 3 15 4 16 5 4 7 3 8 2 9 1 10 5 11 6 14 7 15
REMARK SMILES IDX 8 16 11 17 9 18 10 19 12 20 13 21 14 22 20 23 21 24 22 25
REMARK SMILES IDX 23 26 24 27 25 28 26 30 27 31 28 32 80 33 29 34 79 35 30 36
REMARK SMILES IDX 31 37 32 38 73 39 33 40 78 41 72 42 74 43 34 44 77 45 71 46
REMARK SMILES IDX 70 47 35 49 61 50 44 51 60 52 45 53 48 54 59 55 75 56 46 57
REMARK SMILES IDX 47 58 58 60 76 61 49 62 36 63 37 64 42 65 38 66 39 67 41 68
REMARK SMILES IDX 43 69 40 70 62 71 63 72 68 73 64 74 65 75 67 76 69 77 66 78
REMARK SMILES IDX 50 79 51 80 56 81 52 82 53 83 55 84 57 85 54 86
REMARK H PARENT 17 6 5 12 5 13 24 29 74 48 48 59
REMARK Flexibility Score: inf
ROOT
ATOM      1  C   UNL A   1      32.041  29.561  25.511  1.00  0.00     0.021 C 
ENDROOT
BRANCH   1   2
ATOM      2  C   UNL A   1      33.462  29.266  25.038  1.00  0.00     0.116 C 
BRANCH   2   3
ATOM      3  N   UNL A   1      33.420  28.970  23.621  1.00  0.00    -0.351 N 
ATOM      4  C   UNL A   1      33.413  27.737  23.039  1.00  0.00     0.278 C 
ATOM      5  O   UNL A   1      33.818  27.633  21.879  1.00  0.00    -0.268 OA
ATOM      6  H   UNL A   1      33.394  29.744  23.012  1.00  0.00     0.163 HD
BRANCH   4   7
ATOM      7  C   UNL A   1      32.906  26.522  23.830  1.00  0.00     0.272 C 
BRANCH   7   8
ATOM      8  C   UNL A   1      31.625  25.996  23.148  1.00  0.00     0.075 C 
BRANCH   8   9
ATOM      9  C   UNL A   1      30.378  25.944  24.027  1.00  0.00     0.003 C 
ATOM     10  C   UNL A   1      29.370  27.021  23.677  1.00  0.00     0.004 C 
ENDBRANCH   8   9
ENDBRANCH   7   8
BRANCH   7  11
ATOM     11  N   UNL A   1      33.975  25.497  23.974  1.00  0.00    -0.331 N 
ATOM     12  H   UNL A   1      34.786  25.799  23.432  1.00  0.00     0.347 HD
ATOM     13  H   UNL A   1      33.589  24.615  23.640  1.00  0.00     0.347 HD
BRANCH  11  14
ATOM     14  C   UNL A   1      34.405  25.277  25.368  1.00  0.00     0.318 C 
BRANCH  14  15
ATOM     15  C   UNL A   1      34.563  23.836  25.677  1.00  0.00     0.093 A 
ATOM     16  C   UNL A   1      33.581  22.948  26.095  1.00  0.00     0.140 A 
ATOM     17  N   UNL A   1      35.699  23.055  25.612  1.00  0.00    -0.327 N 
ATOM     18  N   UNL A   1      34.076  21.699  26.320  1.00  0.00    -0.245 NA
ATOM     19  C   UNL A   1      35.350  21.795  26.025  1.00  0.00     0.200 A 
BRANCH  17  20
ATOM     20  C   UNL A   1      37.079  23.336  25.262  1.00  0.00     0.089 C 
ATOM     21  C   UNL A   1      38.153  23.951  26.135  1.00  0.00     0.027 C 
ATOM     22  C   UNL A   1      38.228  22.506  25.788  1.00  0.00     0.027 C 
ENDBRANCH  17  20
ENDBRANCH  14  15
ENDBRANCH  11  14
ENDBRANCH   7  11
ENDBRANCH   4   7
ENDBRANCH   2   3
ENDBRANCH   1   2
BRANCH   1  23
ATOM     23  C   UNL A   1      32.028  30.312  26.847  1.00  0.00     0.002 C 
BRANCH  23  24
ATOM     24  C   UNL A   1      33.169  31.331  26.997  1.00  0.00     0.002 C 
BRANCH  24  25
ATOM     25  C   UNL A   1      34.268  30.921  27.987  1.00  0.00     0.021 C 
BRANCH  25  26
ATOM     26  C   UNL A   1      35.476  31.836  27.918  1.00  0.00     0.116 C 
BRANCH  26  27
ATOM     27  N   UNL A   1      35.541  32.759  29.051  1.00  0.00    -0.352 N 
ATOM     28  C   UNL A   1      35.989  32.480  30.326  1.00  0.00     0.251 C 
ATOM     29  H   UNL A   1      35.232  33.679  28.886  1.00  0.00     0.163 HD
ATOM     30  O   UNL A   1      35.642  33.170  31.292  1.00  0.00    -0.269 OA
BRANCH  28  31
ATOM     31  C   UNL A   1      36.971  31.393  30.496  1.00  0.00     0.039 A 
ATOM     32  C   UNL A   1      36.666  30.061  30.771  1.00  0.00     0.014 A 
ATOM     33  C   UNL A   1      38.300  31.767  30.397  1.00  0.00     0.014 A 
ATOM     34  C   UNL A   1      37.734  29.161  30.964  1.00  0.00     0.010 A 
ATOM     35  C   UNL A   1      39.221  30.804  30.120  1.00  0.00     0.010 A 
ATOM     36  C   UNL A   1      39.063  29.573  30.706  1.00  0.00    -0.014 A 
BRANCH  36  37
ATOM     37  C   UNL A   1      40.228  28.681  30.527  1.00  0.00     0.031 A 
ATOM     38  C   UNL A   1      40.876  28.510  31.868  1.00  0.00     0.074 A 
ATOM     39  C   UNL A   1      40.546  28.009  29.368  1.00  0.00     0.049 A 
ATOM     40  N   UNL A   1      41.894  29.187  32.284  1.00  0.00    -0.248 NA
ATOM     41  C   UNL A   1      40.186  27.817  32.982  1.00  0.00     0.031 C 
ATOM     42  C   UNL A   1      39.858  28.009  28.058  1.00  0.00     0.029 A 
ATOM     43  N   UNL A   1      41.620  27.168  29.085  1.00  0.00    -0.354 N 
ATOM     44  C   UNL A   1      42.189  28.697  33.552  1.00  0.00     0.074 A 
ATOM     45  C   UNL A   1      40.983  28.090  34.023  1.00  0.00     0.031 C 
ATOM     46  C   UNL A   1      40.374  27.060  27.224  1.00  0.00     0.029 A 
ATOM     47  C   UNL A   1      41.533  26.447  27.847  1.00  0.00     0.049 A 
ATOM     48  H   UNL A   1      42.388  27.074  29.694  1.00  0.00     0.167 HD
ATOM     49  C   UNL A   1      43.497  28.495  33.882  1.00  0.00     0.037 A 
ATOM     50  C   UNL A   1      42.452  25.566  27.312  1.00  0.00     0.037 A 
ATOM     51  C   UNL A   1      44.328  29.194  32.926  1.00  0.00     0.049 A 
ATOM     52  C   UNL A   1      43.729  25.880  27.981  1.00  0.00     0.074 A 
ATOM     53  C   UNL A   1      44.596  30.514  32.627  1.00  0.00     0.029 A 
ATOM     54  N   UNL A   1      44.499  28.475  31.771  1.00  0.00    -0.354 N 
ATOM     55  N   UNL A   1      44.360  27.002  27.786  1.00  0.00    -0.248 NA
ATOM     56  C   UNL A   1      43.986  25.193  29.231  1.00  0.00     0.031 C 
ATOM     57  C   UNL A   1      44.745  30.573  31.208  1.00  0.00     0.029 A 
ATOM     58  C   UNL A   1      44.736  29.279  30.697  1.00  0.00     0.049 A 
ATOM     59  H   UNL A   1      44.454  27.492  31.723  1.00  0.00     0.167 HD
ATOM     60  C   UNL A   1      44.702  27.406  29.063  1.00  0.00     0.074 A 
ATOM     61  C   UNL A   1      44.533  26.209  29.903  1.00  0.00     0.031 C 
ATOM     62  C   UNL A   1      44.745  28.739  29.363  1.00  0.00     0.037 A 
BRANCH  49  63
ATOM     63  C   UNL A   1      44.027  27.270  34.609  1.00  0.00     0.057 A 
ATOM     64  C   UNL A   1      44.823  27.459  35.756  1.00  0.00     0.134 A 
ATOM     65  C   UNL A   1      44.059  25.961  34.083  1.00  0.00     0.134 A 
ATOM     66  F   UNL A   1      44.901  28.663  36.346  1.00  0.00    -0.206 F 
ATOM     67  C   UNL A   1      45.627  26.447  36.298  1.00  0.00     0.040 A 
ATOM     68  C   UNL A   1      44.828  24.932  34.640  1.00  0.00     0.040 A 
ATOM     69  F   UNL A   1      43.431  25.621  32.952  1.00  0.00    -0.206 F 
ATOM     70  C   UNL A   1      45.636  25.177  35.737  1.00  0.00     0.006 A 
ENDBRANCH  49  63
BRANCH  50  71
ATOM     71  C   UNL A   1      42.363  24.261  26.557  1.00  0.00     0.057 A 
ATOM     72  C   UNL A   1      43.203  23.921  25.464  1.00  0.00     0.134 A 
ATOM     73  C   UNL A   1      41.718  23.169  27.152  1.00  0.00     0.134 A 
ATOM     74  F   UNL A   1      43.939  24.860  24.847  1.00  0.00    -0.206 F 
ATOM     75  C   UNL A   1      43.382  22.594  25.009  1.00  0.00     0.040 A 
ATOM     76  C   UNL A   1      41.899  21.841  26.719  1.00  0.00     0.040 A 
ATOM     77  F   UNL A   1      40.972  23.352  28.250  1.00  0.00    -0.206 F 
ATOM     78  C   UNL A   1      42.737  21.544  25.651  1.00  0.00     0.006 A 
ENDBRANCH  50  71
BRANCH  62  79
ATOM     79  C   UNL A   1      44.754  29.716  28.222  1.00  0.00     0.057 A 
ATOM     80  C   UNL A   1      43.645  30.416  27.723  1.00  0.00     0.134 A 
ATOM     81  C   UNL A   1      45.999  30.045  27.685  1.00  0.00     0.134 A 
ATOM     82  F   UNL A   1      42.423  30.241  28.241  1.00  0.00    -0.206 F 
ATOM     83  C   UNL A   1      43.771  31.368  26.701  1.00  0.00     0.040 A 
ATOM     84  C   UNL A   1      46.146  31.010  26.692  1.00  0.00     0.040 A 
ATOM     85  F   UNL A   1      47.109  29.460  28.163  1.00  0.00    -0.206 F 
ATOM     86  C   UNL A   1      45.028  31.665  26.183  1.00  0.00     0.006 A 
ENDBRANCH  62  79
ENDBRANCH  36  37
ENDBRANCH  28  31
ENDBRANCH  26  27
ENDBRANCH  25  26
ENDBRANCH  24  25
ENDBRANCH  23  24
ENDBRANCH   1  23
TORSDOF 19
ENDMDL
