MODEL 1
REMARK VINA RESULT:     -12.5      0.000      0.000
REMARK SMILES C[C@@H](C(=O)NCCCCCCNC(=O)c1ccc(-c2c3nc(c(-c4c(F)cccc4F)c4ccc([nH]4)c(-c4c(F)cccc4F)c4nc(c(-c5c(F)cccc5F)c5ccc2[nH]5)C=C4)C=C3)cc1)c1ccc(-c2ccccc2)c(F)c1
REMARK SMILES IDX 8 1 7 2 6 3 5 4 3 5 4 6 2 8 1 9 69 10 70 11 81 12 71 13
REMARK SMILES IDX 79 14 72 15 80 16 73 17 74 18 78 19 75 20 77 21 76 22 9 23
REMARK SMILES IDX 10 24 11 25 12 26 13 27 14 29 15 30 16 31 68 32 17 33 67 34
REMARK SMILES IDX 18 35 19 36 20 37 61 38 21 39 66 40 60 41 62 42 22 43 65 44
REMARK SMILES IDX 59 45 58 46 23 48 49 49 32 50 48 51 33 52 36 53 47 54 63 55
REMARK SMILES IDX 34 56 35 57 46 59 64 60 37 61 24 62 25 63 30 64 26 65 27 66
REMARK SMILES IDX 29 67 31 68 28 69 50 70 51 71 56 72 52 73 53 74 55 75 57 76
REMARK SMILES IDX 54 77 38 78 39 79 44 80 40 81 41 82 43 83 45 84 42 85
REMARK H PARENT 5 7 12 28 62 47 36 58
REMARK Flexibility Score: inf
ROOT
ATOM      1  C   UNL A   1      32.271  29.344  27.112  1.00  0.00     0.002 C 
ENDROOT
BRANCH   1   2
ATOM      2  C   UNL A   1      31.450  28.050  27.233  1.00  0.00     0.021 C 
BRANCH   2   3
ATOM      3  C   UNL A   1      32.086  26.838  26.548  1.00  0.00     0.116 C 
BRANCH   3   4
ATOM      4  N   UNL A   1      31.340  25.637  26.851  1.00  0.00    -0.356 N 
ATOM      5  C   UNL A   1      30.613  24.816  26.044  1.00  0.00     0.227 C 
ATOM      6  O   UNL A   1      29.980  23.927  26.618  1.00  0.00    -0.274 OA
ATOM      7  H   UNL A   1      31.362  25.369  27.797  1.00  0.00     0.163 HD
BRANCH   5   8
ATOM      8  C   UNL A   1      30.653  24.992  24.512  1.00  0.00     0.105 C 
ATOM      9  C   UNL A   1      32.040  24.755  23.909  1.00  0.00     0.023 C 
BRANCH   8  10
ATOM     10  C   UNL A   1      30.166  26.361  24.044  1.00  0.00    -0.033 A 
ATOM     11  C   UNL A   1      31.068  27.342  23.607  1.00  0.00     0.005 A 
ATOM     12  C   UNL A   1      28.796  26.644  23.977  1.00  0.00     0.044 A 
ATOM     13  C   UNL A   1      30.618  28.581  23.152  1.00  0.00     0.012 A 
ATOM     14  C   UNL A   1      28.353  27.882  23.503  1.00  0.00     0.131 A 
ATOM     15  C   UNL A   1      29.248  28.876  23.082  1.00  0.00     0.017 A 
ATOM     16  F   UNL A   1      27.029  28.092  23.442  1.00  0.00    -0.206 F 
BRANCH  15  17
ATOM     17  C   UNL A   1      28.806  30.189  22.587  1.00  0.00    -0.015 A 
ATOM     18  C   UNL A   1      28.382  30.348  21.255  1.00  0.00     0.009 A 
ATOM     19  C   UNL A   1      28.840  31.329  23.406  1.00  0.00     0.009 A 
ATOM     20  C   UNL A   1      28.022  31.600  20.754  1.00  0.00     0.001 A 
ATOM     21  C   UNL A   1      28.480  32.583  22.908  1.00  0.00     0.001 A 
ATOM     22  C   UNL A   1      28.076  32.718  21.581  1.00  0.00     0.000 A 
ENDBRANCH  15  17
ENDBRANCH   8  10
ENDBRANCH   5   8
ENDBRANCH   3   4
ENDBRANCH   2   3
ENDBRANCH   1   2
BRANCH   1  23
ATOM     23  C   UNL A   1      31.785  30.323  26.039  1.00  0.00     0.002 C 
BRANCH  23  24
ATOM     24  C   UNL A   1      31.529  31.746  26.537  1.00  0.00     0.021 C 
BRANCH  24  25
ATOM     25  C   UNL A   1      32.721  32.400  27.230  1.00  0.00     0.116 C 
BRANCH  25  26
ATOM     26  N   UNL A   1      32.478  33.802  27.528  1.00  0.00    -0.352 N 
ATOM     27  C   UNL A   1      33.058  34.603  28.481  1.00  0.00     0.251 C 
ATOM     28  H   UNL A   1      31.799  34.242  26.966  1.00  0.00     0.163 HD
ATOM     29  O   UNL A   1      32.589  35.710  28.728  1.00  0.00    -0.269 OA
BRANCH  27  30
ATOM     30  C   UNL A   1      34.236  34.118  29.231  1.00  0.00     0.039 A 
ATOM     31  C   UNL A   1      34.036  33.300  30.344  1.00  0.00     0.014 A 
ATOM     32  C   UNL A   1      35.532  34.457  28.830  1.00  0.00     0.014 A 
ATOM     33  C   UNL A   1      35.137  32.756  31.009  1.00  0.00     0.010 A 
ATOM     34  C   UNL A   1      36.626  33.860  29.451  1.00  0.00     0.010 A 
ATOM     35  C   UNL A   1      36.439  32.993  30.538  1.00  0.00    -0.014 A 
BRANCH  35  36
ATOM     36  C   UNL A   1      37.606  32.294  31.135  1.00  0.00     0.031 A 
ATOM     37  C   UNL A   1      38.303  31.190  30.390  1.00  0.00     0.074 A 
ATOM     38  C   UNL A   1      37.991  32.612  32.388  1.00  0.00     0.049 A 
ATOM     39  N   UNL A   1      39.291  30.427  30.783  1.00  0.00    -0.248 NA
ATOM     40  C   UNL A   1      37.815  30.888  29.035  1.00  0.00     0.031 C 
ATOM     41  C   UNL A   1      37.361  33.628  33.234  1.00  0.00     0.029 A 
ATOM     42  N   UNL A   1      38.993  32.101  33.176  1.00  0.00    -0.354 N 
ATOM     43  C   UNL A   1      39.535  29.551  29.734  1.00  0.00     0.074 A 
ATOM     44  C   UNL A   1      38.566  29.848  28.701  1.00  0.00     0.031 C 
ATOM     45  C   UNL A   1      37.999  33.677  34.415  1.00  0.00     0.029 A 
ATOM     46  C   UNL A   1      39.053  32.668  34.427  1.00  0.00     0.049 A 
ATOM     47  H   UNL A   1      39.610  31.396  32.873  1.00  0.00     0.167 HD
ATOM     48  C   UNL A   1      40.491  28.597  29.637  1.00  0.00     0.037 A 
ATOM     49  C   UNL A   1      39.852  32.392  35.475  1.00  0.00     0.037 A 
ATOM     50  C   UNL A   1      41.472  28.323  30.656  1.00  0.00     0.049 A 
ATOM     51  C   UNL A   1      40.893  31.315  35.340  1.00  0.00     0.074 A 
ATOM     52  C   UNL A   1      42.532  27.434  30.610  1.00  0.00     0.029 A 
ATOM     53  N   UNL A   1      41.508  28.925  31.903  1.00  0.00    -0.354 N 
ATOM     54  N   UNL A   1      41.172  30.560  34.305  1.00  0.00    -0.248 NA
ATOM     55  C   UNL A   1      41.733  31.052  36.518  1.00  0.00     0.031 C 
ATOM     56  C   UNL A   1      43.174  27.454  31.851  1.00  0.00     0.029 A 
ATOM     57  C   UNL A   1      42.548  28.396  32.651  1.00  0.00     0.049 A 
ATOM     58  H   UNL A   1      40.887  29.623  32.213  1.00  0.00     0.167 HD
ATOM     59  C   UNL A   1      42.231  29.752  34.699  1.00  0.00     0.074 A 
ATOM     60  C   UNL A   1      42.561  30.125  36.057  1.00  0.00     0.031 C 
ATOM     61  C   UNL A   1      42.868  28.781  34.001  1.00  0.00     0.037 A 
BRANCH  48  62
ATOM     62  C   UNL A   1      40.541  27.770  28.385  1.00  0.00     0.057 A 
ATOM     63  C   UNL A   1      41.299  28.157  27.273  1.00  0.00     0.134 A 
ATOM     64  C   UNL A   1      39.901  26.525  28.330  1.00  0.00     0.134 A 
ATOM     65  F   UNL A   1      41.930  29.341  27.260  1.00  0.00    -0.206 F 
ATOM     66  C   UNL A   1      41.412  27.340  26.148  1.00  0.00     0.040 A 
ATOM     67  C   UNL A   1      40.026  25.688  27.221  1.00  0.00     0.040 A 
ATOM     68  F   UNL A   1      39.164  26.091  29.365  1.00  0.00    -0.206 F 
ATOM     69  C   UNL A   1      40.784  26.095  26.124  1.00  0.00     0.006 A 
ENDBRANCH  48  62
BRANCH  49  70
ATOM     70  C   UNL A   1      39.698  33.131  36.756  1.00  0.00     0.057 A 
ATOM     71  C   UNL A   1      38.760  32.733  37.715  1.00  0.00     0.134 A 
ATOM     72  C   UNL A   1      40.451  34.280  37.031  1.00  0.00     0.134 A 
ATOM     73  F   UNL A   1      37.993  31.653  37.503  1.00  0.00    -0.206 F 
ATOM     74  C   UNL A   1      38.549  33.468  38.883  1.00  0.00     0.040 A 
ATOM     75  C   UNL A   1      40.274  35.006  38.209  1.00  0.00     0.040 A 
ATOM     76  F   UNL A   1      41.374  34.711  36.158  1.00  0.00    -0.206 F 
ATOM     77  C   UNL A   1      39.310  34.609  39.133  1.00  0.00     0.006 A 
ENDBRANCH  49  70
BRANCH  61  78
ATOM     78  C   UNL A   1      44.000  28.073  34.686  1.00  0.00     0.057 A 
ATOM     79  C   UNL A   1      45.319  28.536  34.600  1.00  0.00     0.134 A 
ATOM     80  C   UNL A   1      43.763  26.934  35.468  1.00  0.00     0.134 A 
ATOM     81  F   UNL A   1      45.615  29.612  33.856  1.00  0.00    -0.206 F 
ATOM     82  C   UNL A   1      46.366  27.876  35.248  1.00  0.00     0.040 A 
ATOM     83  C   UNL A   1      44.797  26.286  36.144  1.00  0.00     0.040 A 
ATOM     84  F   UNL A   1      42.522  26.444  35.600  1.00  0.00    -0.206 F 
ATOM     85  C   UNL A   1      46.104  26.753  36.028  1.00  0.00     0.006 A 
ENDBRANCH  61  78
ENDBRANCH  35  36
ENDBRANCH  27  30
ENDBRANCH  25  26
ENDBRANCH  24  25
ENDBRANCH  23  24
ENDBRANCH   1  23
TORSDOF 15
ENDMDL
MODEL 2
REMARK VINA RESULT:     -12.2      1.576      6.242
REMARK SMILES C[C@@H](C(=O)NCCCCCCNC(=O)c1ccc(-c2c3nc(c(-c4c(F)cccc4F)c4ccc([nH]4)c(-c4c(F)cccc4F)c4nc(c(-c5c(F)cccc5F)c5ccc2[nH]5)C=C4)C=C3)cc1)c1ccc(-c2ccccc2)c(F)c1
REMARK SMILES IDX 8 1 7 2 6 3 5 4 3 5 4 6 2 8 1 9 69 10 70 11 81 12 71 13
REMARK SMILES IDX 79 14 72 15 80 16 73 17 74 18 78 19 75 20 77 21 76 22 9 23
REMARK SMILES IDX 10 24 11 25 12 26 13 27 14 29 15 30 16 31 68 32 17 33 67 34
REMARK SMILES IDX 18 35 19 36 20 37 61 38 21 39 66 40 60 41 62 42 22 43 65 44
REMARK SMILES IDX 59 45 58 46 23 48 49 49 32 50 48 51 33 52 36 53 47 54 63 55
REMARK SMILES IDX 34 56 35 57 46 59 64 60 37 61 24 62 25 63 30 64 26 65 27 66
REMARK SMILES IDX 29 67 31 68 28 69 50 70 51 71 56 72 52 73 53 74 55 75 57 76
REMARK SMILES IDX 54 77 38 78 39 79 44 80 40 81 41 82 43 83 45 84 42 85
REMARK H PARENT 5 7 12 28 62 47 36 58
REMARK Flexibility Score: inf
ROOT
ATOM      1  C   UNL A   1      31.866  29.218  26.863  1.00  0.00     0.002 C 
ENDROOT
BRANCH   1   2
ATOM      2  C   UNL A   1      33.107  28.344  26.624  1.00  0.00     0.021 C 
BRANCH   2   3
ATOM      3  C   UNL A   1      32.806  26.848  26.502  1.00  0.00     0.116 C 
BRANCH   3   4
ATOM      4  N   UNL A   1      33.631  26.248  25.477  1.00  0.00    -0.356 N 
ATOM      5  C   UNL A   1      33.296  25.489  24.399  1.00  0.00     0.227 C 
ATOM      6  O   UNL A   1      34.241  25.012  23.767  1.00  0.00    -0.274 OA
ATOM      7  H   UNL A   1      34.595  26.417  25.577  1.00  0.00     0.163 HD
BRANCH   5   8
ATOM      8  C   UNL A   1      31.817  25.310  24.000  1.00  0.00     0.105 C 
ATOM      9  C   UNL A   1      31.615  24.335  22.837  1.00  0.00     0.023 C 
BRANCH   8  10
ATOM     10  C   UNL A   1      31.122  26.621  23.638  1.00  0.00    -0.033 A 
ATOM     11  C   UNL A   1      31.842  27.703  23.113  1.00  0.00     0.005 A 
ATOM     12  C   UNL A   1      29.732  26.745  23.758  1.00  0.00     0.044 A 
ATOM     13  C   UNL A   1      31.200  28.889  22.755  1.00  0.00     0.012 A 
ATOM     14  C   UNL A   1      29.094  27.930  23.381  1.00  0.00     0.131 A 
ATOM     15  C   UNL A   1      29.808  29.026  22.874  1.00  0.00     0.017 A 
ATOM     16  F   UNL A   1      27.758  27.989  23.500  1.00  0.00    -0.206 F 
BRANCH  15  17
ATOM     17  C   UNL A   1      29.160  30.286  22.477  1.00  0.00    -0.015 A 
ATOM     18  C   UNL A   1      28.608  30.435  21.192  1.00  0.00     0.009 A 
ATOM     19  C   UNL A   1      29.116  31.389  23.344  1.00  0.00     0.009 A 
ATOM     20  C   UNL A   1      28.048  31.646  20.781  1.00  0.00     0.001 A 
ATOM     21  C   UNL A   1      28.555  32.602  22.935  1.00  0.00     0.001 A 
ATOM     22  C   UNL A   1      28.027  32.730  21.652  1.00  0.00     0.000 A 
ENDBRANCH  15  17
ENDBRANCH   8  10
ENDBRANCH   5   8
ENDBRANCH   3   4
ENDBRANCH   2   3
ENDBRANCH   1   2
BRANCH   1  23
ATOM     23  C   UNL A   1      31.741  30.435  25.941  1.00  0.00     0.002 C 
BRANCH  23  24
ATOM     24  C   UNL A   1      31.468  31.758  26.656  1.00  0.00     0.021 C 
BRANCH  24  25
ATOM     25  C   UNL A   1      32.699  32.408  27.279  1.00  0.00     0.116 C 
BRANCH  25  26
ATOM     26  N   UNL A   1      32.462  33.797  27.638  1.00  0.00    -0.352 N 
ATOM     27  C   UNL A   1      33.130  34.591  28.536  1.00  0.00     0.251 C 
ATOM     28  H   UNL A   1      31.713  34.232  27.168  1.00  0.00     0.163 HD
ATOM     29  O   UNL A   1      32.668  35.681  28.863  1.00  0.00    -0.269 OA
BRANCH  27  30
ATOM     30  C   UNL A   1      34.398  34.119  29.134  1.00  0.00     0.039 A 
ATOM     31  C   UNL A   1      34.352  33.402  30.331  1.00  0.00     0.014 A 
ATOM     32  C   UNL A   1      35.623  34.371  28.510  1.00  0.00     0.014 A 
ATOM     33  C   UNL A   1      35.528  32.868  30.861  1.00  0.00     0.010 A 
ATOM     34  C   UNL A   1      36.784  33.780  29.004  1.00  0.00     0.010 A 
ATOM     35  C   UNL A   1      36.745  33.012  30.176  1.00  0.00    -0.014 A 
BRANCH  35  36
ATOM     36  C   UNL A   1      37.972  32.315  30.644  1.00  0.00     0.031 A 
ATOM     37  C   UNL A   1      38.844  32.925  31.705  1.00  0.00     0.074 A 
ATOM     38  C   UNL A   1      38.335  31.158  30.053  1.00  0.00     0.049 A 
ATOM     39  N   UNL A   1      39.982  32.493  32.185  1.00  0.00    -0.248 NA
ATOM     40  C   UNL A   1      38.391  34.198  32.290  1.00  0.00     0.031 C 
ATOM     41  C   UNL A   1      37.601  30.492  28.975  1.00  0.00     0.029 A 
ATOM     42  N   UNL A   1      39.423  30.346  30.262  1.00  0.00    -0.354 N 
ATOM     43  C   UNL A   1      40.387  33.441  33.116  1.00  0.00     0.074 A 
ATOM     44  C   UNL A   1      39.393  34.492  33.107  1.00  0.00     0.031 C 
ATOM     45  C   UNL A   1      38.249  29.368  28.628  1.00  0.00     0.029 A 
ATOM     46  C   UNL A   1      39.465  29.256  29.426  1.00  0.00     0.049 A 
ATOM     47  H   UNL A   1      40.107  30.528  30.946  1.00  0.00     0.167 HD
ATOM     48  C   UNL A   1      41.479  33.424  33.916  1.00  0.00     0.037 A 
ATOM     49  C   UNL A   1      40.390  28.285  29.300  1.00  0.00     0.037 A 
ATOM     50  C   UNL A   1      42.451  32.361  33.942  1.00  0.00     0.049 A 
ATOM     51  C   UNL A   1      41.600  28.306  30.193  1.00  0.00     0.074 A 
ATOM     52  C   UNL A   1      43.544  32.218  34.780  1.00  0.00     0.029 A 
ATOM     53  N   UNL A   1      42.454  31.269  33.089  1.00  0.00    -0.354 N 
ATOM     54  N   UNL A   1      41.919  29.160  31.135  1.00  0.00    -0.248 NA
ATOM     55  C   UNL A   1      42.580  27.225  30.007  1.00  0.00     0.031 C 
ATOM     56  C   UNL A   1      44.242  31.069  34.396  1.00  0.00     0.029 A 
ATOM     57  C   UNL A   1      43.553  30.468  33.355  1.00  0.00     0.049 A 
ATOM     58  H   UNL A   1      41.777  31.089  32.398  1.00  0.00     0.167 HD
ATOM     59  C   UNL A   1      43.119  28.709  31.667  1.00  0.00     0.074 A 
ATOM     60  C   UNL A   1      43.460  27.492  30.962  1.00  0.00     0.031 C 
ATOM     61  C   UNL A   1      43.877  29.257  32.647  1.00  0.00     0.037 A 
BRANCH  48  62
ATOM     62  C   UNL A   1      41.695  34.585  34.842  1.00  0.00     0.057 A 
ATOM     63  C   UNL A   1      41.226  34.575  36.161  1.00  0.00     0.134 A 
ATOM     64  C   UNL A   1      42.465  35.684  34.437  1.00  0.00     0.134 A 
ATOM     65  F   UNL A   1      40.477  33.556  36.609  1.00  0.00    -0.206 F 
ATOM     66  C   UNL A   1      41.508  35.619  37.043  1.00  0.00     0.040 A 
ATOM     67  C   UNL A   1      42.774  36.722  35.316  1.00  0.00     0.040 A 
ATOM     68  F   UNL A   1      42.950  35.752  33.188  1.00  0.00    -0.206 F 
ATOM     69  C   UNL A   1      42.294  36.691  36.625  1.00  0.00     0.006 A 
ENDBRANCH  48  62
BRANCH  49  70
ATOM     70  C   UNL A   1      40.227  27.214  28.282  1.00  0.00     0.057 A 
ATOM     71  C   UNL A   1      39.504  26.049  28.562  1.00  0.00     0.134 A 
ATOM     72  C   UNL A   1      40.830  27.309  27.021  1.00  0.00     0.134 A 
ATOM     73  F   UNL A   1      38.920  25.889  29.758  1.00  0.00    -0.206 F 
ATOM     74  C   UNL A   1      39.416  25.002  27.643  1.00  0.00     0.040 A 
ATOM     75  C   UNL A   1      40.724  26.285  26.080  1.00  0.00     0.040 A 
ATOM     76  F   UNL A   1      41.531  28.402  26.685  1.00  0.00    -0.206 F 
ATOM     77  C   UNL A   1      40.027  25.120  26.395  1.00  0.00     0.006 A 
ENDBRANCH  49  70
BRANCH  61  78
ATOM     78  C   UNL A   1      45.135  28.533  33.030  1.00  0.00     0.057 A 
ATOM     79  C   UNL A   1      46.371  28.843  32.447  1.00  0.00     0.134 A 
ATOM     80  C   UNL A   1      45.117  27.538  34.016  1.00  0.00     0.134 A 
ATOM     81  F   UNL A   1      46.454  29.775  31.485  1.00  0.00    -0.206 F 
ATOM     82  C   UNL A   1      47.538  28.171  32.814  1.00  0.00     0.040 A 
ATOM     83  C   UNL A   1      46.283  26.882  34.413  1.00  0.00     0.040 A 
ATOM     84  F   UNL A   1      43.969  27.199  34.622  1.00  0.00    -0.206 F 
ATOM     85  C   UNL A   1      47.496  27.193  33.805  1.00  0.00     0.006 A 
ENDBRANCH  61  78
ENDBRANCH  35  36
ENDBRANCH  27  30
ENDBRANCH  25  26
ENDBRANCH  24  25
ENDBRANCH  23  24
ENDBRANCH   1  23
TORSDOF 15
ENDMDL
MODEL 3
REMARK VINA RESULT:     -12.1      1.918      2.453
REMARK SMILES C[C@@H](C(=O)NCCCCCCNC(=O)c1ccc(-c2c3nc(c(-c4c(F)cccc4F)c4ccc([nH]4)c(-c4c(F)cccc4F)c4nc(c(-c5c(F)cccc5F)c5ccc2[nH]5)C=C4)C=C3)cc1)c1ccc(-c2ccccc2)c(F)c1
REMARK SMILES IDX 8 1 7 2 6 3 5 4 3 5 4 6 2 8 1 9 69 10 70 11 81 12 71 13
REMARK SMILES IDX 79 14 72 15 80 16 73 17 74 18 78 19 75 20 77 21 76 22 9 23
REMARK SMILES IDX 10 24 11 25 12 26 13 27 14 29 15 30 16 31 68 32 17 33 67 34
REMARK SMILES IDX 18 35 19 36 20 37 61 38 21 39 66 40 60 41 62 42 22 43 65 44
REMARK SMILES IDX 59 45 58 46 23 48 49 49 32 50 48 51 33 52 36 53 47 54 63 55
REMARK SMILES IDX 34 56 35 57 46 59 64 60 37 61 24 62 25 63 30 64 26 65 27 66
REMARK SMILES IDX 29 67 31 68 28 69 50 70 51 71 56 72 52 73 53 74 55 75 57 76
REMARK SMILES IDX 54 77 38 78 39 79 44 80 40 81 41 82 43 83 45 84 42 85
REMARK H PARENT 5 7 12 28 62 47 36 58
REMARK Flexibility Score: inf
ROOT
ATOM      1  C   UNL A   1      32.477  28.440  26.531  1.00  0.00     0.002 C 
ENDROOT
BRANCH   1   2
ATOM      2  C   UNL A   1      33.577  27.713  25.740  1.00  0.00     0.021 C 
BRANCH   2   3
ATOM      3  C   UNL A   1      33.588  26.195  25.931  1.00  0.00     0.116 C 
BRANCH   3   4
ATOM      4  N   UNL A   1      33.845  25.529  24.674  1.00  0.00    -0.356 N 
ATOM      5  C   UNL A   1      33.003  24.879  23.825  1.00  0.00     0.227 C 
ATOM      6  O   UNL A   1      33.542  24.298  22.880  1.00  0.00    -0.274 OA
ATOM      7  H   UNL A   1      34.785  25.549  24.385  1.00  0.00     0.163 HD
BRANCH   5   8
ATOM      8  C   UNL A   1      31.477  24.939  24.040  1.00  0.00     0.105 C 
ATOM      9  C   UNL A   1      30.717  23.823  23.319  1.00  0.00     0.023 C 
BRANCH   8  10
ATOM     10  C   UNL A   1      30.857  26.271  23.627  1.00  0.00    -0.033 A 
ATOM     11  C   UNL A   1      29.527  26.582  23.943  1.00  0.00     0.005 A 
ATOM     12  C   UNL A   1      31.629  27.244  22.979  1.00  0.00     0.044 A 
ATOM     13  C   UNL A   1      28.973  27.813  23.591  1.00  0.00     0.012 A 
ATOM     14  C   UNL A   1      31.071  28.481  22.645  1.00  0.00     0.131 A 
ATOM     15  C   UNL A   1      29.736  28.794  22.939  1.00  0.00     0.017 A 
ATOM     16  F   UNL A   1      31.861  29.383  22.042  1.00  0.00    -0.206 F 
BRANCH  15  17
ATOM     17  C   UNL A   1      29.124  30.086  22.591  1.00  0.00    -0.015 A 
ATOM     18  C   UNL A   1      28.678  30.337  21.280  1.00  0.00     0.009 A 
ATOM     19  C   UNL A   1      29.011  31.120  23.533  1.00  0.00     0.009 A 
ATOM     20  C   UNL A   1      28.155  31.580  20.920  1.00  0.00     0.001 A 
ATOM     21  C   UNL A   1      28.487  32.365  23.175  1.00  0.00     0.001 A 
ATOM     22  C   UNL A   1      28.065  32.595  21.868  1.00  0.00     0.000 A 
ENDBRANCH  15  17
ENDBRANCH   8  10
ENDBRANCH   5   8
ENDBRANCH   3   4
ENDBRANCH   2   3
ENDBRANCH   1   2
BRANCH   1  23
ATOM     23  C   UNL A   1      31.872  29.660  25.830  1.00  0.00     0.002 C 
BRANCH  23  24
ATOM     24  C   UNL A   1      31.614  30.861  26.740  1.00  0.00     0.021 C 
BRANCH  24  25
ATOM     25  C   UNL A   1      32.827  31.759  26.962  1.00  0.00     0.116 C 
BRANCH  25  26
ATOM     26  N   UNL A   1      32.446  33.105  27.361  1.00  0.00    -0.352 N 
ATOM     27  C   UNL A   1      33.053  33.954  28.252  1.00  0.00     0.251 C 
ATOM     28  H   UNL A   1      31.633  33.458  26.930  1.00  0.00     0.163 HD
ATOM     29  O   UNL A   1      32.482  34.977  28.620  1.00  0.00    -0.269 OA
BRANCH  27  30
ATOM     30  C   UNL A   1      34.389  33.622  28.790  1.00  0.00     0.039 A 
ATOM     31  C   UNL A   1      34.474  32.905  29.986  1.00  0.00     0.014 A 
ATOM     32  C   UNL A   1      35.552  34.004  28.113  1.00  0.00     0.014 A 
ATOM     33  C   UNL A   1      35.724  32.501  30.461  1.00  0.00     0.010 A 
ATOM     34  C   UNL A   1      36.791  33.542  28.552  1.00  0.00     0.010 A 
ATOM     35  C   UNL A   1      36.887  32.775  29.722  1.00  0.00    -0.014 A 
BRANCH  35  36
ATOM     36  C   UNL A   1      38.201  32.214  30.132  1.00  0.00     0.031 A 
ATOM     37  C   UNL A   1      38.679  30.900  29.581  1.00  0.00     0.074 A 
ATOM     38  C   UNL A   1      38.930  32.863  31.062  1.00  0.00     0.049 A 
ATOM     39  N   UNL A   1      39.764  30.229  29.876  1.00  0.00    -0.248 NA
ATOM     40  C   UNL A   1      37.821  30.242  28.584  1.00  0.00     0.031 C 
ATOM     41  C   UNL A   1      38.549  34.119  31.712  1.00  0.00     0.029 A 
ATOM     42  N   UNL A   1      40.137  32.548  31.637  1.00  0.00    -0.354 N 
ATOM     43  C   UNL A   1      39.713  29.069  29.113  1.00  0.00     0.074 A 
ATOM     44  C   UNL A   1      38.472  29.107  28.370  1.00  0.00     0.031 C 
ATOM     45  C   UNL A   1      39.506  34.475  32.582  1.00  0.00     0.029 A 
ATOM     46  C   UNL A   1      40.548  33.453  32.587  1.00  0.00     0.049 A 
ATOM     47  H   UNL A   1      40.658  31.750  31.392  1.00  0.00     0.167 HD
ATOM     48  C   UNL A   1      40.627  28.074  29.030  1.00  0.00     0.037 A 
ATOM     49  C   UNL A   1      41.631  33.451  33.387  1.00  0.00     0.037 A 
ATOM     50  C   UNL A   1      41.874  28.055  29.750  1.00  0.00     0.049 A 
ATOM     51  C   UNL A   1      42.619  32.322  33.281  1.00  0.00     0.074 A 
ATOM     52  C   UNL A   1      42.901  27.129  29.664  1.00  0.00     0.029 A 
ATOM     53  N   UNL A   1      42.260  28.993  30.693  1.00  0.00    -0.354 N 
ATOM     54  N   UNL A   1      42.601  31.280  32.485  1.00  0.00    -0.248 NA
ATOM     55  C   UNL A   1      43.779  32.367  34.183  1.00  0.00     0.031 C 
ATOM     56  C   UNL A   1      43.882  27.476  30.597  1.00  0.00     0.029 A 
ATOM     57  C   UNL A   1      43.492  28.647  31.226  1.00  0.00     0.049 A 
ATOM     58  H   UNL A   1      41.737  29.787  30.948  1.00  0.00     0.167 HD
ATOM     59  C   UNL A   1      43.754  30.562  32.773  1.00  0.00     0.074 A 
ATOM     60  C   UNL A   1      44.462  31.298  33.799  1.00  0.00     0.031 C 
ATOM     61  C   UNL A   1      44.186  29.393  32.243  1.00  0.00     0.037 A 
BRANCH  48  62
ATOM     62  C   UNL A   1      40.329  26.914  28.126  1.00  0.00     0.057 A 
ATOM     63  C   UNL A   1      40.905  26.801  26.854  1.00  0.00     0.134 A 
ATOM     64  C   UNL A   1      39.532  25.851  28.573  1.00  0.00     0.134 A 
ATOM     65  F   UNL A   1      41.671  27.787  26.366  1.00  0.00    -0.206 F 
ATOM     66  C   UNL A   1      40.693  25.676  26.057  1.00  0.00     0.040 A 
ATOM     67  C   UNL A   1      39.333  24.711  27.794  1.00  0.00     0.040 A 
ATOM     68  F   UNL A   1      38.956  25.894  29.784  1.00  0.00    -0.206 F 
ATOM     69  C   UNL A   1      39.916  24.621  26.530  1.00  0.00     0.006 A 
ENDBRANCH  48  62
BRANCH  49  70
ATOM     70  C   UNL A   1      41.842  34.542  34.375  1.00  0.00     0.057 A 
ATOM     71  C   UNL A   1      42.489  35.730  34.017  1.00  0.00     0.134 A 
ATOM     72  C   UNL A   1      41.445  34.402  35.711  1.00  0.00     0.134 A 
ATOM     73  F   UNL A   1      42.911  35.917  32.759  1.00  0.00    -0.206 F 
ATOM     74  C   UNL A   1      42.766  36.725  34.957  1.00  0.00     0.040 A 
ATOM     75  C   UNL A   1      41.687  35.401  36.655  1.00  0.00     0.040 A 
ATOM     76  F   UNL A   1      40.814  33.291  36.119  1.00  0.00    -0.206 F 
ATOM     77  C   UNL A   1      42.362  36.562  36.281  1.00  0.00     0.006 A 
ENDBRANCH  49  70
BRANCH  61  78
ATOM     78  C   UNL A   1      45.492  28.851  32.745  1.00  0.00     0.057 A 
ATOM     79  C   UNL A   1      46.714  29.216  32.165  1.00  0.00     0.134 A 
ATOM     80  C   UNL A   1      45.532  27.981  33.843  1.00  0.00     0.134 A 
ATOM     81  F   UNL A   1      46.745  30.034  31.102  1.00  0.00    -0.206 F 
ATOM     82  C   UNL A   1      47.926  28.715  32.643  1.00  0.00     0.040 A 
ATOM     83  C   UNL A   1      46.740  27.499  34.348  1.00  0.00     0.040 A 
ATOM     84  F   UNL A   1      44.399  27.599  34.452  1.00  0.00    -0.206 F 
ATOM     85  C   UNL A   1      47.941  27.860  33.743  1.00  0.00     0.006 A 
ENDBRANCH  61  78
ENDBRANCH  35  36
ENDBRANCH  27  30
ENDBRANCH  25  26
ENDBRANCH  24  25
ENDBRANCH  23  24
ENDBRANCH   1  23
TORSDOF 15
ENDMDL
