MODEL 1
REMARK VINA RESULT:     -11.2      0.000      0.000
REMARK SMILES CC(C)(C)C[N@H+]1[C@@H](C(=O)NCCCCCCNC(=O)c2ccc(-c3c4nc(c(-c5c(F)cccc5F)c5ccc([nH]5)c(-c5c(F)cccc5F)c5nc(c(-c6c(F)cccc6F)c6ccc3[nH]6)C=C5)C=C4)cc2)CC[C@H]2CCCC[C@@H]21
REMARK SMILES IDX 13 1 12 2 11 3 10 4 8 5 9 6 7 8 6 9 81 10 74 12 76 13 80 14
REMARK SMILES IDX 75 15 77 16 79 17 78 18 5 19 2 20 1 21 3 22 4 23 14 24 15 25
REMARK SMILES IDX 16 26 17 27 18 28 19 30 20 31 21 32 73 33 22 34 72 35 23 36
REMARK SMILES IDX 24 37 25 38 66 39 26 40 71 41 65 42 67 43 27 44 70 45 64 46
REMARK SMILES IDX 63 47 28 49 54 50 37 51 53 52 38 53 41 54 52 55 68 56 39 57
REMARK SMILES IDX 40 58 51 60 69 61 42 62 29 63 30 64 35 65 31 66 32 67 34 68
REMARK SMILES IDX 36 69 33 70 55 71 56 72 61 73 57 74 58 75 60 76 62 77 59 78
REMARK SMILES IDX 43 79 44 80 49 81 45 82 46 83 48 84 50 85 47 86
REMARK H PARENT 10 7 6 11 17 29 67 48 41 59
REMARK Flexibility Score: inf
ROOT
ATOM      1  C   UNL A   1      36.342  21.422  25.471  1.00  0.00     0.002 C 
ENDROOT
BRANCH   1   2
ATOM      2  C   UNL A   1      36.665  22.550  24.483  1.00  0.00     0.021 C 
BRANCH   2   3
ATOM      3  C   UNL A   1      35.639  23.681  24.286  1.00  0.00     0.116 C 
BRANCH   3   4
ATOM      4  N   UNL A   1      34.795  23.539  23.118  1.00  0.00    -0.351 N 
ATOM      5  C   UNL A   1      33.723  24.254  22.663  1.00  0.00     0.278 C 
ATOM      6  O   UNL A   1      33.244  23.855  21.594  1.00  0.00    -0.268 OA
ATOM      7  H   UNL A   1      35.042  22.781  22.540  1.00  0.00     0.163 HD
BRANCH   5   8
ATOM      8  C   UNL A   1      33.182  25.541  23.352  1.00  0.00     0.274 C 
ATOM      9  N   UNL A   1      32.769  25.379  24.787  1.00  0.00    -0.322 N 
ATOM     10  C   UNL A   1      32.485  26.745  25.358  1.00  0.00     0.187 C 
ATOM     11  H   UNL A   1      33.533  24.913  25.276  1.00  0.00     0.349 HD
ATOM     12  C   UNL A   1      32.039  26.164  22.488  1.00  0.00     0.076 C 
ATOM     13  C   UNL A   1      32.016  27.811  24.329  1.00  0.00     0.048 C 
ATOM     14  C   UNL A   1      33.663  27.389  26.116  1.00  0.00     0.065 C 
ATOM     15  C   UNL A   1      31.170  27.181  23.241  1.00  0.00     0.016 C 
ATOM     16  C   UNL A   1      31.338  28.954  25.085  1.00  0.00     0.010 C 
ATOM     17  C   UNL A   1      33.176  28.653  26.857  1.00  0.00     0.006 C 
ATOM     18  C   UNL A   1      32.366  29.635  25.993  1.00  0.00     0.001 C 
BRANCH   9  19
ATOM     19  C   UNL A   1      31.540  24.526  24.952  1.00  0.00     0.269 C 
BRANCH  19  20
ATOM     20  C   UNL A   1      31.685  23.236  25.815  1.00  0.00     0.011 C 
ATOM     21  C   UNL A   1      30.476  23.082  26.752  1.00  0.00     0.017 C 
ATOM     22  C   UNL A   1      32.912  23.369  26.747  1.00  0.00     0.017 C 
ATOM     23  C   UNL A   1      31.938  21.997  24.939  1.00  0.00     0.017 C 
ENDBRANCH  19  20
ENDBRANCH   9  19
ENDBRANCH   5   8
ENDBRANCH   3   4
ENDBRANCH   2   3
ENDBRANCH   1   2
BRANCH   1  24
ATOM     24  C   UNL A   1      36.444  20.000  24.870  1.00  0.00     0.002 C 
BRANCH  24  25
ATOM     25  C   UNL A   1      37.808  19.284  24.892  1.00  0.00     0.021 C 
BRANCH  25  26
ATOM     26  C   UNL A   1      38.914  19.958  25.703  1.00  0.00     0.116 C 
BRANCH  26  27
ATOM     27  N   UNL A   1      40.118  19.145  25.774  1.00  0.00    -0.352 N 
ATOM     28  C   UNL A   1      41.427  19.483  26.023  1.00  0.00     0.251 C 
ATOM     29  H   UNL A   1      39.969  18.185  25.617  1.00  0.00     0.163 HD
ATOM     30  O   UNL A   1      42.306  18.650  25.805  1.00  0.00    -0.269 OA
BRANCH  28  31
ATOM     31  C   UNL A   1      41.826  20.817  26.540  1.00  0.00     0.039 A 
ATOM     32  C   UNL A   1      41.568  21.109  27.886  1.00  0.00     0.014 A 
ATOM     33  C   UNL A   1      42.315  21.826  25.705  1.00  0.00     0.014 A 
ATOM     34  C   UNL A   1      41.830  22.386  28.400  1.00  0.00     0.010 A 
ATOM     35  C   UNL A   1      42.618  23.092  26.230  1.00  0.00     0.010 A 
ATOM     36  C   UNL A   1      42.371  23.390  27.580  1.00  0.00    -0.014 A 
BRANCH  36  37
ATOM     37  C   UNL A   1      42.674  24.741  28.134  1.00  0.00     0.031 A 
ATOM     38  C   UNL A   1      44.075  25.119  28.540  1.00  0.00     0.074 A 
ATOM     39  C   UNL A   1      41.679  25.635  28.298  1.00  0.00     0.049 A 
ATOM     40  N   UNL A   1      44.515  26.245  29.046  1.00  0.00    -0.248 NA
ATOM     41  C   UNL A   1      45.113  24.093  28.370  1.00  0.00     0.031 C 
ATOM     42  C   UNL A   1      40.270  25.396  27.982  1.00  0.00     0.029 A 
ATOM     43  N   UNL A   1      41.698  26.923  28.775  1.00  0.00    -0.354 N 
ATOM     44  C   UNL A   1      45.875  26.061  29.263  1.00  0.00     0.074 A 
ATOM     45  C   UNL A   1      46.180  24.701  28.869  1.00  0.00     0.031 C 
ATOM     46  C   UNL A   1      39.565  26.505  28.256  1.00  0.00     0.029 A 
ATOM     47  C   UNL A   1      40.464  27.526  28.789  1.00  0.00     0.049 A 
ATOM     48  H   UNL A   1      42.521  27.372  29.077  1.00  0.00     0.167 HD
ATOM     49  C   UNL A   1      46.792  26.945  29.730  1.00  0.00     0.037 A 
ATOM     50  C   UNL A   1      40.095  28.759  29.184  1.00  0.00     0.037 A 
ATOM     51  C   UNL A   1      46.504  28.307  30.104  1.00  0.00     0.049 A 
ATOM     52  C   UNL A   1      41.131  29.724  29.689  1.00  0.00     0.074 A 
ATOM     53  C   UNL A   1      47.381  29.287  30.538  1.00  0.00     0.029 A 
ATOM     54  N   UNL A   1      45.243  28.882  30.088  1.00  0.00    -0.354 N 
ATOM     55  N   UNL A   1      42.421  29.551  29.832  1.00  0.00    -0.248 NA
ATOM     56  C   UNL A   1      40.656  31.061  30.077  1.00  0.00     0.031 C 
ATOM     57  C   UNL A   1      46.646  30.445  30.816  1.00  0.00     0.029 A 
ATOM     58  C   UNL A   1      45.317  30.198  30.519  1.00  0.00     0.049 A 
ATOM     59  H   UNL A   1      44.417  28.424  29.811  1.00  0.00     0.167 HD
ATOM     60  C   UNL A   1      42.916  30.761  30.301  1.00  0.00     0.074 A 
ATOM     61  C   UNL A   1      41.790  31.664  30.406  1.00  0.00     0.031 C 
ATOM     62  C   UNL A   1      44.192  31.092  30.618  1.00  0.00     0.037 A 
BRANCH  49  63
ATOM     63  C   UNL A   1      48.209  26.465  29.864  1.00  0.00     0.057 A 
ATOM     64  C   UNL A   1      49.147  26.647  28.839  1.00  0.00     0.134 A 
ATOM     65  C   UNL A   1      48.651  25.854  31.044  1.00  0.00     0.134 A 
ATOM     66  F   UNL A   1      48.787  27.220  27.681  1.00  0.00    -0.206 F 
ATOM     67  C   UNL A   1      50.468  26.216  28.974  1.00  0.00     0.040 A 
ATOM     68  C   UNL A   1      49.976  25.441  31.200  1.00  0.00     0.040 A 
ATOM     69  F   UNL A   1      47.807  25.660  32.069  1.00  0.00    -0.206 F 
ATOM     70  C   UNL A   1      50.887  25.616  30.161  1.00  0.00     0.006 A 
ENDBRANCH  49  63
BRANCH  50  71
ATOM     71  C   UNL A   1      38.671  29.168  29.090  1.00  0.00     0.057 A 
ATOM     72  C   UNL A   1      38.126  29.603  27.876  1.00  0.00     0.134 A 
ATOM     73  C   UNL A   1      37.828  29.143  30.206  1.00  0.00     0.134 A 
ATOM     74  F   UNL A   1      38.892  29.671  26.778  1.00  0.00    -0.206 F 
ATOM     75  C   UNL A   1      36.797  30.016  27.779  1.00  0.00     0.040 A 
ATOM     76  C   UNL A   1      36.491  29.532  30.119  1.00  0.00     0.040 A 
ATOM     77  F   UNL A   1      38.291  28.732  31.396  1.00  0.00    -0.206 F 
ATOM     78  C   UNL A   1      35.973  29.976  28.902  1.00  0.00     0.006 A 
ENDBRANCH  50  71
BRANCH  62  79
ATOM     79  C   UNL A   1      44.440  32.498  31.078  1.00  0.00     0.057 A 
ATOM     80  C   UNL A   1      44.405  32.849  32.435  1.00  0.00     0.134 A 
ATOM     81  C   UNL A   1      44.731  33.511  30.156  1.00  0.00     0.134 A 
ATOM     82  F   UNL A   1      44.116  31.928  33.366  1.00  0.00    -0.206 F 
ATOM     83  C   UNL A   1      44.625  34.162  32.854  1.00  0.00     0.040 A 
ATOM     84  C   UNL A   1      44.977  34.823  30.565  1.00  0.00     0.040 A 
ATOM     85  F   UNL A   1      44.786  33.241  28.843  1.00  0.00    -0.206 F 
ATOM     86  C   UNL A   1      44.916  35.153  31.918  1.00  0.00     0.006 A 
ENDBRANCH  62  79
ENDBRANCH  36  37
ENDBRANCH  28  31
ENDBRANCH  26  27
ENDBRANCH  25  26
ENDBRANCH  24  25
ENDBRANCH   1  24
TORSDOF 15
ENDMDL
MODEL 2
REMARK VINA RESULT:     -11.2      3.253      8.735
REMARK SMILES CC(C)(C)C[N@H+]1[C@@H](C(=O)NCCCCCCNC(=O)c2ccc(-c3c4nc(c(-c5c(F)cccc5F)c5ccc([nH]5)c(-c5c(F)cccc5F)c5nc(c(-c6c(F)cccc6F)c6ccc3[nH]6)C=C5)C=C4)cc2)CC[C@H]2CCCC[C@@H]21
REMARK SMILES IDX 13 1 12 2 11 3 10 4 8 5 9 6 7 8 6 9 81 10 74 12 76 13 80 14
REMARK SMILES IDX 75 15 77 16 79 17 78 18 5 19 2 20 1 21 3 22 4 23 14 24 15 25
REMARK SMILES IDX 16 26 17 27 18 28 19 30 20 31 21 32 73 33 22 34 72 35 23 36
REMARK SMILES IDX 24 37 25 38 66 39 26 40 71 41 65 42 67 43 27 44 70 45 64 46
REMARK SMILES IDX 63 47 28 49 54 50 37 51 53 52 38 53 41 54 52 55 68 56 39 57
REMARK SMILES IDX 40 58 51 60 69 61 42 62 29 63 30 64 35 65 31 66 32 67 34 68
REMARK SMILES IDX 36 69 33 70 55 71 56 72 61 73 57 74 58 75 60 76 62 77 59 78
REMARK SMILES IDX 43 79 44 80 49 81 45 82 46 83 48 84 50 85 47 86
REMARK H PARENT 10 7 6 11 17 29 67 48 41 59
REMARK Flexibility Score: inf
ROOT
ATOM      1  C   UNL A   1      32.245  29.703  25.806  1.00  0.00     0.002 C 
ENDROOT
BRANCH   1   2
ATOM      2  C   UNL A   1      31.887  28.691  26.902  1.00  0.00     0.021 C 
BRANCH   2   3
ATOM      3  C   UNL A   1      32.250  27.209  26.691  1.00  0.00     0.116 C 
BRANCH   3   4
ATOM      4  N   UNL A   1      31.127  26.297  26.745  1.00  0.00    -0.351 N 
ATOM      5  C   UNL A   1      31.005  24.968  26.447  1.00  0.00     0.278 C 
ATOM      6  O   UNL A   1      29.876  24.493  26.633  1.00  0.00    -0.268 OA
ATOM      7  H   UNL A   1      30.291  26.713  27.058  1.00  0.00     0.163 HD
BRANCH   5   8
ATOM      8  C   UNL A   1      32.192  24.064  26.005  1.00  0.00     0.274 C 
ATOM      9  N   UNL A   1      33.007  24.585  24.856  1.00  0.00    -0.322 N 
ATOM     10  C   UNL A   1      34.228  23.713  24.705  1.00  0.00     0.187 C 
ATOM     11  H   UNL A   1      33.252  25.552  25.067  1.00  0.00     0.349 HD
ATOM     12  C   UNL A   1      31.681  22.611  25.740  1.00  0.00     0.076 C 
ATOM     13  C   UNL A   1      34.061  22.246  25.187  1.00  0.00     0.048 C 
ATOM     14  C   UNL A   1      35.493  24.243  25.409  1.00  0.00     0.065 C 
ATOM     15  C   UNL A   1      32.655  21.745  24.928  1.00  0.00     0.016 C 
ATOM     16  C   UNL A   1      35.167  21.397  24.561  1.00  0.00     0.010 C 
ATOM     17  C   UNL A   1      36.717  23.407  24.976  1.00  0.00     0.006 C 
ATOM     18  C   UNL A   1      36.526  21.884  25.076  1.00  0.00     0.001 C 
BRANCH   9  19
ATOM     19  C   UNL A   1      32.253  24.584  23.554  1.00  0.00     0.269 C 
BRANCH  19  20
ATOM     20  C   UNL A   1      32.242  25.915  22.742  1.00  0.00     0.011 C 
ATOM     21  C   UNL A   1      32.541  25.639  21.259  1.00  0.00     0.017 C 
ATOM     22  C   UNL A   1      33.390  26.830  23.228  1.00  0.00     0.017 C 
ATOM     23  C   UNL A   1      30.938  26.700  22.965  1.00  0.00     0.017 C 
ENDBRANCH  19  20
ENDBRANCH   9  19
ENDBRANCH   5   8
ENDBRANCH   3   4
ENDBRANCH   2   3
ENDBRANCH   1   2
BRANCH   1  24
ATOM     24  C   UNL A   1      31.123  30.719  25.486  1.00  0.00     0.002 C 
BRANCH  24  25
ATOM     25  C   UNL A   1      31.081  32.045  26.267  1.00  0.00     0.021 C 
BRANCH  25  26
ATOM     26  C   UNL A   1      32.338  32.407  27.056  1.00  0.00     0.116 C 
BRANCH  26  27
ATOM     27  N   UNL A   1      32.296  33.768  27.566  1.00  0.00    -0.352 N 
ATOM     28  C   UNL A   1      33.089  34.419  28.482  1.00  0.00     0.251 C 
ATOM     29  H   UNL A   1      31.573  34.321  27.191  1.00  0.00     0.163 HD
ATOM     30  O   UNL A   1      32.715  35.504  28.924  1.00  0.00    -0.269 OA
BRANCH  28  31
ATOM     31  C   UNL A   1      34.377  33.860  28.967  1.00  0.00     0.039 A 
ATOM     32  C   UNL A   1      35.516  34.038  28.171  1.00  0.00     0.014 A 
ATOM     33  C   UNL A   1      34.461  33.054  30.106  1.00  0.00     0.014 A 
ATOM     34  C   UNL A   1      36.734  33.445  28.528  1.00  0.00     0.010 A 
ATOM     35  C   UNL A   1      35.691  32.496  30.487  1.00  0.00     0.010 A 
ATOM     36  C   UNL A   1      36.840  32.677  29.699  1.00  0.00    -0.014 A 
BRANCH  36  37
ATOM     37  C   UNL A   1      38.143  32.069  30.093  1.00  0.00     0.031 A 
ATOM     38  C   UNL A   1      39.070  32.770  31.052  1.00  0.00     0.074 A 
ATOM     39  C   UNL A   1      38.512  30.883  29.570  1.00  0.00     0.049 A 
ATOM     40  N   UNL A   1      40.244  32.390  31.496  1.00  0.00    -0.248 NA
ATOM     41  C   UNL A   1      38.630  34.075  31.564  1.00  0.00     0.031 C 
ATOM     42  C   UNL A   1      37.733  30.107  28.606  1.00  0.00     0.029 A 
ATOM     43  N   UNL A   1      39.639  30.124  29.773  1.00  0.00    -0.354 N 
ATOM     44  C   UNL A   1      40.685  33.409  32.331  1.00  0.00     0.074 A 
ATOM     45  C   UNL A   1      39.670  34.442  32.300  1.00  0.00     0.031 C 
ATOM     46  C   UNL A   1      38.395  28.976  28.314  1.00  0.00     0.029 A 
ATOM     47  C   UNL A   1      39.656  28.956  29.051  1.00  0.00     0.049 A 
ATOM     48  H   UNL A   1      40.367  30.393  30.380  1.00  0.00     0.167 HD
ATOM     49  C   UNL A   1      41.820  33.476  33.070  1.00  0.00     0.037 A 
ATOM     50  C   UNL A   1      40.578  27.977  28.988  1.00  0.00     0.037 A 
ATOM     51  C   UNL A   1      42.826  32.445  33.125  1.00  0.00     0.049 A 
ATOM     52  C   UNL A   1      41.824  28.069  29.824  1.00  0.00     0.074 A 
ATOM     53  C   UNL A   1      43.983  32.407  33.886  1.00  0.00     0.029 A 
ATOM     54  N   UNL A   1      42.796  31.270  32.390  1.00  0.00    -0.354 N 
ATOM     55  N   UNL A   1      42.196  29.013  30.651  1.00  0.00    -0.248 NA
ATOM     56  C   UNL A   1      42.773  26.949  29.722  1.00  0.00     0.031 C 
ATOM     57  C   UNL A   1      44.669  31.224  33.587  1.00  0.00     0.029 A 
ATOM     58  C   UNL A   1      43.920  30.508  32.669  1.00  0.00     0.049 A 
ATOM     59  H   UNL A   1      42.081  31.014  31.763  1.00  0.00     0.167 HD
ATOM     60  C   UNL A   1      43.407  28.592  31.188  1.00  0.00     0.074 A 
ATOM     61  C   UNL A   1      43.700  27.301  30.602  1.00  0.00     0.031 C 
ATOM     62  C   UNL A   1      44.204  29.222  32.085  1.00  0.00     0.037 A 
BRANCH  49  63
ATOM     63  C   UNL A   1      42.040  34.716  33.889  1.00  0.00     0.057 A 
ATOM     64  C   UNL A   1      41.645  34.790  35.231  1.00  0.00     0.134 A 
ATOM     65  C   UNL A   1      42.692  35.829  33.344  1.00  0.00     0.134 A 
ATOM     66  F   UNL A   1      41.010  33.760  35.811  1.00  0.00    -0.206 F 
ATOM     67  C   UNL A   1      41.867  35.937  35.995  1.00  0.00     0.040 A 
ATOM     68  C   UNL A   1      42.942  36.973  34.105  1.00  0.00     0.040 A 
ATOM     69  F   UNL A   1      43.107  35.820  32.069  1.00  0.00    -0.206 F 
ATOM     70  C   UNL A   1      42.523  37.032  35.433  1.00  0.00     0.006 A 
ENDBRANCH  49  63
BRANCH  50  71
ATOM     71  C   UNL A   1      40.345  26.798  28.117  1.00  0.00     0.057 A 
ATOM     72  C   UNL A   1      40.930  26.714  26.849  1.00  0.00     0.134 A 
ATOM     73  C   UNL A   1      39.527  25.738  28.525  1.00  0.00     0.134 A 
ATOM     74  F   UNL A   1      41.704  27.710  26.394  1.00  0.00    -0.206 F 
ATOM     75  C   UNL A   1      40.698  25.624  26.008  1.00  0.00     0.040 A 
ATOM     76  C   UNL A   1      39.304  24.632  27.704  1.00  0.00     0.040 A 
ATOM     77  F   UNL A   1      38.942  25.760  29.731  1.00  0.00    -0.206 F 
ATOM     78  C   UNL A   1      39.886  24.576  26.438  1.00  0.00     0.006 A 
ENDBRANCH  50  71
BRANCH  62  79
ATOM     79  C   UNL A   1      45.454  28.509  32.509  1.00  0.00     0.057 A 
ATOM     80  C   UNL A   1      46.674  28.698  31.847  1.00  0.00     0.134 A 
ATOM     81  C   UNL A   1      45.440  27.633  33.602  1.00  0.00     0.134 A 
ATOM     82  F   UNL A   1      46.750  29.512  30.784  1.00  0.00    -0.206 F 
ATOM     83  C   UNL A   1      47.830  28.021  32.241  1.00  0.00     0.040 A 
ATOM     84  C   UNL A   1      46.594  26.969  34.020  1.00  0.00     0.040 A 
ATOM     85  F   UNL A   1      44.306  27.412  34.283  1.00  0.00    -0.206 F 
ATOM     86  C   UNL A   1      47.793  27.156  33.333  1.00  0.00     0.006 A 
ENDBRANCH  62  79
ENDBRANCH  36  37
ENDBRANCH  28  31
ENDBRANCH  26  27
ENDBRANCH  25  26
ENDBRANCH  24  25
ENDBRANCH   1  24
TORSDOF 15
ENDMDL
MODEL 3
REMARK VINA RESULT:     -11.0      2.541      3.841
REMARK SMILES CC(C)(C)C[N@H+]1[C@@H](C(=O)NCCCCCCNC(=O)c2ccc(-c3c4nc(c(-c5c(F)cccc5F)c5ccc([nH]5)c(-c5c(F)cccc5F)c5nc(c(-c6c(F)cccc6F)c6ccc3[nH]6)C=C5)C=C4)cc2)CC[C@H]2CCCC[C@@H]21
REMARK SMILES IDX 13 1 12 2 11 3 10 4 8 5 9 6 7 8 6 9 81 10 74 12 76 13 80 14
REMARK SMILES IDX 75 15 77 16 79 17 78 18 5 19 2 20 1 21 3 22 4 23 14 24 15 25
REMARK SMILES IDX 16 26 17 27 18 28 19 30 20 31 21 32 73 33 22 34 72 35 23 36
REMARK SMILES IDX 24 37 25 38 66 39 26 40 71 41 65 42 67 43 27 44 70 45 64 46
REMARK SMILES IDX 63 47 28 49 54 50 37 51 53 52 38 53 41 54 52 55 68 56 39 57
REMARK SMILES IDX 40 58 51 60 69 61 42 62 29 63 30 64 35 65 31 66 32 67 34 68
REMARK SMILES IDX 36 69 33 70 55 71 56 72 61 73 57 74 58 75 60 76 62 77 59 78
REMARK SMILES IDX 43 79 44 80 49 81 45 82 46 83 48 84 50 85 47 86
REMARK H PARENT 10 7 6 11 17 29 67 48 41 59
REMARK Flexibility Score: inf
ROOT
ATOM      1  C   UNL A   1      34.187  24.807  23.678  1.00  0.00     0.002 C 
ENDROOT
BRANCH   1   2
ATOM      2  C   UNL A   1      33.394  25.012  22.381  1.00  0.00     0.021 C 
BRANCH   2   3
ATOM      3  C   UNL A   1      33.296  26.429  21.787  1.00  0.00     0.116 C 
BRANCH   3   4
ATOM      4  N   UNL A   1      31.949  26.948  21.675  1.00  0.00    -0.351 N 
ATOM      5  C   UNL A   1      31.225  27.807  22.454  1.00  0.00     0.278 C 
ATOM      6  O   UNL A   1      30.084  28.053  22.040  1.00  0.00    -0.268 OA
ATOM      7  H   UNL A   1      31.461  26.618  20.887  1.00  0.00     0.163 HD
BRANCH   5   8
ATOM      8  C   UNL A   1      31.792  28.525  23.713  1.00  0.00     0.274 C 
ATOM      9  N   UNL A   1      32.061  27.639  24.895  1.00  0.00    -0.322 N 
ATOM     10  C   UNL A   1      32.802  28.442  25.934  1.00  0.00     0.187 C 
ATOM     11  H   UNL A   1      32.608  26.844  24.565  1.00  0.00     0.349 HD
ATOM     12  C   UNL A   1      30.874  29.733  24.092  1.00  0.00     0.076 C 
ATOM     13  C   UNL A   1      32.527  29.971  25.913  1.00  0.00     0.048 C 
ATOM     14  C   UNL A   1      34.336  28.293  25.894  1.00  0.00     0.065 C 
ATOM     15  C   UNL A   1      31.094  30.260  25.518  1.00  0.00     0.016 C 
ATOM     16  C   UNL A   1      32.951  30.561  27.257  1.00  0.00     0.010 C 
ATOM     17  C   UNL A   1      34.954  28.953  27.146  1.00  0.00     0.006 C 
ATOM     18  C   UNL A   1      34.463  30.383  27.430  1.00  0.00     0.001 C 
BRANCH   9  19
ATOM     19  C   UNL A   1      30.804  27.093  25.518  1.00  0.00     0.269 C 
BRANCH  19  20
ATOM     20  C   UNL A   1      30.707  25.546  25.677  1.00  0.00     0.011 C 
ATOM     21  C   UNL A   1      30.495  24.880  24.308  1.00  0.00     0.017 C 
ATOM     22  C   UNL A   1      29.452  25.186  26.507  1.00  0.00     0.017 C 
ATOM     23  C   UNL A   1      31.913  24.981  26.449  1.00  0.00     0.017 C 
ENDBRANCH  19  20
ENDBRANCH   9  19
ENDBRANCH   5   8
ENDBRANCH   3   4
ENDBRANCH   2   3
ENDBRANCH   1   2
BRANCH   1  24
ATOM     24  C   UNL A   1      35.061  23.529  23.695  1.00  0.00     0.002 C 
BRANCH  24  25
ATOM     25  C   UNL A   1      35.402  22.885  25.051  1.00  0.00     0.021 C 
BRANCH  25  26
ATOM     26  C   UNL A   1      36.578  23.493  25.815  1.00  0.00     0.116 C 
BRANCH  26  27
ATOM     27  N   UNL A   1      37.648  22.532  26.032  1.00  0.00    -0.352 N 
ATOM     28  C   UNL A   1      38.972  22.708  26.359  1.00  0.00     0.251 C 
ATOM     29  H   UNL A   1      37.378  21.592  25.929  1.00  0.00     0.163 HD
ATOM     30  O   UNL A   1      39.738  21.750  26.265  1.00  0.00    -0.269 OA
BRANCH  28  31
ATOM     31  C   UNL A   1      39.519  24.012  26.814  1.00  0.00     0.039 A 
ATOM     32  C   UNL A   1      39.314  24.385  28.150  1.00  0.00     0.014 A 
ATOM     33  C   UNL A   1      40.100  24.929  25.933  1.00  0.00     0.014 A 
ATOM     34  C   UNL A   1      39.718  25.646  28.607  1.00  0.00     0.010 A 
ATOM     35  C   UNL A   1      40.543  26.175  26.401  1.00  0.00     0.010 A 
ATOM     36  C   UNL A   1      40.350  26.552  27.740  1.00  0.00    -0.014 A 
BRANCH  36  37
ATOM     37  C   UNL A   1      40.803  27.885  28.234  1.00  0.00     0.031 A 
ATOM     38  C   UNL A   1      42.266  28.245  28.265  1.00  0.00     0.074 A 
ATOM     39  C   UNL A   1      39.897  28.776  28.681  1.00  0.00     0.049 A 
ATOM     40  N   UNL A   1      42.837  29.354  28.669  1.00  0.00    -0.248 NA
ATOM     41  C   UNL A   1      43.211  27.222  27.796  1.00  0.00     0.031 C 
ATOM     42  C   UNL A   1      38.453  28.551  28.742  1.00  0.00     0.029 A 
ATOM     43  N   UNL A   1      40.056  30.049  29.172  1.00  0.00    -0.354 N 
ATOM     44  C   UNL A   1      44.204  29.160  28.513  1.00  0.00     0.074 A 
ATOM     45  C   UNL A   1      44.379  27.812  28.014  1.00  0.00     0.031 C 
ATOM     46  C   UNL A   1      37.857  29.653  29.225  1.00  0.00     0.029 A 
ATOM     47  C   UNL A   1      38.876  30.654  29.530  1.00  0.00     0.049 A 
ATOM     48  H   UNL A   1      40.934  30.486  29.259  1.00  0.00     0.167 HD
ATOM     49  C   UNL A   1      45.221  30.026  28.747  1.00  0.00     0.037 A 
ATOM     50  C   UNL A   1      38.637  31.875  30.045  1.00  0.00     0.037 A 
ATOM     51  C   UNL A   1      45.057  31.377  29.223  1.00  0.00     0.049 A 
ATOM     52  C   UNL A   1      39.781  32.821  30.286  1.00  0.00     0.074 A 
ATOM     53  C   UNL A   1      46.028  32.341  29.438  1.00  0.00     0.029 A 
ATOM     54  N   UNL A   1      43.843  31.956  29.558  1.00  0.00    -0.354 N 
ATOM     55  N   UNL A   1      41.061  32.640  30.077  1.00  0.00    -0.248 NA
ATOM     56  C   UNL A   1      39.440  34.147  30.824  1.00  0.00     0.031 C 
ATOM     57  C   UNL A   1      45.406  33.491  29.935  1.00  0.00     0.029 A 
ATOM     58  C   UNL A   1      44.042  33.257  29.992  1.00  0.00     0.049 A 
ATOM     59  H   UNL A   1      42.968  31.509  29.496  1.00  0.00     0.167 HD
ATOM     60  C   UNL A   1      41.676  33.834  30.434  1.00  0.00     0.074 A 
ATOM     61  C   UNL A   1      40.627  34.736  30.859  1.00  0.00     0.031 C 
ATOM     62  C   UNL A   1      42.994  34.151  30.411  1.00  0.00     0.037 A 
BRANCH  49  63
ATOM     63  C   UNL A   1      46.618  29.538  28.487  1.00  0.00     0.057 A 
ATOM     64  C   UNL A   1      47.377  28.915  29.486  1.00  0.00     0.134 A 
ATOM     65  C   UNL A   1      47.192  29.653  27.215  1.00  0.00     0.134 A 
ATOM     66  F   UNL A   1      46.886  28.779  30.727  1.00  0.00    -0.206 F 
ATOM     67  C   UNL A   1      48.668  28.447  29.236  1.00  0.00     0.040 A 
ATOM     68  C   UNL A   1      48.474  29.167  26.946  1.00  0.00     0.040 A 
ATOM     69  F   UNL A   1      46.516  30.229  26.210  1.00  0.00    -0.206 F 
ATOM     70  C   UNL A   1      49.218  28.567  27.961  1.00  0.00     0.006 A 
ENDBRANCH  49  63
BRANCH  50  71
ATOM     71  C   UNL A   1      37.245  32.291  30.342  1.00  0.00     0.057 A 
ATOM     72  C   UNL A   1      36.662  32.020  31.586  1.00  0.00     0.134 A 
ATOM     73  C   UNL A   1      36.463  32.959  29.393  1.00  0.00     0.134 A 
ATOM     74  F   UNL A   1      37.355  31.362  32.526  1.00  0.00    -0.206 F 
ATOM     75  C   UNL A   1      35.345  32.382  31.869  1.00  0.00     0.040 A 
ATOM     76  C   UNL A   1      35.151  33.346  29.671  1.00  0.00     0.040 A 
ATOM     77  F   UNL A   1      36.966  33.251  28.185  1.00  0.00    -0.206 F 
ATOM     78  C   UNL A   1      34.586  33.052  30.912  1.00  0.00     0.006 A 
ENDBRANCH  50  71
BRANCH  62  79
ATOM     79  C   UNL A   1      43.370  35.541  30.831  1.00  0.00     0.057 A 
ATOM     80  C   UNL A   1      43.620  35.867  32.170  1.00  0.00     0.134 A 
ATOM     81  C   UNL A   1      43.498  36.564  29.882  1.00  0.00     0.134 A 
ATOM     82  F   UNL A   1      43.500  34.937  33.129  1.00  0.00    -0.206 F 
ATOM     83  C   UNL A   1      43.958  37.166  32.554  1.00  0.00     0.040 A 
ATOM     84  C   UNL A   1      43.858  37.861  30.250  1.00  0.00     0.040 A 
ATOM     85  F   UNL A   1      43.278  36.318  28.582  1.00  0.00    -0.206 F 
ATOM     86  C   UNL A   1      44.082  38.167  31.592  1.00  0.00     0.006 A 
ENDBRANCH  62  79
ENDBRANCH  36  37
ENDBRANCH  28  31
ENDBRANCH  26  27
ENDBRANCH  25  26
ENDBRANCH  24  25
ENDBRANCH   1  24
TORSDOF 15
ENDMDL
