MODEL 1
REMARK VINA RESULT:     -11.3      0.000      0.000
REMARK SMILES CC(C)(C)OC(=O)N1C[C@@H](Oc2cccnc2)C[C@H]1C(=O)NCCCCCCNC(=O)c1ccc(-c2c3nc(c(-c4c(F)cccc4F)c4ccc([nH]4)c(-c4c(F)cccc4F)c4nc(c(-c5c(F)cccc5F)c5ccc2[nH]5)C=C4)C=C3)cc1
REMARK SMILES IDX 25 1 24 2 23 3 22 4 20 5 21 6 19 8 8 9 9 10 10 11 18 12 6 13
REMARK SMILES IDX 7 14 5 15 2 16 1 17 3 18 4 19 11 20 12 21 13 22 17 23 14 24
REMARK SMILES IDX 16 25 15 26 26 27 27 28 28 29 29 30 30 31 31 33 32 34 33 35
REMARK SMILES IDX 85 36 34 37 84 38 35 39 36 40 37 41 78 42 38 43 83 44 77 45
REMARK SMILES IDX 79 46 39 47 82 48 76 49 75 50 40 52 66 53 49 54 65 55 50 56
REMARK SMILES IDX 53 57 64 58 80 59 51 60 52 61 63 63 81 64 54 65 41 66 42 67
REMARK SMILES IDX 47 68 43 69 44 70 46 71 48 72 45 73 67 74 68 75 73 76 69 77
REMARK SMILES IDX 70 78 72 79 74 80 71 81 55 82 56 83 61 84 57 85 58 86 60 87
REMARK SMILES IDX 62 88 59 89
REMARK H PARENT 22 7 29 32 79 51 53 62
REMARK Flexibility Score: inf
ROOT
ATOM      1  C   UNL A   1      31.633  27.698  24.268  1.00  0.00     0.002 C 
ENDROOT
BRANCH   1   2
ATOM      2  C   UNL A   1      30.329  26.946  24.515  1.00  0.00     0.021 C 
BRANCH   2   3
ATOM      3  C   UNL A   1      30.384  25.429  24.407  1.00  0.00     0.116 C 
BRANCH   3   4
ATOM      4  N   UNL A   1      30.373  24.737  25.669  1.00  0.00    -0.354 N 
ATOM      5  C   UNL A   1      31.248  23.793  26.124  1.00  0.00     0.243 C 
ATOM      6  O   UNL A   1      30.960  23.279  27.210  1.00  0.00    -0.273 OA
ATOM      7  H   UNL A   1      29.640  24.974  26.282  1.00  0.00     0.163 HD
BRANCH   5   8
ATOM      8  C   UNL A   1      32.437  23.260  25.256  1.00  0.00     0.181 C 
ATOM      9  N   UNL A   1      33.597  22.708  25.970  1.00  0.00    -0.292 N 
ATOM     10  C   UNL A   1      33.452  21.274  26.145  1.00  0.00     0.169 C 
ATOM     11  C   UNL A   1      32.735  20.856  24.861  1.00  0.00     0.195 C 
ATOM     12  C   UNL A   1      31.983  22.098  24.347  1.00  0.00     0.082 C 
BRANCH   9  13
ATOM     13  C   UNL A   1      34.800  23.376  26.047  1.00  0.00     0.411 C 
ATOM     14  O   UNL A   1      34.869  24.602  26.054  1.00  0.00    -0.224 OA
BRANCH  13  15
ATOM     15  O   UNL A   1      35.859  22.542  26.171  1.00  0.00    -0.444 OA
BRANCH  15  16
ATOM     16  C   UNL A   1      37.022  22.564  25.284  1.00  0.00     0.106 C 
ATOM     17  C   UNL A   1      37.859  23.787  25.671  1.00  0.00     0.056 C 
ATOM     18  C   UNL A   1      36.456  22.760  23.871  1.00  0.00     0.056 C 
ATOM     19  C   UNL A   1      37.934  21.329  25.285  1.00  0.00     0.056 C 
ENDBRANCH  15  16
ENDBRANCH  13  15
ENDBRANCH   9  13
BRANCH  11  20
ATOM     20  O   UNL A   1      32.028  19.624  24.887  1.00  0.00    -0.487 OA
BRANCH  20  21
ATOM     21  C   UNL A   1      32.609  18.415  24.676  1.00  0.00     0.138 A 
ATOM     22  C   UNL A   1      33.162  17.933  23.500  1.00  0.00     0.050 A 
ATOM     23  C   UNL A   1      32.639  17.559  25.775  1.00  0.00     0.157 A 
ATOM     24  C   UNL A   1      33.738  16.663  23.466  1.00  0.00     0.024 A 
ATOM     25  N   UNL A   1      33.177  16.314  25.777  1.00  0.00    -0.261 NA
ATOM     26  C   UNL A   1      33.723  15.898  24.618  1.00  0.00     0.111 A 
ENDBRANCH  20  21
ENDBRANCH  11  20
ENDBRANCH   5   8
ENDBRANCH   3   4
ENDBRANCH   2   3
ENDBRANCH   1   2
BRANCH   1  27
ATOM     27  C   UNL A   1      32.814  27.309  25.158  1.00  0.00     0.002 C 
BRANCH  27  28
ATOM     28  C   UNL A   1      33.656  28.463  25.707  1.00  0.00     0.021 C 
BRANCH  28  29
ATOM     29  C   UNL A   1      33.717  28.580  27.227  1.00  0.00     0.116 C 
BRANCH  29  30
ATOM     30  N   UNL A   1      33.682  29.957  27.688  1.00  0.00    -0.352 N 
ATOM     31  C   UNL A   1      34.640  30.695  28.336  1.00  0.00     0.251 C 
ATOM     32  H   UNL A   1      32.840  30.434  27.508  1.00  0.00     0.163 HD
ATOM     33  O   UNL A   1      34.361  31.804  28.781  1.00  0.00    -0.269 OA
BRANCH  31  34
ATOM     34  C   UNL A   1      36.002  30.152  28.524  1.00  0.00     0.039 A 
ATOM     35  C   UNL A   1      36.892  30.187  27.447  1.00  0.00     0.014 A 
ATOM     36  C   UNL A   1      36.400  29.596  29.742  1.00  0.00     0.014 A 
ATOM     37  C   UNL A   1      38.198  29.722  27.611  1.00  0.00     0.010 A 
ATOM     38  C   UNL A   1      37.725  29.204  29.927  1.00  0.00     0.010 A 
ATOM     39  C   UNL A   1      38.637  29.261  28.862  1.00  0.00    -0.014 A 
BRANCH  39  40
ATOM     40  C   UNL A   1      40.048  28.845  29.075  1.00  0.00     0.031 A 
ATOM     41  C   UNL A   1      41.038  29.792  29.690  1.00  0.00     0.074 A 
ATOM     42  C   UNL A   1      40.449  27.628  28.658  1.00  0.00     0.049 A 
ATOM     43  N   UNL A   1      42.318  29.624  29.911  1.00  0.00    -0.248 NA
ATOM     44  C   UNL A   1      40.530  31.115  30.086  1.00  0.00     0.031 C 
ATOM     45  C   UNL A   1      39.595  26.632  28.009  1.00  0.00     0.029 A 
ATOM     46  N   UNL A   1      41.681  27.023  28.714  1.00  0.00    -0.354 N 
ATOM     47  C   UNL A   1      42.768  30.819  30.458  1.00  0.00     0.074 A 
ATOM     48  C   UNL A   1      41.639  31.723  30.483  1.00  0.00     0.031 C 
ATOM     49  C   UNL A   1      40.320  25.530  27.756  1.00  0.00     0.029 A 
ATOM     50  C   UNL A   1      41.698  25.757  28.181  1.00  0.00     0.049 A 
ATOM     51  H   UNL A   1      42.477  27.457  29.098  1.00  0.00     0.167 HD
ATOM     52  C   UNL A   1      44.005  31.128  30.916  1.00  0.00     0.037 A 
ATOM     53  C   UNL A   1      42.710  24.879  28.045  1.00  0.00     0.037 A 
ATOM     54  C   UNL A   1      45.123  30.220  30.901  1.00  0.00     0.049 A 
ATOM     55  C   UNL A   1      44.079  25.255  28.538  1.00  0.00     0.074 A 
ATOM     56  C   UNL A   1      46.400  30.416  31.399  1.00  0.00     0.029 A 
ATOM     57  N   UNL A   1      45.102  28.947  30.350  1.00  0.00    -0.354 N 
ATOM     58  N   UNL A   1      44.474  26.362  29.121  1.00  0.00    -0.248 NA
ATOM     59  C   UNL A   1      45.143  24.258  28.357  1.00  0.00     0.031 C 
ATOM     60  C   UNL A   1      47.167  29.288  31.093  1.00  0.00     0.029 A 
ATOM     61  C   UNL A   1      46.352  28.361  30.464  1.00  0.00     0.049 A 
ATOM     62  H   UNL A   1      44.314  28.524  29.938  1.00  0.00     0.167 HD
ATOM     63  C   UNL A   1      45.821  26.182  29.405  1.00  0.00     0.074 A 
ATOM     64  C   UNL A   1      46.172  24.855  28.942  1.00  0.00     0.031 C 
ATOM     65  C   UNL A   1      46.689  27.038  29.999  1.00  0.00     0.037 A 
BRANCH  52  66
ATOM     66  C   UNL A   1      44.216  32.512  31.462  1.00  0.00     0.057 A 
ATOM     67  C   UNL A   1      44.020  32.816  32.817  1.00  0.00     0.134 A 
ATOM     68  C   UNL A   1      44.642  33.553  30.627  1.00  0.00     0.134 A 
ATOM     69  F   UNL A   1      43.602  31.870  33.672  1.00  0.00    -0.206 F 
ATOM     70  C   UNL A   1      44.206  34.108  33.313  1.00  0.00     0.040 A 
ATOM     71  C   UNL A   1      44.864  34.841  31.116  1.00  0.00     0.040 A 
ATOM     72  F   UNL A   1      44.858  33.333  29.321  1.00  0.00    -0.206 F 
ATOM     73  C   UNL A   1      44.636  35.124  32.462  1.00  0.00     0.006 A 
ENDBRANCH  52  66
BRANCH  53  74
ATOM     74  C   UNL A   1      42.459  23.547  27.436  1.00  0.00     0.057 A 
ATOM     75  C   UNL A   1      42.574  23.355  26.055  1.00  0.00     0.134 A 
ATOM     76  C   UNL A   1      42.098  22.440  28.213  1.00  0.00     0.134 A 
ATOM     77  F   UNL A   1      42.899  24.381  25.254  1.00  0.00    -0.206 F 
ATOM     78  C   UNL A   1      42.323  22.114  25.465  1.00  0.00     0.040 A 
ATOM     79  C   UNL A   1      41.871  21.188  27.641  1.00  0.00     0.040 A 
ATOM     80  F   UNL A   1      41.979  22.557  29.545  1.00  0.00    -0.206 F 
ATOM     81  C   UNL A   1      41.975  21.025  26.261  1.00  0.00     0.006 A 
ENDBRANCH  53  74
BRANCH  65  82
ATOM     82  C   UNL A   1      48.095  26.553  30.218  1.00  0.00     0.057 A 
ATOM     83  C   UNL A   1      48.475  25.879  31.385  1.00  0.00     0.134 A 
ATOM     84  C   UNL A   1      49.071  26.732  29.229  1.00  0.00     0.134 A 
ATOM     85  F   UNL A   1      47.593  25.685  32.378  1.00  0.00    -0.206 F 
ATOM     86  C   UNL A   1      49.782  25.424  31.573  1.00  0.00     0.040 A 
ATOM     87  C   UNL A   1      50.372  26.255  29.391  1.00  0.00     0.040 A 
ATOM     88  F   UNL A   1      48.773  27.361  28.083  1.00  0.00    -0.206 F 
ATOM     89  C   UNL A   1      50.732  25.605  30.570  1.00  0.00     0.006 A 
ENDBRANCH  65  82
ENDBRANCH  39  40
ENDBRANCH  31  34
ENDBRANCH  29  30
ENDBRANCH  28  29
ENDBRANCH  27  28
ENDBRANCH   1  27
TORSDOF 18
ENDMDL
MODEL 2
REMARK VINA RESULT:     -11.1      1.847      2.693
REMARK SMILES CC(C)(C)OC(=O)N1C[C@@H](Oc2cccnc2)C[C@H]1C(=O)NCCCCCCNC(=O)c1ccc(-c2c3nc(c(-c4c(F)cccc4F)c4ccc([nH]4)c(-c4c(F)cccc4F)c4nc(c(-c5c(F)cccc5F)c5ccc2[nH]5)C=C4)C=C3)cc1
REMARK SMILES IDX 25 1 24 2 23 3 22 4 20 5 21 6 19 8 8 9 9 10 10 11 18 12 6 13
REMARK SMILES IDX 7 14 5 15 2 16 1 17 3 18 4 19 11 20 12 21 13 22 17 23 14 24
REMARK SMILES IDX 16 25 15 26 26 27 27 28 28 29 29 30 30 31 31 33 32 34 33 35
REMARK SMILES IDX 85 36 34 37 84 38 35 39 36 40 37 41 78 42 38 43 83 44 77 45
REMARK SMILES IDX 79 46 39 47 82 48 76 49 75 50 40 52 66 53 49 54 65 55 50 56
REMARK SMILES IDX 53 57 64 58 80 59 51 60 52 61 63 63 81 64 54 65 41 66 42 67
REMARK SMILES IDX 47 68 43 69 44 70 46 71 48 72 45 73 67 74 68 75 73 76 69 77
REMARK SMILES IDX 70 78 72 79 74 80 71 81 55 82 56 83 61 84 57 85 58 86 60 87
REMARK SMILES IDX 62 88 59 89
REMARK H PARENT 22 7 29 32 79 51 53 62
REMARK Flexibility Score: inf
ROOT
ATOM      1  C   UNL A   1      33.169  26.537  24.269  1.00  0.00     0.002 C 
ENDROOT
BRANCH   1   2
ATOM      2  C   UNL A   1      31.856  26.452  25.042  1.00  0.00     0.021 C 
BRANCH   2   3
ATOM      3  C   UNL A   1      31.930  25.891  26.455  1.00  0.00     0.116 C 
BRANCH   3   4
ATOM      4  N   UNL A   1      31.083  24.753  26.693  1.00  0.00    -0.354 N 
ATOM      5  C   UNL A   1      31.248  23.469  26.258  1.00  0.00     0.243 C 
ATOM      6  O   UNL A   1      30.322  22.694  26.521  1.00  0.00    -0.273 OA
ATOM      7  H   UNL A   1      30.281  24.921  27.239  1.00  0.00     0.163 HD
BRANCH   5   8
ATOM      8  C   UNL A   1      32.437  23.040  25.334  1.00  0.00     0.181 C 
ATOM      9  N   UNL A   1      33.609  22.438  25.983  1.00  0.00    -0.292 N 
ATOM     10  C   UNL A   1      33.484  20.991  26.018  1.00  0.00     0.169 C 
ATOM     11  C   UNL A   1      32.762  20.690  24.704  1.00  0.00     0.195 C 
ATOM     12  C   UNL A   1      31.990  21.966  24.319  1.00  0.00     0.082 C 
BRANCH   9  13
ATOM     13  C   UNL A   1      34.804  23.112  26.116  1.00  0.00     0.411 C 
ATOM     14  O   UNL A   1      34.858  24.332  26.229  1.00  0.00    -0.224 OA
BRANCH  13  15
ATOM     15  O   UNL A   1      35.874  22.283  26.166  1.00  0.00    -0.444 OA
BRANCH  15  16
ATOM     16  C   UNL A   1      36.949  22.281  25.174  1.00  0.00     0.106 C 
ATOM     17  C   UNL A   1      37.395  20.826  25.000  1.00  0.00     0.056 C 
ATOM     18  C   UNL A   1      38.089  23.093  25.803  1.00  0.00     0.056 C 
ATOM     19  C   UNL A   1      36.632  22.863  23.789  1.00  0.00     0.056 C 
ENDBRANCH  15  16
ENDBRANCH  13  15
ENDBRANCH   9  13
BRANCH  11  20
ATOM     20  O   UNL A   1      32.072  19.452  24.615  1.00  0.00    -0.487 OA
BRANCH  20  21
ATOM     21  C   UNL A   1      32.691  18.247  24.522  1.00  0.00     0.138 A 
ATOM     22  C   UNL A   1      33.414  17.746  23.450  1.00  0.00     0.050 A 
ATOM     23  C   UNL A   1      32.571  17.418  25.635  1.00  0.00     0.157 A 
ATOM     24  C   UNL A   1      34.004  16.484  23.533  1.00  0.00     0.024 A 
ATOM     25  N   UNL A   1      33.116  16.181  25.746  1.00  0.00    -0.261 NA
ATOM     26  C   UNL A   1      33.830  15.745  24.689  1.00  0.00     0.111 A 
ENDBRANCH  20  21
ENDBRANCH  11  20
ENDBRANCH   5   8
ENDBRANCH   3   4
ENDBRANCH   2   3
ENDBRANCH   1   2
BRANCH   1  27
ATOM     27  C   UNL A   1      33.572  27.929  23.778  1.00  0.00     0.002 C 
BRANCH  27  28
ATOM     28  C   UNL A   1      33.190  29.102  24.684  1.00  0.00     0.021 C 
BRANCH  28  29
ATOM     29  C   UNL A   1      33.916  29.174  26.024  1.00  0.00     0.116 C 
BRANCH  29  30
ATOM     30  N   UNL A   1      33.776  30.466  26.673  1.00  0.00    -0.352 N 
ATOM     31  C   UNL A   1      34.508  31.026  27.689  1.00  0.00     0.251 C 
ATOM     32  H   UNL A   1      33.042  31.025  26.330  1.00  0.00     0.163 HD
ATOM     33  O   UNL A   1      34.133  32.074  28.206  1.00  0.00    -0.269 OA
BRANCH  31  34
ATOM     34  C   UNL A   1      35.732  30.361  28.183  1.00  0.00     0.039 A 
ATOM     35  C   UNL A   1      36.896  30.443  27.413  1.00  0.00     0.014 A 
ATOM     36  C   UNL A   1      35.737  29.649  29.385  1.00  0.00     0.014 A 
ATOM     37  C   UNL A   1      38.077  29.862  27.878  1.00  0.00     0.010 A 
ATOM     38  C   UNL A   1      36.934  29.137  29.884  1.00  0.00     0.010 A 
ATOM     39  C   UNL A   1      38.116  29.237  29.134  1.00  0.00    -0.014 A 
BRANCH  39  40
ATOM     40  C   UNL A   1      39.386  28.692  29.681  1.00  0.00     0.031 A 
ATOM     41  C   UNL A   1      40.025  29.314  30.891  1.00  0.00     0.074 A 
ATOM     42  C   UNL A   1      39.994  27.669  29.050  1.00  0.00     0.049 A 
ATOM     43  N   UNL A   1      41.152  29.007  31.482  1.00  0.00    -0.248 NA
ATOM     44  C   UNL A   1      39.317  30.450  31.503  1.00  0.00     0.031 C 
ATOM     45  C   UNL A   1      39.498  27.005  27.843  1.00  0.00     0.029 A 
ATOM     46  N   UNL A   1      41.165  27.011  29.333  1.00  0.00    -0.354 N 
ATOM     47  C   UNL A   1      41.293  29.915  32.523  1.00  0.00     0.074 A 
ATOM     48  C   UNL A   1      40.167  30.820  32.449  1.00  0.00     0.031 C 
ATOM     49  C   UNL A   1      40.341  26.016  27.508  1.00  0.00     0.029 A 
ATOM     50  C   UNL A   1      41.460  26.004  28.446  1.00  0.00     0.049 A 
ATOM     51  H   UNL A   1      41.741  27.241  30.098  1.00  0.00     0.167 HD
ATOM     52  C   UNL A   1      42.263  29.977  33.469  1.00  0.00     0.037 A 
ATOM     53  C   UNL A   1      42.513  25.168  28.391  1.00  0.00     0.037 A 
ATOM     54  C   UNL A   1      43.375  29.065  33.546  1.00  0.00     0.049 A 
ATOM     55  C   UNL A   1      43.589  25.273  29.436  1.00  0.00     0.074 A 
ATOM     56  C   UNL A   1      44.375  29.005  34.501  1.00  0.00     0.029 A 
ATOM     57  N   UNL A   1      43.640  28.060  32.628  1.00  0.00    -0.354 N 
ATOM     58  N   UNL A   1      43.673  26.089  30.459  1.00  0.00    -0.248 NA
ATOM     59  C   UNL A   1      44.716  24.337  29.320  1.00  0.00     0.031 C 
ATOM     60  C   UNL A   1      45.279  28.006  34.127  1.00  0.00     0.029 A 
ATOM     61  C   UNL A   1      44.807  27.398  32.974  1.00  0.00     0.049 A 
ATOM     62  H   UNL A   1      43.081  27.849  31.845  1.00  0.00     0.167 HD
ATOM     63  C   UNL A   1      44.841  25.746  31.126  1.00  0.00     0.074 A 
ATOM     64  C   UNL A   1      45.426  24.638  30.399  1.00  0.00     0.031 C 
ATOM     65  C   UNL A   1      45.380  26.296  32.242  1.00  0.00     0.037 A 
BRANCH  52  66
ATOM     66  C   UNL A   1      42.167  31.078  34.487  1.00  0.00     0.057 A 
ATOM     67  C   UNL A   1      42.786  32.322  34.300  1.00  0.00     0.134 A 
ATOM     68  C   UNL A   1      41.428  30.900  35.664  1.00  0.00     0.134 A 
ATOM     69  F   UNL A   1      43.518  32.558  33.201  1.00  0.00    -0.206 F 
ATOM     70  C   UNL A   1      42.702  33.334  35.259  1.00  0.00     0.040 A 
ATOM     71  C   UNL A   1      41.309  31.915  36.615  1.00  0.00     0.040 A 
ATOM     72  F   UNL A   1      40.802  29.738  35.906  1.00  0.00    -0.206 F 
ATOM     73  C   UNL A   1      41.956  33.133  36.417  1.00  0.00     0.006 A 
ENDBRANCH  52  66
BRANCH  53  74
ATOM     74  C   UNL A   1      42.590  24.140  27.321  1.00  0.00     0.057 A 
ATOM     75  C   UNL A   1      42.091  22.849  27.527  1.00  0.00     0.134 A 
ATOM     76  C   UNL A   1      43.163  24.419  26.075  1.00  0.00     0.134 A 
ATOM     77  F   UNL A   1      41.547  22.515  28.706  1.00  0.00    -0.206 F 
ATOM     78  C   UNL A   1      42.174  21.866  26.538  1.00  0.00     0.040 A 
ATOM     79  C   UNL A   1      43.228  23.454  25.068  1.00  0.00     0.040 A 
ATOM     80  F   UNL A   1      43.653  25.640  25.811  1.00  0.00    -0.206 F 
ATOM     81  C   UNL A   1      42.740  22.171  25.302  1.00  0.00     0.006 A 
ENDBRANCH  53  74
BRANCH  65  82
ATOM     82  C   UNL A   1      46.647  25.685  32.769  1.00  0.00     0.057 A 
ATOM     83  C   UNL A   1      47.911  26.090  32.320  1.00  0.00     0.134 A 
ATOM     84  C   UNL A   1      46.602  24.702  33.767  1.00  0.00     0.134 A 
ATOM     85  F   UNL A   1      48.026  27.017  31.356  1.00  0.00    -0.206 F 
ATOM     86  C   UNL A   1      49.082  25.521  32.825  1.00  0.00     0.040 A 
ATOM     87  C   UNL A   1      47.766  24.150  34.303  1.00  0.00     0.040 A 
ATOM     88  F   UNL A   1      45.426  24.275  34.249  1.00  0.00    -0.206 F 
ATOM     89  C   UNL A   1      49.011  24.554  33.825  1.00  0.00     0.006 A 
ENDBRANCH  65  82
ENDBRANCH  39  40
ENDBRANCH  31  34
ENDBRANCH  29  30
ENDBRANCH  28  29
ENDBRANCH  27  28
ENDBRANCH   1  27
TORSDOF 18
ENDMDL
MODEL 3
REMARK VINA RESULT:     -11.1      2.475      7.468
REMARK SMILES CC(C)(C)OC(=O)N1C[C@@H](Oc2cccnc2)C[C@H]1C(=O)NCCCCCCNC(=O)c1ccc(-c2c3nc(c(-c4c(F)cccc4F)c4ccc([nH]4)c(-c4c(F)cccc4F)c4nc(c(-c5c(F)cccc5F)c5ccc2[nH]5)C=C4)C=C3)cc1
REMARK SMILES IDX 25 1 24 2 23 3 22 4 20 5 21 6 19 8 8 9 9 10 10 11 18 12 6 13
REMARK SMILES IDX 7 14 5 15 2 16 1 17 3 18 4 19 11 20 12 21 13 22 17 23 14 24
REMARK SMILES IDX 16 25 15 26 26 27 27 28 28 29 29 30 30 31 31 33 32 34 33 35
REMARK SMILES IDX 85 36 34 37 84 38 35 39 36 40 37 41 78 42 38 43 83 44 77 45
REMARK SMILES IDX 79 46 39 47 82 48 76 49 75 50 40 52 66 53 49 54 65 55 50 56
REMARK SMILES IDX 53 57 64 58 80 59 51 60 52 61 63 63 81 64 54 65 41 66 42 67
REMARK SMILES IDX 47 68 43 69 44 70 46 71 48 72 45 73 67 74 68 75 73 76 69 77
REMARK SMILES IDX 70 78 72 79 74 80 71 81 55 82 56 83 61 84 57 85 58 86 60 87
REMARK SMILES IDX 62 88 59 89
REMARK H PARENT 22 7 29 32 79 51 53 62
REMARK Flexibility Score: inf
ROOT
ATOM      1  C   UNL A   1      37.463  21.708  24.628  1.00  0.00     0.002 C 
ENDROOT
BRANCH   1   2
ATOM      2  C   UNL A   1      37.008  22.620  25.764  1.00  0.00     0.021 C 
BRANCH   2   3
ATOM      3  C   UNL A   1      36.147  23.814  25.378  1.00  0.00     0.116 C 
BRANCH   3   4
ATOM      4  N   UNL A   1      35.744  23.842  23.997  1.00  0.00    -0.354 N 
ATOM      5  C   UNL A   1      34.548  23.466  23.457  1.00  0.00     0.243 C 
ATOM      6  O   UNL A   1      34.487  23.496  22.223  1.00  0.00    -0.273 OA
ATOM      7  H   UNL A   1      36.416  24.175  23.360  1.00  0.00     0.163 HD
BRANCH   5   8
ATOM      8  C   UNL A   1      33.388  22.863  24.319  1.00  0.00     0.181 C 
ATOM      9  N   UNL A   1      32.037  22.887  23.740  1.00  0.00    -0.292 N 
ATOM     10  C   UNL A   1      31.768  21.653  23.024  1.00  0.00     0.169 C 
ATOM     11  C   UNL A   1      32.514  20.615  23.863  1.00  0.00     0.195 C 
ATOM     12  C   UNL A   1      33.633  21.366  24.608  1.00  0.00     0.082 C 
BRANCH   9  13
ATOM     13  C   UNL A   1      31.058  23.746  24.192  1.00  0.00     0.411 C 
ATOM     14  O   UNL A   1      30.646  23.717  25.348  1.00  0.00    -0.224 OA
BRANCH  13  15
ATOM     15  O   UNL A   1      30.661  24.635  23.252  1.00  0.00    -0.444 OA
BRANCH  15  16
ATOM     16  C   UNL A   1      31.201  25.989  23.132  1.00  0.00     0.106 C 
ATOM     17  C   UNL A   1      30.024  26.957  23.286  1.00  0.00     0.056 C 
ATOM     18  C   UNL A   1      31.758  26.084  21.705  1.00  0.00     0.056 C 
ATOM     19  C   UNL A   1      32.302  26.399  24.122  1.00  0.00     0.056 C 
ENDBRANCH  15  16
ENDBRANCH  13  15
ENDBRANCH   9  13
BRANCH  11  20
ATOM     20  O   UNL A   1      32.854  19.392  23.226  1.00  0.00    -0.487 OA
BRANCH  20  21
ATOM     21  C   UNL A   1      33.189  18.259  23.895  1.00  0.00     0.138 A 
ATOM     22  C   UNL A   1      34.179  17.345  23.571  1.00  0.00     0.050 A 
ATOM     23  C   UNL A   1      32.436  17.985  25.034  1.00  0.00     0.157 A 
ATOM     24  C   UNL A   1      34.401  16.235  24.388  1.00  0.00     0.024 A 
ATOM     25  N   UNL A   1      32.612  16.911  25.844  1.00  0.00    -0.261 NA
ATOM     26  C   UNL A   1      33.601  16.062  25.503  1.00  0.00     0.111 A 
ENDBRANCH  20  21
ENDBRANCH  11  20
ENDBRANCH   5   8
ENDBRANCH   3   4
ENDBRANCH   2   3
ENDBRANCH   1   2
BRANCH   1  27
ATOM     27  C   UNL A   1      37.033  20.244  24.727  1.00  0.00     0.002 C 
BRANCH  27  28
ATOM     28  C   UNL A   1      38.134  19.239  25.077  1.00  0.00     0.021 C 
BRANCH  28  29
ATOM     29  C   UNL A   1      39.348  19.807  25.805  1.00  0.00     0.116 C 
BRANCH  29  30
ATOM     30  N   UNL A   1      40.456  18.870  25.870  1.00  0.00    -0.352 N 
ATOM     31  C   UNL A   1      41.791  19.096  26.089  1.00  0.00     0.251 C 
ATOM     32  H   UNL A   1      40.210  17.926  25.736  1.00  0.00     0.163 HD
ATOM     33  O   UNL A   1      42.597  18.181  25.954  1.00  0.00    -0.269 OA
BRANCH  31  34
ATOM     34  C   UNL A   1      42.270  20.444  26.462  1.00  0.00     0.039 A 
ATOM     35  C   UNL A   1      42.752  21.286  25.455  1.00  0.00     0.014 A 
ATOM     36  C   UNL A   1      42.262  20.877  27.790  1.00  0.00     0.014 A 
ATOM     37  C   UNL A   1      43.169  22.580  25.772  1.00  0.00     0.010 A 
ATOM     38  C   UNL A   1      42.604  22.193  28.094  1.00  0.00     0.010 A 
ATOM     39  C   UNL A   1      43.063  23.057  27.089  1.00  0.00    -0.014 A 
BRANCH  39  40
ATOM     40  C   UNL A   1      43.420  24.460  27.426  1.00  0.00     0.031 A 
ATOM     41  C   UNL A   1      44.853  24.911  27.400  1.00  0.00     0.074 A 
ATOM     42  C   UNL A   1      42.453  25.315  27.812  1.00  0.00     0.049 A 
ATOM     43  N   UNL A   1      45.360  26.078  27.708  1.00  0.00    -0.248 NA
ATOM     44  C   UNL A   1      45.854  23.909  27.002  1.00  0.00     0.031 C 
ATOM     45  C   UNL A   1      41.029  24.989  27.919  1.00  0.00     0.029 A 
ATOM     46  N   UNL A   1      42.521  26.632  28.193  1.00  0.00    -0.354 N 
ATOM     47  C   UNL A   1      46.734  25.948  27.552  1.00  0.00     0.074 A 
ATOM     48  C   UNL A   1      46.987  24.573  27.179  1.00  0.00     0.031 C 
ATOM     49  C   UNL A   1      40.356  26.085  28.306  1.00  0.00     0.029 A 
ATOM     50  C   UNL A   1      41.302  27.175  28.520  1.00  0.00     0.049 A 
ATOM     51  H   UNL A   1      43.364  27.139  28.230  1.00  0.00     0.167 HD
ATOM     52  C   UNL A   1      47.696  26.892  27.688  1.00  0.00     0.037 A 
ATOM     53  C   UNL A   1      40.982  28.411  28.948  1.00  0.00     0.037 A 
ATOM     54  C   UNL A   1      47.438  28.263  28.048  1.00  0.00     0.049 A 
ATOM     55  C   UNL A   1      42.070  29.435  29.116  1.00  0.00     0.074 A 
ATOM     56  C   UNL A   1      48.336  29.311  28.150  1.00  0.00     0.029 A 
ATOM     57  N   UNL A   1      46.190  28.774  28.374  1.00  0.00    -0.354 N 
ATOM     58  N   UNL A   1      43.358  29.319  28.894  1.00  0.00    -0.248 NA
ATOM     59  C   UNL A   1      41.660  30.763  29.591  1.00  0.00     0.031 C 
ATOM     60  C   UNL A   1      47.643  30.439  28.598  1.00  0.00     0.029 A 
ATOM     61  C   UNL A   1      46.301  30.113  28.712  1.00  0.00     0.049 A 
ATOM     62  H   UNL A   1      45.350  28.260  28.366  1.00  0.00     0.167 HD
ATOM     63  C   UNL A   1      43.906  30.564  29.170  1.00  0.00     0.074 A 
ATOM     64  C   UNL A   1      42.809  31.424  29.564  1.00  0.00     0.031 C 
ATOM     65  C   UNL A   1      45.200  30.961  29.102  1.00  0.00     0.037 A 
BRANCH  52  66
ATOM     66  C   UNL A   1      49.120  26.469  27.459  1.00  0.00     0.057 A 
ATOM     67  C   UNL A   1      49.951  26.051  28.509  1.00  0.00     0.134 A 
ATOM     68  C   UNL A   1      49.662  26.457  26.167  1.00  0.00     0.134 A 
ATOM     69  F   UNL A   1      49.500  26.047  29.772  1.00  0.00    -0.206 F 
ATOM     70  C   UNL A   1      51.276  25.672  28.286  1.00  0.00     0.040 A 
ATOM     71  C   UNL A   1      50.975  26.049  25.928  1.00  0.00     0.040 A 
ATOM     72  F   UNL A   1      48.922  26.836  25.114  1.00  0.00    -0.206 F 
ATOM     73  C   UNL A   1      51.789  25.664  26.992  1.00  0.00     0.006 A 
ENDBRANCH  52  66
BRANCH  53  74
ATOM     74  C   UNL A   1      39.564  28.757  29.224  1.00  0.00     0.057 A 
ATOM     75  C   UNL A   1      39.008  28.556  30.493  1.00  0.00     0.134 A 
ATOM     76  C   UNL A   1      38.731  29.290  28.233  1.00  0.00     0.134 A 
ATOM     77  F   UNL A   1      39.750  28.031  31.480  1.00  0.00    -0.206 F 
ATOM     78  C   UNL A   1      37.672  28.857  30.763  1.00  0.00     0.040 A 
ATOM     79  C   UNL A   1      37.401  29.621  28.496  1.00  0.00     0.040 A 
ATOM     80  F   UNL A   1      39.205  29.515  26.998  1.00  0.00    -0.206 F 
ATOM     81  C   UNL A   1      36.866  29.396  29.762  1.00  0.00     0.006 A 
ENDBRANCH  53  74
BRANCH  65  82
ATOM     82  C   UNL A   1      45.499  32.398  29.422  1.00  0.00     0.057 A 
ATOM     83  C   UNL A   1      45.860  32.813  30.711  1.00  0.00     0.134 A 
ATOM     84  C   UNL A   1      45.462  33.373  28.418  1.00  0.00     0.134 A 
ATOM     85  F   UNL A   1      45.902  31.932  31.723  1.00  0.00    -0.206 F 
ATOM     86  C   UNL A   1      46.145  34.150  30.995  1.00  0.00     0.040 A 
ATOM     87  C   UNL A   1      45.776  34.707  28.682  1.00  0.00     0.040 A 
ATOM     88  F   UNL A   1      45.135  33.044  27.160  1.00  0.00    -0.206 F 
ATOM     89  C   UNL A   1      46.111  35.099  29.976  1.00  0.00     0.006 A 
ENDBRANCH  65  82
ENDBRANCH  39  40
ENDBRANCH  31  34
ENDBRANCH  29  30
ENDBRANCH  28  29
ENDBRANCH  27  28
ENDBRANCH   1  27
TORSDOF 18
ENDMDL
