MODEL 1
REMARK VINA RESULT:     -10.9      0.000      0.000
REMARK SMILES COc1ccc(CC(=O)NCCCCCCNC(=O)c2ccc(-c3c4nc(c(-c5c(F)cccc5F)c5ccc([nH]5)c(-c5c(F)cccc5F)c5nc(c(-c6c(F)cccc6F)c6ccc3[nH]6)C=C5)C=C4)cc2)cc1S(=O)(=O)Nc1ccccc1Br
REMARK SMILES IDX 12 1 11 2 10 3 8 4 9 5 7 7 6 8 3 9 4 10 75 11 5 12 74 13
REMARK SMILES IDX 2 14 1 15 76 16 77 17 78 18 79 19 80 21 81 22 85 23 82 24
REMARK SMILES IDX 84 25 86 26 83 27 13 28 14 29 15 30 16 31 17 32 18 33 19 35
REMARK SMILES IDX 20 36 21 37 73 38 22 39 72 40 23 41 24 42 25 43 66 44 26 45
REMARK SMILES IDX 71 46 65 47 67 48 27 49 70 50 64 51 63 52 28 54 54 55 37 56
REMARK SMILES IDX 53 57 38 58 41 59 52 60 68 61 39 62 40 63 51 65 69 66 42 67
REMARK SMILES IDX 29 68 30 69 35 70 31 71 32 72 34 73 36 74 33 75 55 76 56 77
REMARK SMILES IDX 61 78 57 79 58 80 60 81 62 82 59 83 43 84 44 85 49 86 45 87
REMARK SMILES IDX 46 88 48 89 50 90 47 91
REMARK H PARENT 10 6 79 20 17 34 67 53 41 64
REMARK Flexibility Score: inf
ROOT
ATOM      1  C   UNL A   1      33.639  29.668  26.900  1.00  0.00     0.021 C 
ENDROOT
BRANCH   1   2
ATOM      2  C   UNL A   1      33.932  28.441  26.040  1.00  0.00     0.116 C 
BRANCH   2   3
ATOM      3  N   UNL A   1      34.145  28.824  24.659  1.00  0.00    -0.356 N 
ATOM      4  C   UNL A   1      33.409  28.476  23.564  1.00  0.00     0.224 C 
ATOM      5  O   UNL A   1      33.832  28.769  22.445  1.00  0.00    -0.275 OA
ATOM      6  H   UNL A   1      34.919  29.407  24.489  1.00  0.00     0.163 HD
BRANCH   4   7
ATOM      7  C   UNL A   1      32.069  27.795  23.755  1.00  0.00     0.135 C 
BRANCH   7   8
ATOM      8  C   UNL A   1      32.101  26.286  23.707  1.00  0.00    -0.037 A 
ATOM      9  C   UNL A   1      31.817  23.494  23.565  1.00  0.00     0.139 A 
ATOM     10  C   UNL A   1      32.304  24.225  22.471  1.00  0.00     0.048 A 
ATOM     11  C   UNL A   1      31.654  24.119  24.790  1.00  0.00     0.129 A 
ATOM     12  C   UNL A   1      32.458  25.610  22.542  1.00  0.00     0.008 A 
ATOM     13  C   UNL A   1      31.728  25.527  24.828  1.00  0.00     0.030 A 
BRANCH   9  14
ATOM     14  O   UNL A   1      31.533  22.190  23.296  1.00  0.00    -0.495 OA
ATOM     15  C   UNL A   1      32.347  21.682  22.237  1.00  0.00     0.278 C 
ENDBRANCH   9  14
BRANCH  11  16
ATOM     16  S   UNL A   1      31.392  23.362  26.374  1.00  0.00     0.265 S 
ATOM     17  O   UNL A   1      31.260  24.454  27.322  1.00  0.00    -0.201 OA
ATOM     18  O   UNL A   1      30.272  22.457  26.187  1.00  0.00    -0.201 OA
BRANCH  16  19
ATOM     19  N   UNL A   1      32.617  22.382  26.991  1.00  0.00    -0.278 N 
ATOM     20  H   UNL A   1      32.450  21.936  27.853  1.00  0.00     0.180 HD
BRANCH  19  21
ATOM     21  C   UNL A   1      33.878  22.148  26.362  1.00  0.00     0.063 A 
ATOM     22  C   UNL A   1      34.811  23.196  26.448  1.00  0.00     0.028 A 
ATOM     23  C   UNL A   1      34.234  20.976  25.684  1.00  0.00     0.042 A 
ATOM     24  C   UNL A   1      36.117  23.031  25.984  1.00  0.00     0.002 A 
ATOM     25  C   UNL A   1      35.551  20.809  25.231  1.00  0.00     0.018 A 
ATOM     26  Br  UNL A   1      33.001  19.590  25.302  1.00  0.00    -0.049 Br
ATOM     27  C   UNL A   1      36.495  21.825  25.405  1.00  0.00     0.001 A 
ENDBRANCH  19  21
ENDBRANCH  16  19
ENDBRANCH  11  16
ENDBRANCH   7   8
ENDBRANCH   4   7
ENDBRANCH   2   3
ENDBRANCH   1   2
BRANCH   1  28
ATOM     28  C   UNL A   1      32.146  29.865  27.192  1.00  0.00     0.002 C 
BRANCH  28  29
ATOM     29  C   UNL A   1      31.422  30.792  26.208  1.00  0.00     0.002 C 
BRANCH  29  30
ATOM     30  C   UNL A   1      31.275  32.239  26.685  1.00  0.00     0.021 C 
BRANCH  30  31
ATOM     31  C   UNL A   1      32.600  32.948  26.933  1.00  0.00     0.116 C 
BRANCH  31  32
ATOM     32  N   UNL A   1      32.425  34.140  27.751  1.00  0.00    -0.352 N 
ATOM     33  C   UNL A   1      33.142  34.555  28.843  1.00  0.00     0.251 C 
ATOM     34  H   UNL A   1      31.686  34.732  27.482  1.00  0.00     0.163 HD
ATOM     35  O   UNL A   1      32.717  35.463  29.555  1.00  0.00    -0.269 OA
BRANCH  33  36
ATOM     36  C   UNL A   1      34.424  33.900  29.171  1.00  0.00     0.039 A 
ATOM     37  C   UNL A   1      35.567  34.248  28.448  1.00  0.00     0.014 A 
ATOM     38  C   UNL A   1      34.496  32.941  30.186  1.00  0.00     0.014 A 
ATOM     39  C   UNL A   1      36.795  33.675  28.782  1.00  0.00     0.010 A 
ATOM     40  C   UNL A   1      35.733  32.431  30.568  1.00  0.00     0.010 A 
ATOM     41  C   UNL A   1      36.893  32.787  29.866  1.00  0.00    -0.014 A 
BRANCH  41  42
ATOM     42  C   UNL A   1      38.204  32.228  30.282  1.00  0.00     0.031 A 
ATOM     43  C   UNL A   1      38.683  30.919  29.713  1.00  0.00     0.074 A 
ATOM     44  C   UNL A   1      38.934  32.867  31.217  1.00  0.00     0.049 A 
ATOM     45  N   UNL A   1      39.766  30.242  30.000  1.00  0.00    -0.248 NA
ATOM     46  C   UNL A   1      37.821  30.275  28.711  1.00  0.00     0.031 C 
ATOM     47  C   UNL A   1      38.553  34.116  31.880  1.00  0.00     0.029 A 
ATOM     48  N   UNL A   1      40.143  32.547  31.783  1.00  0.00    -0.354 N 
ATOM     49  C   UNL A   1      39.707  29.090  29.225  1.00  0.00     0.074 A 
ATOM     50  C   UNL A   1      38.459  29.134  28.495  1.00  0.00     0.031 C 
ATOM     51  C   UNL A   1      39.518  34.466  32.745  1.00  0.00     0.029 A 
ATOM     52  C   UNL A   1      40.562  33.447  32.733  1.00  0.00     0.049 A 
ATOM     53  H   UNL A   1      40.662  31.749  31.530  1.00  0.00     0.167 HD
ATOM     54  C   UNL A   1      40.620  28.096  29.119  1.00  0.00     0.037 A 
ATOM     55  C   UNL A   1      41.657  33.444  33.517  1.00  0.00     0.037 A 
ATOM     56  C   UNL A   1      41.870  28.067  29.832  1.00  0.00     0.049 A 
ATOM     57  C   UNL A   1      42.649  32.320  33.385  1.00  0.00     0.074 A 
ATOM     58  C   UNL A   1      42.891  27.137  29.740  1.00  0.00     0.029 A 
ATOM     59  N   UNL A   1      42.267  29.006  30.771  1.00  0.00    -0.354 N 
ATOM     60  N   UNL A   1      42.618  31.277  32.589  1.00  0.00    -0.248 NA
ATOM     61  C   UNL A   1      43.833  32.376  34.253  1.00  0.00     0.031 C 
ATOM     62  C   UNL A   1      43.880  27.481  30.667  1.00  0.00     0.029 A 
ATOM     63  C   UNL A   1      43.505  28.661  31.288  1.00  0.00     0.049 A 
ATOM     64  H   UNL A   1      41.747  29.801  31.031  1.00  0.00     0.167 HD
ATOM     65  C   UNL A   1      43.789  30.574  32.838  1.00  0.00     0.074 A 
ATOM     66  C   UNL A   1      44.516  31.317  33.845  1.00  0.00     0.031 C 
ATOM     67  C   UNL A   1      44.224  29.417  32.282  1.00  0.00     0.037 A 
BRANCH  54  68
ATOM     68  C   UNL A   1      40.306  26.952  28.196  1.00  0.00     0.057 A 
ATOM     69  C   UNL A   1      40.846  26.871  26.906  1.00  0.00     0.134 A 
ATOM     70  C   UNL A   1      39.502  25.889  28.627  1.00  0.00     0.134 A 
ATOM     71  F   UNL A   1      41.616  27.861  26.427  1.00  0.00    -0.206 F 
ATOM     72  C   UNL A   1      40.583  25.784  26.071  1.00  0.00     0.040 A 
ATOM     73  C   UNL A   1      39.256  24.783  27.812  1.00  0.00     0.040 A 
ATOM     74  F   UNL A   1      38.959  25.898  29.853  1.00  0.00    -0.206 F 
ATOM     75  C   UNL A   1      39.794  24.731  26.528  1.00  0.00     0.006 A 
ENDBRANCH  54  68
BRANCH  55  76
ATOM     76  C   UNL A   1      41.879  34.537  34.498  1.00  0.00     0.057 A 
ATOM     77  C   UNL A   1      42.579  35.697  34.146  1.00  0.00     0.134 A 
ATOM     78  C   UNL A   1      41.422  34.438  35.818  1.00  0.00     0.134 A 
ATOM     79  F   UNL A   1      43.058  35.845  32.901  1.00  0.00    -0.206 F 
ATOM     80  C   UNL A   1      42.845  36.703  35.076  1.00  0.00     0.040 A 
ATOM     81  C   UNL A   1      41.654  35.450  36.751  1.00  0.00     0.040 A 
ATOM     82  F   UNL A   1      40.738  33.357  36.219  1.00  0.00    -0.206 F 
ATOM     83  C   UNL A   1      42.378  36.582  36.383  1.00  0.00     0.006 A 
ENDBRANCH  55  76
BRANCH  67  84
ATOM     84  C   UNL A   1      45.568  28.905  32.715  1.00  0.00     0.057 A 
ATOM     85  C   UNL A   1      46.759  29.360  32.135  1.00  0.00     0.134 A 
ATOM     86  C   UNL A   1      45.671  27.974  33.757  1.00  0.00     0.134 A 
ATOM     87  F   UNL A   1      46.732  30.242  31.125  1.00  0.00    -0.206 F 
ATOM     88  C   UNL A   1      48.002  28.886  32.558  1.00  0.00     0.040 A 
ATOM     89  C   UNL A   1      46.909  27.518  34.209  1.00  0.00     0.040 A 
ATOM     90  F   UNL A   1      44.569  27.505  34.364  1.00  0.00    -0.206 F 
ATOM     91  C   UNL A   1      48.079  27.968  33.604  1.00  0.00     0.006 A 
ENDBRANCH  67  84
ENDBRANCH  41  42
ENDBRANCH  33  36
ENDBRANCH  31  32
ENDBRANCH  30  31
ENDBRANCH  29  30
ENDBRANCH  28  29
ENDBRANCH   1  28
TORSDOF 18
ENDMDL
MODEL 2
REMARK VINA RESULT:     -10.9      4.949     10.208
REMARK SMILES COc1ccc(CC(=O)NCCCCCCNC(=O)c2ccc(-c3c4nc(c(-c5c(F)cccc5F)c5ccc([nH]5)c(-c5c(F)cccc5F)c5nc(c(-c6c(F)cccc6F)c6ccc3[nH]6)C=C5)C=C4)cc2)cc1S(=O)(=O)Nc1ccccc1Br
REMARK SMILES IDX 12 1 11 2 10 3 8 4 9 5 7 7 6 8 3 9 4 10 75 11 5 12 74 13
REMARK SMILES IDX 2 14 1 15 76 16 77 17 78 18 79 19 80 21 81 22 85 23 82 24
REMARK SMILES IDX 84 25 86 26 83 27 13 28 14 29 15 30 16 31 17 32 18 33 19 35
REMARK SMILES IDX 20 36 21 37 73 38 22 39 72 40 23 41 24 42 25 43 66 44 26 45
REMARK SMILES IDX 71 46 65 47 67 48 27 49 70 50 64 51 63 52 28 54 54 55 37 56
REMARK SMILES IDX 53 57 38 58 41 59 52 60 68 61 39 62 40 63 51 65 69 66 42 67
REMARK SMILES IDX 29 68 30 69 35 70 31 71 32 72 34 73 36 74 33 75 55 76 56 77
REMARK SMILES IDX 61 78 57 79 58 80 60 81 62 82 59 83 43 84 44 85 49 86 45 87
REMARK SMILES IDX 46 88 48 89 50 90 47 91
REMARK H PARENT 10 6 79 20 17 34 67 53 41 64
REMARK Flexibility Score: inf
ROOT
ATOM      1  C   UNL A   1      36.909  31.256  32.874  1.00  0.00     0.021 C 
ENDROOT
BRANCH   1   2
ATOM      2  C   UNL A   1      38.084  30.506  33.495  1.00  0.00     0.116 C 
BRANCH   2   3
ATOM      3  N   UNL A   1      37.842  29.078  33.486  1.00  0.00    -0.356 N 
ATOM      4  C   UNL A   1      38.603  28.097  32.919  1.00  0.00     0.224 C 
ATOM      5  O   UNL A   1      38.159  26.949  32.877  1.00  0.00    -0.275 OA
ATOM      6  H   UNL A   1      37.027  28.776  33.947  1.00  0.00     0.163 HD
BRANCH   4   7
ATOM      7  C   UNL A   1      39.991  28.433  32.411  1.00  0.00     0.135 C 
BRANCH   7   8
ATOM      8  C   UNL A   1      41.113  28.191  33.393  1.00  0.00    -0.037 A 
ATOM      9  C   UNL A   1      43.297  27.478  35.011  1.00  0.00     0.139 A 
ATOM     10  C   UNL A   1      43.371  28.579  34.143  1.00  0.00     0.048 A 
ATOM     11  C   UNL A   1      42.080  26.850  35.219  1.00  0.00     0.129 A 
ATOM     12  C   UNL A   1      42.284  28.943  33.348  1.00  0.00     0.008 A 
ATOM     13  C   UNL A   1      41.016  27.168  34.350  1.00  0.00     0.030 A 
BRANCH   9  14
ATOM     14  O   UNL A   1      44.482  27.121  35.577  1.00  0.00    -0.495 OA
ATOM     15  C   UNL A   1      45.555  27.185  34.637  1.00  0.00     0.278 C 
ENDBRANCH   9  14
BRANCH  11  16
ATOM     16  S   UNL A   1      41.657  25.689  36.493  1.00  0.00     0.265 S 
ATOM     17  O   UNL A   1      42.009  26.328  37.749  1.00  0.00    -0.201 OA
ATOM     18  O   UNL A   1      40.270  25.339  36.249  1.00  0.00    -0.201 OA
BRANCH  16  19
ATOM     19  N   UNL A   1      42.462  24.208  36.507  1.00  0.00    -0.278 N 
ATOM     20  H   UNL A   1      42.213  23.564  37.209  1.00  0.00     0.180 HD
BRANCH  19  21
ATOM     21  C   UNL A   1      43.475  23.814  35.581  1.00  0.00     0.063 A 
ATOM     22  C   UNL A   1      43.027  23.452  34.297  1.00  0.00     0.028 A 
ATOM     23  C   UNL A   1      44.845  23.764  35.859  1.00  0.00     0.042 A 
ATOM     24  C   UNL A   1      43.935  23.175  33.274  1.00  0.00     0.002 A 
ATOM     25  C   UNL A   1      45.755  23.498  34.826  1.00  0.00     0.018 A 
ATOM     26  Br  UNL A   1      45.553  24.004  37.600  1.00  0.00    -0.049 Br
ATOM     27  C   UNL A   1      45.300  23.230  33.532  1.00  0.00     0.001 A 
ENDBRANCH  19  21
ENDBRANCH  16  19
ENDBRANCH  11  16
ENDBRANCH   7   8
ENDBRANCH   4   7
ENDBRANCH   2   3
ENDBRANCH   1   2
BRANCH   1  28
ATOM     28  C   UNL A   1      37.311  32.149  31.693  1.00  0.00     0.002 C 
BRANCH  28  29
ATOM     29  C   UNL A   1      36.289  33.236  31.340  1.00  0.00     0.002 C 
BRANCH  29  30
ATOM     30  C   UNL A   1      35.002  32.717  30.696  1.00  0.00     0.021 C 
BRANCH  30  31
ATOM     31  C   UNL A   1      35.016  32.742  29.173  1.00  0.00     0.116 C 
BRANCH  31  32
ATOM     32  N   UNL A   1      34.182  31.689  28.611  1.00  0.00    -0.352 N 
ATOM     33  C   UNL A   1      34.551  30.477  28.088  1.00  0.00     0.251 C 
ATOM     34  H   UNL A   1      33.215  31.873  28.606  1.00  0.00     0.163 HD
ATOM     35  O   UNL A   1      33.743  29.808  27.446  1.00  0.00    -0.269 OA
BRANCH  33  36
ATOM     36  C   UNL A   1      35.927  29.981  28.286  1.00  0.00     0.039 A 
ATOM     37  C   UNL A   1      36.853  30.122  27.250  1.00  0.00     0.014 A 
ATOM     38  C   UNL A   1      36.300  29.372  29.488  1.00  0.00     0.014 A 
ATOM     39  C   UNL A   1      38.171  29.704  27.442  1.00  0.00     0.010 A 
ATOM     40  C   UNL A   1      37.630  29.028  29.705  1.00  0.00     0.010 A 
ATOM     41  C   UNL A   1      38.578  29.184  28.683  1.00  0.00    -0.014 A 
BRANCH  41  42
ATOM     42  C   UNL A   1      39.992  28.805  28.928  1.00  0.00     0.031 A 
ATOM     43  C   UNL A   1      40.948  29.799  29.531  1.00  0.00     0.074 A 
ATOM     44  C   UNL A   1      40.430  27.588  28.551  1.00  0.00     0.049 A 
ATOM     45  N   UNL A   1      42.231  29.675  29.762  1.00  0.00    -0.248 NA
ATOM     46  C   UNL A   1      40.398  31.113  29.899  1.00  0.00     0.031 C 
ATOM     47  C   UNL A   1      39.612  26.556  27.911  1.00  0.00     0.029 A 
ATOM     48  N   UNL A   1      41.675  27.016  28.640  1.00  0.00    -0.354 N 
ATOM     49  C   UNL A   1      42.640  30.894  30.288  1.00  0.00     0.074 A 
ATOM     50  C   UNL A   1      41.483  31.762  30.294  1.00  0.00     0.031 C 
ATOM     51  C   UNL A   1      40.370  25.472  27.684  1.00  0.00     0.029 A 
ATOM     52  C   UNL A   1      41.736  25.746  28.119  1.00  0.00     0.049 A 
ATOM     53  H   UNL A   1      42.450  27.473  29.040  1.00  0.00     0.167 HD
ATOM     54  C   UNL A   1      43.865  31.250  30.741  1.00  0.00     0.037 A 
ATOM     55  C   UNL A   1      42.778  24.903  27.993  1.00  0.00     0.037 A 
ATOM     56  C   UNL A   1      45.008  30.376  30.751  1.00  0.00     0.049 A 
ATOM     57  C   UNL A   1      44.131  25.331  28.496  1.00  0.00     0.074 A 
ATOM     58  C   UNL A   1      46.275  30.624  31.252  1.00  0.00     0.029 A 
ATOM     59  N   UNL A   1      45.026  29.091  30.233  1.00  0.00    -0.354 N 
ATOM     60  N   UNL A   1      44.485  26.459  29.064  1.00  0.00    -0.248 NA
ATOM     61  C   UNL A   1      45.228  24.365  28.348  1.00  0.00     0.031 C 
ATOM     62  C   UNL A   1      47.076  29.509  30.983  1.00  0.00     0.029 A 
ATOM     63  C   UNL A   1      46.290  28.543  30.375  1.00  0.00     0.049 A 
ATOM     64  H   UNL A   1      44.255  28.634  29.825  1.00  0.00     0.167 HD
ATOM     65  C   UNL A   1      45.833  26.325  29.369  1.00  0.00     0.074 A 
ATOM     66  C   UNL A   1      46.229  25.001  28.939  1.00  0.00     0.031 C 
ATOM     67  C   UNL A   1      46.669  27.218  29.953  1.00  0.00     0.037 A 
BRANCH  54  68
ATOM     68  C   UNL A   1      44.039  32.647  31.266  1.00  0.00     0.057 A 
ATOM     69  C   UNL A   1      44.388  33.716  30.430  1.00  0.00     0.134 A 
ATOM     70  C   UNL A   1      43.793  32.937  32.615  1.00  0.00     0.134 A 
ATOM     71  F   UNL A   1      44.647  33.506  29.130  1.00  0.00    -0.206 F 
ATOM     72  C   UNL A   1      44.505  35.018  30.919  1.00  0.00     0.040 A 
ATOM     73  C   UNL A   1      43.877  34.240  33.109  1.00  0.00     0.040 A 
ATOM     74  F   UNL A   1      43.447  31.963  33.470  1.00  0.00    -0.206 F 
ATOM     75  C   UNL A   1      44.239  35.284  32.261  1.00  0.00     0.006 A 
ENDBRANCH  54  68
BRANCH  55  76
ATOM     76  C   UNL A   1      42.592  23.569  27.366  1.00  0.00     0.057 A 
ATOM     77  C   UNL A   1      42.693  23.399  25.980  1.00  0.00     0.134 A 
ATOM     78  C   UNL A   1      42.281  22.439  28.133  1.00  0.00     0.134 A 
ATOM     79  F   UNL A   1      42.971  24.445  25.189  1.00  0.00    -0.206 F 
ATOM     80  C   UNL A   1      42.460  22.161  25.376  1.00  0.00     0.040 A 
ATOM     81  C   UNL A   1      42.076  21.190  27.545  1.00  0.00     0.040 A 
ATOM     82  F   UNL A   1      42.177  22.532  29.466  1.00  0.00    -0.206 F 
ATOM     83  C   UNL A   1      42.154  21.051  26.160  1.00  0.00     0.006 A 
ENDBRANCH  55  76
BRANCH  67  84
ATOM     84  C   UNL A   1      48.082  26.779  30.205  1.00  0.00     0.057 A 
ATOM     85  C   UNL A   1      48.441  26.040  31.340  1.00  0.00     0.134 A 
ATOM     86  C   UNL A   1      49.090  27.065  29.275  1.00  0.00     0.134 A 
ATOM     87  F   UNL A   1      47.527  25.742  32.276  1.00  0.00    -0.206 F 
ATOM     88  C   UNL A   1      49.757  25.625  31.553  1.00  0.00     0.040 A 
ATOM     89  C   UNL A   1      50.402  26.628  29.462  1.00  0.00     0.040 A 
ATOM     90  F   UNL A   1      48.813  27.759  28.161  1.00  0.00    -0.206 F 
ATOM     91  C   UNL A   1      50.739  25.913  30.609  1.00  0.00     0.006 A 
ENDBRANCH  67  84
ENDBRANCH  41  42
ENDBRANCH  33  36
ENDBRANCH  31  32
ENDBRANCH  30  31
ENDBRANCH  29  30
ENDBRANCH  28  29
ENDBRANCH   1  28
TORSDOF 18
ENDMDL
MODEL 3
REMARK VINA RESULT:     -10.7      1.755      6.444
REMARK SMILES COc1ccc(CC(=O)NCCCCCCNC(=O)c2ccc(-c3c4nc(c(-c5c(F)cccc5F)c5ccc([nH]5)c(-c5c(F)cccc5F)c5nc(c(-c6c(F)cccc6F)c6ccc3[nH]6)C=C5)C=C4)cc2)cc1S(=O)(=O)Nc1ccccc1Br
REMARK SMILES IDX 12 1 11 2 10 3 8 4 9 5 7 7 6 8 3 9 4 10 75 11 5 12 74 13
REMARK SMILES IDX 2 14 1 15 76 16 77 17 78 18 79 19 80 21 81 22 85 23 82 24
REMARK SMILES IDX 84 25 86 26 83 27 13 28 14 29 15 30 16 31 17 32 18 33 19 35
REMARK SMILES IDX 20 36 21 37 73 38 22 39 72 40 23 41 24 42 25 43 66 44 26 45
REMARK SMILES IDX 71 46 65 47 67 48 27 49 70 50 64 51 63 52 28 54 54 55 37 56
REMARK SMILES IDX 53 57 38 58 41 59 52 60 68 61 39 62 40 63 51 65 69 66 42 67
REMARK SMILES IDX 29 68 30 69 35 70 31 71 32 72 34 73 36 74 33 75 55 76 56 77
REMARK SMILES IDX 61 78 57 79 58 80 60 81 62 82 59 83 43 84 44 85 49 86 45 87
REMARK SMILES IDX 46 88 48 89 50 90 47 91
REMARK H PARENT 10 6 79 20 17 34 67 53 41 64
REMARK Flexibility Score: inf
ROOT
ATOM      1  C   UNL A   1      33.727  29.719  26.508  1.00  0.00     0.021 C 
ENDROOT
BRANCH   1   2
ATOM      2  C   UNL A   1      34.078  28.605  25.526  1.00  0.00     0.116 C 
BRANCH   2   3
ATOM      3  N   UNL A   1      33.188  28.629  24.383  1.00  0.00    -0.356 N 
ATOM      4  C   UNL A   1      32.996  27.660  23.442  1.00  0.00     0.224 C 
ATOM      5  O   UNL A   1      32.312  27.919  22.452  1.00  0.00    -0.275 OA
ATOM      6  H   UNL A   1      32.654  29.448  24.271  1.00  0.00     0.163 HD
BRANCH   4   7
ATOM      7  C   UNL A   1      33.580  26.280  23.667  1.00  0.00     0.135 C 
BRANCH   7   8
ATOM      8  C   UNL A   1      32.770  25.377  24.568  1.00  0.00    -0.037 A 
ATOM      9  C   UNL A   1      31.451  23.831  26.508  1.00  0.00     0.139 A 
ATOM     10  C   UNL A   1      30.851  24.982  25.974  1.00  0.00     0.048 A 
ATOM     11  C   UNL A   1      32.615  23.339  25.943  1.00  0.00     0.129 A 
ATOM     12  C   UNL A   1      31.499  25.746  25.002  1.00  0.00     0.008 A 
ATOM     13  C   UNL A   1      33.303  24.161  25.026  1.00  0.00     0.030 A 
BRANCH   9  14
ATOM     14  O   UNL A   1      30.801  23.297  27.579  1.00  0.00    -0.495 OA
ATOM     15  C   UNL A   1      29.490  22.849  27.231  1.00  0.00     0.278 C 
ENDBRANCH   9  14
BRANCH  11  16
ATOM     16  S   UNL A   1      33.365  21.751  26.199  1.00  0.00     0.265 S 
ATOM     17  O   UNL A   1      34.487  21.685  25.279  1.00  0.00    -0.201 OA
ATOM     18  O   UNL A   1      33.622  21.672  27.625  1.00  0.00    -0.201 OA
BRANCH  16  19
ATOM     19  N   UNL A   1      32.438  20.381  25.870  1.00  0.00    -0.278 N 
ATOM     20  H   UNL A   1      31.641  20.229  26.427  1.00  0.00     0.180 HD
BRANCH  19  21
ATOM     21  C   UNL A   1      32.719  19.424  24.848  1.00  0.00     0.063 A 
ATOM     22  C   UNL A   1      33.212  18.183  25.286  1.00  0.00     0.028 A 
ATOM     23  C   UNL A   1      32.541  19.636  23.476  1.00  0.00     0.042 A 
ATOM     24  C   UNL A   1      33.399  17.129  24.391  1.00  0.00     0.002 A 
ATOM     25  C   UNL A   1      32.717  18.571  22.580  1.00  0.00     0.018 A 
ATOM     26  Br  UNL A   1      32.102  21.326  22.741  1.00  0.00    -0.049 Br
ATOM     27  C   UNL A   1      33.120  17.315  23.041  1.00  0.00     0.001 A 
ENDBRANCH  19  21
ENDBRANCH  16  19
ENDBRANCH  11  16
ENDBRANCH   7   8
ENDBRANCH   4   7
ENDBRANCH   2   3
ENDBRANCH   1   2
BRANCH   1  28
ATOM     28  C   UNL A   1      32.223  29.830  26.792  1.00  0.00     0.002 C 
BRANCH  28  29
ATOM     29  C   UNL A   1      31.491  30.877  25.945  1.00  0.00     0.002 C 
BRANCH  29  30
ATOM     30  C   UNL A   1      31.314  32.238  26.624  1.00  0.00     0.021 C 
BRANCH  30  31
ATOM     31  C   UNL A   1      32.604  32.823  27.185  1.00  0.00     0.116 C 
BRANCH  31  32
ATOM     32  N   UNL A   1      32.422  34.198  27.626  1.00  0.00    -0.352 N 
ATOM     33  C   UNL A   1      33.032  34.868  28.654  1.00  0.00     0.251 C 
ATOM     34  H   UNL A   1      31.765  34.723  27.112  1.00  0.00     0.163 HD
ATOM     35  O   UNL A   1      32.593  35.951  29.035  1.00  0.00    -0.269 OA
BRANCH  33  36
ATOM     36  C   UNL A   1      34.214  34.278  29.314  1.00  0.00     0.039 A 
ATOM     37  C   UNL A   1      34.030  33.480  30.445  1.00  0.00     0.014 A 
ATOM     38  C   UNL A   1      35.500  34.518  28.821  1.00  0.00     0.014 A 
ATOM     39  C   UNL A   1      35.134  32.875  31.048  1.00  0.00     0.010 A 
ATOM     40  C   UNL A   1      36.588  33.852  29.376  1.00  0.00     0.010 A 
ATOM     41  C   UNL A   1      36.418  33.029  30.498  1.00  0.00    -0.014 A 
BRANCH  41  42
ATOM     42  C   UNL A   1      37.590  32.332  31.083  1.00  0.00     0.031 A 
ATOM     43  C   UNL A   1      38.245  32.866  32.328  1.00  0.00     0.074 A 
ATOM     44  C   UNL A   1      38.103  31.254  30.458  1.00  0.00     0.049 A 
ATOM     45  N   UNL A   1      39.313  32.433  32.950  1.00  0.00    -0.248 NA
ATOM     46  C   UNL A   1      37.637  34.056  32.941  1.00  0.00     0.031 C 
ATOM     47  C   UNL A   1      37.588  30.671  29.217  1.00  0.00     0.029 A 
ATOM     48  N   UNL A   1      39.180  30.463  30.773  1.00  0.00    -0.354 N 
ATOM     49  C   UNL A   1      39.510  33.303  34.015  1.00  0.00     0.074 A 
ATOM     50  C   UNL A   1      38.483  34.318  33.926  1.00  0.00     0.031 C 
ATOM     51  C   UNL A   1      38.335  29.605  28.888  1.00  0.00     0.029 A 
ATOM     52  C   UNL A   1      39.408  29.455  29.867  1.00  0.00     0.049 A 
ATOM     53  H   UNL A   1      39.736  30.604  31.574  1.00  0.00     0.167 HD
ATOM     54  C   UNL A   1      40.450  33.249  34.988  1.00  0.00     0.037 A 
ATOM     55  C   UNL A   1      40.380  28.525  29.821  1.00  0.00     0.037 A 
ATOM     56  C   UNL A   1      41.456  32.225  35.083  1.00  0.00     0.049 A 
ATOM     57  C   UNL A   1      41.418  28.496  30.911  1.00  0.00     0.074 A 
ATOM     58  C   UNL A   1      42.410  32.046  36.070  1.00  0.00     0.029 A 
ATOM     59  N   UNL A   1      41.642  31.210  34.157  1.00  0.00    -0.354 N 
ATOM     60  N   UNL A   1      41.543  29.278  31.956  1.00  0.00    -0.248 NA
ATOM     61  C   UNL A   1      42.444  27.449  30.820  1.00  0.00     0.031 C 
ATOM     62  C   UNL A   1      43.212  30.958  35.710  1.00  0.00     0.029 A 
ATOM     63  C   UNL A   1      42.715  30.420  34.534  1.00  0.00     0.049 A 
ATOM     64  H   UNL A   1      41.093  31.072  33.351  1.00  0.00     0.167 HD
ATOM     65  C   UNL A   1      42.640  28.799  32.661  1.00  0.00     0.074 A 
ATOM     66  C   UNL A   1      43.132  27.648  31.934  1.00  0.00     0.031 C 
ATOM     67  C   UNL A   1      43.189  29.269  33.807  1.00  0.00     0.037 A 
BRANCH  54  68
ATOM     68  C   UNL A   1      40.437  34.328  36.034  1.00  0.00     0.057 A 
ATOM     69  C   UNL A   1      39.686  34.211  37.211  1.00  0.00     0.134 A 
ATOM     70  C   UNL A   1      41.235  35.470  35.889  1.00  0.00     0.134 A 
ATOM     71  F   UNL A   1      38.893  33.146  37.408  1.00  0.00    -0.206 F 
ATOM     72  C   UNL A   1      39.714  35.199  38.197  1.00  0.00     0.040 A 
ATOM     73  C   UNL A   1      41.294  36.451  36.880  1.00  0.00     0.040 A 
ATOM     74  F   UNL A   1      41.985  35.644  34.790  1.00  0.00    -0.206 F 
ATOM     75  C   UNL A   1      40.528  36.318  38.037  1.00  0.00     0.006 A 
ENDBRANCH  54  68
BRANCH  55  76
ATOM     76  C   UNL A   1      40.423  27.541  28.709  1.00  0.00     0.057 A 
ATOM     77  C   UNL A   1      41.188  27.778  27.560  1.00  0.00     0.134 A 
ATOM     78  C   UNL A   1      39.682  26.353  28.755  1.00  0.00     0.134 A 
ATOM     79  F   UNL A   1      41.907  28.904  27.447  1.00  0.00    -0.206 F 
ATOM     80  C   UNL A   1      41.188  26.887  26.485  1.00  0.00     0.040 A 
ATOM     81  C   UNL A   1      39.698  25.440  27.700  1.00  0.00     0.040 A 
ATOM     82  F   UNL A   1      38.935  26.062  29.829  1.00  0.00    -0.206 F 
ATOM     83  C   UNL A   1      40.444  25.712  26.555  1.00  0.00     0.006 A 
ENDBRANCH  55  76
BRANCH  67  84
ATOM     84  C   UNL A   1      44.356  28.514  34.374  1.00  0.00     0.057 A 
ATOM     85  C   UNL A   1      44.190  27.444  35.263  1.00  0.00     0.134 A 
ATOM     86  C   UNL A   1      45.664  28.837  33.990  1.00  0.00     0.134 A 
ATOM     87  F   UNL A   1      42.965  27.090  35.681  1.00  0.00    -0.206 F 
ATOM     88  C   UNL A   1      45.284  26.741  35.770  1.00  0.00     0.040 A 
ATOM     89  C   UNL A   1      46.764  28.121  34.465  1.00  0.00     0.040 A 
ATOM     90  F   UNL A   1      45.894  29.843  33.132  1.00  0.00    -0.206 F 
ATOM     91  C   UNL A   1      46.575  27.075  35.365  1.00  0.00     0.006 A 
ENDBRANCH  67  84
ENDBRANCH  41  42
ENDBRANCH  33  36
ENDBRANCH  31  32
ENDBRANCH  30  31
ENDBRANCH  29  30
ENDBRANCH  28  29
ENDBRANCH   1  28
TORSDOF 18
ENDMDL
