MODEL 1
REMARK VINA RESULT:     -11.8      0.000      0.000
REMARK SMILES O=C(CSc1nc(O)cc(=O)[nH]1)Nc1cccc(C(=O)NCCCCCCNC(=O)c2ccc(-c3c4nc(c(-c5c(F)cccc5F)c5ccc([nH]5)c(-c5c(F)cccc5F)c5nc(c(-c6c(F)cccc6F)c6ccc3[nH]6)C=C5)C=C4)cc2)c1
REMARK SMILES IDX 23 1 22 2 21 3 19 4 20 5 18 7 14 8 15 9 85 10 16 11 17 12
REMARK SMILES IDX 13 13 1 14 2 15 3 17 4 18 5 19 6 20 12 21 7 22 10 23 9 25
REMARK SMILES IDX 11 26 8 27 24 29 25 30 26 31 27 32 28 33 29 34 30 36 31 37
REMARK SMILES IDX 32 38 84 39 33 40 83 41 34 42 35 43 36 44 77 45 37 46 82 47
REMARK SMILES IDX 76 48 78 49 38 50 81 51 75 52 74 53 39 55 65 56 48 57 64 58
REMARK SMILES IDX 49 59 52 60 63 61 79 62 50 63 51 64 62 66 80 67 53 68 40 69
REMARK SMILES IDX 41 70 46 71 42 72 43 73 45 74 47 75 44 76 66 77 67 78 72 79
REMARK SMILES IDX 68 80 69 81 71 82 73 83 70 84 54 85 55 86 60 87 56 88 57 89
REMARK SMILES IDX 59 90 61 91 58 92
REMARK H PARENT 21 6 13 16 12 24 8 28 28 35 78 54 52 65
REMARK Flexibility Score: inf
ROOT
ATOM      1  C   UNL A   1      34.096  26.588  25.577  1.00  0.00     0.021 C 
ENDROOT
BRANCH   1   2
ATOM      2  C   UNL A   1      34.008  27.680  24.520  1.00  0.00     0.116 C 
BRANCH   2   3
ATOM      3  N   UNL A   1      33.421  28.930  24.982  1.00  0.00    -0.352 N 
ATOM      4  C   UNL A   1      32.097  29.307  25.100  1.00  0.00     0.251 C 
ATOM      5  O   UNL A   1      31.829  30.440  25.495  1.00  0.00    -0.269 OA
ATOM      6  H   UNL A   1      34.072  29.616  25.254  1.00  0.00     0.163 HD
BRANCH   4   7
ATOM      7  C   UNL A   1      30.993  28.402  24.677  1.00  0.00     0.041 A 
ATOM      8  C   UNL A   1      30.137  26.154  24.476  1.00  0.00     0.041 A 
ATOM      9  C   UNL A   1      29.236  26.591  23.500  1.00  0.00     0.026 A 
ATOM     10  C   UNL A   1      30.899  27.096  25.156  1.00  0.00     0.040 A 
ATOM     11  C   UNL A   1      29.176  27.944  23.152  1.00  0.00     0.003 A 
ATOM     12  C   UNL A   1      30.086  28.844  23.710  1.00  0.00     0.014 A 
BRANCH   8  13
ATOM     13  N   UNL A   1      30.324  24.765  24.640  1.00  0.00    -0.325 N 
ATOM     14  O   UNL A   1      30.892  24.605  26.899  1.00  0.00    -0.274 OA
ATOM     15  C   UNL A   1      30.725  24.098  25.793  1.00  0.00     0.234 C 
ATOM     16  H   UNL A   1      30.152  24.205  23.848  1.00  0.00     0.169 HD
BRANCH  15  17
ATOM     17  C   UNL A   1      31.028  22.622  25.588  1.00  0.00     0.178 C 
BRANCH  17  18
ATOM     18  S   UNL A   1      31.928  22.295  24.049  1.00  0.00    -0.078 SA
BRANCH  18  19
ATOM     19  C   UNL A   1      32.151  20.575  24.155  1.00  0.00     0.172 A 
ATOM     20  N   UNL A   1      32.362  20.022  25.302  1.00  0.00    -0.189 NA
ATOM     21  N   UNL A   1      32.157  19.911  22.969  1.00  0.00    -0.301 N 
ATOM     22  C   UNL A   1      32.618  18.683  25.283  1.00  0.00     0.218 A 
ATOM     23  C   UNL A   1      32.387  18.571  22.902  1.00  0.00     0.255 A 
ATOM     24  H   UNL A   1      31.991  20.412  22.138  1.00  0.00     0.172 HD
ATOM     25  C   UNL A   1      32.649  17.920  24.189  1.00  0.00     0.139 A 
ATOM     26  O   UNL A   1      32.397  17.955  21.849  1.00  0.00    -0.269 OA
BRANCH  22  27
ATOM     27  O   UNL A   1      32.894  18.124  26.502  1.00  0.00    -0.493 OA
ATOM     28  H   UNL A   1      33.587  17.499  26.585  1.00  0.00     0.295 HD
ENDBRANCH  22  27
ENDBRANCH  18  19
ENDBRANCH  17  18
ENDBRANCH  15  17
ENDBRANCH   8  13
ENDBRANCH   4   7
ENDBRANCH   2   3
ENDBRANCH   1   2
BRANCH   1  29
ATOM     29  C   UNL A   1      34.254  25.160  25.060  1.00  0.00     0.002 C 
BRANCH  29  30
ATOM     30  C   UNL A   1      34.365  24.067  26.125  1.00  0.00     0.002 C 
BRANCH  30  31
ATOM     31  C   UNL A   1      35.453  23.014  25.903  1.00  0.00     0.021 C 
BRANCH  31  32
ATOM     32  C   UNL A   1      36.880  23.546  25.855  1.00  0.00     0.116 C 
BRANCH  32  33
ATOM     33  N   UNL A   1      37.875  22.512  26.086  1.00  0.00    -0.352 N 
ATOM     34  C   UNL A   1      39.180  22.636  26.497  1.00  0.00     0.251 C 
ATOM     35  H   UNL A   1      37.570  21.589  25.925  1.00  0.00     0.163 HD
ATOM     36  O   UNL A   1      39.930  21.667  26.491  1.00  0.00    -0.269 OA
BRANCH  34  37
ATOM     37  C   UNL A   1      39.688  23.957  26.928  1.00  0.00     0.039 A 
ATOM     38  C   UNL A   1      40.099  24.877  25.959  1.00  0.00     0.014 A 
ATOM     39  C   UNL A   1      39.755  24.287  28.284  1.00  0.00     0.014 A 
ATOM     40  C   UNL A   1      40.517  26.152  26.348  1.00  0.00     0.010 A 
ATOM     41  C   UNL A   1      40.098  25.581  28.664  1.00  0.00     0.010 A 
ATOM     42  C   UNL A   1      40.487  26.526  27.701  1.00  0.00    -0.014 A 
BRANCH  42  43
ATOM     43  C   UNL A   1      40.884  27.888  28.145  1.00  0.00     0.031 A 
ATOM     44  C   UNL A   1      42.341  28.263  28.188  1.00  0.00     0.074 A 
ATOM     45  C   UNL A   1      39.948  28.760  28.568  1.00  0.00     0.049 A 
ATOM     46  N   UNL A   1      42.904  29.347  28.657  1.00  0.00    -0.248 NA
ATOM     47  C   UNL A   1      43.293  27.273  27.656  1.00  0.00     0.031 C 
ATOM     48  C   UNL A   1      38.506  28.512  28.596  1.00  0.00     0.029 A 
ATOM     49  N   UNL A   1      40.074  30.032  29.070  1.00  0.00    -0.354 N 
ATOM     50  C   UNL A   1      44.271  29.168  28.483  1.00  0.00     0.074 A 
ATOM     51  C   UNL A   1      44.458  27.845  27.927  1.00  0.00     0.031 C 
ATOM     52  C   UNL A   1      37.880  29.603  29.070  1.00  0.00     0.029 A 
ATOM     53  C   UNL A   1      38.877  30.608  29.425  1.00  0.00     0.049 A 
ATOM     54  H   UNL A   1      40.941  30.489  29.167  1.00  0.00     0.167 HD
ATOM     55  C   UNL A   1      45.278  30.036  28.733  1.00  0.00     0.037 A 
ATOM     56  C   UNL A   1      38.617  31.804  29.986  1.00  0.00     0.037 A 
ATOM     57  C   UNL A   1      45.090  31.358  29.271  1.00  0.00     0.049 A 
ATOM     58  C   UNL A   1      39.762  32.728  30.306  1.00  0.00     0.074 A 
ATOM     59  C   UNL A   1      46.046  32.321  29.547  1.00  0.00     0.029 A 
ATOM     60  N   UNL A   1      43.861  31.905  29.607  1.00  0.00    -0.354 N 
ATOM     61  N   UNL A   1      41.046  32.560  30.102  1.00  0.00    -0.248 NA
ATOM     62  C   UNL A   1      39.421  34.015  30.931  1.00  0.00     0.031 C 
ATOM     63  C   UNL A   1      45.399  33.435  30.089  1.00  0.00     0.029 A 
ATOM     64  C   UNL A   1      44.037  33.187  30.098  1.00  0.00     0.049 A 
ATOM     65  H   UNL A   1      42.994  31.449  29.512  1.00  0.00     0.167 HD
ATOM     66  C   UNL A   1      41.658  33.733  30.526  1.00  0.00     0.074 A 
ATOM     67  C   UNL A   1      40.604  34.608  30.994  1.00  0.00     0.031 C 
ATOM     68  C   UNL A   1      42.973  34.060  30.525  1.00  0.00     0.037 A 
BRANCH  55  69
ATOM     69  C   UNL A   1      46.676  29.591  28.413  1.00  0.00     0.057 A 
ATOM     70  C   UNL A   1      47.268  29.865  27.172  1.00  0.00     0.134 A 
ATOM     71  C   UNL A   1      47.457  28.926  29.367  1.00  0.00     0.134 A 
ATOM     72  F   UNL A   1      46.570  30.488  26.210  1.00  0.00    -0.206 F 
ATOM     73  C   UNL A   1      48.576  29.476  26.885  1.00  0.00     0.040 A 
ATOM     74  C   UNL A   1      48.778  28.558  29.101  1.00  0.00     0.040 A 
ATOM     75  F   UNL A   1      46.956  28.639  30.578  1.00  0.00    -0.206 F 
ATOM     76  C   UNL A   1      49.338  28.828  27.855  1.00  0.00     0.006 A 
ENDBRANCH  55  69
BRANCH  56  77
ATOM     77  C   UNL A   1      37.219  32.216  30.281  1.00  0.00     0.057 A 
ATOM     78  C   UNL A   1      36.494  33.002  29.377  1.00  0.00     0.134 A 
ATOM     79  C   UNL A   1      36.595  31.887  31.490  1.00  0.00     0.134 A 
ATOM     80  F   UNL A   1      37.042  33.368  28.209  1.00  0.00    -0.206 F 
ATOM     81  C   UNL A   1      35.216  33.478  29.679  1.00  0.00     0.040 A 
ATOM     82  C   UNL A   1      35.305  32.329  31.793  1.00  0.00     0.040 A 
ATOM     83  F   UNL A   1      37.230  31.131  32.399  1.00  0.00    -0.206 F 
ATOM     84  C   UNL A   1      34.618  33.139  30.891  1.00  0.00     0.006 A 
ENDBRANCH  56  77
BRANCH  68  85
ATOM     85  C   UNL A   1      43.345  35.443  30.974  1.00  0.00     0.057 A 
ATOM     86  C   UNL A   1      43.467  36.511  30.078  1.00  0.00     0.134 A 
ATOM     87  C   UNL A   1      43.534  35.715  32.336  1.00  0.00     0.134 A 
ATOM     88  F   UNL A   1      43.311  36.316  28.760  1.00  0.00    -0.206 F 
ATOM     89  C   UNL A   1      43.784  37.798  30.518  1.00  0.00     0.040 A 
ATOM     90  C   UNL A   1      43.820  37.003  32.791  1.00  0.00     0.040 A 
ATOM     91  F   UNL A   1      43.421  34.738  33.249  1.00  0.00    -0.206 F 
ATOM     92  C   UNL A   1      43.953  38.047  31.879  1.00  0.00     0.006 A 
ENDBRANCH  68  85
ENDBRANCH  42  43
ENDBRANCH  34  37
ENDBRANCH  32  33
ENDBRANCH  31  32
ENDBRANCH  30  31
ENDBRANCH  29  30
ENDBRANCH   1  29
TORSDOF 18
ENDMDL
MODEL 2
REMARK VINA RESULT:     -11.7      2.784      6.951
REMARK SMILES O=C(CSc1nc(O)cc(=O)[nH]1)Nc1cccc(C(=O)NCCCCCCNC(=O)c2ccc(-c3c4nc(c(-c5c(F)cccc5F)c5ccc([nH]5)c(-c5c(F)cccc5F)c5nc(c(-c6c(F)cccc6F)c6ccc3[nH]6)C=C5)C=C4)cc2)c1
REMARK SMILES IDX 23 1 22 2 21 3 19 4 20 5 18 7 14 8 15 9 85 10 16 11 17 12
REMARK SMILES IDX 13 13 1 14 2 15 3 17 4 18 5 19 6 20 12 21 7 22 10 23 9 25
REMARK SMILES IDX 11 26 8 27 24 29 25 30 26 31 27 32 28 33 29 34 30 36 31 37
REMARK SMILES IDX 32 38 84 39 33 40 83 41 34 42 35 43 36 44 77 45 37 46 82 47
REMARK SMILES IDX 76 48 78 49 38 50 81 51 75 52 74 53 39 55 65 56 48 57 64 58
REMARK SMILES IDX 49 59 52 60 63 61 79 62 50 63 51 64 62 66 80 67 53 68 40 69
REMARK SMILES IDX 41 70 46 71 42 72 43 73 45 74 47 75 44 76 66 77 67 78 72 79
REMARK SMILES IDX 68 80 69 81 71 82 73 83 70 84 54 85 55 86 60 87 56 88 57 89
REMARK SMILES IDX 59 90 61 91 58 92
REMARK H PARENT 21 6 13 16 12 24 8 28 28 35 78 54 52 65
REMARK Flexibility Score: inf
ROOT
ATOM      1  C   UNL A   1      30.990  28.614  23.116  1.00  0.00     0.021 C 
ENDROOT
BRANCH   1   2
ATOM      2  C   UNL A   1      30.336  27.239  23.138  1.00  0.00     0.116 C 
BRANCH   2   3
ATOM      3  N   UNL A   1      29.913  26.787  24.456  1.00  0.00    -0.352 N 
ATOM      4  C   UNL A   1      30.601  26.079  25.423  1.00  0.00     0.251 C 
ATOM      5  O   UNL A   1      30.028  25.779  26.468  1.00  0.00    -0.269 OA
ATOM      6  H   UNL A   1      28.988  27.023  24.697  1.00  0.00     0.163 HD
BRANCH   4   7
ATOM      7  C   UNL A   1      31.990  25.599  25.190  1.00  0.00     0.041 A 
ATOM      8  C   UNL A   1      33.483  23.756  24.739  1.00  0.00     0.041 A 
ATOM      9  C   UNL A   1      34.554  24.513  25.224  1.00  0.00     0.026 A 
ATOM     10  C   UNL A   1      32.243  24.366  24.590  1.00  0.00     0.040 A 
ATOM     11  C   UNL A   1      34.352  25.832  25.641  1.00  0.00     0.003 A 
ATOM     12  C   UNL A   1      33.061  26.362  25.665  1.00  0.00     0.014 A 
BRANCH   8  13
ATOM     13  N   UNL A   1      33.678  22.373  24.539  1.00  0.00    -0.325 N 
ATOM     14  O   UNL A   1      33.909  21.585  26.725  1.00  0.00    -0.274 OA
ATOM     15  C   UNL A   1      33.919  21.407  25.511  1.00  0.00     0.234 C 
ATOM     16  H   UNL A   1      33.638  22.057  23.608  1.00  0.00     0.169 HD
BRANCH  15  17
ATOM     17  C   UNL A   1      34.285  20.040  24.954  1.00  0.00     0.178 C 
BRANCH  17  18
ATOM     18  S   UNL A   1      32.882  19.196  24.177  1.00  0.00    -0.078 SA
BRANCH  18  19
ATOM     19  C   UNL A   1      33.161  17.557  24.681  1.00  0.00     0.172 A 
ATOM     20  N   UNL A   1      32.162  16.766  24.884  1.00  0.00    -0.189 NA
ATOM     21  N   UNL A   1      34.461  17.226  24.900  1.00  0.00    -0.301 N 
ATOM     22  C   UNL A   1      32.468  15.527  25.366  1.00  0.00     0.218 A 
ATOM     23  C   UNL A   1      34.816  15.995  25.360  1.00  0.00     0.255 A 
ATOM     24  H   UNL A   1      35.163  17.893  24.722  1.00  0.00     0.172 HD
ATOM     25  C   UNL A   1      33.699  15.081  25.619  1.00  0.00     0.139 A 
ATOM     26  O   UNL A   1      35.977  15.675  25.563  1.00  0.00    -0.269 OA
BRANCH  22  27
ATOM     27  O   UNL A   1      31.393  14.721  25.628  1.00  0.00    -0.493 OA
ATOM     28  H   UNL A   1      30.699  15.029  26.178  1.00  0.00     0.295 HD
ENDBRANCH  22  27
ENDBRANCH  18  19
ENDBRANCH  17  18
ENDBRANCH  15  17
ENDBRANCH   8  13
ENDBRANCH   4   7
ENDBRANCH   2   3
ENDBRANCH   1   2
BRANCH   1  29
ATOM     29  C   UNL A   1      30.635  29.549  24.269  1.00  0.00     0.002 C 
BRANCH  29  30
ATOM     30  C   UNL A   1      31.740  29.799  25.298  1.00  0.00     0.002 C 
BRANCH  30  31
ATOM     31  C   UNL A   1      31.432  30.833  26.383  1.00  0.00     0.021 C 
BRANCH  31  32
ATOM     32  C   UNL A   1      32.637  31.592  26.926  1.00  0.00     0.116 C 
BRANCH  32  33
ATOM     33  N   UNL A   1      32.319  32.959  27.303  1.00  0.00    -0.352 N 
ATOM     34  C   UNL A   1      33.000  33.814  28.135  1.00  0.00     0.251 C 
ATOM     35  H   UNL A   1      31.495  33.326  26.905  1.00  0.00     0.163 HD
ATOM     36  O   UNL A   1      32.507  34.885  28.467  1.00  0.00    -0.269 OA
BRANCH  34  37
ATOM     37  C   UNL A   1      34.332  33.426  28.648  1.00  0.00     0.039 A 
ATOM     38  C   UNL A   1      34.419  32.729  29.856  1.00  0.00     0.014 A 
ATOM     39  C   UNL A   1      35.492  33.748  27.937  1.00  0.00     0.014 A 
ATOM     40  C   UNL A   1      35.665  32.298  30.319  1.00  0.00     0.010 A 
ATOM     41  C   UNL A   1      36.721  33.252  28.359  1.00  0.00     0.010 A 
ATOM     42  C   UNL A   1      36.822  32.526  29.557  1.00  0.00    -0.014 A 
BRANCH  42  43
ATOM     43  C   UNL A   1      38.156  32.043  30.000  1.00  0.00     0.031 A 
ATOM     44  C   UNL A   1      38.678  30.726  29.493  1.00  0.00     0.074 A 
ATOM     45  C   UNL A   1      38.866  32.751  30.901  1.00  0.00     0.049 A 
ATOM     46  N   UNL A   1      39.753  30.069  29.847  1.00  0.00    -0.248 NA
ATOM     47  C   UNL A   1      37.868  30.045  28.469  1.00  0.00     0.031 C 
ATOM     48  C   UNL A   1      38.463  34.031  31.485  1.00  0.00     0.029 A 
ATOM     49  N   UNL A   1      40.076  32.484  31.494  1.00  0.00    -0.354 N 
ATOM     50  C   UNL A   1      39.744  28.899  29.097  1.00  0.00     0.074 A 
ATOM     51  C   UNL A   1      38.525  28.904  28.318  1.00  0.00     0.031 C 
ATOM     52  C   UNL A   1      39.415  34.446  32.337  1.00  0.00     0.029 A 
ATOM     53  C   UNL A   1      40.473  33.442  32.397  1.00  0.00     0.049 A 
ATOM     54  H   UNL A   1      40.608  31.680  31.293  1.00  0.00     0.167 HD
ATOM     55  C   UNL A   1      40.680  27.923  29.038  1.00  0.00     0.037 A 
ATOM     56  C   UNL A   1      41.558  33.495  33.192  1.00  0.00     0.037 A 
ATOM     57  C   UNL A   1      41.900  27.927  29.801  1.00  0.00     0.049 A 
ATOM     58  C   UNL A   1      42.556  32.368  33.146  1.00  0.00     0.074 A 
ATOM     59  C   UNL A   1      42.920  26.992  29.801  1.00  0.00     0.029 A 
ATOM     60  N   UNL A   1      42.268  28.921  30.696  1.00  0.00    -0.354 N 
ATOM     61  N   UNL A   1      42.552  31.285  32.406  1.00  0.00    -0.248 NA
ATOM     62  C   UNL A   1      43.715  32.471  34.046  1.00  0.00     0.031 C 
ATOM     63  C   UNL A   1      43.886  27.398  30.726  1.00  0.00     0.029 A 
ATOM     64  C   UNL A   1      43.494  28.614  31.261  1.00  0.00     0.049 A 
ATOM     65  H   UNL A   1      41.736  29.724  30.899  1.00  0.00     0.167 HD
ATOM     66  C   UNL A   1      43.726  30.608  32.713  1.00  0.00     0.074 A 
ATOM     67  C   UNL A   1      44.420  31.402  33.703  1.00  0.00     0.031 C 
ATOM     68  C   UNL A   1      44.189  29.435  32.218  1.00  0.00     0.037 A 
BRANCH  55  69
ATOM     69  C   UNL A   1      40.429  26.775  28.104  1.00  0.00     0.057 A 
ATOM     70  C   UNL A   1      41.026  26.716  26.837  1.00  0.00     0.134 A 
ATOM     71  C   UNL A   1      39.625  25.695  28.489  1.00  0.00     0.134 A 
ATOM     72  F   UNL A   1      41.797  27.723  26.402  1.00  0.00    -0.206 F 
ATOM     73  C   UNL A   1      40.815  25.635  25.980  1.00  0.00     0.040 A 
ATOM     74  C   UNL A   1      39.431  24.594  27.652  1.00  0.00     0.040 A 
ATOM     75  F   UNL A   1      39.029  25.683  29.691  1.00  0.00    -0.206 F 
ATOM     76  C   UNL A   1      40.022  24.566  26.391  1.00  0.00     0.006 A 
ENDBRANCH  55  69
BRANCH  56  77
ATOM     77  C   UNL A   1      41.779  34.652  34.098  1.00  0.00     0.057 A 
ATOM     78  C   UNL A   1      41.269  34.653  35.403  1.00  0.00     0.134 A 
ATOM     79  C   UNL A   1      42.449  35.805  33.670  1.00  0.00     0.134 A 
ATOM     80  F   UNL A   1      40.601  33.588  35.868  1.00  0.00    -0.206 F 
ATOM     81  C   UNL A   1      41.384  35.769  36.235  1.00  0.00     0.040 A 
ATOM     82  C   UNL A   1      42.598  36.917  34.501  1.00  0.00     0.040 A 
ATOM     83  F   UNL A   1      42.967  35.868  32.434  1.00  0.00    -0.206 F 
ATOM     84  C   UNL A   1      42.052  36.906  35.783  1.00  0.00     0.006 A 
ENDBRANCH  56  77
BRANCH  68  85
ATOM     85  C   UNL A   1      45.541  28.973  32.679  1.00  0.00     0.057 A 
ATOM     86  C   UNL A   1      45.707  28.147  33.797  1.00  0.00     0.134 A 
ATOM     87  C   UNL A   1      46.690  29.322  31.955  1.00  0.00     0.134 A 
ATOM     88  F   UNL A   1      44.650  27.787  34.540  1.00  0.00    -0.206 F 
ATOM     89  C   UNL A   1      46.970  27.702  34.193  1.00  0.00     0.040 A 
ATOM     90  C   UNL A   1      47.953  28.858  32.322  1.00  0.00     0.040 A 
ATOM     91  F   UNL A   1      46.599  30.101  30.867  1.00  0.00    -0.206 F 
ATOM     92  C   UNL A   1      48.096  28.051  33.448  1.00  0.00     0.006 A 
ENDBRANCH  68  85
ENDBRANCH  42  43
ENDBRANCH  34  37
ENDBRANCH  32  33
ENDBRANCH  31  32
ENDBRANCH  30  31
ENDBRANCH  29  30
ENDBRANCH   1  29
TORSDOF 18
ENDMDL
MODEL 3
REMARK VINA RESULT:     -11.6      0.247      6.049
REMARK SMILES O=C(CSc1nc(O)cc(=O)[nH]1)Nc1cccc(C(=O)NCCCCCCNC(=O)c2ccc(-c3c4nc(c(-c5c(F)cccc5F)c5ccc([nH]5)c(-c5c(F)cccc5F)c5nc(c(-c6c(F)cccc6F)c6ccc3[nH]6)C=C5)C=C4)cc2)c1
REMARK SMILES IDX 23 1 22 2 21 3 19 4 20 5 18 7 14 8 15 9 85 10 16 11 17 12
REMARK SMILES IDX 13 13 1 14 2 15 3 17 4 18 5 19 6 20 12 21 7 22 10 23 9 25
REMARK SMILES IDX 11 26 8 27 24 29 25 30 26 31 27 32 28 33 29 34 30 36 31 37
REMARK SMILES IDX 32 38 84 39 33 40 83 41 34 42 35 43 36 44 77 45 37 46 82 47
REMARK SMILES IDX 76 48 78 49 38 50 81 51 75 52 74 53 39 55 65 56 48 57 64 58
REMARK SMILES IDX 49 59 52 60 63 61 79 62 50 63 51 64 62 66 80 67 53 68 40 69
REMARK SMILES IDX 41 70 46 71 42 72 43 73 45 74 47 75 44 76 66 77 67 78 72 79
REMARK SMILES IDX 68 80 69 81 71 82 73 83 70 84 54 85 55 86 60 87 56 88 57 89
REMARK SMILES IDX 59 90 61 91 58 92
REMARK H PARENT 21 6 13 16 12 24 8 28 28 35 78 54 52 65
REMARK Flexibility Score: inf
ROOT
ATOM      1  C   UNL A   1      34.047  26.637  25.588  1.00  0.00     0.021 C 
ENDROOT
BRANCH   1   2
ATOM      2  C   UNL A   1      33.979  27.745  24.547  1.00  0.00     0.116 C 
BRANCH   2   3
ATOM      3  N   UNL A   1      33.362  28.980  25.011  1.00  0.00    -0.352 N 
ATOM      4  C   UNL A   1      32.030  29.320  25.143  1.00  0.00     0.251 C 
ATOM      5  O   UNL A   1      31.735  30.447  25.537  1.00  0.00    -0.269 OA
ATOM      6  H   UNL A   1      33.997  29.686  25.272  1.00  0.00     0.163 HD
BRANCH   4   7
ATOM      7  C   UNL A   1      30.947  28.383  24.738  1.00  0.00     0.041 A 
ATOM      8  C   UNL A   1      30.149  26.111  24.567  1.00  0.00     0.041 A 
ATOM      9  C   UNL A   1      29.229  26.514  23.594  1.00  0.00     0.026 A 
ATOM     10  C   UNL A   1      30.891  27.080  25.232  1.00  0.00     0.040 A 
ATOM     11  C   UNL A   1      29.131  27.861  23.232  1.00  0.00     0.003 A 
ATOM     12  C   UNL A   1      30.022  28.790  23.774  1.00  0.00     0.014 A 
BRANCH   8  13
ATOM     13  N   UNL A   1      30.374  24.729  24.744  1.00  0.00    -0.325 N 
ATOM     14  O   UNL A   1      30.824  24.589  27.031  1.00  0.00    -0.274 OA
ATOM     15  C   UNL A   1      30.734  24.077  25.919  1.00  0.00     0.234 C 
ATOM     16  H   UNL A   1      30.263  24.163  23.946  1.00  0.00     0.169 HD
BRANCH  15  17
ATOM     17  C   UNL A   1      31.097  22.612  25.733  1.00  0.00     0.178 C 
BRANCH  17  18
ATOM     18  S   UNL A   1      31.948  22.290  24.166  1.00  0.00    -0.078 SA
BRANCH  18  19
ATOM     19  C   UNL A   1      32.156  20.566  24.250  1.00  0.00     0.172 A 
ATOM     20  N   UNL A   1      32.332  19.993  25.392  1.00  0.00    -0.189 NA
ATOM     21  N   UNL A   1      32.188  19.922  23.053  1.00  0.00    -0.301 N 
ATOM     22  C   UNL A   1      32.578  18.652  25.358  1.00  0.00     0.218 A 
ATOM     23  C   UNL A   1      32.409  18.581  22.971  1.00  0.00     0.255 A 
ATOM     24  H   UNL A   1      32.047  20.438  22.226  1.00  0.00     0.172 HD
ATOM     25  C   UNL A   1      32.632  17.907  24.253  1.00  0.00     0.139 A 
ATOM     26  O   UNL A   1      32.442  17.982  21.907  1.00  0.00    -0.269 OA
BRANCH  22  27
ATOM     27  O   UNL A   1      32.817  18.071  26.574  1.00  0.00    -0.493 OA
ATOM     28  H   UNL A   1      32.467  18.456  27.354  1.00  0.00     0.295 HD
ENDBRANCH  22  27
ENDBRANCH  18  19
ENDBRANCH  17  18
ENDBRANCH  15  17
ENDBRANCH   8  13
ENDBRANCH   4   7
ENDBRANCH   2   3
ENDBRANCH   1   2
BRANCH   1  29
ATOM     29  C   UNL A   1      34.318  25.230  25.059  1.00  0.00     0.002 C 
BRANCH  29  30
ATOM     30  C   UNL A   1      34.468  24.131  26.114  1.00  0.00     0.002 C 
BRANCH  30  31
ATOM     31  C   UNL A   1      35.517  23.056  25.826  1.00  0.00     0.021 C 
BRANCH  31  32
ATOM     32  C   UNL A   1      36.926  23.570  25.554  1.00  0.00     0.116 C 
BRANCH  32  33
ATOM     33  N   UNL A   1      37.955  22.599  25.885  1.00  0.00    -0.352 N 
ATOM     34  C   UNL A   1      39.198  22.801  26.432  1.00  0.00     0.251 C 
ATOM     35  H   UNL A   1      37.728  21.660  25.687  1.00  0.00     0.163 HD
ATOM     36  O   UNL A   1      40.004  21.881  26.502  1.00  0.00    -0.269 OA
BRANCH  34  37
ATOM     37  C   UNL A   1      39.571  24.146  26.921  1.00  0.00     0.039 A 
ATOM     38  C   UNL A   1      39.347  24.468  28.263  1.00  0.00     0.014 A 
ATOM     39  C   UNL A   1      40.143  25.085  26.059  1.00  0.00     0.014 A 
ATOM     40  C   UNL A   1      39.756  25.710  28.754  1.00  0.00     0.010 A 
ATOM     41  C   UNL A   1      40.619  26.290  26.566  1.00  0.00     0.010 A 
ATOM     42  C   UNL A   1      40.426  26.618  27.918  1.00  0.00    -0.014 A 
BRANCH  42  43
ATOM     43  C   UNL A   1      40.913  27.929  28.420  1.00  0.00     0.031 A 
ATOM     44  C   UNL A   1      39.922  28.973  28.862  1.00  0.00     0.074 A 
ATOM     45  C   UNL A   1      42.231  28.206  28.418  1.00  0.00     0.049 A 
ATOM     46  N   UNL A   1      40.130  30.217  29.212  1.00  0.00    -0.248 NA
ATOM     47  C   UNL A   1      38.506  28.570  28.885  1.00  0.00     0.031 C 
ATOM     48  C   UNL A   1      43.292  27.290  27.996  1.00  0.00     0.029 A 
ATOM     49  N   UNL A   1      42.905  29.350  28.774  1.00  0.00    -0.354 N 
ATOM     50  C   UNL A   1      38.874  30.744  29.492  1.00  0.00     0.074 A 
ATOM     51  C   UNL A   1      37.906  29.707  29.206  1.00  0.00     0.031 C 
ATOM     52  C   UNL A   1      44.482  27.899  28.135  1.00  0.00     0.029 A 
ATOM     53  C   UNL A   1      44.267  29.263  28.609  1.00  0.00     0.049 A 
ATOM     54  H   UNL A   1      42.455  30.156  29.114  1.00  0.00     0.167 HD
ATOM     55  C   UNL A   1      38.558  31.969  29.972  1.00  0.00     0.037 A 
ATOM     56  C   UNL A   1      45.230  30.184  28.804  1.00  0.00     0.037 A 
ATOM     57  C   UNL A   1      39.523  32.993  30.270  1.00  0.00     0.049 A 
ATOM     58  C   UNL A   1      44.843  31.557  29.286  1.00  0.00     0.074 A 
ATOM     59  C   UNL A   1      39.304  34.264  30.775  1.00  0.00     0.029 A 
ATOM     60  N   UNL A   1      40.893  32.861  30.098  1.00  0.00    -0.354 N 
ATOM     61  N   UNL A   1      43.656  32.030  29.580  1.00  0.00    -0.248 NA
ATOM     62  C   UNL A   1      45.934  32.528  29.468  1.00  0.00     0.031 C 
ATOM     63  C   UNL A   1      40.537  34.915  30.869  1.00  0.00     0.029 A 
ATOM     64  C   UNL A   1      41.528  34.031  30.477  1.00  0.00     0.049 A 
ATOM     65  H   UNL A   1      41.344  32.056  29.758  1.00  0.00     0.167 HD
ATOM     66  C   UNL A   1      43.862  33.329  30.027  1.00  0.00     0.074 A 
ATOM     67  C   UNL A   1      45.288  33.570  29.970  1.00  0.00     0.031 C 
ATOM     68  C   UNL A   1      42.953  34.241  30.449  1.00  0.00     0.037 A 
BRANCH  55  69
ATOM     69  C   UNL A   1      37.107  32.265  30.220  1.00  0.00     0.057 A 
ATOM     70  C   UNL A   1      36.506  32.003  31.458  1.00  0.00     0.134 A 
ATOM     71  C   UNL A   1      36.314  32.860  29.231  1.00  0.00     0.134 A 
ATOM     72  F   UNL A   1      37.206  31.423  32.444  1.00  0.00    -0.206 F 
ATOM     73  C   UNL A   1      35.164  32.304  31.697  1.00  0.00     0.040 A 
ATOM     74  C   UNL A   1      34.978  33.193  29.468  1.00  0.00     0.040 A 
ATOM     75  F   UNL A   1      36.827  33.144  28.024  1.00  0.00    -0.206 F 
ATOM     76  C   UNL A   1      34.399  32.910  30.703  1.00  0.00     0.006 A 
ENDBRANCH  55  69
BRANCH  56  77
ATOM     77  C   UNL A   1      46.658  29.853  28.557  1.00  0.00     0.057 A 
ATOM     78  C   UNL A   1      47.216  29.976  27.278  1.00  0.00     0.134 A 
ATOM     79  C   UNL A   1      47.483  29.352  29.571  1.00  0.00     0.134 A 
ATOM     80  F   UNL A   1      46.473  30.431  26.258  1.00  0.00    -0.206 F 
ATOM     81  C   UNL A   1      48.527  29.579  27.007  1.00  0.00     0.040 A 
ATOM     82  C   UNL A   1      48.806  28.980  29.323  1.00  0.00     0.040 A 
ATOM     83  F   UNL A   1      47.015  29.215  30.821  1.00  0.00    -0.206 F 
ATOM     84  C   UNL A   1      49.327  29.079  28.034  1.00  0.00     0.006 A 
ENDBRANCH  56  77
BRANCH  68  85
ATOM     85  C   UNL A   1      43.472  35.556  30.955  1.00  0.00     0.057 A 
ATOM     86  C   UNL A   1      43.709  36.643  30.104  1.00  0.00     0.134 A 
ATOM     87  C   UNL A   1      43.688  35.748  32.326  1.00  0.00     0.134 A 
ATOM     88  F   UNL A   1      43.534  36.521  28.780  1.00  0.00    -0.206 F 
ATOM     89  C   UNL A   1      44.162  37.868  30.597  1.00  0.00     0.040 A 
ATOM     90  C   UNL A   1      44.111  36.977  32.834  1.00  0.00     0.040 A 
ATOM     91  F   UNL A   1      43.470  34.751  33.197  1.00  0.00    -0.206 F 
ATOM     92  C   UNL A   1      44.356  38.039  31.967  1.00  0.00     0.006 A 
ENDBRANCH  68  85
ENDBRANCH  42  43
ENDBRANCH  34  37
ENDBRANCH  32  33
ENDBRANCH  31  32
ENDBRANCH  30  31
ENDBRANCH  29  30
ENDBRANCH   1  29
TORSDOF 18
ENDMDL
