MODEL 1
REMARK VINA RESULT:      -9.1      0.000      0.000
REMARK SMILES O=C(COc1cc(-c2ccncc2)nc(Nc2ccccc2Br)n1)NCCCCCCNC(=O)c1ccc(-c2c3nc(c(-c4c(F)cccc4F)c4ccc([nH]4)c(-c4c(F)cccc4F)c4nc(c(-c5c(F)cccc5F)c5ccc2[nH]5)C=C4)C=C3)cc1
REMARK SMILES IDX 27 1 26 2 25 3 1 4 2 5 3 7 4 8 5 9 6 10 24 11 7 12 15 13
REMARK SMILES IDX 14 14 8 15 9 16 13 17 10 18 12 19 11 20 16 21 17 23 18 24
REMARK SMILES IDX 22 25 19 26 21 27 23 28 20 29 28 30 29 31 30 32 31 33 32 34
REMARK SMILES IDX 33 35 34 37 35 38 36 39 88 40 37 41 87 42 38 43 39 44 40 45
REMARK SMILES IDX 81 46 41 47 86 48 80 49 82 50 42 51 85 52 79 53 78 54 43 56
REMARK SMILES IDX 69 57 52 58 68 59 53 60 56 61 67 62 83 63 54 64 55 65 66 67
REMARK SMILES IDX 84 68 57 69 44 70 45 71 50 72 46 73 47 74 49 75 51 76 48 77
REMARK SMILES IDX 70 78 71 79 76 80 72 81 73 82 75 83 77 84 74 85 58 86 59 87
REMARK SMILES IDX 64 88 60 89 61 90 63 91 65 92 62 93
REMARK H PARENT 25 6 16 22 32 36 82 55 56 66
REMARK Flexibility Score: inf
ROOT
ATOM      1  C   UNL A   1      46.448  23.366  24.979  1.00  0.00     0.021 C 
ENDROOT
BRANCH   1   2
ATOM      2  C   UNL A   1      45.401  24.463  24.839  1.00  0.00     0.116 C 
BRANCH   2   3
ATOM      3  N   UNL A   1      45.915  25.762  25.212  1.00  0.00    -0.353 N 
ATOM      4  O   UNL A   1      43.888  26.844  25.331  1.00  0.00    -0.271 OA
ATOM      5  C   UNL A   1      45.102  26.839  25.505  1.00  0.00     0.258 C 
ATOM      6  H   UNL A   1      46.890  25.885  25.259  1.00  0.00     0.163 HD
BRANCH   5   7
ATOM      7  C   UNL A   1      45.852  28.024  26.118  1.00  0.00     0.331 C 
BRANCH   7   8
ATOM      8  O   UNL A   1      45.216  29.278  25.872  1.00  0.00    -0.467 OA
BRANCH   8   9
ATOM      9  C   UNL A   1      45.950  30.349  26.318  1.00  0.00     0.219 A 
ATOM     10  C   UNL A   1      47.068  30.188  27.090  1.00  0.00     0.097 A 
ATOM     11  N   UNL A   1      45.580  31.526  25.817  1.00  0.00    -0.177 NA
ATOM     12  C   UNL A   1      47.807  31.322  27.340  1.00  0.00     0.080 A 
ATOM     13  C   UNL A   1      46.331  32.595  26.128  1.00  0.00     0.231 A 
ATOM     14  N   UNL A   1      47.451  32.533  26.867  1.00  0.00    -0.212 NA
BRANCH  12  15
ATOM     15  C   UNL A   1      49.039  31.235  28.131  1.00  0.00     0.004 A 
ATOM     16  C   UNL A   1      49.242  32.072  29.239  1.00  0.00     0.030 A 
ATOM     17  C   UNL A   1      50.078  30.376  27.763  1.00  0.00     0.030 A 
ATOM     18  C   UNL A   1      50.459  32.035  29.898  1.00  0.00     0.111 A 
ATOM     19  C   UNL A   1      51.262  30.416  28.482  1.00  0.00     0.111 A 
ATOM     20  N   UNL A   1      51.477  31.230  29.537  1.00  0.00    -0.265 NA
ENDBRANCH  12  15
BRANCH  13  21
ATOM     21  N   UNL A   1      45.994  33.843  25.612  1.00  0.00    -0.323 N 
ATOM     22  H   UNL A   1      46.505  34.137  24.824  1.00  0.00     0.170 HD
BRANCH  21  23
ATOM     23  C   UNL A   1      45.016  34.734  26.077  1.00  0.00     0.055 A 
ATOM     24  C   UNL A   1      43.694  34.559  25.637  1.00  0.00     0.027 A 
ATOM     25  C   UNL A   1      45.270  35.752  27.016  1.00  0.00     0.041 A 
ATOM     26  C   UNL A   1      42.655  35.350  26.135  1.00  0.00     0.002 A 
ATOM     27  C   UNL A   1      44.228  36.548  27.509  1.00  0.00     0.018 A 
ATOM     28  Br  UNL A   1      47.031  36.202  27.585  1.00  0.00    -0.049 Br
ATOM     29  C   UNL A   1      42.921  36.341  27.075  1.00  0.00     0.001 A 
ENDBRANCH  21  23
ENDBRANCH  13  21
ENDBRANCH   8   9
ENDBRANCH   7   8
ENDBRANCH   5   7
ENDBRANCH   2   3
ENDBRANCH   1   2
BRANCH   1  30
ATOM     30  C   UNL A   1      45.875  21.964  25.223  1.00  0.00     0.002 C 
BRANCH  30  31
ATOM     31  C   UNL A   1      45.071  21.362  24.066  1.00  0.00     0.002 C 
BRANCH  31  32
ATOM     32  C   UNL A   1      44.926  19.840  24.082  1.00  0.00     0.021 C 
BRANCH  32  33
ATOM     33  C   UNL A   1      44.432  19.248  25.399  1.00  0.00     0.116 C 
BRANCH  33  34
ATOM     34  N   UNL A   1      43.015  18.923  25.374  1.00  0.00    -0.352 N 
ATOM     35  C   UNL A   1      41.954  19.629  25.879  1.00  0.00     0.251 C 
ATOM     36  H   UNL A   1      42.785  18.075  24.931  1.00  0.00     0.163 HD
ATOM     37  O   UNL A   1      40.829  19.122  25.886  1.00  0.00    -0.269 OA
BRANCH  35  38
ATOM     38  C   UNL A   1      42.148  20.984  26.437  1.00  0.00     0.039 A 
ATOM     39  C   UNL A   1      42.261  21.132  27.823  1.00  0.00     0.014 A 
ATOM     40  C   UNL A   1      42.193  22.111  25.610  1.00  0.00     0.014 A 
ATOM     41  C   UNL A   1      42.465  22.398  28.375  1.00  0.00     0.010 A 
ATOM     42  C   UNL A   1      42.467  23.365  26.156  1.00  0.00     0.010 A 
ATOM     43  C   UNL A   1      42.594  23.524  27.544  1.00  0.00    -0.014 A 
BRANCH  43  44
ATOM     44  C   UNL A   1      42.827  24.875  28.114  1.00  0.00     0.031 A 
ATOM     45  C   UNL A   1      44.203  25.270  28.578  1.00  0.00     0.074 A 
ATOM     46  C   UNL A   1      41.797  25.734  28.254  1.00  0.00     0.049 A 
ATOM     47  N   UNL A   1      44.596  26.375  29.163  1.00  0.00    -0.248 NA
ATOM     48  C   UNL A   1      45.276  24.283  28.381  1.00  0.00     0.031 C 
ATOM     49  C   UNL A   1      40.408  25.459  27.884  1.00  0.00     0.029 A 
ATOM     50  N   UNL A   1      41.761  27.010  28.759  1.00  0.00    -0.354 N 
ATOM     51  C   UNL A   1      45.954  26.212  29.404  1.00  0.00     0.074 A 
ATOM     52  C   UNL A   1      46.307  24.880  28.961  1.00  0.00     0.031 C 
ATOM     53  C   UNL A   1      39.658  26.540  28.160  1.00  0.00     0.029 A 
ATOM     54  C   UNL A   1      40.506  27.570  28.753  1.00  0.00     0.049 A 
ATOM     55  H   UNL A   1      42.558  27.481  29.093  1.00  0.00     0.167 HD
ATOM     56  C   UNL A   1      46.837  27.100  29.920  1.00  0.00     0.037 A 
ATOM     57  C   UNL A   1      40.086  28.774  29.185  1.00  0.00     0.037 A 
ATOM     58  C   UNL A   1      46.494  28.431  30.346  1.00  0.00     0.049 A 
ATOM     59  C   UNL A   1      41.087  29.743  29.753  1.00  0.00     0.074 A 
ATOM     60  C   UNL A   1      47.319  29.409  30.874  1.00  0.00     0.029 A 
ATOM     61  N   UNL A   1      45.220  28.974  30.283  1.00  0.00    -0.354 N 
ATOM     62  N   UNL A   1      42.375  29.588  29.937  1.00  0.00    -0.248 NA
ATOM     63  C   UNL A   1      40.578  31.060  30.157  1.00  0.00     0.031 C 
ATOM     64  C   UNL A   1      46.538  30.537  31.152  1.00  0.00     0.029 A 
ATOM     65  C   UNL A   1      45.237  30.274  30.758  1.00  0.00     0.049 A 
ATOM     66  H   UNL A   1      44.421  28.505  29.950  1.00  0.00     0.167 HD
ATOM     67  C   UNL A   1      42.835  30.798  30.441  1.00  0.00     0.074 A 
ATOM     68  C   UNL A   1      41.691  31.680  30.522  1.00  0.00     0.031 C 
ATOM     69  C   UNL A   1      44.093  31.147  30.807  1.00  0.00     0.037 A 
BRANCH  56  70
ATOM     70  C   UNL A   1      48.269  26.664  30.032  1.00  0.00     0.057 A 
ATOM     71  C   UNL A   1      49.184  26.885  28.993  1.00  0.00     0.134 A 
ATOM     72  C   UNL A   1      48.749  26.053  31.196  1.00  0.00     0.134 A 
ATOM     73  F   UNL A   1      48.785  27.454  27.846  1.00  0.00    -0.206 F 
ATOM     74  C   UNL A   1      50.520  26.494  29.100  1.00  0.00     0.040 A 
ATOM     75  C   UNL A   1      50.089  25.682  31.325  1.00  0.00     0.040 A 
ATOM     76  F   UNL A   1      47.929  25.816  32.231  1.00  0.00    -0.206 F 
ATOM     77  C   UNL A   1      50.977  25.898  30.273  1.00  0.00     0.006 A 
ENDBRANCH  56  70
BRANCH  57  78
ATOM     78  C   UNL A   1      38.652  29.150  29.080  1.00  0.00     0.057 A 
ATOM     79  C   UNL A   1      37.794  29.051  30.181  1.00  0.00     0.134 A 
ATOM     80  C   UNL A   1      38.099  29.578  27.867  1.00  0.00     0.134 A 
ATOM     81  F   UNL A   1      38.261  28.628  31.365  1.00  0.00    -0.206 F 
ATOM     82  C   UNL A   1      36.431  29.333  30.075  1.00  0.00     0.040 A 
ATOM     83  C   UNL A   1      36.743  29.890  27.754  1.00  0.00     0.040 A 
ATOM     84  F   UNL A   1      38.869  29.703  26.777  1.00  0.00    -0.206 F 
ATOM     85  C   UNL A   1      35.902  29.756  28.857  1.00  0.00     0.006 A 
ENDBRANCH  57  78
BRANCH  69  86
ATOM     86  C   UNL A   1      44.307  32.561  31.264  1.00  0.00     0.057 A 
ATOM     87  C   UNL A   1      44.200  32.931  32.611  1.00  0.00     0.134 A 
ATOM     88  C   UNL A   1      44.648  33.559  30.344  1.00  0.00     0.134 A 
ATOM     89  F   UNL A   1      43.865  32.024  33.540  1.00  0.00    -0.206 F 
ATOM     90  C   UNL A   1      44.398  34.250  33.021  1.00  0.00     0.040 A 
ATOM     91  C   UNL A   1      44.873  34.876  30.745  1.00  0.00     0.040 A 
ATOM     92  F   UNL A   1      44.775  33.269  29.039  1.00  0.00    -0.206 F 
ATOM     93  C   UNL A   1      44.741  35.226  32.087  1.00  0.00     0.006 A 
ENDBRANCH  69  86
ENDBRANCH  43  44
ENDBRANCH  35  38
ENDBRANCH  33  34
ENDBRANCH  32  33
ENDBRANCH  31  32
ENDBRANCH  30  31
ENDBRANCH   1  30
TORSDOF 18
ENDMDL
MODEL 2
REMARK VINA RESULT:      -9.0      7.037     13.507
REMARK SMILES O=C(COc1cc(-c2ccncc2)nc(Nc2ccccc2Br)n1)NCCCCCCNC(=O)c1ccc(-c2c3nc(c(-c4c(F)cccc4F)c4ccc([nH]4)c(-c4c(F)cccc4F)c4nc(c(-c5c(F)cccc5F)c5ccc2[nH]5)C=C4)C=C3)cc1
REMARK SMILES IDX 27 1 26 2 25 3 1 4 2 5 3 7 4 8 5 9 6 10 24 11 7 12 15 13
REMARK SMILES IDX 14 14 8 15 9 16 13 17 10 18 12 19 11 20 16 21 17 23 18 24
REMARK SMILES IDX 22 25 19 26 21 27 23 28 20 29 28 30 29 31 30 32 31 33 32 34
REMARK SMILES IDX 33 35 34 37 35 38 36 39 88 40 37 41 87 42 38 43 39 44 40 45
REMARK SMILES IDX 81 46 41 47 86 48 80 49 82 50 42 51 85 52 79 53 78 54 43 56
REMARK SMILES IDX 69 57 52 58 68 59 53 60 56 61 67 62 83 63 54 64 55 65 66 67
REMARK SMILES IDX 84 68 57 69 44 70 45 71 50 72 46 73 47 74 49 75 51 76 48 77
REMARK SMILES IDX 70 78 71 79 76 80 72 81 73 82 75 83 77 84 74 85 58 86 59 87
REMARK SMILES IDX 64 88 60 89 61 90 63 91 65 92 62 93
REMARK H PARENT 25 6 16 22 32 36 82 55 56 66
REMARK Flexibility Score: inf
ROOT
ATOM      1  C   UNL A   1      35.439  32.708  28.106  1.00  0.00     0.021 C 
ENDROOT
BRANCH   1   2
ATOM      2  C   UNL A   1      34.607  31.671  28.851  1.00  0.00     0.116 C 
BRANCH   2   3
ATOM      3  N   UNL A   1      34.040  30.681  27.962  1.00  0.00    -0.353 N 
ATOM      4  O   UNL A   1      35.902  29.339  27.812  1.00  0.00    -0.271 OA
ATOM      5  C   UNL A   1      34.717  29.543  27.572  1.00  0.00     0.258 C 
ATOM      6  H   UNL A   1      33.130  30.825  27.619  1.00  0.00     0.163 HD
BRANCH   5   7
ATOM      7  C   UNL A   1      33.835  28.525  26.844  1.00  0.00     0.331 C 
BRANCH   7   8
ATOM      8  O   UNL A   1      34.088  28.466  25.441  1.00  0.00    -0.467 OA
BRANCH   8   9
ATOM      9  C   UNL A   1      33.062  27.888  24.735  1.00  0.00     0.219 A 
ATOM     10  C   UNL A   1      31.999  28.616  24.275  1.00  0.00     0.097 A 
ATOM     11  N   UNL A   1      33.260  26.612  24.408  1.00  0.00    -0.177 NA
ATOM     12  C   UNL A   1      31.119  27.958  23.447  1.00  0.00     0.080 A 
ATOM     13  C   UNL A   1      32.344  26.024  23.622  1.00  0.00     0.231 A 
ATOM     14  N   UNL A   1      31.276  26.662  23.112  1.00  0.00    -0.212 NA
BRANCH  12  15
ATOM     15  C   UNL A   1      29.970  28.672  22.881  1.00  0.00     0.004 A 
ATOM     16  C   UNL A   1      30.156  29.783  22.043  1.00  0.00     0.030 A 
ATOM     17  C   UNL A   1      28.661  28.322  23.219  1.00  0.00     0.030 A 
ATOM     18  C   UNL A   1      29.050  30.495  21.612  1.00  0.00     0.111 A 
ATOM     19  C   UNL A   1      27.618  29.101  22.743  1.00  0.00     0.111 A 
ATOM     20  N   UNL A   1      27.784  30.182  21.951  1.00  0.00    -0.265 NA
ENDBRANCH  12  15
BRANCH  13  21
ATOM     21  N   UNL A   1      32.518  24.698  23.239  1.00  0.00    -0.323 N 
ATOM     22  H   UNL A   1      31.941  24.381  22.506  1.00  0.00     0.170 HD
BRANCH  21  23
ATOM     23  C   UNL A   1      33.413  23.757  23.766  1.00  0.00     0.055 A 
ATOM     24  C   UNL A   1      34.680  23.638  23.172  1.00  0.00     0.027 A 
ATOM     25  C   UNL A   1      33.142  22.973  24.904  1.00  0.00     0.041 A 
ATOM     26  C   UNL A   1      35.654  22.790  23.706  1.00  0.00     0.002 A 
ATOM     27  C   UNL A   1      34.117  22.118  25.435  1.00  0.00     0.018 A 
ATOM     28  Br  UNL A   1      31.422  22.918  25.721  1.00  0.00    -0.049 Br
ATOM     29  C   UNL A   1      35.375  22.034  24.841  1.00  0.00     0.001 A 
ENDBRANCH  21  23
ENDBRANCH  13  21
ENDBRANCH   8   9
ENDBRANCH   7   8
ENDBRANCH   5   7
ENDBRANCH   2   3
ENDBRANCH   1   2
BRANCH   1  30
ATOM     30  C   UNL A   1      35.461  34.096  28.758  1.00  0.00     0.002 C 
BRANCH  30  31
ATOM     31  C   UNL A   1      34.703  35.196  28.009  1.00  0.00     0.002 C 
BRANCH  31  32
ATOM     32  C   UNL A   1      33.771  36.057  28.863  1.00  0.00     0.021 C 
BRANCH  32  33
ATOM     33  C   UNL A   1      32.761  35.283  29.706  1.00  0.00     0.116 C 
BRANCH  33  34
ATOM     34  N   UNL A   1      32.295  36.036  30.858  1.00  0.00    -0.352 N 
ATOM     35  C   UNL A   1      32.746  36.012  32.152  1.00  0.00     0.251 C 
ATOM     36  H   UNL A   1      31.546  36.651  30.684  1.00  0.00     0.163 HD
ATOM     37  O   UNL A   1      32.129  36.622  33.028  1.00  0.00    -0.269 OA
BRANCH  35  38
ATOM     38  C   UNL A   1      33.956  35.242  32.514  1.00  0.00     0.039 A 
ATOM     39  C   UNL A   1      33.802  33.961  33.054  1.00  0.00     0.014 A 
ATOM     40  C   UNL A   1      35.236  35.780  32.350  1.00  0.00     0.014 A 
ATOM     41  C   UNL A   1      34.929  33.205  33.384  1.00  0.00     0.010 A 
ATOM     42  C   UNL A   1      36.360  34.998  32.614  1.00  0.00     0.010 A 
ATOM     43  C   UNL A   1      36.219  33.707  33.145  1.00  0.00    -0.014 A 
BRANCH  43  44
ATOM     44  C   UNL A   1      37.427  32.909  33.476  1.00  0.00     0.031 A 
ATOM     45  C   UNL A   1      38.185  33.182  34.747  1.00  0.00     0.074 A 
ATOM     46  C   UNL A   1      37.868  31.969  32.617  1.00  0.00     0.049 A 
ATOM     47  N   UNL A   1      39.297  32.643  35.181  1.00  0.00    -0.248 NA
ATOM     48  C   UNL A   1      37.634  34.217  35.637  1.00  0.00     0.031 C 
ATOM     49  C   UNL A   1      37.250  31.635  31.334  1.00  0.00     0.029 A 
ATOM     50  N   UNL A   1      38.950  31.128  32.694  1.00  0.00    -0.354 N 
ATOM     51  C   UNL A   1      39.577  33.273  36.387  1.00  0.00     0.074 A 
ATOM     52  C   UNL A   1      38.556  34.278  36.587  1.00  0.00     0.031 C 
ATOM     53  C   UNL A   1      37.954  30.650  30.750  1.00  0.00     0.029 A 
ATOM     54  C   UNL A   1      39.088  30.304  31.601  1.00  0.00     0.049 A 
ATOM     55  H   UNL A   1      39.570  31.113  33.458  1.00  0.00     0.167 HD
ATOM     56  C   UNL A   1      40.577  33.020  37.266  1.00  0.00     0.037 A 
ATOM     57  C   UNL A   1      40.026  29.382  31.317  1.00  0.00     0.037 A 
ATOM     58  C   UNL A   1      41.585  32.010  37.078  1.00  0.00     0.049 A 
ATOM     59  C   UNL A   1      41.124  29.118  32.310  1.00  0.00     0.074 A 
ATOM     60  C   UNL A   1      42.633  31.670  37.915  1.00  0.00     0.029 A 
ATOM     61  N   UNL A   1      41.662  31.169  35.979  1.00  0.00    -0.354 N 
ATOM     62  N   UNL A   1      41.352  29.696  33.465  1.00  0.00    -0.248 NA
ATOM     63  C   UNL A   1      42.088  28.063  31.968  1.00  0.00     0.031 C 
ATOM     64  C   UNL A   1      43.360  30.638  37.310  1.00  0.00     0.029 A 
ATOM     65  C   UNL A   1      42.738  30.309  36.117  1.00  0.00     0.049 A 
ATOM     66  H   UNL A   1      41.044  31.181  35.213  1.00  0.00     0.167 HD
ATOM     67  C   UNL A   1      42.458  29.048  34.002  1.00  0.00     0.074 A 
ATOM     68  C   UNL A   1      42.848  28.027  33.053  1.00  0.00     0.031 C 
ATOM     69  C   UNL A   1      43.095  29.280  35.176  1.00  0.00     0.037 A 
BRANCH  56  70
ATOM     70  C   UNL A   1      40.614  33.839  38.523  1.00  0.00     0.057 A 
ATOM     71  C   UNL A   1      39.860  33.482  39.650  1.00  0.00     0.134 A 
ATOM     72  C   UNL A   1      41.435  34.968  38.625  1.00  0.00     0.134 A 
ATOM     73  F   UNL A   1      39.044  32.419  39.613  1.00  0.00    -0.206 F 
ATOM     74  C   UNL A   1      39.905  34.233  40.826  1.00  0.00     0.040 A 
ATOM     75  C   UNL A   1      41.508  35.711  39.805  1.00  0.00     0.040 A 
ATOM     76  F   UNL A   1      42.187  35.362  37.587  1.00  0.00    -0.206 F 
ATOM     77  C   UNL A   1      40.737  35.347  40.908  1.00  0.00     0.006 A 
ENDBRANCH  56  70
BRANCH  57  78
ATOM     78  C   UNL A   1      39.963  28.616  30.045  1.00  0.00     0.057 A 
ATOM     79  C   UNL A   1      39.280  27.397  29.966  1.00  0.00     0.134 A 
ATOM     80  C   UNL A   1      40.614  29.066  28.891  1.00  0.00     0.134 A 
ATOM     81  F   UNL A   1      38.653  26.904  31.044  1.00  0.00    -0.206 F 
ATOM     82  C   UNL A   1      39.275  26.635  28.797  1.00  0.00     0.040 A 
ATOM     83  C   UNL A   1      40.594  28.328  27.706  1.00  0.00     0.040 A 
ATOM     84  F   UNL A   1      41.277  30.232  28.897  1.00  0.00    -0.206 F 
ATOM     85  C   UNL A   1      39.933  27.103  27.660  1.00  0.00     0.006 A 
ENDBRANCH  57  78
BRANCH  69  86
ATOM     86  C   UNL A   1      44.238  28.372  35.527  1.00  0.00     0.057 A 
ATOM     87  C   UNL A   1      45.553  28.646  35.132  1.00  0.00     0.134 A 
ATOM     88  C   UNL A   1      44.017  27.220  36.292  1.00  0.00     0.134 A 
ATOM     89  F   UNL A   1      45.829  29.727  34.388  1.00  0.00    -0.206 F 
ATOM     90  C   UNL A   1      46.605  27.789  35.463  1.00  0.00     0.040 A 
ATOM     91  C   UNL A   1      45.064  26.370  36.650  1.00  0.00     0.040 A 
ATOM     92  F   UNL A   1      42.781  26.905  36.709  1.00  0.00    -0.206 F 
ATOM     93  C   UNL A   1      46.362  26.650  36.229  1.00  0.00     0.006 A 
ENDBRANCH  69  86
ENDBRANCH  43  44
ENDBRANCH  35  38
ENDBRANCH  33  34
ENDBRANCH  32  33
ENDBRANCH  31  32
ENDBRANCH  30  31
ENDBRANCH   1  30
TORSDOF 18
ENDMDL
MODEL 3
REMARK VINA RESULT:      -8.6      6.310     12.645
REMARK SMILES O=C(COc1cc(-c2ccncc2)nc(Nc2ccccc2Br)n1)NCCCCCCNC(=O)c1ccc(-c2c3nc(c(-c4c(F)cccc4F)c4ccc([nH]4)c(-c4c(F)cccc4F)c4nc(c(-c5c(F)cccc5F)c5ccc2[nH]5)C=C4)C=C3)cc1
REMARK SMILES IDX 27 1 26 2 25 3 1 4 2 5 3 7 4 8 5 9 6 10 24 11 7 12 15 13
REMARK SMILES IDX 14 14 8 15 9 16 13 17 10 18 12 19 11 20 16 21 17 23 18 24
REMARK SMILES IDX 22 25 19 26 21 27 23 28 20 29 28 30 29 31 30 32 31 33 32 34
REMARK SMILES IDX 33 35 34 37 35 38 36 39 88 40 37 41 87 42 38 43 39 44 40 45
REMARK SMILES IDX 81 46 41 47 86 48 80 49 82 50 42 51 85 52 79 53 78 54 43 56
REMARK SMILES IDX 69 57 52 58 68 59 53 60 56 61 67 62 83 63 54 64 55 65 66 67
REMARK SMILES IDX 84 68 57 69 44 70 45 71 50 72 46 73 47 74 49 75 51 76 48 77
REMARK SMILES IDX 70 78 71 79 76 80 72 81 73 82 75 83 77 84 74 85 58 86 59 87
REMARK SMILES IDX 64 88 60 89 61 90 63 91 65 92 62 93
REMARK H PARENT 25 6 16 22 32 36 82 55 56 66
REMARK Flexibility Score: inf
ROOT
ATOM      1  C   UNL A   1      31.681  27.585  26.301  1.00  0.00     0.021 C 
ENDROOT
BRANCH   1   2
ATOM      2  C   UNL A   1      31.168  26.658  25.206  1.00  0.00     0.116 C 
BRANCH   2   3
ATOM      3  N   UNL A   1      31.500  25.274  25.460  1.00  0.00    -0.353 N 
ATOM      4  O   UNL A   1      29.617  24.750  26.673  1.00  0.00    -0.271 OA
ATOM      5  C   UNL A   1      30.652  24.403  26.114  1.00  0.00     0.258 C 
ATOM      6  H   UNL A   1      32.371  24.936  25.152  1.00  0.00     0.163 HD
BRANCH   5   7
ATOM      7  C   UNL A   1      31.099  22.941  26.041  1.00  0.00     0.331 C 
BRANCH   7   8
ATOM      8  O   UNL A   1      32.219  22.654  26.878  1.00  0.00    -0.467 OA
BRANCH   8   9
ATOM      9  C   UNL A   1      33.132  21.818  26.284  1.00  0.00     0.219 A 
ATOM     10  C   UNL A   1      32.845  20.508  26.015  1.00  0.00     0.097 A 
ATOM     11  N   UNL A   1      34.243  22.418  25.860  1.00  0.00    -0.177 NA
ATOM     12  C   UNL A   1      33.778  19.817  25.277  1.00  0.00     0.080 A 
ATOM     13  C   UNL A   1      35.124  21.674  25.172  1.00  0.00     0.231 A 
ATOM     14  N   UNL A   1      34.923  20.385  24.849  1.00  0.00    -0.212 NA
BRANCH  12  15
ATOM     15  C   UNL A   1      33.535  18.417  24.914  1.00  0.00     0.004 A 
ATOM     16  C   UNL A   1      32.572  17.655  25.592  1.00  0.00     0.030 A 
ATOM     17  C   UNL A   1      34.305  17.776  23.939  1.00  0.00     0.030 A 
ATOM     18  C   UNL A   1      32.443  16.309  25.294  1.00  0.00     0.111 A 
ATOM     19  C   UNL A   1      34.107  16.423  23.716  1.00  0.00     0.111 A 
ATOM     20  N   UNL A   1      33.197  15.675  24.374  1.00  0.00    -0.265 NA
ENDBRANCH  12  15
BRANCH  13  21
ATOM     21  N   UNL A   1      36.291  22.261  24.692  1.00  0.00    -0.323 N 
ATOM     22  H   UNL A   1      36.276  22.541  23.748  1.00  0.00     0.170 HD
BRANCH  21  23
ATOM     23  C   UNL A   1      37.484  22.503  25.386  1.00  0.00     0.055 A 
ATOM     24  C   UNL A   1      37.706  23.792  25.898  1.00  0.00     0.027 A 
ATOM     25  C   UNL A   1      38.443  21.509  25.662  1.00  0.00     0.041 A 
ATOM     26  C   UNL A   1      38.828  24.076  26.681  1.00  0.00     0.002 A 
ATOM     27  C   UNL A   1      39.570  21.798  26.442  1.00  0.00     0.018 A 
ATOM     28  Br  UNL A   1      38.350  19.762  24.908  1.00  0.00    -0.049 Br
ATOM     29  C   UNL A   1      39.757  23.078  26.958  1.00  0.00     0.001 A 
ENDBRANCH  21  23
ENDBRANCH  13  21
ENDBRANCH   8   9
ENDBRANCH   7   8
ENDBRANCH   5   7
ENDBRANCH   2   3
ENDBRANCH   1   2
BRANCH   1  30
ATOM     30  C   UNL A   1      31.729  29.068  25.911  1.00  0.00     0.002 C 
BRANCH  30  31
ATOM     31  C   UNL A   1      31.840  30.059  27.074  1.00  0.00     0.002 C 
BRANCH  31  32
ATOM     32  C   UNL A   1      31.600  31.527  26.718  1.00  0.00     0.021 C 
BRANCH  32  33
ATOM     33  C   UNL A   1      32.825  32.430  26.822  1.00  0.00     0.116 C 
BRANCH  33  34
ATOM     34  N   UNL A   1      32.511  33.745  27.358  1.00  0.00    -0.352 N 
ATOM     35  C   UNL A   1      33.079  34.411  28.413  1.00  0.00     0.251 C 
ATOM     36  H   UNL A   1      31.786  34.225  26.898  1.00  0.00     0.163 HD
ATOM     37  O   UNL A   1      32.581  35.467  28.810  1.00  0.00    -0.269 OA
BRANCH  35  38
ATOM     38  C   UNL A   1      34.271  33.864  29.095  1.00  0.00     0.039 A 
ATOM     39  C   UNL A   1      34.105  32.809  29.999  1.00  0.00     0.014 A 
ATOM     40  C   UNL A   1      35.545  34.397  28.873  1.00  0.00     0.014 A 
ATOM     41  C   UNL A   1      35.217  32.260  30.640  1.00  0.00     0.010 A 
ATOM     42  C   UNL A   1      36.661  33.803  29.460  1.00  0.00     0.010 A 
ATOM     43  C   UNL A   1      36.509  32.736  30.359  1.00  0.00    -0.014 A 
BRANCH  43  44
ATOM     44  C   UNL A   1      37.703  32.153  31.021  1.00  0.00     0.031 A 
ATOM     45  C   UNL A   1      38.595  31.204  30.267  1.00  0.00     0.074 A 
ATOM     46  C   UNL A   1      37.965  32.441  32.312  1.00  0.00     0.049 A 
ATOM     47  N   UNL A   1      39.642  30.539  30.687  1.00  0.00    -0.248 NA
ATOM     48  C   UNL A   1      38.248  30.948  28.859  1.00  0.00     0.031 C 
ATOM     49  C   UNL A   1      37.158  33.312  33.167  1.00  0.00     0.029 A 
ATOM     50  N   UNL A   1      38.982  32.020  33.131  1.00  0.00    -0.354 N 
ATOM     51  C   UNL A   1      40.074  29.788  29.601  1.00  0.00     0.074 A 
ATOM     52  C   UNL A   1      39.141  30.029  28.521  1.00  0.00     0.031 C 
ATOM     53  C   UNL A   1      37.719  33.372  34.387  1.00  0.00     0.029 A 
ATOM     54  C   UNL A   1      38.906  32.522  34.409  1.00  0.00     0.049 A 
ATOM     55  H   UNL A   1      39.700  31.415  32.834  1.00  0.00     0.167 HD
ATOM     56  C   UNL A   1      41.166  28.993  29.499  1.00  0.00     0.037 A 
ATOM     57  C   UNL A   1      39.698  32.315  35.477  1.00  0.00     0.037 A 
ATOM     58  C   UNL A   1      42.105  28.764  30.565  1.00  0.00     0.049 A 
ATOM     59  C   UNL A   1      40.905  31.428  35.336  1.00  0.00     0.074 A 
ATOM     60  C   UNL A   1      43.248  27.982  30.557  1.00  0.00     0.029 A 
ATOM     61  N   UNL A   1      42.014  29.326  31.828  1.00  0.00    -0.354 N 
ATOM     62  N   UNL A   1      41.322  30.757  34.290  1.00  0.00    -0.248 NA
ATOM     63  C   UNL A   1      41.762  31.282  36.522  1.00  0.00     0.031 C 
ATOM     64  C   UNL A   1      43.836  28.054  31.824  1.00  0.00     0.029 A 
ATOM     65  C   UNL A   1      43.082  28.913  32.607  1.00  0.00     0.049 A 
ATOM     66  H   UNL A   1      41.297  29.931  32.128  1.00  0.00     0.167 HD
ATOM     67  C   UNL A   1      42.506  30.143  34.679  1.00  0.00     0.074 A 
ATOM     68  C   UNL A   1      42.748  30.531  36.053  1.00  0.00     0.031 C 
ATOM     69  C   UNL A   1      43.321  29.330  33.964  1.00  0.00     0.037 A 
BRANCH  56  70
ATOM     70  C   UNL A   1      41.413  28.327  28.176  1.00  0.00     0.057 A 
ATOM     71  C   UNL A   1      42.170  28.951  27.174  1.00  0.00     0.134 A 
ATOM     72  C   UNL A   1      40.927  27.041  27.913  1.00  0.00     0.134 A 
ATOM     73  F   UNL A   1      42.653  30.188  27.359  1.00  0.00    -0.206 F 
ATOM     74  C   UNL A   1      42.414  28.328  25.949  1.00  0.00     0.040 A 
ATOM     75  C   UNL A   1      41.188  26.398  26.701  1.00  0.00     0.040 A 
ATOM     76  F   UNL A   1      40.200  26.385  28.830  1.00  0.00    -0.206 F 
ATOM     77  C   UNL A   1      41.929  27.043  25.713  1.00  0.00     0.006 A 
ENDBRANCH  56  70
BRANCH  57  78
ATOM     78  C   UNL A   1      39.396  32.974  36.774  1.00  0.00     0.057 A 
ATOM     79  C   UNL A   1      38.480  32.417  37.674  1.00  0.00     0.134 A 
ATOM     80  C   UNL A   1      39.986  34.193  37.126  1.00  0.00     0.134 A 
ATOM     81  F   UNL A   1      37.867  31.260  37.384  1.00  0.00    -0.206 F 
ATOM     82  C   UNL A   1      38.135  33.064  38.862  1.00  0.00     0.040 A 
ATOM     83  C   UNL A   1      39.671  34.837  38.324  1.00  0.00     0.040 A 
ATOM     84  F   UNL A   1      40.879  34.774  36.312  1.00  0.00    -0.206 F 
ATOM     85  C   UNL A   1      38.734  34.278  39.190  1.00  0.00     0.006 A 
ENDBRANCH  57  78
BRANCH  69  86
ATOM     86  C   UNL A   1      44.580  28.859  34.633  1.00  0.00     0.057 A 
ATOM     87  C   UNL A   1      45.767  29.601  34.589  1.00  0.00     0.134 A 
ATOM     88  C   UNL A   1      44.593  27.657  35.351  1.00  0.00     0.134 A 
ATOM     89  F   UNL A   1      45.824  30.754  33.907  1.00  0.00    -0.206 F 
ATOM     90  C   UNL A   1      46.931  29.148  35.212  1.00  0.00     0.040 A 
ATOM     91  C   UNL A   1      45.743  27.207  36.000  1.00  0.00     0.040 A 
ATOM     92  F   UNL A   1      43.486  26.904  35.440  1.00  0.00    -0.206 F 
ATOM     93  C   UNL A   1      46.919  27.950  35.925  1.00  0.00     0.006 A 
ENDBRANCH  69  86
ENDBRANCH  43  44
ENDBRANCH  35  38
ENDBRANCH  33  34
ENDBRANCH  32  33
ENDBRANCH  31  32
ENDBRANCH  30  31
ENDBRANCH   1  30
TORSDOF 18
ENDMDL
