MODEL 1
REMARK VINA RESULT:     -11.6      0.000      0.000
REMARK SMILES CCc1ccc2c(c1)C=C(C(=O)NCCCCCCNC(=O)c1ccc(-c3c4nc(c(-c5c(F)cccc5F)c5ccc([nH]5)c(-c5c(F)cccc5F)c5nc(c(-c6c(F)cccc6F)c6ccc3[nH]6)C=C5)C=C4)cc1)[C@H](C(F)(F)F)O2
REMARK SMILES IDX 17 1 16 2 15 3 14 4 13 5 11 6 12 7 10 9 3 10 4 11 8 12 5 13
REMARK SMILES IDX 7 14 6 15 9 16 82 17 77 18 2 19 1 20 78 21 79 22 80 23 81 24
REMARK SMILES IDX 18 25 19 26 20 27 21 28 22 30 23 31 24 32 76 33 25 34 75 35
REMARK SMILES IDX 26 36 27 37 28 38 69 39 29 40 74 41 68 42 70 43 30 44 73 45
REMARK SMILES IDX 67 46 66 47 31 49 57 50 40 51 56 52 41 53 44 54 55 55 71 56
REMARK SMILES IDX 42 57 43 58 54 60 72 61 45 62 32 63 33 64 38 65 34 66 35 67
REMARK SMILES IDX 37 68 39 69 36 70 58 71 59 72 64 73 60 74 61 75 63 76 65 77
REMARK SMILES IDX 62 78 46 79 47 80 52 81 48 82 49 83 51 84 53 85 50 86
REMARK H PARENT 13 8 20 29 70 48 44 59
REMARK Flexibility Score: inf
ROOT
ATOM      1  C   UNL A   1      37.373  21.263  24.505  1.00  0.00     0.002 C 
ENDROOT
BRANCH   1   2
ATOM      2  C   UNL A   1      37.178  22.135  25.750  1.00  0.00     0.002 C 
BRANCH   2   3
ATOM      3  C   UNL A   1      37.137  23.645  25.478  1.00  0.00     0.021 C 
BRANCH   3   4
ATOM      4  C   UNL A   1      35.766  24.140  24.999  1.00  0.00     0.116 C 
BRANCH   4   5
ATOM      5  N   UNL A   1      34.786  23.963  26.058  1.00  0.00    -0.352 N 
ATOM      6  C   UNL A   1      33.688  23.171  26.172  1.00  0.00     0.251 C 
ATOM      7  O   UNL A   1      32.926  23.364  27.115  1.00  0.00    -0.270 OA
ATOM      8  H   UNL A   1      34.950  24.528  26.848  1.00  0.00     0.163 HD
BRANCH   6   9
ATOM      9  C   UNL A   1      33.425  22.034  25.253  1.00  0.00     0.067 C 
ATOM     10  C   UNL A   1      33.719  17.383  23.928  1.00  0.00    -0.047 A 
ATOM     11  C   UNL A   1      32.740  17.622  22.952  1.00  0.00     0.007 A 
ATOM     12  C   UNL A   1      34.173  18.469  24.693  1.00  0.00     0.015 A 
ATOM     13  C   UNL A   1      32.197  18.897  22.779  1.00  0.00     0.047 A 
ATOM     14  C   UNL A   1      33.627  19.748  24.523  1.00  0.00     0.017 A 
ATOM     15  C   UNL A   1      32.634  19.955  23.572  1.00  0.00     0.128 A 
ATOM     16  C   UNL A   1      34.012  20.839  25.407  1.00  0.00     0.025 C 
ATOM     17  O   UNL A   1      31.993  21.145  23.404  1.00  0.00    -0.475 OA
ATOM     18  C   UNL A   1      32.571  22.332  24.024  1.00  0.00     0.314 C 
BRANCH  10  19
ATOM     19  C   UNL A   1      34.248  15.976  24.093  1.00  0.00     0.032 C 
ATOM     20  C   UNL A   1      35.255  15.760  25.217  1.00  0.00     0.009 C 
ENDBRANCH  10  19
BRANCH  18  21
ATOM     21  C   UNL A   1      31.422  23.349  24.210  1.00  0.00     0.429 C 
ATOM     22  F   UNL A   1      31.862  24.616  24.369  1.00  0.00    -0.167 F 
ATOM     23  F   UNL A   1      30.620  23.381  23.110  1.00  0.00    -0.167 F 
ATOM     24  F   UNL A   1      30.627  23.041  25.261  1.00  0.00    -0.167 F 
ENDBRANCH  18  21
ENDBRANCH   6   9
ENDBRANCH   4   5
ENDBRANCH   3   4
ENDBRANCH   2   3
ENDBRANCH   1   2
BRANCH   1  25
ATOM     25  C   UNL A   1      38.179  19.980  24.728  1.00  0.00     0.021 C 
BRANCH  25  26
ATOM     26  C   UNL A   1      39.000  19.958  26.014  1.00  0.00     0.116 C 
BRANCH  26  27
ATOM     27  N   UNL A   1      40.220  19.185  25.861  1.00  0.00    -0.352 N 
ATOM     28  C   UNL A   1      41.528  19.584  25.951  1.00  0.00     0.251 C 
ATOM     29  H   UNL A   1      40.088  18.229  25.661  1.00  0.00     0.163 HD
ATOM     30  O   UNL A   1      42.422  18.835  25.571  1.00  0.00    -0.269 OA
BRANCH  28  31
ATOM     31  C   UNL A   1      41.875  20.914  26.502  1.00  0.00     0.039 A 
ATOM     32  C   UNL A   1      41.808  21.102  27.885  1.00  0.00     0.014 A 
ATOM     33  C   UNL A   1      42.195  21.988  25.665  1.00  0.00     0.014 A 
ATOM     34  C   UNL A   1      42.083  22.358  28.430  1.00  0.00     0.010 A 
ATOM     35  C   UNL A   1      42.531  23.225  26.215  1.00  0.00     0.010 A 
ATOM     36  C   UNL A   1      42.457  23.427  27.600  1.00  0.00    -0.014 A 
BRANCH  36  37
ATOM     37  C   UNL A   1      42.729  24.768  28.176  1.00  0.00     0.031 A 
ATOM     38  C   UNL A   1      44.127  25.147  28.586  1.00  0.00     0.074 A 
ATOM     39  C   UNL A   1      41.716  25.636  28.352  1.00  0.00     0.049 A 
ATOM     40  N   UNL A   1      44.561  26.270  29.100  1.00  0.00    -0.248 NA
ATOM     41  C   UNL A   1      45.168  24.121  28.423  1.00  0.00     0.031 C 
ATOM     42  C   UNL A   1      40.309  25.369  28.047  1.00  0.00     0.029 A 
ATOM     43  N   UNL A   1      41.713  26.922  28.831  1.00  0.00    -0.354 N 
ATOM     44  C   UNL A   1      45.918  26.081  29.331  1.00  0.00     0.074 A 
ATOM     45  C   UNL A   1      46.226  24.720  28.951  1.00  0.00     0.031 C 
ATOM     46  C   UNL A   1      39.584  26.465  28.321  1.00  0.00     0.029 A 
ATOM     47  C   UNL A   1      40.470  27.504  28.839  1.00  0.00     0.049 A 
ATOM     48  H   UNL A   1      42.527  27.383  29.139  1.00  0.00     0.167 HD
ATOM     49  C   UNL A   1      46.831  26.968  29.794  1.00  0.00     0.037 A 
ATOM     50  C   UNL A   1      40.090  28.740  29.213  1.00  0.00     0.037 A 
ATOM     51  C   UNL A   1      46.532  28.333  30.138  1.00  0.00     0.049 A 
ATOM     52  C   UNL A   1      41.128  29.718  29.686  1.00  0.00     0.074 A 
ATOM     53  C   UNL A   1      47.400  29.329  30.551  1.00  0.00     0.029 A 
ATOM     54  N   UNL A   1      45.265  28.895  30.103  1.00  0.00    -0.354 N 
ATOM     55  N   UNL A   1      42.421  29.547  29.829  1.00  0.00    -0.248 NA
ATOM     56  C   UNL A   1      40.656  31.064  30.039  1.00  0.00     0.031 C 
ATOM     57  C   UNL A   1      46.651  30.486  30.799  1.00  0.00     0.029 A 
ATOM     58  C   UNL A   1      45.325  30.220  30.503  1.00  0.00     0.049 A 
ATOM     59  H   UNL A   1      44.445  28.423  29.834  1.00  0.00     0.167 HD
ATOM     60  C   UNL A   1      42.919  30.768  30.265  1.00  0.00     0.074 A 
ATOM     61  C   UNL A   1      41.792  31.676  30.343  1.00  0.00     0.031 C 
ATOM     62  C   UNL A   1      44.194  31.109  30.574  1.00  0.00     0.037 A 
BRANCH  49  63
ATOM     63  C   UNL A   1      48.245  26.490  29.945  1.00  0.00     0.057 A 
ATOM     64  C   UNL A   1      49.196  26.670  28.932  1.00  0.00     0.134 A 
ATOM     65  C   UNL A   1      48.670  25.870  31.127  1.00  0.00     0.134 A 
ATOM     66  F   UNL A   1      48.851  27.245  27.770  1.00  0.00    -0.206 F 
ATOM     67  C   UNL A   1      50.514  26.230  29.080  1.00  0.00     0.040 A 
ATOM     68  C   UNL A   1      49.990  25.448  31.296  1.00  0.00     0.040 A 
ATOM     69  F   UNL A   1      47.811  25.670  32.138  1.00  0.00    -0.206 F 
ATOM     70  C   UNL A   1      50.914  25.623  30.268  1.00  0.00     0.006 A 
ENDBRANCH  49  63
BRANCH  50  71
ATOM     71  C   UNL A   1      38.664  29.138  29.118  1.00  0.00     0.057 A 
ATOM     72  C   UNL A   1      38.124  29.605  27.912  1.00  0.00     0.134 A 
ATOM     73  C   UNL A   1      37.812  29.074  30.225  1.00  0.00     0.134 A 
ATOM     74  F   UNL A   1      38.897  29.705  26.821  1.00  0.00    -0.206 F 
ATOM     75  C   UNL A   1      36.794  30.014  27.818  1.00  0.00     0.040 A 
ATOM     76  C   UNL A   1      36.473  29.459  30.139  1.00  0.00     0.040 A 
ATOM     77  F   UNL A   1      38.267  28.628  31.405  1.00  0.00    -0.206 F 
ATOM     78  C   UNL A   1      35.963  29.937  28.934  1.00  0.00     0.006 A 
ENDBRANCH  50  71
BRANCH  62  79
ATOM     79  C   UNL A   1      44.435  32.524  31.004  1.00  0.00     0.057 A 
ATOM     80  C   UNL A   1      44.399  32.902  32.352  1.00  0.00     0.134 A 
ATOM     81  C   UNL A   1      44.722  33.518  30.061  1.00  0.00     0.134 A 
ATOM     82  F   UNL A   1      44.115  31.999  33.304  1.00  0.00    -0.206 F 
ATOM     83  C   UNL A   1      44.613  34.224  32.745  1.00  0.00     0.040 A 
ATOM     84  C   UNL A   1      44.963  34.838  30.442  1.00  0.00     0.040 A 
ATOM     85  F   UNL A   1      44.781  33.222  28.753  1.00  0.00    -0.206 F 
ATOM     86  C   UNL A   1      44.901  35.195  31.789  1.00  0.00     0.006 A 
ENDBRANCH  62  79
ENDBRANCH  36  37
ENDBRANCH  28  31
ENDBRANCH  26  27
ENDBRANCH  25  26
ENDBRANCH   1  25
TORSDOF 15
ENDMDL
MODEL 2
REMARK VINA RESULT:     -11.5      0.406      6.161
REMARK SMILES CCc1ccc2c(c1)C=C(C(=O)NCCCCCCNC(=O)c1ccc(-c3c4nc(c(-c5c(F)cccc5F)c5ccc([nH]5)c(-c5c(F)cccc5F)c5nc(c(-c6c(F)cccc6F)c6ccc3[nH]6)C=C5)C=C4)cc1)[C@H](C(F)(F)F)O2
REMARK SMILES IDX 17 1 16 2 15 3 14 4 13 5 11 6 12 7 10 9 3 10 4 11 8 12 5 13
REMARK SMILES IDX 7 14 6 15 9 16 82 17 77 18 2 19 1 20 78 21 79 22 80 23 81 24
REMARK SMILES IDX 18 25 19 26 20 27 21 28 22 30 23 31 24 32 76 33 25 34 75 35
REMARK SMILES IDX 26 36 27 37 28 38 69 39 29 40 74 41 68 42 70 43 30 44 73 45
REMARK SMILES IDX 67 46 66 47 31 49 57 50 40 51 56 52 41 53 44 54 55 55 71 56
REMARK SMILES IDX 42 57 43 58 54 60 72 61 45 62 32 63 33 64 38 65 34 66 35 67
REMARK SMILES IDX 37 68 39 69 36 70 58 71 59 72 64 73 60 74 61 75 63 76 65 77
REMARK SMILES IDX 62 78 46 79 47 80 52 81 48 82 49 83 51 84 53 85 50 86
REMARK H PARENT 13 8 20 29 70 48 44 59
REMARK Flexibility Score: inf
ROOT
ATOM      1  C   UNL A   1      37.361  21.496  24.538  1.00  0.00     0.002 C 
ENDROOT
BRANCH   1   2
ATOM      2  C   UNL A   1      37.356  22.358  25.805  1.00  0.00     0.002 C 
BRANCH   2   3
ATOM      3  C   UNL A   1      37.116  23.854  25.563  1.00  0.00     0.021 C 
BRANCH   3   4
ATOM      4  C   UNL A   1      35.727  24.163  24.990  1.00  0.00     0.116 C 
BRANCH   4   5
ATOM      5  N   UNL A   1      34.723  23.994  26.028  1.00  0.00    -0.352 N 
ATOM      6  C   UNL A   1      33.622  23.202  26.121  1.00  0.00     0.251 C 
ATOM      7  O   UNL A   1      32.838  23.402  27.045  1.00  0.00    -0.270 OA
ATOM      8  H   UNL A   1      34.868  24.564  26.817  1.00  0.00     0.163 HD
BRANCH   6   9
ATOM      9  C   UNL A   1      33.381  22.059  25.203  1.00  0.00     0.067 C 
ATOM     10  C   UNL A   1      33.773  17.415  23.880  1.00  0.00    -0.047 A 
ATOM     11  C   UNL A   1      32.784  17.632  22.908  1.00  0.00     0.007 A 
ATOM     12  C   UNL A   1      34.206  18.511  24.643  1.00  0.00     0.015 A 
ATOM     13  C   UNL A   1      32.212  18.894  22.737  1.00  0.00     0.047 A 
ATOM     14  C   UNL A   1      33.630  19.778  24.474  1.00  0.00     0.017 A 
ATOM     15  C   UNL A   1      32.629  19.962  23.527  1.00  0.00     0.128 A 
ATOM     16  C   UNL A   1      33.995  20.877  25.356  1.00  0.00     0.025 C 
ATOM     17  O   UNL A   1      31.961  21.137  23.362  1.00  0.00    -0.475 OA
ATOM     18  C   UNL A   1      32.515  22.337  23.978  1.00  0.00     0.314 C 
BRANCH  10  19
ATOM     19  C   UNL A   1      34.334  16.020  24.043  1.00  0.00     0.032 C 
ATOM     20  C   UNL A   1      35.185  15.776  25.284  1.00  0.00     0.009 C 
ENDBRANCH  10  19
BRANCH  18  21
ATOM     21  C   UNL A   1      31.344  23.328  24.169  1.00  0.00     0.429 C 
ATOM     22  F   UNL A   1      31.757  24.602  24.348  1.00  0.00    -0.167 F 
ATOM     23  F   UNL A   1      30.550  23.358  23.063  1.00  0.00    -0.167 F 
ATOM     24  F   UNL A   1      30.547  22.991  25.210  1.00  0.00    -0.167 F 
ENDBRANCH  18  21
ENDBRANCH   6   9
ENDBRANCH   4   5
ENDBRANCH   3   4
ENDBRANCH   2   3
ENDBRANCH   1   2
BRANCH   1  25
ATOM     25  C   UNL A   1      38.067  20.143  24.672  1.00  0.00     0.021 C 
BRANCH  25  26
ATOM     26  C   UNL A   1      38.769  19.921  26.009  1.00  0.00     0.116 C 
BRANCH  26  27
ATOM     27  N   UNL A   1      40.007  19.177  25.850  1.00  0.00    -0.352 N 
ATOM     28  C   UNL A   1      41.306  19.603  25.958  1.00  0.00     0.251 C 
ATOM     29  H   UNL A   1      39.897  18.223  25.630  1.00  0.00     0.163 HD
ATOM     30  O   UNL A   1      42.218  18.881  25.570  1.00  0.00    -0.269 OA
BRANCH  28  31
ATOM     31  C   UNL A   1      41.619  20.928  26.538  1.00  0.00     0.039 A 
ATOM     32  C   UNL A   1      41.981  21.966  25.676  1.00  0.00     0.014 A 
ATOM     33  C   UNL A   1      41.626  21.135  27.922  1.00  0.00     0.014 A 
ATOM     34  C   UNL A   1      42.328  23.215  26.196  1.00  0.00     0.010 A 
ATOM     35  C   UNL A   1      41.910  22.399  28.437  1.00  0.00     0.010 A 
ATOM     36  C   UNL A   1      42.285  23.444  27.581  1.00  0.00    -0.014 A 
BRANCH  36  37
ATOM     37  C   UNL A   1      42.673  24.764  28.138  1.00  0.00     0.031 A 
ATOM     38  C   UNL A   1      41.633  25.828  28.363  1.00  0.00     0.074 A 
ATOM     39  C   UNL A   1      43.966  25.015  28.419  1.00  0.00     0.049 A 
ATOM     40  N   UNL A   1      41.777  27.037  28.846  1.00  0.00    -0.248 NA
ATOM     41  C   UNL A   1      40.253  25.500  27.971  1.00  0.00     0.031 C 
ATOM     42  C   UNL A   1      45.077  24.089  28.194  1.00  0.00     0.029 A 
ATOM     43  N   UNL A   1      44.564  26.127  28.956  1.00  0.00    -0.354 N 
ATOM     44  C   UNL A   1      40.514  27.614  28.802  1.00  0.00     0.074 A 
ATOM     45  C   UNL A   1      39.626  26.645  28.200  1.00  0.00     0.031 C 
ATOM     46  C   UNL A   1      46.217  24.660  28.614  1.00  0.00     0.029 A 
ATOM     47  C   UNL A   1      45.921  25.998  29.118  1.00  0.00     0.049 A 
ATOM     48  H   UNL A   1      44.067  26.940  29.202  1.00  0.00     0.167 HD
ATOM     49  C   UNL A   1      40.124  28.832  29.248  1.00  0.00     0.037 A 
ATOM     50  C   UNL A   1      46.823  26.858  29.627  1.00  0.00     0.037 A 
ATOM     51  C   UNL A   1      41.000  29.783  29.880  1.00  0.00     0.049 A 
ATOM     52  C   UNL A   1      46.358  28.188  30.149  1.00  0.00     0.074 A 
ATOM     53  C   UNL A   1      40.688  31.016  30.426  1.00  0.00     0.029 A 
ATOM     54  N   UNL A   1      42.364  29.603  30.055  1.00  0.00    -0.354 N 
ATOM     55  N   UNL A   1      45.148  28.691  30.170  1.00  0.00    -0.248 NA
ATOM     56  C   UNL A   1      47.385  29.065  30.731  1.00  0.00     0.031 C 
ATOM     57  C   UNL A   1      41.870  31.597  30.902  1.00  0.00     0.029 A 
ATOM     58  C   UNL A   1      42.910  30.708  30.687  1.00  0.00     0.049 A 
ATOM     59  H   UNL A   1      42.869  28.807  29.772  1.00  0.00     0.167 HD
ATOM     60  C   UNL A   1      45.262  29.931  30.786  1.00  0.00     0.074 A 
ATOM     61  C   UNL A   1      46.657  30.094  31.142  1.00  0.00     0.031 C 
ATOM     62  C   UNL A   1      44.300  30.853  31.034  1.00  0.00     0.037 A 
BRANCH  49  63
ATOM     63  C   UNL A   1      38.680  29.202  29.075  1.00  0.00     0.057 A 
ATOM     64  C   UNL A   1      38.165  29.603  27.835  1.00  0.00     0.134 A 
ATOM     65  C   UNL A   1      37.787  29.129  30.151  1.00  0.00     0.134 A 
ATOM     66  F   UNL A   1      38.970  29.707  26.766  1.00  0.00    -0.206 F 
ATOM     67  C   UNL A   1      36.819  29.940  27.676  1.00  0.00     0.040 A 
ATOM     68  C   UNL A   1      36.435  29.439  30.000  1.00  0.00     0.040 A 
ATOM     69  F   UNL A   1      38.214  28.749  31.365  1.00  0.00    -0.206 F 
ATOM     70  C   UNL A   1      35.949  29.851  28.761  1.00  0.00     0.006 A 
ENDBRANCH  49  63
BRANCH  50  71
ATOM     71  C   UNL A   1      48.254  26.473  29.703  1.00  0.00     0.057 A 
ATOM     72  C   UNL A   1      48.759  25.790  30.817  1.00  0.00     0.134 A 
ATOM     73  C   UNL A   1      49.151  26.787  28.676  1.00  0.00     0.134 A 
ATOM     74  F   UNL A   1      47.951  25.478  31.840  1.00  0.00    -0.206 F 
ATOM     75  C   UNL A   1      50.109  25.453  30.915  1.00  0.00     0.040 A 
ATOM     76  C   UNL A   1      50.500  26.436  28.752  1.00  0.00     0.040 A 
ATOM     77  F   UNL A   1      48.726  27.433  27.580  1.00  0.00    -0.206 F 
ATOM     78  C   UNL A   1      50.983  25.773  29.878  1.00  0.00     0.006 A 
ENDBRANCH  50  71
BRANCH  62  79
ATOM     79  C   UNL A   1      44.724  32.106  31.739  1.00  0.00     0.057 A 
ATOM     80  C   UNL A   1      44.721  32.202  33.136  1.00  0.00     0.134 A 
ATOM     81  C   UNL A   1      45.154  33.224  31.014  1.00  0.00     0.134 A 
ATOM     82  F   UNL A   1      44.307  31.171  33.888  1.00  0.00    -0.206 F 
ATOM     83  C   UNL A   1      45.106  33.376  33.787  1.00  0.00     0.040 A 
ATOM     84  C   UNL A   1      45.565  34.394  31.652  1.00  0.00     0.040 A 
ATOM     85  F   UNL A   1      45.189  33.194  29.672  1.00  0.00    -0.206 F 
ATOM     86  C   UNL A   1      45.534  34.474  33.044  1.00  0.00     0.006 A 
ENDBRANCH  62  79
ENDBRANCH  36  37
ENDBRANCH  28  31
ENDBRANCH  26  27
ENDBRANCH  25  26
ENDBRANCH   1  25
TORSDOF 15
ENDMDL
MODEL 3
REMARK VINA RESULT:     -11.4      4.975      9.813
REMARK SMILES CCc1ccc2c(c1)C=C(C(=O)NCCCCCCNC(=O)c1ccc(-c3c4nc(c(-c5c(F)cccc5F)c5ccc([nH]5)c(-c5c(F)cccc5F)c5nc(c(-c6c(F)cccc6F)c6ccc3[nH]6)C=C5)C=C4)cc1)[C@H](C(F)(F)F)O2
REMARK SMILES IDX 17 1 16 2 15 3 14 4 13 5 11 6 12 7 10 9 3 10 4 11 8 12 5 13
REMARK SMILES IDX 7 14 6 15 9 16 82 17 77 18 2 19 1 20 78 21 79 22 80 23 81 24
REMARK SMILES IDX 18 25 19 26 20 27 21 28 22 30 23 31 24 32 76 33 25 34 75 35
REMARK SMILES IDX 26 36 27 37 28 38 69 39 29 40 74 41 68 42 70 43 30 44 73 45
REMARK SMILES IDX 67 46 66 47 31 49 57 50 40 51 56 52 41 53 44 54 55 55 71 56
REMARK SMILES IDX 42 57 43 58 54 60 72 61 45 62 32 63 33 64 38 65 34 66 35 67
REMARK SMILES IDX 37 68 39 69 36 70 58 71 59 72 64 73 60 74 61 75 63 76 65 77
REMARK SMILES IDX 62 78 46 79 47 80 52 81 48 82 49 83 51 84 53 85 50 86
REMARK H PARENT 13 8 20 29 70 48 44 59
REMARK Flexibility Score: inf
ROOT
ATOM      1  C   UNL A   1      32.145  30.124  27.155  1.00  0.00     0.002 C 
ENDROOT
BRANCH   1   2
ATOM      2  C   UNL A   1      33.607  29.978  26.720  1.00  0.00     0.002 C 
BRANCH   2   3
ATOM      3  C   UNL A   1      34.261  28.644  27.105  1.00  0.00     0.021 C 
BRANCH   3   4
ATOM      4  C   UNL A   1      33.549  27.422  26.508  1.00  0.00     0.116 C 
BRANCH   4   5
ATOM      5  N   UNL A   1      33.969  27.239  25.128  1.00  0.00    -0.352 N 
ATOM      6  C   UNL A   1      33.276  27.130  23.964  1.00  0.00     0.251 C 
ATOM      7  O   UNL A   1      33.887  26.790  22.953  1.00  0.00    -0.270 OA
ATOM      8  H   UNL A   1      34.945  27.184  25.014  1.00  0.00     0.163 HD
BRANCH   6   9
ATOM      9  C   UNL A   1      31.839  27.487  23.853  1.00  0.00     0.067 C 
ATOM     10  C   UNL A   1      28.195  30.605  23.172  1.00  0.00    -0.047 A 
ATOM     11  C   UNL A   1      27.322  29.517  23.013  1.00  0.00     0.007 A 
ATOM     12  C   UNL A   1      29.534  30.341  23.494  1.00  0.00     0.015 A 
ATOM     13  C   UNL A   1      27.786  28.205  23.125  1.00  0.00     0.047 A 
ATOM     14  C   UNL A   1      30.002  29.024  23.604  1.00  0.00     0.017 A 
ATOM     15  C   UNL A   1      29.127  27.961  23.411  1.00  0.00     0.128 A 
ATOM     16  C   UNL A   1      31.419  28.759  23.812  1.00  0.00     0.025 C 
ATOM     17  O   UNL A   1      29.520  26.657  23.415  1.00  0.00    -0.475 OA
ATOM     18  C   UNL A   1      30.840  26.337  23.945  1.00  0.00     0.314 C 
BRANCH  10  19
ATOM     19  C   UNL A   1      27.643  32.004  23.008  1.00  0.00     0.032 C 
ATOM     20  C   UNL A   1      28.410  32.925  22.066  1.00  0.00     0.009 C 
ENDBRANCH  10  19
BRANCH  18  21
ATOM     21  C   UNL A   1      31.269  24.995  23.309  1.00  0.00     0.429 C 
ATOM     22  F   UNL A   1      30.254  24.107  23.219  1.00  0.00    -0.167 F 
ATOM     23  F   UNL A   1      31.700  25.180  22.031  1.00  0.00    -0.167 F 
ATOM     24  F   UNL A   1      32.287  24.408  23.980  1.00  0.00    -0.167 F 
ENDBRANCH  18  21
ENDBRANCH   6   9
ENDBRANCH   4   5
ENDBRANCH   3   4
ENDBRANCH   2   3
ENDBRANCH   1   2
BRANCH   1  25
ATOM     25  C   UNL A   1      31.544  31.520  26.962  1.00  0.00     0.021 C 
BRANCH  25  26
ATOM     26  C   UNL A   1      32.539  32.586  26.515  1.00  0.00     0.116 C 
BRANCH  26  27
ATOM     27  N   UNL A   1      32.359  33.830  27.243  1.00  0.00    -0.352 N 
ATOM     28  C   UNL A   1      32.984  34.282  28.376  1.00  0.00     0.251 C 
ATOM     29  H   UNL A   1      31.685  34.442  26.866  1.00  0.00     0.163 HD
ATOM     30  O   UNL A   1      32.540  35.259  28.969  1.00  0.00    -0.269 OA
BRANCH  28  31
ATOM     31  C   UNL A   1      34.191  33.599  28.894  1.00  0.00     0.039 A 
ATOM     32  C   UNL A   1      34.029  32.426  29.636  1.00  0.00     0.014 A 
ATOM     33  C   UNL A   1      35.468  34.141  28.716  1.00  0.00     0.014 A 
ATOM     34  C   UNL A   1      35.144  31.784  30.178  1.00  0.00     0.010 A 
ATOM     35  C   UNL A   1      36.587  33.466  29.202  1.00  0.00     0.010 A 
ATOM     36  C   UNL A   1      36.434  32.294  29.957  1.00  0.00    -0.014 A 
BRANCH  36  37
ATOM     37  C   UNL A   1      37.619  31.626  30.549  1.00  0.00     0.031 A 
ATOM     38  C   UNL A   1      38.024  31.919  31.969  1.00  0.00     0.074 A 
ATOM     39  C   UNL A   1      38.347  30.774  29.803  1.00  0.00     0.049 A 
ATOM     40  N   UNL A   1      39.022  31.430  32.662  1.00  0.00    -0.248 NA
ATOM     41  C   UNL A   1      37.218  32.909  32.698  1.00  0.00     0.031 C 
ATOM     42  C   UNL A   1      38.092  30.449  28.398  1.00  0.00     0.029 A 
ATOM     43  N   UNL A   1      39.451  30.024  30.122  1.00  0.00    -0.354 N 
ATOM     44  C   UNL A   1      38.970  32.061  33.898  1.00  0.00     0.074 A 
ATOM     45  C   UNL A   1      37.876  33.005  33.845  1.00  0.00     0.031 C 
ATOM     46  C   UNL A   1      38.997  29.546  27.985  1.00  0.00     0.029 A 
ATOM     47  C   UNL A   1      39.905  29.245  29.087  1.00  0.00     0.049 A 
ATOM     48  H   UNL A   1      39.876  30.043  31.010  1.00  0.00     0.167 HD
ATOM     49  C   UNL A   1      39.747  31.856  34.988  1.00  0.00     0.037 A 
ATOM     50  C   UNL A   1      40.933  28.377  29.037  1.00  0.00     0.037 A 
ATOM     51  C   UNL A   1      40.813  30.891  35.053  1.00  0.00     0.049 A 
ATOM     52  C   UNL A   1      41.756  28.139  30.272  1.00  0.00     0.074 A 
ATOM     53  C   UNL A   1      41.613  30.560  36.133  1.00  0.00     0.029 A 
ATOM     54  N   UNL A   1      41.223  30.097  33.993  1.00  0.00    -0.354 N 
ATOM     55  N   UNL A   1      41.648  28.690  31.457  1.00  0.00    -0.248 NA
ATOM     56  C   UNL A   1      42.837  27.148  30.165  1.00  0.00     0.031 C 
ATOM     57  C   UNL A   1      42.532  29.589  35.715  1.00  0.00     0.029 A 
ATOM     58  C   UNL A   1      42.277  29.289  34.388  1.00  0.00     0.049 A 
ATOM     59  H   UNL A   1      40.826  30.107  33.093  1.00  0.00     0.167 HD
ATOM     60  C   UNL A   1      42.628  28.097  32.242  1.00  0.00     0.074 A 
ATOM     61  C   UNL A   1      43.307  27.130  31.404  1.00  0.00     0.031 C 
ATOM     62  C   UNL A   1      42.940  28.332  33.540  1.00  0.00     0.037 A 
BRANCH  49  63
ATOM     63  C   UNL A   1      39.464  32.686  36.206  1.00  0.00     0.057 A 
ATOM     64  C   UNL A   1      40.148  33.883  36.457  1.00  0.00     0.134 A 
ATOM     65  C   UNL A   1      38.477  32.302  37.122  1.00  0.00     0.134 A 
ATOM     66  F   UNL A   1      41.115  34.301  35.625  1.00  0.00    -0.206 F 
ATOM     67  C   UNL A   1      39.877  34.656  37.587  1.00  0.00     0.040 A 
ATOM     68  C   UNL A   1      38.180  33.079  38.243  1.00  0.00     0.040 A 
ATOM     69  F   UNL A   1      37.782  31.169  36.939  1.00  0.00    -0.206 F 
ATOM     70  C   UNL A   1      38.885  34.257  38.481  1.00  0.00     0.006 A 
ENDBRANCH  49  63
BRANCH  50  71
ATOM     71  C   UNL A   1      41.220  27.638  27.783  1.00  0.00     0.057 A 
ATOM     72  C   UNL A   1      42.035  28.195  26.789  1.00  0.00     0.134 A 
ATOM     73  C   UNL A   1      40.681  26.370  27.543  1.00  0.00     0.134 A 
ATOM     74  F   UNL A   1      42.565  29.415  26.956  1.00  0.00    -0.206 F 
ATOM     75  C   UNL A   1      42.284  27.525  25.590  1.00  0.00     0.040 A 
ATOM     76  C   UNL A   1      40.942  25.679  26.358  1.00  0.00     0.040 A 
ATOM     77  F   UNL A   1      39.901  25.781  28.459  1.00  0.00    -0.206 F 
ATOM     78  C   UNL A   1      41.740  26.261  25.374  1.00  0.00     0.006 A 
ENDBRANCH  50  71
BRANCH  62  79
ATOM     79  C   UNL A   1      44.049  27.516  34.132  1.00  0.00     0.057 A 
ATOM     80  C   UNL A   1      45.376  27.966  34.135  1.00  0.00     0.134 A 
ATOM     81  C   UNL A   1      43.786  26.272  34.720  1.00  0.00     0.134 A 
ATOM     82  F   UNL A   1      45.695  29.143  33.574  1.00  0.00    -0.206 F 
ATOM     83  C   UNL A   1      46.406  27.196  34.678  1.00  0.00     0.040 A 
ATOM     84  C   UNL A   1      44.803  25.504  35.288  1.00  0.00     0.040 A 
ATOM     85  F   UNL A   1      42.536  25.787  34.758  1.00  0.00    -0.206 F 
ATOM     86  C   UNL A   1      46.119  25.963  35.260  1.00  0.00     0.006 A 
ENDBRANCH  62  79
ENDBRANCH  36  37
ENDBRANCH  28  31
ENDBRANCH  26  27
ENDBRANCH  25  26
ENDBRANCH   1  25
TORSDOF 15
ENDMDL
