MODEL 1
REMARK VINA RESULT:     -11.3      0.000      0.000
REMARK SMILES Cc1cc(C[N@H+]2CCN(C)C(=O)C2(C)C)oc1C(=O)NCCCCCCNC(=O)c1ccc(-c2c3nc(c(-c4c(F)cccc4F)c4ccc([nH]4)c(-c4c(F)cccc4F)c4nc(c(-c5c(F)cccc5F)c5ccc2[nH]5)C=C4)C=C3)cc1
REMARK SMILES IDX 23 1 22 2 21 3 20 4 18 5 19 6 17 8 1 9 2 10 3 11 4 12 16 13
REMARK SMILES IDX 5 14 6 15 7 16 13 17 8 19 11 20 14 21 15 22 9 23 12 24 10 25
REMARK SMILES IDX 24 26 25 27 26 28 27 29 28 30 29 32 30 33 31 34 83 35 32 36
REMARK SMILES IDX 82 37 33 38 34 39 35 40 76 41 36 42 81 43 75 44 77 45 37 46
REMARK SMILES IDX 80 47 74 48 73 49 38 51 64 52 47 53 63 54 48 55 51 56 62 57
REMARK SMILES IDX 78 58 49 59 50 60 61 62 79 63 52 64 39 65 40 66 45 67 41 68
REMARK SMILES IDX 42 69 44 70 46 71 43 72 65 73 66 74 71 75 67 76 68 77 70 78
REMARK SMILES IDX 72 79 69 80 53 81 54 82 59 83 55 84 56 85 58 86 60 87 57 88
REMARK H PARENT 20 7 6 18 27 31 77 50 51 61
REMARK Flexibility Score: inf
ROOT
ATOM      1  C   UNL A   1      38.274  22.277  25.684  1.00  0.00     0.002 C 
ENDROOT
BRANCH   1   2
ATOM      2  C   UNL A   1      37.351  23.435  26.079  1.00  0.00     0.021 C 
BRANCH   2   3
ATOM      3  C   UNL A   1      35.868  23.242  25.784  1.00  0.00     0.116 C 
BRANCH   3   4
ATOM      4  N   UNL A   1      35.104  22.777  26.912  1.00  0.00    -0.349 N 
ATOM      5  C   UNL A   1      33.739  22.785  27.104  1.00  0.00     0.287 C 
ATOM      6  O   UNL A   1      33.359  22.447  28.226  1.00  0.00    -0.266 OA
ATOM      7  H   UNL A   1      35.631  22.398  27.652  1.00  0.00     0.163 HD
BRANCH   5   8
ATOM      8  C   UNL A   1      32.816  23.205  26.057  1.00  0.00     0.194 A 
ATOM      9  C   UNL A   1      32.316  21.261  24.361  1.00  0.00     0.049 C 
ATOM     10  C   UNL A   1      32.199  22.616  24.954  1.00  0.00     0.001 A 
ATOM     11  C   UNL A   1      31.326  23.600  24.418  1.00  0.00     0.056 A 
ATOM     12  C   UNL A   1      31.538  24.763  25.114  1.00  0.00     0.159 A 
ATOM     13  O   UNL A   1      32.384  24.514  26.149  1.00  0.00    -0.450 OA
BRANCH  12  14
ATOM     14  C   UNL A   1      31.035  26.157  24.949  1.00  0.00     0.339 C 
BRANCH  14  15
ATOM     15  N   UNL A   1      31.710  26.995  23.932  1.00  0.00    -0.315 N 
ATOM     16  C   UNL A   1      30.912  27.147  22.708  1.00  0.00     0.285 C 
ATOM     17  C   UNL A   1      32.279  28.301  24.382  1.00  0.00     0.172 C 
ATOM     18  H   UNL A   1      32.541  26.441  23.724  1.00  0.00     0.349 HD
ATOM     19  C   UNL A   1      29.852  28.252  22.752  1.00  0.00     0.180 C 
ATOM     20  C   UNL A   1      31.179  29.403  24.526  1.00  0.00     0.283 C 
ATOM     21  C   UNL A   1      33.136  28.162  25.660  1.00  0.00     0.090 C 
ATOM     22  C   UNL A   1      33.257  28.860  23.312  1.00  0.00     0.090 C 
ATOM     23  N   UNL A   1      30.207  29.439  23.525  1.00  0.00    -0.335 N 
ATOM     24  O   UNL A   1      31.247  30.272  25.400  1.00  0.00    -0.268 OA
ATOM     25  C   UNL A   1      29.311  30.574  23.423  1.00  0.00     0.147 C 
ENDBRANCH  14  15
ENDBRANCH  12  14
ENDBRANCH   5   8
ENDBRANCH   3   4
ENDBRANCH   2   3
ENDBRANCH   1   2
BRANCH   1  26
ATOM     26  C   UNL A   1      37.651  21.130  24.883  1.00  0.00     0.002 C 
BRANCH  26  27
ATOM     27  C   UNL A   1      38.400  19.795  24.883  1.00  0.00     0.021 C 
BRANCH  27  28
ATOM     28  C   UNL A   1      39.219  19.474  26.128  1.00  0.00     0.116 C 
BRANCH  28  29
ATOM     29  N   UNL A   1      40.526  18.918  25.830  1.00  0.00    -0.352 N 
ATOM     30  C   UNL A   1      41.768  19.499  25.904  1.00  0.00     0.251 C 
ATOM     31  H   UNL A   1      40.521  17.981  25.531  1.00  0.00     0.163 HD
ATOM     32  O   UNL A   1      42.754  18.881  25.514  1.00  0.00    -0.269 OA
BRANCH  30  33
ATOM     33  C   UNL A   1      41.930  20.880  26.418  1.00  0.00     0.039 A 
ATOM     34  C   UNL A   1      41.803  21.095  27.794  1.00  0.00     0.014 A 
ATOM     35  C   UNL A   1      42.180  21.958  25.566  1.00  0.00     0.014 A 
ATOM     36  C   UNL A   1      41.991  22.376  28.322  1.00  0.00     0.010 A 
ATOM     37  C   UNL A   1      42.431  23.223  26.098  1.00  0.00     0.010 A 
ATOM     38  C   UNL A   1      42.340  23.444  27.481  1.00  0.00    -0.014 A 
BRANCH  38  39
ATOM     39  C   UNL A   1      42.619  24.797  28.033  1.00  0.00     0.031 A 
ATOM     40  C   UNL A   1      44.002  25.159  28.495  1.00  0.00     0.074 A 
ATOM     41  C   UNL A   1      41.610  25.680  28.174  1.00  0.00     0.049 A 
ATOM     42  N   UNL A   1      44.422  26.258  29.071  1.00  0.00    -0.248 NA
ATOM     43  C   UNL A   1      45.050  24.143  28.308  1.00  0.00     0.031 C 
ATOM     44  C   UNL A   1      40.216  25.439  27.802  1.00  0.00     0.029 A 
ATOM     45  N   UNL A   1      41.603  26.956  28.681  1.00  0.00    -0.354 N 
ATOM     46  C   UNL A   1      45.772  26.060  29.329  1.00  0.00     0.074 A 
ATOM     47  C   UNL A   1      46.093  24.719  28.886  1.00  0.00     0.031 C 
ATOM     48  C   UNL A   1      39.491  26.535  28.078  1.00  0.00     0.029 A 
ATOM     49  C   UNL A   1      40.360  27.542  28.678  1.00  0.00     0.049 A 
ATOM     50  H   UNL A   1      42.411  27.407  29.015  1.00  0.00     0.167 HD
ATOM     51  C   UNL A   1      46.667  26.922  29.866  1.00  0.00     0.037 A 
ATOM     52  C   UNL A   1      39.964  28.752  29.116  1.00  0.00     0.037 A 
ATOM     53  C   UNL A   1      46.355  28.265  30.279  1.00  0.00     0.049 A 
ATOM     54  C   UNL A   1      40.978  29.690  29.710  1.00  0.00     0.074 A 
ATOM     55  C   UNL A   1      47.208  29.233  30.781  1.00  0.00     0.029 A 
ATOM     56  N   UNL A   1      45.089  28.829  30.239  1.00  0.00    -0.354 N 
ATOM     57  N   UNL A   1      42.263  29.510  29.891  1.00  0.00    -0.248 NA
ATOM     58  C   UNL A   1      40.486  31.002  30.155  1.00  0.00     0.031 C 
ATOM     59  C   UNL A   1      46.451  30.372  31.079  1.00  0.00     0.029 A 
ATOM     60  C   UNL A   1      45.135  30.127  30.723  1.00  0.00     0.049 A 
ATOM     61  H   UNL A   1      44.277  28.376  29.915  1.00  0.00     0.167 HD
ATOM     62  C   UNL A   1      42.738  30.693  30.442  1.00  0.00     0.074 A 
ATOM     63  C   UNL A   1      41.606  31.588  30.556  1.00  0.00     0.031 C 
ATOM     64  C   UNL A   1      44.001  31.010  30.820  1.00  0.00     0.037 A 
BRANCH  51  65
ATOM     65  C   UNL A   1      48.079  26.441  30.033  1.00  0.00     0.057 A 
ATOM     66  C   UNL A   1      48.494  25.758  31.184  1.00  0.00     0.134 A 
ATOM     67  C   UNL A   1      49.023  26.626  29.015  1.00  0.00     0.134 A 
ATOM     68  F   UNL A   1      47.642  25.557  32.200  1.00  0.00    -0.206 F 
ATOM     69  C   UNL A   1      49.803  25.297  31.326  1.00  0.00     0.040 A 
ATOM     70  C   UNL A   1      50.329  26.146  29.136  1.00  0.00     0.040 A 
ATOM     71  F   UNL A   1      48.690  27.266  27.884  1.00  0.00    -0.206 F 
ATOM     72  C   UNL A   1      50.724  25.484  30.297  1.00  0.00     0.006 A 
ENDBRANCH  51  65
BRANCH  52  73
ATOM     73  C   UNL A   1      38.541  29.157  28.995  1.00  0.00     0.057 A 
ATOM     74  C   UNL A   1      38.027  29.622  27.779  1.00  0.00     0.134 A 
ATOM     75  C   UNL A   1      37.668  29.101  30.087  1.00  0.00     0.134 A 
ATOM     76  F   UNL A   1      38.821  29.717  26.702  1.00  0.00    -0.206 F 
ATOM     77  C   UNL A   1      36.699  30.035  27.658  1.00  0.00     0.040 A 
ATOM     78  C   UNL A   1      36.332  29.488  29.974  1.00  0.00     0.040 A 
ATOM     79  F   UNL A   1      38.099  28.659  31.277  1.00  0.00    -0.206 F 
ATOM     80  C   UNL A   1      35.846  29.965  28.757  1.00  0.00     0.006 A 
ENDBRANCH  52  73
BRANCH  64  81
ATOM     81  C   UNL A   1      44.232  32.392  31.354  1.00  0.00     0.057 A 
ATOM     82  C   UNL A   1      44.169  32.675  32.725  1.00  0.00     0.134 A 
ATOM     83  C   UNL A   1      44.559  33.444  30.490  1.00  0.00     0.134 A 
ATOM     84  F   UNL A   1      43.847  31.713  33.603  1.00  0.00    -0.206 F 
ATOM     85  C   UNL A   1      44.405  33.961  33.214  1.00  0.00     0.040 A 
ATOM     86  C   UNL A   1      44.820  34.728  30.969  1.00  0.00     0.040 A 
ATOM     87  F   UNL A   1      44.644  33.238  29.167  1.00  0.00    -0.206 F 
ATOM     88  C   UNL A   1      44.738  34.990  32.335  1.00  0.00     0.006 A 
ENDBRANCH  64  81
ENDBRANCH  38  39
ENDBRANCH  30  33
ENDBRANCH  28  29
ENDBRANCH  27  28
ENDBRANCH  26  27
ENDBRANCH   1  26
TORSDOF 15
ENDMDL
MODEL 2
REMARK VINA RESULT:     -11.2      3.786      9.053
REMARK SMILES Cc1cc(C[N@H+]2CCN(C)C(=O)C2(C)C)oc1C(=O)NCCCCCCNC(=O)c1ccc(-c2c3nc(c(-c4c(F)cccc4F)c4ccc([nH]4)c(-c4c(F)cccc4F)c4nc(c(-c5c(F)cccc5F)c5ccc2[nH]5)C=C4)C=C3)cc1
REMARK SMILES IDX 23 1 22 2 21 3 20 4 18 5 19 6 17 8 1 9 2 10 3 11 4 12 16 13
REMARK SMILES IDX 5 14 6 15 7 16 13 17 8 19 11 20 14 21 15 22 9 23 12 24 10 25
REMARK SMILES IDX 24 26 25 27 26 28 27 29 28 30 29 32 30 33 31 34 83 35 32 36
REMARK SMILES IDX 82 37 33 38 34 39 35 40 76 41 36 42 81 43 75 44 77 45 37 46
REMARK SMILES IDX 80 47 74 48 73 49 38 51 64 52 47 53 63 54 48 55 51 56 62 57
REMARK SMILES IDX 78 58 49 59 50 60 61 62 79 63 52 64 39 65 40 66 45 67 41 68
REMARK SMILES IDX 42 69 44 70 46 71 43 72 65 73 66 74 71 75 67 76 68 77 70 78
REMARK SMILES IDX 72 79 69 80 53 81 54 82 59 83 55 84 56 85 58 86 60 87 57 88
REMARK H PARENT 20 7 6 18 27 31 77 50 51 61
REMARK Flexibility Score: inf
ROOT
ATOM      1  C   UNL A   1      31.811  29.666  26.747  1.00  0.00     0.002 C 
ENDROOT
BRANCH   1   2
ATOM      2  C   UNL A   1      33.313  29.494  26.996  1.00  0.00     0.021 C 
BRANCH   2   3
ATOM      3  C   UNL A   1      34.021  28.454  26.135  1.00  0.00     0.116 C 
BRANCH   3   4
ATOM      4  N   UNL A   1      34.154  28.832  24.752  1.00  0.00    -0.349 N 
ATOM      5  C   UNL A   1      33.675  28.198  23.625  1.00  0.00     0.287 C 
ATOM      6  O   UNL A   1      34.052  28.670  22.552  1.00  0.00    -0.266 OA
ATOM      7  H   UNL A   1      34.658  29.660  24.588  1.00  0.00     0.163 HD
BRANCH   5   8
ATOM      8  C   UNL A   1      32.812  27.026  23.708  1.00  0.00     0.194 A 
ATOM      9  C   UNL A   1      30.281  27.692  23.936  1.00  0.00     0.049 C 
ATOM     10  C   UNL A   1      31.444  26.781  23.805  1.00  0.00     0.001 A 
ATOM     11  C   UNL A   1      31.290  25.370  23.739  1.00  0.00     0.056 A 
ATOM     12  C   UNL A   1      32.546  24.818  23.738  1.00  0.00     0.159 A 
ATOM     13  O   UNL A   1      33.469  25.812  23.649  1.00  0.00    -0.450 OA
BRANCH  12  14
ATOM     14  C   UNL A   1      33.043  23.413  23.810  1.00  0.00     0.339 C 
BRANCH  14  15
ATOM     15  N   UNL A   1      32.921  22.728  25.116  1.00  0.00    -0.315 N 
ATOM     16  C   UNL A   1      31.916  21.656  25.097  1.00  0.00     0.285 C 
ATOM     17  C   UNL A   1      34.182  22.285  25.784  1.00  0.00     0.172 C 
ATOM     18  H   UNL A   1      32.594  23.483  25.719  1.00  0.00     0.349 HD
ATOM     19  C   UNL A   1      32.408  20.307  24.561  1.00  0.00     0.180 C 
ATOM     20  C   UNL A   1      34.740  20.961  25.167  1.00  0.00     0.283 C 
ATOM     21  C   UNL A   1      35.248  23.402  25.829  1.00  0.00     0.090 C 
ATOM     22  C   UNL A   1      33.911  21.940  27.274  1.00  0.00     0.090 C 
ATOM     23  N   UNL A   1      33.799  19.977  24.861  1.00  0.00    -0.335 N 
ATOM     24  O   UNL A   1      35.953  20.751  25.082  1.00  0.00    -0.268 OA
ATOM     25  C   UNL A   1      34.232  18.632  24.539  1.00  0.00     0.147 C 
ENDBRANCH  14  15
ENDBRANCH  12  14
ENDBRANCH   5   8
ENDBRANCH   3   4
ENDBRANCH   2   3
ENDBRANCH   1   2
BRANCH   1  26
ATOM     26  C   UNL A   1      31.378  30.852  25.879  1.00  0.00     0.002 C 
BRANCH  26  27
ATOM     27  C   UNL A   1      31.279  32.216  26.566  1.00  0.00     0.021 C 
BRANCH  27  28
ATOM     28  C   UNL A   1      32.596  32.919  26.877  1.00  0.00     0.116 C 
BRANCH  28  29
ATOM     29  N   UNL A   1      32.428  34.153  27.621  1.00  0.00    -0.352 N 
ATOM     30  C   UNL A   1      33.134  34.637  28.695  1.00  0.00     0.251 C 
ATOM     31  H   UNL A   1      31.698  34.733  27.307  1.00  0.00     0.163 HD
ATOM     32  O   UNL A   1      32.770  35.671  29.247  1.00  0.00    -0.269 OA
BRANCH  30  33
ATOM     33  C   UNL A   1      34.312  33.906  29.220  1.00  0.00     0.039 A 
ATOM     34  C   UNL A   1      35.586  34.388  28.906  1.00  0.00     0.014 A 
ATOM     35  C   UNL A   1      34.177  32.749  29.991  1.00  0.00     0.014 A 
ATOM     36  C   UNL A   1      36.721  33.750  29.417  1.00  0.00     0.010 A 
ATOM     37  C   UNL A   1      35.305  32.151  30.553  1.00  0.00     0.010 A 
ATOM     38  C   UNL A   1      36.587  32.646  30.273  1.00  0.00    -0.014 A 
BRANCH  38  39
ATOM     39  C   UNL A   1      37.778  32.002  30.887  1.00  0.00     0.031 A 
ATOM     40  C   UNL A   1      38.521  30.919  30.155  1.00  0.00     0.074 A 
ATOM     41  C   UNL A   1      38.156  32.351  32.133  1.00  0.00     0.049 A 
ATOM     42  N   UNL A   1      39.532  30.191  30.557  1.00  0.00    -0.248 NA
ATOM     43  C   UNL A   1      38.049  30.594  28.799  1.00  0.00     0.031 C 
ATOM     44  C   UNL A   1      37.498  33.358  32.966  1.00  0.00     0.029 A 
ATOM     45  N   UNL A   1      39.181  31.887  32.920  1.00  0.00    -0.354 N 
ATOM     46  C   UNL A   1      39.806  29.314  29.515  1.00  0.00     0.074 A 
ATOM     47  C   UNL A   1      38.828  29.572  28.479  1.00  0.00     0.031 C 
ATOM     48  C   UNL A   1      38.143  33.447  34.141  1.00  0.00     0.029 A 
ATOM     49  C   UNL A   1      39.237  32.481  34.158  1.00  0.00     0.049 A 
ATOM     50  H   UNL A   1      39.814  31.193  32.626  1.00  0.00     0.167 HD
ATOM     51  C   UNL A   1      40.795  28.394  29.421  1.00  0.00     0.037 A 
ATOM     52  C   UNL A   1      40.071  32.267  35.193  1.00  0.00     0.037 A 
ATOM     53  C   UNL A   1      41.786  28.158  30.438  1.00  0.00     0.049 A 
ATOM     54  C   UNL A   1      41.160  31.237  35.062  1.00  0.00     0.074 A 
ATOM     55  C   UNL A   1      42.861  27.287  30.408  1.00  0.00     0.029 A 
ATOM     56  N   UNL A   1      41.822  28.796  31.668  1.00  0.00    -0.354 N 
ATOM     57  N   UNL A   1      41.443  30.459  34.047  1.00  0.00    -0.248 NA
ATOM     58  C   UNL A   1      42.047  31.062  36.221  1.00  0.00     0.031 C 
ATOM     59  C   UNL A   1      43.527  27.372  31.636  1.00  0.00     0.029 A 
ATOM     60  C   UNL A   1      42.892  28.326  32.412  1.00  0.00     0.049 A 
ATOM     61  H   UNL A   1      41.183  29.483  31.968  1.00  0.00     0.167 HD
ATOM     62  C   UNL A   1      42.557  29.724  34.432  1.00  0.00     0.074 A 
ATOM     63  C   UNL A   1      42.904  30.157  35.769  1.00  0.00     0.031 C 
ATOM     64  C   UNL A   1      43.231  28.775  33.738  1.00  0.00     0.037 A 
BRANCH  51  65
ATOM     65  C   UNL A   1      40.859  27.572  28.167  1.00  0.00     0.057 A 
ATOM     66  C   UNL A   1      41.611  27.976  27.057  1.00  0.00     0.134 A 
ATOM     67  C   UNL A   1      40.193  26.342  28.082  1.00  0.00     0.134 A 
ATOM     68  F   UNL A   1      42.264  29.148  27.069  1.00  0.00    -0.206 F 
ATOM     69  C   UNL A   1      41.682  27.199  25.900  1.00  0.00     0.040 A 
ATOM     70  C   UNL A   1      40.277  25.544  26.940  1.00  0.00     0.040 A 
ATOM     71  F   UNL A   1      39.460  25.891  29.112  1.00  0.00    -0.206 F 
ATOM     72  C   UNL A   1      41.019  25.974  25.842  1.00  0.00     0.006 A 
ENDBRANCH  51  65
BRANCH  52  73
ATOM     73  C   UNL A   1      39.924  33.056  36.442  1.00  0.00     0.057 A 
ATOM     74  C   UNL A   1      38.996  32.683  37.422  1.00  0.00     0.134 A 
ATOM     75  C   UNL A   1      40.692  34.201  36.679  1.00  0.00     0.134 A 
ATOM     76  F   UNL A   1      38.218  31.606  37.241  1.00  0.00    -0.206 F 
ATOM     77  C   UNL A   1      38.825  33.433  38.587  1.00  0.00     0.040 A 
ATOM     78  C   UNL A   1      40.547  34.946  37.850  1.00  0.00     0.040 A 
ATOM     79  F   UNL A   1      41.601  34.606  35.781  1.00  0.00    -0.206 F 
ATOM     80  C   UNL A   1      39.606  34.566  38.806  1.00  0.00     0.006 A 
ENDBRANCH  52  73
BRANCH  64  81
ATOM     81  C   UNL A   1      44.436  28.168  34.396  1.00  0.00     0.057 A 
ATOM     82  C   UNL A   1      44.351  26.992  35.153  1.00  0.00     0.134 A 
ATOM     83  C   UNL A   1      45.700  28.749  34.239  1.00  0.00     0.134 A 
ATOM     84  F   UNL A   1      43.166  26.397  35.352  1.00  0.00    -0.206 F 
ATOM     85  C   UNL A   1      45.480  26.426  35.745  1.00  0.00     0.040 A 
ATOM     86  C   UNL A   1      46.840  28.178  34.807  1.00  0.00     0.040 A 
ATOM     87  F   UNL A   1      45.851  29.871  33.520  1.00  0.00    -0.206 F 
ATOM     88  C   UNL A   1      46.730  27.016  35.566  1.00  0.00     0.006 A 
ENDBRANCH  64  81
ENDBRANCH  38  39
ENDBRANCH  30  33
ENDBRANCH  28  29
ENDBRANCH  27  28
ENDBRANCH  26  27
ENDBRANCH   1  26
TORSDOF 15
ENDMDL
MODEL 3
REMARK VINA RESULT:     -10.9      1.749      6.404
REMARK SMILES Cc1cc(C[N@H+]2CCN(C)C(=O)C2(C)C)oc1C(=O)NCCCCCCNC(=O)c1ccc(-c2c3nc(c(-c4c(F)cccc4F)c4ccc([nH]4)c(-c4c(F)cccc4F)c4nc(c(-c5c(F)cccc5F)c5ccc2[nH]5)C=C4)C=C3)cc1
REMARK SMILES IDX 23 1 22 2 21 3 20 4 18 5 19 6 17 8 1 9 2 10 3 11 4 12 16 13
REMARK SMILES IDX 5 14 6 15 7 16 13 17 8 19 11 20 14 21 15 22 9 23 12 24 10 25
REMARK SMILES IDX 24 26 25 27 26 28 27 29 28 30 29 32 30 33 31 34 83 35 32 36
REMARK SMILES IDX 82 37 33 38 34 39 35 40 76 41 36 42 81 43 75 44 77 45 37 46
REMARK SMILES IDX 80 47 74 48 73 49 38 51 64 52 47 53 63 54 48 55 51 56 62 57
REMARK SMILES IDX 78 58 49 59 50 60 61 62 79 63 52 64 39 65 40 66 45 67 41 68
REMARK SMILES IDX 42 69 44 70 46 71 43 72 65 73 66 74 71 75 67 76 68 77 70 78
REMARK SMILES IDX 72 79 69 80 53 81 54 82 59 83 55 84 56 85 58 86 60 87 57 88
REMARK H PARENT 20 7 6 18 27 31 77 50 51 61
REMARK Flexibility Score: inf
ROOT
ATOM      1  C   UNL A   1      37.316  22.363  25.216  1.00  0.00     0.002 C 
ENDROOT
BRANCH   1   2
ATOM      2  C   UNL A   1      35.939  22.677  25.810  1.00  0.00     0.021 C 
BRANCH   2   3
ATOM      3  C   UNL A   1      35.069  21.475  26.160  1.00  0.00     0.116 C 
BRANCH   3   4
ATOM      4  N   UNL A   1      34.214  21.684  27.299  1.00  0.00    -0.349 N 
ATOM      5  C   UNL A   1      33.002  22.337  27.371  1.00  0.00     0.287 C 
ATOM      6  O   UNL A   1      32.547  22.486  28.506  1.00  0.00    -0.266 OA
ATOM      7  H   UNL A   1      34.542  21.308  28.148  1.00  0.00     0.163 HD
BRANCH   5   8
ATOM      8  C   UNL A   1      32.329  22.846  26.184  1.00  0.00     0.194 A 
ATOM      9  C   UNL A   1      32.154  21.020  24.303  1.00  0.00     0.049 C 
ATOM     10  C   UNL A   1      31.945  22.341  24.942  1.00  0.00     0.001 A 
ATOM     11  C   UNL A   1      31.225  23.384  24.298  1.00  0.00     0.056 A 
ATOM     12  C   UNL A   1      31.310  24.497  25.094  1.00  0.00     0.159 A 
ATOM     13  O   UNL A   1      31.915  24.162  26.265  1.00  0.00    -0.450 OA
BRANCH  12  14
ATOM     14  C   UNL A   1      30.883  25.915  24.915  1.00  0.00     0.339 C 
BRANCH  14  15
ATOM     15  N   UNL A   1      31.638  26.721  23.930  1.00  0.00    -0.315 N 
ATOM     16  C   UNL A   1      30.876  26.961  22.697  1.00  0.00     0.285 C 
ATOM     17  C   UNL A   1      32.297  27.969  24.419  1.00  0.00     0.172 C 
ATOM     18  H   UNL A   1      32.428  26.109  23.722  1.00  0.00     0.349 HD
ATOM     19  C   UNL A   1      29.902  28.143  22.750  1.00  0.00     0.180 C 
ATOM     20  C   UNL A   1      31.282  29.148  24.572  1.00  0.00     0.283 C 
ATOM     21  C   UNL A   1      33.118  27.736  25.707  1.00  0.00     0.090 C 
ATOM     22  C   UNL A   1      33.333  28.475  23.379  1.00  0.00     0.090 C 
ATOM     23  N   UNL A   1      30.333  29.282  23.557  1.00  0.00    -0.335 N 
ATOM     24  O   UNL A   1      31.400  29.990  25.467  1.00  0.00    -0.268 OA
ATOM     25  C   UNL A   1      29.528  30.484  23.468  1.00  0.00     0.147 C 
ENDBRANCH  14  15
ENDBRANCH  12  14
ENDBRANCH   5   8
ENDBRANCH   3   4
ENDBRANCH   2   3
ENDBRANCH   1   2
BRANCH   1  26
ATOM     26  C   UNL A   1      37.407  21.177  24.251  1.00  0.00     0.002 C 
BRANCH  26  27
ATOM     27  C   UNL A   1      38.058  19.898  24.781  1.00  0.00     0.021 C 
BRANCH  27  28
ATOM     28  C   UNL A   1      39.084  20.068  25.896  1.00  0.00     0.116 C 
BRANCH  28  29
ATOM     29  N   UNL A   1      40.131  19.064  25.875  1.00  0.00    -0.352 N 
ATOM     30  C   UNL A   1      41.485  19.199  26.062  1.00  0.00     0.251 C 
ATOM     31  H   UNL A   1      39.823  18.146  25.701  1.00  0.00     0.163 HD
ATOM     32  O   UNL A   1      42.220  18.228  25.909  1.00  0.00    -0.269 OA
BRANCH  30  33
ATOM     33  C   UNL A   1      42.074  20.512  26.414  1.00  0.00     0.039 A 
ATOM     34  C   UNL A   1      42.459  21.367  25.376  1.00  0.00     0.014 A 
ATOM     35  C   UNL A   1      42.273  20.898  27.742  1.00  0.00     0.014 A 
ATOM     36  C   UNL A   1      42.980  22.631  25.667  1.00  0.00     0.010 A 
ATOM     37  C   UNL A   1      42.732  22.183  28.032  1.00  0.00     0.010 A 
ATOM     38  C   UNL A   1      43.090  23.062  26.998  1.00  0.00    -0.014 A 
BRANCH  38  39
ATOM     39  C   UNL A   1      43.569  24.431  27.325  1.00  0.00     0.031 A 
ATOM     40  C   UNL A   1      42.602  25.486  27.785  1.00  0.00     0.074 A 
ATOM     41  C   UNL A   1      44.869  24.741  27.150  1.00  0.00     0.049 A 
ATOM     42  N   UNL A   1      42.819  26.751  28.043  1.00  0.00    -0.248 NA
ATOM     43  C   UNL A   1      41.201  25.071  27.953  1.00  0.00     0.031 C 
ATOM     44  C   UNL A   1      45.902  23.821  26.672  1.00  0.00     0.029 A 
ATOM     45  N   UNL A   1      45.541  25.923  27.342  1.00  0.00    -0.354 N 
ATOM     46  C   UNL A   1      41.584  27.285  28.388  1.00  0.00     0.074 A 
ATOM     47  C   UNL A   1      40.614  26.218  28.264  1.00  0.00     0.031 C 
ATOM     48  C   UNL A   1      47.078  24.467  26.623  1.00  0.00     0.029 A 
ATOM     49  C   UNL A   1      46.877  25.854  27.032  1.00  0.00     0.049 A 
ATOM     50  H   UNL A   1      45.105  26.742  27.671  1.00  0.00     0.167 HD
ATOM     51  C   UNL A   1      41.288  28.544  28.791  1.00  0.00     0.037 A 
ATOM     52  C   UNL A   1      47.832  26.802  27.065  1.00  0.00     0.037 A 
ATOM     53  C   UNL A   1      42.257  29.598  28.943  1.00  0.00     0.049 A 
ATOM     54  C   UNL A   1      47.476  28.192  27.515  1.00  0.00     0.074 A 
ATOM     55  C   UNL A   1      42.060  30.889  29.401  1.00  0.00     0.029 A 
ATOM     56  N   UNL A   1      43.604  29.481  28.639  1.00  0.00    -0.354 N 
ATOM     57  N   UNL A   1      46.315  28.665  27.895  1.00  0.00    -0.248 NA
ATOM     58  C   UNL A   1      48.567  29.178  27.545  1.00  0.00     0.031 C 
ATOM     59  C   UNL A   1      43.284  31.566  29.339  1.00  0.00     0.029 A 
ATOM     60  C   UNL A   1      44.249  30.683  28.884  1.00  0.00     0.049 A 
ATOM     61  H   UNL A   1      44.039  28.666  28.300  1.00  0.00     0.167 HD
ATOM     62  C   UNL A   1      46.540  29.993  28.237  1.00  0.00     0.074 A 
ATOM     63  C   UNL A   1      47.950  30.247  28.029  1.00  0.00     0.031 C 
ATOM     64  C   UNL A   1      45.655  30.918  28.683  1.00  0.00     0.037 A 
BRANCH  51  65
ATOM     65  C   UNL A   1      39.852  28.852  29.103  1.00  0.00     0.057 A 
ATOM     66  C   UNL A   1      38.948  29.243  28.108  1.00  0.00     0.134 A 
ATOM     67  C   UNL A   1      39.359  28.717  30.407  1.00  0.00     0.134 A 
ATOM     68  F   UNL A   1      39.358  29.401  26.840  1.00  0.00    -0.206 F 
ATOM     69  C   UNL A   1      37.610  29.510  28.401  1.00  0.00     0.040 A 
ATOM     70  C   UNL A   1      38.017  28.956  30.708  1.00  0.00     0.040 A 
ATOM     71  F   UNL A   1      40.170  28.339  31.407  1.00  0.00    -0.206 F 
ATOM     72  C   UNL A   1      37.139  29.360  29.704  1.00  0.00     0.006 A 
ENDBRANCH  51  65
BRANCH  52  73
ATOM     73  C   UNL A   1      49.226  26.468  26.678  1.00  0.00     0.057 A 
ATOM     74  C   UNL A   1      50.135  25.973  27.620  1.00  0.00     0.134 A 
ATOM     75  C   UNL A   1      49.684  26.644  25.367  1.00  0.00     0.134 A 
ATOM     76  F   UNL A   1      49.759  25.802  28.896  1.00  0.00    -0.206 F 
ATOM     77  C   UNL A   1      51.457  25.683  27.277  1.00  0.00     0.040 A 
ATOM     78  C   UNL A   1      50.996  26.336  25.005  1.00  0.00     0.040 A 
ATOM     79  F   UNL A   1      48.859  27.109  24.418  1.00  0.00    -0.206 F 
ATOM     80  C   UNL A   1      51.889  25.861  25.964  1.00  0.00     0.006 A 
ENDBRANCH  52  73
BRANCH  64  81
ATOM     81  C   UNL A   1      46.193  32.279  29.015  1.00  0.00     0.057 A 
ATOM     82  C   UNL A   1      46.222  33.312  28.070  1.00  0.00     0.134 A 
ATOM     83  C   UNL A   1      46.653  32.567  30.306  1.00  0.00     0.134 A 
ATOM     84  F   UNL A   1      45.809  33.095  26.812  1.00  0.00    -0.206 F 
ATOM     85  C   UNL A   1      46.707  34.580  28.394  1.00  0.00     0.040 A 
ATOM     86  C   UNL A   1      47.117  33.838  30.647  1.00  0.00     0.040 A 
ATOM     87  F   UNL A   1      46.644  31.623  31.259  1.00  0.00    -0.206 F 
ATOM     88  C   UNL A   1      47.150  34.847  29.688  1.00  0.00     0.006 A 
ENDBRANCH  64  81
ENDBRANCH  38  39
ENDBRANCH  30  33
ENDBRANCH  28  29
ENDBRANCH  27  28
ENDBRANCH  26  27
ENDBRANCH   1  26
TORSDOF 15
ENDMDL
