MODEL 1
REMARK VINA RESULT:     -11.3      0.000      0.000
REMARK SMILES O=C1C[N@@H+](Cc2ccc(C(=O)NCCCCCCNC(=O)c3ccc(-c4c5nc(c(-c6c(F)cccc6F)c6ccc([nH]6)c(-c6c(F)cccc6F)c6nc(c(-c7c(F)cccc7F)c7ccc4[nH]7)C=C6)C=C5)cc3)cc2)CCN1
REMARK SMILES IDX 15 1 14 2 13 3 12 4 10 5 11 6 9 8 6 9 7 10 77 11 8 12 76 13
REMARK SMILES IDX 5 14 4 15 1 16 2 17 3 18 80 19 79 20 78 22 16 24 17 25 18 26
REMARK SMILES IDX 19 27 20 28 21 30 22 31 23 32 75 33 24 34 74 35 25 36 26 37
REMARK SMILES IDX 27 38 68 39 28 40 73 41 67 42 69 43 29 44 72 45 66 46 65 47
REMARK SMILES IDX 30 49 56 50 39 51 55 52 40 53 43 54 54 55 70 56 41 57 42 58
REMARK SMILES IDX 53 60 71 61 44 62 31 63 32 64 37 65 33 66 34 67 36 68 38 69
REMARK SMILES IDX 35 70 57 71 58 72 63 73 59 74 60 75 62 76 64 77 61 78 45 79
REMARK SMILES IDX 46 80 51 81 47 82 48 83 50 84 52 85 49 86
REMARK H PARENT 12 7 80 21 4 23 19 29 69 48 43 59
REMARK Flexibility Score: inf
ROOT
ATOM      1  C   UNL A   1      33.218  27.094  26.115  1.00  0.00     0.002 C 
ENDROOT
BRANCH   1   2
ATOM      2  C   UNL A   1      33.335  25.573  25.939  1.00  0.00     0.021 C 
BRANCH   2   3
ATOM      3  C   UNL A   1      32.048  24.822  26.283  1.00  0.00     0.116 C 
BRANCH   3   4
ATOM      4  N   UNL A   1      31.743  23.850  25.248  1.00  0.00    -0.352 N 
ATOM      5  C   UNL A   1      31.149  23.997  24.020  1.00  0.00     0.251 C 
ATOM      6  O   UNL A   1      31.014  23.014  23.297  1.00  0.00    -0.269 OA
ATOM      7  H   UNL A   1      32.009  22.927  25.465  1.00  0.00     0.163 HD
BRANCH   5   8
ATOM      8  C   UNL A   1      30.757  25.335  23.520  1.00  0.00     0.039 A 
ATOM      9  C   UNL A   1      30.301  27.998  22.788  1.00  0.00     0.006 A 
ATOM     10  C   UNL A   1      31.432  27.319  22.315  1.00  0.00     0.010 A 
ATOM     11  C   UNL A   1      29.334  27.287  23.515  1.00  0.00     0.010 A 
ATOM     12  C   UNL A   1      31.660  25.994  22.682  1.00  0.00     0.014 A 
ATOM     13  C   UNL A   1      29.557  25.956  23.872  1.00  0.00     0.014 A 
BRANCH   9  14
ATOM     14  C   UNL A   1      30.143  29.480  22.555  1.00  0.00     0.299 C 
BRANCH  14  15
ATOM     15  N   UNL A   1      28.840  30.064  22.884  1.00  0.00    -0.322 N 
ATOM     16  O   UNL A   1      27.578  31.763  19.904  1.00  0.00    -0.269 OA
ATOM     17  C   UNL A   1      27.964  31.600  21.061  1.00  0.00     0.275 C 
ATOM     18  C   UNL A   1      27.915  30.233  21.750  1.00  0.00     0.363 C 
ATOM     19  N   UNL A   1      28.335  32.685  21.805  1.00  0.00    -0.346 N 
ATOM     20  C   UNL A   1      28.986  32.590  23.089  1.00  0.00     0.177 C 
ATOM     21  H   UNL A   1      28.149  33.583  21.444  1.00  0.00     0.163 HD
ATOM     22  C   UNL A   1      28.834  31.224  23.776  1.00  0.00     0.284 C 
ATOM     23  H   UNL A   1      28.458  29.309  23.454  1.00  0.00     0.348 HD
ENDBRANCH  14  15
ENDBRANCH   9  14
ENDBRANCH   5   8
ENDBRANCH   3   4
ENDBRANCH   2   3
ENDBRANCH   1   2
BRANCH   1  24
ATOM     24  C   UNL A   1      31.853  27.581  26.613  1.00  0.00     0.002 C 
BRANCH  24  25
ATOM     25  C   UNL A   1      31.404  28.930  26.046  1.00  0.00     0.021 C 
BRANCH  25  26
ATOM     26  C   UNL A   1      32.541  29.912  25.781  1.00  0.00     0.116 C 
BRANCH  26  27
ATOM     27  N   UNL A   1      32.175  31.275  26.131  1.00  0.00    -0.352 N 
ATOM     28  C   UNL A   1      32.737  32.115  27.061  1.00  0.00     0.251 C 
ATOM     29  H   UNL A   1      31.415  31.650  25.630  1.00  0.00     0.163 HD
ATOM     30  O   UNL A   1      32.171  33.154  27.379  1.00  0.00    -0.269 OA
BRANCH  28  31
ATOM     31  C   UNL A   1      34.024  31.754  27.690  1.00  0.00     0.039 A 
ATOM     32  C   UNL A   1      34.939  32.766  27.991  1.00  0.00     0.014 A 
ATOM     33  C   UNL A   1      34.330  30.420  27.975  1.00  0.00     0.014 A 
ATOM     34  C   UNL A   1      36.137  32.445  28.633  1.00  0.00     0.010 A 
ATOM     35  C   UNL A   1      35.489  30.111  28.681  1.00  0.00     0.010 A 
ATOM     36  C   UNL A   1      36.406  31.120  29.013  1.00  0.00    -0.014 A 
BRANCH  36  37
ATOM     37  C   UNL A   1      37.641  30.769  29.759  1.00  0.00     0.031 A 
ATOM     38  C   UNL A   1      38.690  29.904  29.119  1.00  0.00     0.074 A 
ATOM     39  C   UNL A   1      37.787  31.177  31.034  1.00  0.00     0.049 A 
ATOM     40  N   UNL A   1      39.800  29.434  29.631  1.00  0.00    -0.248 NA
ATOM     41  C   UNL A   1      38.448  29.488  27.729  1.00  0.00     0.031 C 
ATOM     42  C   UNL A   1      36.821  31.985  31.781  1.00  0.00     0.029 A 
ATOM     43  N   UNL A   1      38.801  30.958  31.932  1.00  0.00    -0.354 N 
ATOM     44  C   UNL A   1      40.380  28.662  28.632  1.00  0.00     0.074 A 
ATOM     45  C   UNL A   1      39.471  28.678  27.506  1.00  0.00     0.031 C 
ATOM     46  C   UNL A   1      37.300  32.216  33.013  1.00  0.00     0.029 A 
ATOM     47  C   UNL A   1      38.585  31.539  33.160  1.00  0.00     0.049 A 
ATOM     48  H   UNL A   1      39.608  30.436  31.719  1.00  0.00     0.167 HD
ATOM     49  C   UNL A   1      41.572  28.020  28.643  1.00  0.00     0.037 A 
ATOM     50  C   UNL A   1      39.334  31.520  34.278  1.00  0.00     0.037 A 
ATOM     51  C   UNL A   1      42.480  28.021  29.760  1.00  0.00     0.049 A 
ATOM     52  C   UNL A   1      40.642  30.779  34.273  1.00  0.00     0.074 A 
ATOM     53  C   UNL A   1      43.735  27.444  29.852  1.00  0.00     0.029 A 
ATOM     54  N   UNL A   1      42.228  28.624  30.983  1.00  0.00    -0.354 N 
ATOM     55  N   UNL A   1      41.208  30.107  33.300  1.00  0.00    -0.248 NA
ATOM     56  C   UNL A   1      41.418  30.798  35.521  1.00  0.00     0.031 C 
ATOM     57  C   UNL A   1      44.220  27.653  31.147  1.00  0.00     0.029 A 
ATOM     58  C   UNL A   1      43.292  28.410  31.845  1.00  0.00     0.049 A 
ATOM     59  H   UNL A   1      41.413  29.130  31.206  1.00  0.00     0.167 HD
ATOM     60  C   UNL A   1      42.419  29.651  33.806  1.00  0.00     0.074 A 
ATOM     61  C   UNL A   1      42.510  30.134  35.169  1.00  0.00     0.031 C 
ATOM     62  C   UNL A   1      43.370  28.902  33.198  1.00  0.00     0.037 A 
BRANCH  49  63
ATOM     63  C   UNL A   1      41.960  27.261  27.405  1.00  0.00     0.057 A 
ATOM     64  C   UNL A   1      42.627  27.876  26.337  1.00  0.00     0.134 A 
ATOM     65  C   UNL A   1      41.685  25.892  27.290  1.00  0.00     0.134 A 
ATOM     66  F   UNL A   1      42.911  29.186  26.377  1.00  0.00    -0.206 F 
ATOM     67  C   UNL A   1      42.978  27.166  25.187  1.00  0.00     0.040 A 
ATOM     68  C   UNL A   1      42.058  25.164  26.157  1.00  0.00     0.040 A 
ATOM     69  F   UNL A   1      41.055  25.237  28.276  1.00  0.00    -0.206 F 
ATOM     70  C   UNL A   1      42.698  25.804  25.098  1.00  0.00     0.006 A 
ENDBRANCH  49  63
BRANCH  50  71
ATOM     71  C   UNL A   1      38.875  32.244  35.491  1.00  0.00     0.057 A 
ATOM     72  C   UNL A   1      39.151  33.606  35.665  1.00  0.00     0.134 A 
ATOM     73  C   UNL A   1      38.159  31.598  36.505  1.00  0.00     0.134 A 
ATOM     74  F   UNL A   1      39.849  34.276  34.737  1.00  0.00    -0.206 F 
ATOM     75  C   UNL A   1      38.748  34.294  36.810  1.00  0.00     0.040 A 
ATOM     76  C   UNL A   1      37.727  32.279  37.644  1.00  0.00     0.040 A 
ATOM     77  F   UNL A   1      37.855  30.296  36.396  1.00  0.00    -0.206 F 
ATOM     78  C   UNL A   1      38.029  33.630  37.802  1.00  0.00     0.006 A 
ENDBRANCH  50  71
BRANCH  62  79
ATOM     79  C   UNL A   1      44.609  28.589  33.986  1.00  0.00     0.057 A 
ATOM     80  C   UNL A   1      45.728  29.431  33.975  1.00  0.00     0.134 A 
ATOM     81  C   UNL A   1      44.666  27.449  34.799  1.00  0.00     0.134 A 
ATOM     82  F   UNL A   1      45.744  30.532  33.208  1.00  0.00    -0.206 F 
ATOM     83  C   UNL A   1      46.868  29.137  34.725  1.00  0.00     0.040 A 
ATOM     84  C   UNL A   1      45.789  27.161  35.576  1.00  0.00     0.040 A 
ATOM     85  F   UNL A   1      43.626  26.605  34.863  1.00  0.00    -0.206 F 
ATOM     86  C   UNL A   1      46.897  28.004  35.535  1.00  0.00     0.006 A 
ENDBRANCH  62  79
ENDBRANCH  36  37
ENDBRANCH  28  31
ENDBRANCH  26  27
ENDBRANCH  25  26
ENDBRANCH  24  25
ENDBRANCH   1  24
TORSDOF 15
ENDMDL
MODEL 2
REMARK VINA RESULT:     -11.2      5.118     10.726
REMARK SMILES O=C1C[N@@H+](Cc2ccc(C(=O)NCCCCCCNC(=O)c3ccc(-c4c5nc(c(-c6c(F)cccc6F)c6ccc([nH]6)c(-c6c(F)cccc6F)c6nc(c(-c7c(F)cccc7F)c7ccc4[nH]7)C=C6)C=C5)cc3)cc2)CCN1
REMARK SMILES IDX 15 1 14 2 13 3 12 4 10 5 11 6 9 8 6 9 7 10 77 11 8 12 76 13
REMARK SMILES IDX 5 14 4 15 1 16 2 17 3 18 80 19 79 20 78 22 16 24 17 25 18 26
REMARK SMILES IDX 19 27 20 28 21 30 22 31 23 32 75 33 24 34 74 35 25 36 26 37
REMARK SMILES IDX 27 38 68 39 28 40 73 41 67 42 69 43 29 44 72 45 66 46 65 47
REMARK SMILES IDX 30 49 56 50 39 51 55 52 40 53 43 54 54 55 70 56 41 57 42 58
REMARK SMILES IDX 53 60 71 61 44 62 31 63 32 64 37 65 33 66 34 67 36 68 38 69
REMARK SMILES IDX 35 70 57 71 58 72 63 73 59 74 60 75 62 76 64 77 61 78 45 79
REMARK SMILES IDX 46 80 51 81 47 82 48 83 50 84 52 85 49 86
REMARK H PARENT 12 7 80 21 4 23 19 29 69 48 43 59
REMARK Flexibility Score: inf
ROOT
ATOM      1  C   UNL A   1      35.327  33.597  33.411  1.00  0.00     0.002 C 
ENDROOT
BRANCH   1   2
ATOM      2  C   UNL A   1      36.262  33.565  34.628  1.00  0.00     0.021 C 
BRANCH   2   3
ATOM      3  C   UNL A   1      37.324  32.467  34.549  1.00  0.00     0.116 C 
BRANCH   3   4
ATOM      4  N   UNL A   1      36.863  31.384  33.698  1.00  0.00    -0.352 N 
ATOM      5  C   UNL A   1      37.497  30.249  33.261  1.00  0.00     0.251 C 
ATOM      6  O   UNL A   1      36.887  29.455  32.551  1.00  0.00    -0.269 OA
ATOM      7  H   UNL A   1      35.937  31.482  33.379  1.00  0.00     0.163 HD
BRANCH   5   8
ATOM      8  C   UNL A   1      38.871  29.925  33.710  1.00  0.00     0.039 A 
ATOM      9  C   UNL A   1      41.326  28.972  34.660  1.00  0.00     0.006 A 
ATOM     10  C   UNL A   1      40.778  28.456  33.477  1.00  0.00     0.010 A 
ATOM     11  C   UNL A   1      40.700  30.062  35.281  1.00  0.00     0.010 A 
ATOM     12  C   UNL A   1      39.555  28.929  33.006  1.00  0.00     0.014 A 
ATOM     13  C   UNL A   1      39.480  30.544  34.802  1.00  0.00     0.014 A 
BRANCH   9  14
ATOM     14  C   UNL A   1      42.548  28.339  35.278  1.00  0.00     0.299 C 
BRANCH  14  15
ATOM     15  N   UNL A   1      42.354  27.634  36.549  1.00  0.00    -0.322 N 
ATOM     16  O   UNL A   1      45.011  25.147  36.878  1.00  0.00    -0.269 OA
ATOM     17  C   UNL A   1      43.877  25.618  36.795  1.00  0.00     0.275 C 
ATOM     18  C   UNL A   1      43.573  27.074  37.156  1.00  0.00     0.363 C 
ATOM     19  N   UNL A   1      42.828  24.795  36.490  1.00  0.00    -0.346 N 
ATOM     20  C   UNL A   1      41.503  25.272  36.173  1.00  0.00     0.177 C 
ATOM     21  H   UNL A   1      42.986  23.823  36.485  1.00  0.00     0.163 HD
ATOM     22  C   UNL A   1      41.222  26.711  36.634  1.00  0.00     0.284 C 
ATOM     23  H   UNL A   1      42.078  28.422  37.136  1.00  0.00     0.348 HD
ENDBRANCH  14  15
ENDBRANCH   9  14
ENDBRANCH   5   8
ENDBRANCH   3   4
ENDBRANCH   2   3
ENDBRANCH   1   2
BRANCH   1  24
ATOM     24  C   UNL A   1      35.107  34.987  32.805  1.00  0.00     0.002 C 
BRANCH  24  25
ATOM     25  C   UNL A   1      33.689  35.251  32.292  1.00  0.00     0.021 C 
BRANCH  25  26
ATOM     26  C   UNL A   1      33.622  36.142  31.056  1.00  0.00     0.116 C 
BRANCH  26  27
ATOM     27  N   UNL A   1      32.879  35.514  29.974  1.00  0.00    -0.352 N 
ATOM     28  C   UNL A   1      33.282  34.542  29.092  1.00  0.00     0.251 C 
ATOM     29  H   UNL A   1      31.955  35.833  29.856  1.00  0.00     0.163 HD
ATOM     30  O   UNL A   1      32.602  34.280  28.108  1.00  0.00    -0.269 OA
BRANCH  28  31
ATOM     31  C   UNL A   1      34.550  33.820  29.327  1.00  0.00     0.039 A 
ATOM     32  C   UNL A   1      35.738  34.358  28.828  1.00  0.00     0.014 A 
ATOM     33  C   UNL A   1      34.564  32.612  30.032  1.00  0.00     0.014 A 
ATOM     34  C   UNL A   1      36.950  33.714  29.087  1.00  0.00     0.010 A 
ATOM     35  C   UNL A   1      35.778  32.013  30.353  1.00  0.00     0.010 A 
ATOM     36  C   UNL A   1      36.982  32.555  29.880  1.00  0.00    -0.014 A 
BRANCH  36  37
ATOM     37  C   UNL A   1      38.267  31.895  30.226  1.00  0.00     0.031 A 
ATOM     38  C   UNL A   1      39.224  32.556  31.179  1.00  0.00     0.074 A 
ATOM     39  C   UNL A   1      38.599  30.733  29.633  1.00  0.00     0.049 A 
ATOM     40  N   UNL A   1      40.419  32.172  31.550  1.00  0.00    -0.248 NA
ATOM     41  C   UNL A   1      38.792  33.831  31.771  1.00  0.00     0.031 C 
ATOM     42  C   UNL A   1      37.776  30.013  28.659  1.00  0.00     0.029 A 
ATOM     43  N   UNL A   1      39.723  29.956  29.755  1.00  0.00    -0.354 N 
ATOM     44  C   UNL A   1      40.883  33.160  32.409  1.00  0.00     0.074 A 
ATOM     45  C   UNL A   1      39.868  34.189  32.456  1.00  0.00     0.031 C 
ATOM     46  C   UNL A   1      38.410  28.889  28.293  1.00  0.00     0.029 A 
ATOM     47  C   UNL A   1      39.701  28.827  28.970  1.00  0.00     0.049 A 
ATOM     48  H   UNL A   1      40.475  30.184  30.348  1.00  0.00     0.167 HD
ATOM     49  C   UNL A   1      42.040  33.194  33.113  1.00  0.00     0.037 A 
ATOM     50  C   UNL A   1      40.621  27.858  28.810  1.00  0.00     0.037 A 
ATOM     51  C   UNL A   1      43.041  32.160  33.075  1.00  0.00     0.049 A 
ATOM     52  C   UNL A   1      41.908  27.931  29.583  1.00  0.00     0.074 A 
ATOM     53  C   UNL A   1      44.222  32.077  33.790  1.00  0.00     0.029 A 
ATOM     54  N   UNL A   1      42.979  31.031  32.272  1.00  0.00    -0.354 N 
ATOM     55  N   UNL A   1      42.306  28.840  30.441  1.00  0.00    -0.248 NA
ATOM     56  C   UNL A   1      42.871  26.842  29.371  1.00  0.00     0.031 C 
ATOM     57  C   UNL A   1      44.901  30.924  33.382  1.00  0.00     0.029 A 
ATOM     58  C   UNL A   1      44.115  30.258  32.454  1.00  0.00     0.049 A 
ATOM     59  H   UNL A   1      42.238  30.810  31.663  1.00  0.00     0.167 HD
ATOM     60  C   UNL A   1      43.550  28.417  30.893  1.00  0.00     0.074 A 
ATOM     61  C   UNL A   1      43.833  27.164  30.224  1.00  0.00     0.031 C 
ATOM     62  C   UNL A   1      44.381  29.010  31.784  1.00  0.00     0.037 A 
BRANCH  49  63
ATOM     63  C   UNL A   1      42.283  34.394  33.984  1.00  0.00     0.057 A 
ATOM     64  C   UNL A   1      41.935  34.407  35.342  1.00  0.00     0.134 A 
ATOM     65  C   UNL A   1      42.895  35.543  33.466  1.00  0.00     0.134 A 
ATOM     66  F   UNL A   1      41.336  33.345  35.900  1.00  0.00    -0.206 F 
ATOM     67  C   UNL A   1      42.157  35.529  36.144  1.00  0.00     0.040 A 
ATOM     68  C   UNL A   1      43.150  36.660  34.266  1.00  0.00     0.040 A 
ATOM     69  F   UNL A   1      43.260  35.599  32.177  1.00  0.00    -0.206 F 
ATOM     70  C   UNL A   1      42.773  36.657  35.607  1.00  0.00     0.006 A 
ENDBRANCH  49  63
BRANCH  50  71
ATOM     71  C   UNL A   1      40.349  26.721  27.893  1.00  0.00     0.057 A 
ATOM     72  C   UNL A   1      39.496  25.678  28.271  1.00  0.00     0.134 A 
ATOM     73  C   UNL A   1      40.937  26.645  26.625  1.00  0.00     0.134 A 
ATOM     74  F   UNL A   1      38.916  25.686  29.481  1.00  0.00    -0.206 F 
ATOM     75  C   UNL A   1      39.250  24.592  27.430  1.00  0.00     0.040 A 
ATOM     76  C   UNL A   1      40.680  25.577  25.763  1.00  0.00     0.040 A 
ATOM     77  F   UNL A   1      41.759  27.616  26.198  1.00  0.00    -0.206 F 
ATOM     78  C   UNL A   1      39.840  24.542  26.169  1.00  0.00     0.006 A 
ENDBRANCH  50  71
BRANCH  62  79
ATOM     79  C   UNL A   1      45.659  28.296  32.116  1.00  0.00     0.057 A 
ATOM     80  C   UNL A   1      45.706  27.258  33.055  1.00  0.00     0.134 A 
ATOM     81  C   UNL A   1      46.850  28.625  31.456  1.00  0.00     0.134 A 
ATOM     82  F   UNL A   1      44.605  26.901  33.731  1.00  0.00    -0.206 F 
ATOM     83  C   UNL A   1      46.898  26.589  33.343  1.00  0.00     0.040 A 
ATOM     84  C   UNL A   1      48.041  27.944  31.714  1.00  0.00     0.040 A 
ATOM     85  F   UNL A   1      46.874  29.604  30.539  1.00  0.00    -0.206 F 
ATOM     86  C   UNL A   1      48.068  26.927  32.665  1.00  0.00     0.006 A 
ENDBRANCH  62  79
ENDBRANCH  36  37
ENDBRANCH  28  31
ENDBRANCH  26  27
ENDBRANCH  25  26
ENDBRANCH  24  25
ENDBRANCH   1  24
TORSDOF 15
ENDMDL
MODEL 3
REMARK VINA RESULT:     -11.2      1.961      7.524
REMARK SMILES O=C1C[N@@H+](Cc2ccc(C(=O)NCCCCCCNC(=O)c3ccc(-c4c5nc(c(-c6c(F)cccc6F)c6ccc([nH]6)c(-c6c(F)cccc6F)c6nc(c(-c7c(F)cccc7F)c7ccc4[nH]7)C=C6)C=C5)cc3)cc2)CCN1
REMARK SMILES IDX 15 1 14 2 13 3 12 4 10 5 11 6 9 8 6 9 7 10 77 11 8 12 76 13
REMARK SMILES IDX 5 14 4 15 1 16 2 17 3 18 80 19 79 20 78 22 16 24 17 25 18 26
REMARK SMILES IDX 19 27 20 28 21 30 22 31 23 32 75 33 24 34 74 35 25 36 26 37
REMARK SMILES IDX 27 38 68 39 28 40 73 41 67 42 69 43 29 44 72 45 66 46 65 47
REMARK SMILES IDX 30 49 56 50 39 51 55 52 40 53 43 54 54 55 70 56 41 57 42 58
REMARK SMILES IDX 53 60 71 61 44 62 31 63 32 64 37 65 33 66 34 67 36 68 38 69
REMARK SMILES IDX 35 70 57 71 58 72 63 73 59 74 60 75 62 76 64 77 61 78 45 79
REMARK SMILES IDX 46 80 51 81 47 82 48 83 50 84 52 85 49 86
REMARK H PARENT 12 7 80 21 4 23 19 29 69 48 43 59
REMARK Flexibility Score: inf
ROOT
ATOM      1  C   UNL A   1      31.693  29.991  25.299  1.00  0.00     0.002 C 
ENDROOT
BRANCH   1   2
ATOM      2  C   UNL A   1      32.892  29.120  24.899  1.00  0.00     0.021 C 
BRANCH   2   3
ATOM      3  C   UNL A   1      33.053  28.966  23.386  1.00  0.00     0.116 C 
BRANCH   3   4
ATOM      4  N   UNL A   1      31.777  29.168  22.723  1.00  0.00    -0.352 N 
ATOM      5  C   UNL A   1      30.731  28.310  22.501  1.00  0.00     0.251 C 
ATOM      6  O   UNL A   1      29.728  28.722  21.924  1.00  0.00    -0.269 OA
ATOM      7  H   UNL A   1      31.640  30.079  22.373  1.00  0.00     0.163 HD
BRANCH   5   8
ATOM      8  C   UNL A   1      30.757  26.926  23.027  1.00  0.00     0.039 A 
ATOM      9  C   UNL A   1      31.024  24.448  24.303  1.00  0.00     0.006 A 
ATOM     10  C   UNL A   1      30.239  25.458  24.877  1.00  0.00     0.010 A 
ATOM     11  C   UNL A   1      31.557  24.647  23.021  1.00  0.00     0.010 A 
ATOM     12  C   UNL A   1      30.108  26.692  24.243  1.00  0.00     0.014 A 
ATOM     13  C   UNL A   1      31.416  25.879  22.380  1.00  0.00     0.014 A 
BRANCH   9  14
ATOM     14  C   UNL A   1      31.326  23.184  25.068  1.00  0.00     0.299 C 
BRANCH  14  15
ATOM     15  N   UNL A   1      32.614  22.540  24.796  1.00  0.00    -0.322 N 
ATOM     16  O   UNL A   1      32.132  18.922  24.989  1.00  0.00    -0.269 OA
ATOM     17  C   UNL A   1      32.576  20.041  25.245  1.00  0.00     0.275 C 
ATOM     18  C   UNL A   1      32.538  21.184  24.226  1.00  0.00     0.363 C 
ATOM     19  N   UNL A   1      33.236  20.248  26.424  1.00  0.00    -0.346 N 
ATOM     20  C   UNL A   1      33.617  21.553  26.909  1.00  0.00     0.177 C 
ATOM     21  H   UNL A   1      33.463  19.464  26.974  1.00  0.00     0.163 HD
ATOM     22  C   UNL A   1      33.644  22.646  25.829  1.00  0.00     0.284 C 
ATOM     23  H   UNL A   1      32.948  23.146  24.047  1.00  0.00     0.348 HD
ENDBRANCH  14  15
ENDBRANCH   9  14
ENDBRANCH   5   8
ENDBRANCH   3   4
ENDBRANCH   2   3
ENDBRANCH   1   2
BRANCH   1  24
ATOM     24  C   UNL A   1      31.731  30.518  26.737  1.00  0.00     0.002 C 
BRANCH  24  25
ATOM     25  C   UNL A   1      31.536  32.030  26.876  1.00  0.00     0.021 C 
BRANCH  25  26
ATOM     26  C   UNL A   1      32.829  32.818  27.055  1.00  0.00     0.116 C 
BRANCH  26  27
ATOM     27  N   UNL A   1      32.592  34.118  27.664  1.00  0.00    -0.352 N 
ATOM     28  C   UNL A   1      33.170  34.675  28.778  1.00  0.00     0.251 C 
ATOM     29  H   UNL A   1      31.922  34.680  27.212  1.00  0.00     0.163 HD
ATOM     30  O   UNL A   1      32.701  35.691  29.276  1.00  0.00    -0.269 OA
BRANCH  28  31
ATOM     31  C   UNL A   1      34.354  34.033  29.387  1.00  0.00     0.039 A 
ATOM     32  C   UNL A   1      34.166  33.066  30.376  1.00  0.00     0.014 A 
ATOM     33  C   UNL A   1      35.645  34.391  28.987  1.00  0.00     0.014 A 
ATOM     34  C   UNL A   1      35.274  32.414  30.923  1.00  0.00     0.010 A 
ATOM     35  C   UNL A   1      36.741  33.689  29.478  1.00  0.00     0.010 A 
ATOM     36  C   UNL A   1      36.567  32.696  30.454  1.00  0.00    -0.014 A 
BRANCH  36  37
ATOM     37  C   UNL A   1      37.750  31.965  30.972  1.00  0.00     0.031 A 
ATOM     38  C   UNL A   1      38.377  32.368  32.278  1.00  0.00     0.074 A 
ATOM     39  C   UNL A   1      38.299  30.979  30.235  1.00  0.00     0.049 A 
ATOM     40  N   UNL A   1      39.452  31.897  32.860  1.00  0.00    -0.248 NA
ATOM     41  C   UNL A   1      37.726  33.462  33.013  1.00  0.00     0.031 C 
ATOM     42  C   UNL A   1      37.811  30.524  28.933  1.00  0.00     0.029 A 
ATOM     43  N   UNL A   1      39.396  30.190  30.473  1.00  0.00    -0.354 N 
ATOM     44  C   UNL A   1      39.609  32.644  34.021  1.00  0.00     0.074 A 
ATOM     45  C   UNL A   1      38.556  33.636  34.031  1.00  0.00     0.031 C 
ATOM     46  C   UNL A   1      38.587  29.519  28.499  1.00  0.00     0.029 A 
ATOM     47  C   UNL A   1      39.652  29.287  29.469  1.00  0.00     0.049 A 
ATOM     48  H   UNL A   1      39.947  30.262  31.285  1.00  0.00     0.167 HD
ATOM     49  C   UNL A   1      40.532  32.499  35.002  1.00  0.00     0.037 A 
ATOM     50  C   UNL A   1      40.639  28.380  29.341  1.00  0.00     0.037 A 
ATOM     51  C   UNL A   1      41.568  31.499  34.995  1.00  0.00     0.049 A 
ATOM     52  C   UNL A   1      41.667  28.256  30.432  1.00  0.00     0.074 A 
ATOM     53  C   UNL A   1      42.519  31.237  35.966  1.00  0.00     0.029 A 
ATOM     54  N   UNL A   1      41.792  30.600  33.963  1.00  0.00    -0.354 N 
ATOM     55  N   UNL A   1      41.766  28.925  31.555  1.00  0.00    -0.248 NA
ATOM     56  C   UNL A   1      42.717  27.245  30.240  1.00  0.00     0.031 C 
ATOM     57  C   UNL A   1      43.351  30.214  35.498  1.00  0.00     0.029 A 
ATOM     58  C   UNL A   1      42.882  29.800  34.261  1.00  0.00     0.049 A 
ATOM     59  H   UNL A   1      41.254  30.539  33.140  1.00  0.00     0.167 HD
ATOM     60  C   UNL A   1      42.867  28.397  32.217  1.00  0.00     0.074 A 
ATOM     61  C   UNL A   1      43.395  27.344  31.374  1.00  0.00     0.031 C 
ATOM     62  C   UNL A   1      43.393  28.751  33.414  1.00  0.00     0.037 A 
BRANCH  49  63
ATOM     63  C   UNL A   1      40.461  33.449  36.164  1.00  0.00     0.057 A 
ATOM     64  C   UNL A   1      41.209  34.633  36.200  1.00  0.00     0.134 A 
ATOM     65  C   UNL A   1      39.615  33.188  37.250  1.00  0.00     0.134 A 
ATOM     66  F   UNL A   1      42.047  34.938  35.198  1.00  0.00    -0.206 F 
ATOM     67  C   UNL A   1      41.143  35.508  37.287  1.00  0.00     0.040 A 
ATOM     68  C   UNL A   1      39.518  34.070  38.329  1.00  0.00     0.040 A 
ATOM     69  F   UNL A   1      38.865  32.077  37.280  1.00  0.00    -0.206 F 
ATOM     70  C   UNL A   1      40.290  35.229  38.353  1.00  0.00     0.006 A 
ENDBRANCH  49  63
BRANCH  50  71
ATOM     71  C   UNL A   1      40.692  27.503  28.144  1.00  0.00     0.057 A 
ATOM     72  C   UNL A   1      39.993  26.290  28.107  1.00  0.00     0.134 A 
ATOM     73  C   UNL A   1      41.442  27.848  27.014  1.00  0.00     0.134 A 
ATOM     74  F   UNL A   1      39.270  25.897  29.166  1.00  0.00    -0.206 F 
ATOM     75  C   UNL A   1      40.052  25.445  26.999  1.00  0.00     0.040 A 
ATOM     76  C   UNL A   1      41.490  27.024  25.888  1.00  0.00     0.040 A 
ATOM     77  F   UNL A   1      42.128  29.000  26.981  1.00  0.00    -0.206 F 
ATOM     78  C   UNL A   1      40.799  25.814  25.883  1.00  0.00     0.006 A 
ENDBRANCH  50  71
BRANCH  62  79
ATOM     79  C   UNL A   1      44.578  27.969  33.904  1.00  0.00     0.057 A 
ATOM     80  C   UNL A   1      44.434  26.789  34.644  1.00  0.00     0.134 A 
ATOM     81  C   UNL A   1      45.881  28.384  33.595  1.00  0.00     0.134 A 
ATOM     82  F   UNL A   1      43.215  26.344  34.985  1.00  0.00    -0.206 F 
ATOM     83  C   UNL A   1      45.543  26.062  35.080  1.00  0.00     0.040 A 
ATOM     84  C   UNL A   1      46.996  27.649  34.001  1.00  0.00     0.040 A 
ATOM     85  F   UNL A   1      46.090  29.500  32.883  1.00  0.00    -0.206 F 
ATOM     86  C   UNL A   1      46.829  26.488  34.751  1.00  0.00     0.006 A 
ENDBRANCH  62  79
ENDBRANCH  36  37
ENDBRANCH  28  31
ENDBRANCH  26  27
ENDBRANCH  25  26
ENDBRANCH  24  25
ENDBRANCH   1  24
TORSDOF 15
ENDMDL
