MODEL 1
REMARK VINA RESULT:     -14.0      0.000      0.000
REMARK SMILES Cc1ccc([C@@H](C)Nc2ccc(N)cc2C(=O)NCCCCCCNC(=O)c2ccc(-c3c4nc(c(-c5c(F)cccc5F)c5ccc([nH]5)c(-c5c(F)cccc5F)c5nc(c(-c6c(F)cccc6F)c6ccc3[nH]6)C=C5)C=C4)cc2)cc1F
REMARK SMILES IDX 21 1 20 2 19 3 18 4 16 5 17 6 15 8 9 9 10 10 11 11 14 12
REMARK SMILES IDX 12 13 8 14 6 16 7 17 5 18 1 19 2 20 3 21 83 22 4 23 82 24
REMARK SMILES IDX 84 25 13 26 22 29 23 30 24 31 25 32 26 33 27 35 28 36 29 37
REMARK SMILES IDX 81 38 30 39 80 40 31 41 32 42 33 43 74 44 34 45 79 46 73 47
REMARK SMILES IDX 75 48 35 49 78 50 72 51 71 52 36 54 62 55 45 56 61 57 46 58
REMARK SMILES IDX 49 59 60 60 76 61 47 62 48 63 59 65 77 66 50 67 37 68 38 69
REMARK SMILES IDX 43 70 39 71 40 72 42 73 44 74 41 75 63 76 64 77 69 78 65 79
REMARK SMILES IDX 66 80 68 81 70 82 67 83 51 84 52 85 57 86 53 87 54 88 56 89
REMARK SMILES IDX 58 90 55 91
REMARK H PARENT 18 7 8 15 13 27 13 28 25 34 75 53 49 64
REMARK Flexibility Score: inf
ROOT
ATOM      1  C   UNL A   1      34.743  32.218  28.304  1.00  0.00     0.002 C 
ENDROOT
BRANCH   1   2
ATOM      2  C   UNL A   1      34.450  30.153  27.615  1.00  0.00     0.021 C 
BRANCH   2   3
ATOM      3  C   UNL A   1      33.363  29.271  26.594  1.00  0.00     0.116 C 
BRANCH   3   4
ATOM      4  N   UNL A   1      33.839  28.221  25.705  1.00  0.00    -0.352 N 
ATOM      5  C   UNL A   1      33.294  27.710  24.553  1.00  0.00     0.253 C 
ATOM      6  O   UNL A   1      33.956  26.933  23.865  1.00  0.00    -0.269 OA
ATOM      7  H   UNL A   1      34.692  27.810  25.974  1.00  0.00     0.163 HD
BRANCH   5   8
ATOM      8  C   UNL A   1      31.874  27.959  24.226  1.00  0.00     0.065 A 
ATOM      9  C   UNL A   1      30.820  27.086  24.515  1.00  0.00     0.048 A 
ATOM     10  C   UNL A   1      29.737  27.157  23.616  1.00  0.00     0.028 A 
ATOM     11  C   UNL A   1      29.642  28.145  22.619  1.00  0.00     0.027 A 
ATOM     12  C   UNL A   1      31.709  29.048  23.339  1.00  0.00     0.041 A 
ATOM     13  C   UNL A   1      30.575  29.170  22.551  1.00  0.00     0.032 A 
BRANCH   9  14
ATOM     14  N   UNL A   1      30.740  26.162  25.546  1.00  0.00    -0.378 N 
ATOM     15  H   UNL A   1      30.593  26.562  26.433  1.00  0.00     0.161 HD
BRANCH  14  16
ATOM     16  C   UNL A   1      30.835  24.693  25.557  1.00  0.00     0.106 C 
ATOM     17  C   UNL A   1      30.127  24.020  26.724  1.00  0.00     0.036 C 
BRANCH  16  18
ATOM     18  C   UNL A   1      32.223  24.226  25.126  1.00  0.00    -0.023 A 
ATOM     19  C   UNL A   1      36.735  22.815  23.152  1.00  0.00     0.047 C 
ATOM     20  C   UNL A   1      35.431  23.251  23.736  1.00  0.00    -0.015 A 
ATOM     21  C   UNL A   1      33.934  23.099  22.744  1.00  0.00     0.007 A 
ATOM     22  C   UNL A   1      35.326  23.865  25.429  1.00  0.00     0.126 A 
ATOM     23  C   UNL A   1      32.343  23.602  23.431  1.00  0.00     0.006 A 
ATOM     24  C   UNL A   1      33.723  24.327  26.137  1.00  0.00     0.045 A 
ATOM     25  F   UNL A   1      36.442  24.020  26.149  1.00  0.00    -0.207 F 
ENDBRANCH  16  18
ENDBRANCH  14  16
ENDBRANCH   9  14
BRANCH  13  26
ATOM     26  N   UNL A   1      30.492  30.164  21.590  1.00  0.00    -0.399 N 
ATOM     27  H   UNL A   1      30.416  31.107  21.861  1.00  0.00     0.156 HD
ATOM     28  H   UNL A   1      30.508  29.927  20.634  1.00  0.00     0.156 HD
ENDBRANCH  13  26
ENDBRANCH   5   8
ENDBRANCH   3   4
ENDBRANCH   2   3
ENDBRANCH   1   2
BRANCH   1  29
ATOM     29  C   UNL A   1      34.069  33.773  28.044  1.00  0.00     0.002 C 
BRANCH  29  30
ATOM     30  C   UNL A   1      34.203  34.970  29.010  1.00  0.00     0.021 C 
BRANCH  30  31
ATOM     31  C   UNL A   1      33.452  34.925  30.331  1.00  0.00     0.116 C 
BRANCH  31  32
ATOM     32  N   UNL A   1      34.012  35.787  31.368  1.00  0.00    -0.352 N 
ATOM     33  C   UNL A   1      34.767  35.354  32.439  1.00  0.00     0.251 C 
ATOM     34  H   UNL A   1      33.838  36.753  31.297  1.00  0.00     0.163 HD
ATOM     35  O   UNL A   1      34.836  35.967  33.497  1.00  0.00    -0.269 OA
BRANCH  33  36
ATOM     36  C   UNL A   1      35.629  34.187  32.218  1.00  0.00     0.039 A 
ATOM     37  C   UNL A   1      35.511  32.996  32.948  1.00  0.00     0.014 A 
ATOM     38  C   UNL A   1      36.686  34.410  31.339  1.00  0.00     0.014 A 
ATOM     39  C   UNL A   1      36.521  32.047  32.837  1.00  0.00     0.010 A 
ATOM     40  C   UNL A   1      37.594  33.431  31.123  1.00  0.00     0.010 A 
ATOM     41  C   UNL A   1      37.572  32.322  31.965  1.00  0.00    -0.014 A 
BRANCH  41  42
ATOM     42  C   UNL A   1      38.788  31.556  31.851  1.00  0.00     0.031 A 
ATOM     43  C   UNL A   1      38.710  30.310  31.095  1.00  0.00     0.074 A 
ATOM     44  C   UNL A   1      39.891  32.245  32.225  1.00  0.00     0.049 A 
ATOM     45  N   UNL A   1      39.503  29.319  31.245  1.00  0.00    -0.248 NA
ATOM     46  C   UNL A   1      37.636  30.041  30.134  1.00  0.00     0.031 C 
ATOM     47  C   UNL A   1      41.295  32.093  31.893  1.00  0.00     0.029 A 
ATOM     48  N   UNL A   1      39.895  33.294  33.159  1.00  0.00    -0.354 N 
ATOM     49  C   UNL A   1      39.336  28.535  30.122  1.00  0.00     0.074 A 
ATOM     50  C   UNL A   1      38.032  28.874  29.617  1.00  0.00     0.031 C 
ATOM     51  C   UNL A   1      42.029  32.742  32.823  1.00  0.00     0.029 A 
ATOM     52  C   UNL A   1      41.115  33.222  33.850  1.00  0.00     0.049 A 
ATOM     53  H   UNL A   1      39.178  33.954  33.301  1.00  0.00     0.167 HD
ATOM     54  C   UNL A   1      40.437  27.912  29.612  1.00  0.00     0.037 A 
ATOM     55  C   UNL A   1      41.066  32.791  35.149  1.00  0.00     0.037 A 
ATOM     56  C   UNL A   1      41.608  28.274  30.419  1.00  0.00     0.049 A 
ATOM     57  C   UNL A   1      41.580  31.373  35.294  1.00  0.00     0.074 A 
ATOM     58  C   UNL A   1      42.610  29.220  30.277  1.00  0.00     0.029 A 
ATOM     59  N   UNL A   1      41.623  27.913  31.749  1.00  0.00    -0.354 N 
ATOM     60  N   UNL A   1      41.809  30.568  34.291  1.00  0.00    -0.248 NA
ATOM     61  C   UNL A   1      41.851  30.742  36.580  1.00  0.00     0.031 C 
ATOM     62  C   UNL A   1      43.213  29.419  31.559  1.00  0.00     0.029 A 
ATOM     63  C   UNL A   1      42.573  28.600  32.472  1.00  0.00     0.049 A 
ATOM     64  H   UNL A   1      41.022  27.236  32.139  1.00  0.00     0.167 HD
ATOM     65  C   UNL A   1      42.267  29.365  34.746  1.00  0.00     0.074 A 
ATOM     66  C   UNL A   1      42.221  29.507  36.195  1.00  0.00     0.031 C 
ATOM     67  C   UNL A   1      42.649  28.354  33.906  1.00  0.00     0.037 A 
BRANCH  54  68
ATOM     68  C   UNL A   1      40.556  27.225  28.271  1.00  0.00     0.057 A 
ATOM     69  C   UNL A   1      39.937  25.972  28.074  1.00  0.00     0.134 A 
ATOM     70  C   UNL A   1      41.223  27.718  27.136  1.00  0.00     0.134 A 
ATOM     71  F   UNL A   1      39.197  25.392  29.028  1.00  0.00    -0.206 F 
ATOM     72  C   UNL A   1      40.027  25.247  26.880  1.00  0.00     0.040 A 
ATOM     73  C   UNL A   1      41.341  26.991  25.939  1.00  0.00     0.040 A 
ATOM     74  F   UNL A   1      41.753  28.944  27.094  1.00  0.00    -0.206 F 
ATOM     75  C   UNL A   1      40.745  25.748  25.808  1.00  0.00     0.006 A 
ENDBRANCH  54  68
BRANCH  55  76
ATOM     76  C   UNL A   1      39.870  33.372  35.854  1.00  0.00     0.057 A 
ATOM     77  C   UNL A   1      38.803  32.492  36.132  1.00  0.00     0.134 A 
ATOM     78  C   UNL A   1      40.001  34.487  36.690  1.00  0.00     0.134 A 
ATOM     79  F   UNL A   1      38.591  31.423  35.347  1.00  0.00    -0.206 F 
ATOM     80  C   UNL A   1      38.058  32.585  37.312  1.00  0.00     0.040 A 
ATOM     81  C   UNL A   1      39.231  34.609  37.855  1.00  0.00     0.040 A 
ATOM     82  F   UNL A   1      40.973  35.387  36.484  1.00  0.00    -0.206 F 
ATOM     83  C   UNL A   1      38.311  33.620  38.204  1.00  0.00     0.006 A 
ENDBRANCH  55  76
BRANCH  67  84
ATOM     84  C   UNL A   1      43.098  26.999  34.391  1.00  0.00     0.057 A 
ATOM     85  C   UNL A   1      44.425  26.572  34.300  1.00  0.00     0.134 A 
ATOM     86  C   UNL A   1      42.197  26.041  34.913  1.00  0.00     0.134 A 
ATOM     87  F   UNL A   1      45.349  27.304  33.661  1.00  0.00    -0.206 F 
ATOM     88  C   UNL A   1      44.855  25.354  34.840  1.00  0.00     0.040 A 
ATOM     89  C   UNL A   1      42.602  24.796  35.389  1.00  0.00     0.040 A 
ATOM     90  F   UNL A   1      40.882  26.259  35.019  1.00  0.00    -0.206 F 
ATOM     91  C   UNL A   1      43.942  24.466  35.396  1.00  0.00     0.006 A 
ENDBRANCH  67  84
ENDBRANCH  41  42
ENDBRANCH  33  36
ENDBRANCH  31  32
ENDBRANCH  30  31
ENDBRANCH  29  30
ENDBRANCH   1  29
TORSDOF 17
ENDMDL
MODEL 2
REMARK VINA RESULT:     -13.9      4.733     10.264
REMARK SMILES Cc1ccc([C@@H](C)Nc2ccc(N)cc2C(=O)NCCCCCCNC(=O)c2ccc(-c3c4nc(c(-c5c(F)cccc5F)c5ccc([nH]5)c(-c5c(F)cccc5F)c5nc(c(-c6c(F)cccc6F)c6ccc3[nH]6)C=C5)C=C4)cc2)cc1F
REMARK SMILES IDX 21 1 20 2 19 3 18 4 16 5 17 6 15 8 9 9 10 10 11 11 14 12
REMARK SMILES IDX 12 13 8 14 6 16 7 17 5 18 1 19 2 20 3 21 83 22 4 23 82 24
REMARK SMILES IDX 84 25 13 26 22 29 23 30 24 31 25 32 26 33 27 35 28 36 29 37
REMARK SMILES IDX 81 38 30 39 80 40 31 41 32 42 33 43 74 44 34 45 79 46 73 47
REMARK SMILES IDX 75 48 35 49 78 50 72 51 71 52 36 54 62 55 45 56 61 57 46 58
REMARK SMILES IDX 49 59 60 60 76 61 47 62 48 63 59 65 77 66 50 67 37 68 38 69
REMARK SMILES IDX 43 70 39 71 40 72 42 73 44 74 41 75 63 76 64 77 69 78 65 79
REMARK SMILES IDX 66 80 68 81 70 82 67 83 51 84 52 85 57 86 53 87 54 88 56 89
REMARK SMILES IDX 58 90 55 91
REMARK H PARENT 18 7 8 15 13 27 13 28 25 34 75 53 49 64
REMARK Flexibility Score: inf
ROOT
ATOM      1  C   UNL A   1      40.082  22.057  26.926  1.00  0.00     0.002 C 
ENDROOT
BRANCH   1   2
ATOM      2  C   UNL A   1      38.450  23.306  26.150  1.00  0.00     0.021 C 
BRANCH   2   3
ATOM      3  C   UNL A   1      36.903  23.095  25.400  1.00  0.00     0.116 C 
BRANCH   3   4
ATOM      4  N   UNL A   1      35.706  23.728  25.935  1.00  0.00    -0.352 N 
ATOM      5  C   UNL A   1      34.412  23.274  26.009  1.00  0.00     0.253 C 
ATOM      6  O   UNL A   1      33.584  23.914  26.658  1.00  0.00    -0.269 OA
ATOM      7  H   UNL A   1      35.848  24.629  26.305  1.00  0.00     0.163 HD
BRANCH   5   8
ATOM      8  C   UNL A   1      33.977  22.125  25.188  1.00  0.00     0.065 A 
ATOM      9  C   UNL A   1      33.394  22.220  23.920  1.00  0.00     0.048 A 
ATOM     10  C   UNL A   1      32.504  21.174  23.604  1.00  0.00     0.028 A 
ATOM     11  C   UNL A   1      32.351  20.037  24.418  1.00  0.00     0.027 A 
ATOM     12  C   UNL A   1      33.951  20.917  25.924  1.00  0.00     0.041 A 
ATOM     13  C   UNL A   1      33.164  19.848  25.527  1.00  0.00     0.032 A 
BRANCH   9  14
ATOM     14  N   UNL A   1      33.570  23.221  22.977  1.00  0.00    -0.378 N 
ATOM     15  H   UNL A   1      34.423  23.167  22.489  1.00  0.00     0.161 HD
BRANCH  14  16
ATOM     16  C   UNL A   1      32.716  24.349  22.571  1.00  0.00     0.106 C 
ATOM     17  C   UNL A   1      32.950  24.845  21.152  1.00  0.00     0.036 C 
BRANCH  16  18
ATOM     18  C   UNL A   1      32.536  25.345  23.714  1.00  0.00    -0.023 A 
ATOM     19  C   UNL A   1      31.599  28.293  27.797  1.00  0.00     0.047 C 
ATOM     20  C   UNL A   1      31.897  27.426  26.619  1.00  0.00    -0.015 A 
ATOM     21  C   UNL A   1      30.626  26.296  26.021  1.00  0.00     0.007 A 
ATOM     22  C   UNL A   1      33.476  27.537  25.754  1.00  0.00     0.126 A 
ATOM     23  C   UNL A   1      30.953  25.249  24.589  1.00  0.00     0.006 A 
ATOM     24  C   UNL A   1      33.790  26.520  24.288  1.00  0.00     0.045 A 
ATOM     25  F   UNL A   1      34.435  28.343  26.224  1.00  0.00    -0.207 F 
ENDBRANCH  16  18
ENDBRANCH  14  16
ENDBRANCH   9  14
BRANCH  13  26
ATOM     26  N   UNL A   1      33.043  18.727  26.332  1.00  0.00    -0.399 N 
ATOM     27  H   UNL A   1      33.182  18.801  27.303  1.00  0.00     0.156 HD
ATOM     28  H   UNL A   1      32.817  17.856  25.932  1.00  0.00     0.156 HD
ENDBRANCH  13  26
ENDBRANCH   5   8
ENDBRANCH   3   4
ENDBRANCH   2   3
ENDBRANCH   1   2
BRANCH   1  29
ATOM     29  C   UNL A   1      40.677  20.458  26.754  1.00  0.00     0.002 C 
BRANCH  29  30
ATOM     30  C   UNL A   1      42.168  20.059  26.779  1.00  0.00     0.021 C 
BRANCH  30  31
ATOM     31  C   UNL A   1      42.952  20.097  25.477  1.00  0.00     0.116 C 
BRANCH  31  32
ATOM     32  N   UNL A   1      44.401  20.135  25.652  1.00  0.00    -0.352 N 
ATOM     33  C   UNL A   1      45.190  21.258  25.504  1.00  0.00     0.251 C 
ATOM     34  H   UNL A   1      44.851  19.294  25.895  1.00  0.00     0.163 HD
ATOM     35  O   UNL A   1      46.376  21.203  25.203  1.00  0.00    -0.269 OA
BRANCH  33  36
ATOM     36  C   UNL A   1      44.592  22.545  25.874  1.00  0.00     0.039 A 
ATOM     37  C   UNL A   1      44.387  23.588  24.961  1.00  0.00     0.014 A 
ATOM     38  C   UNL A   1      44.394  22.716  27.242  1.00  0.00     0.014 A 
ATOM     39  C   UNL A   1      44.047  24.844  25.452  1.00  0.00     0.010 A 
ATOM     40  C   UNL A   1      43.926  23.897  27.708  1.00  0.00     0.010 A 
ATOM     41  C   UNL A   1      43.883  24.975  26.829  1.00  0.00    -0.014 A 
BRANCH  41  42
ATOM     42  C   UNL A   1      43.712  26.219  27.537  1.00  0.00     0.031 A 
ATOM     43  C   UNL A   1      42.390  26.834  27.473  1.00  0.00     0.074 A 
ATOM     44  C   UNL A   1      44.726  26.493  28.391  1.00  0.00     0.049 A 
ATOM     45  N   UNL A   1      42.160  28.081  27.637  1.00  0.00    -0.248 NA
ATOM     46  C   UNL A   1      41.188  26.074  27.119  1.00  0.00     0.031 C 
ATOM     47  C   UNL A   1      44.806  27.325  29.575  1.00  0.00     0.029 A 
ATOM     48  N   UNL A   1      46.045  26.038  28.230  1.00  0.00    -0.354 N 
ATOM     49  C   UNL A   1      40.805  28.181  27.875  1.00  0.00     0.074 A 
ATOM     50  C   UNL A   1      40.233  26.992  27.302  1.00  0.00     0.031 C 
ATOM     51  C   UNL A   1      46.105  27.595  29.825  1.00  0.00     0.029 A 
ATOM     52  C   UNL A   1      46.888  27.044  28.727  1.00  0.00     0.049 A 
ATOM     53  H   UNL A   1      46.325  25.177  27.843  1.00  0.00     0.167 HD
ATOM     54  C   UNL A   1      40.384  29.121  28.770  1.00  0.00     0.037 A 
ATOM     55  C   UNL A   1      47.602  27.765  27.807  1.00  0.00     0.037 A 
ATOM     56  C   UNL A   1      41.554  29.818  29.316  1.00  0.00     0.049 A 
ATOM     57  C   UNL A   1      47.036  29.158  27.617  1.00  0.00     0.074 A 
ATOM     58  C   UNL A   1      42.298  29.672  30.475  1.00  0.00     0.029 A 
ATOM     59  N   UNL A   1      42.350  30.536  28.450  1.00  0.00    -0.354 N 
ATOM     60  N   UNL A   1      45.876  29.548  28.075  1.00  0.00    -0.248 NA
ATOM     61  C   UNL A   1      47.718  30.210  26.873  1.00  0.00     0.031 C 
ATOM     62  C   UNL A   1      43.562  30.310  30.270  1.00  0.00     0.029 A 
ATOM     63  C   UNL A   1      43.581  30.837  28.990  1.00  0.00     0.049 A 
ATOM     64  H   UNL A   1      42.070  30.806  27.545  1.00  0.00     0.167 HD
ATOM     65  C   UNL A   1      45.653  30.854  27.742  1.00  0.00     0.074 A 
ATOM     66  C   UNL A   1      46.815  31.206  26.939  1.00  0.00     0.031 C 
ATOM     67  C   UNL A   1      44.541  31.541  28.152  1.00  0.00     0.037 A 
BRANCH  54  68
ATOM     68  C   UNL A   1      39.006  29.247  29.377  1.00  0.00     0.057 A 
ATOM     69  C   UNL A   1      37.929  29.682  28.576  1.00  0.00     0.134 A 
ATOM     70  C   UNL A   1      38.647  28.948  30.704  1.00  0.00     0.134 A 
ATOM     71  F   UNL A   1      38.079  29.937  27.270  1.00  0.00    -0.206 F 
ATOM     72  C   UNL A   1      36.630  29.864  29.064  1.00  0.00     0.040 A 
ATOM     73  C   UNL A   1      37.353  29.149  31.213  1.00  0.00     0.040 A 
ATOM     74  F   UNL A   1      39.504  28.399  31.570  1.00  0.00    -0.206 F 
ATOM     75  C   UNL A   1      36.338  29.613  30.393  1.00  0.00     0.006 A 
ENDBRANCH  54  68
BRANCH  55  76
ATOM     76  C   UNL A   1      48.117  26.866  26.715  1.00  0.00     0.057 A 
ATOM     77  C   UNL A   1      47.507  26.986  25.449  1.00  0.00     0.134 A 
ATOM     78  C   UNL A   1      49.432  26.390  26.739  1.00  0.00     0.134 A 
ATOM     79  F   UNL A   1      46.232  27.397  25.352  1.00  0.00    -0.206 F 
ATOM     80  C   UNL A   1      48.240  26.868  24.263  1.00  0.00     0.040 A 
ATOM     81  C   UNL A   1      50.163  26.231  25.553  1.00  0.00     0.040 A 
ATOM     82  F   UNL A   1      50.080  26.223  27.901  1.00  0.00    -0.206 F 
ATOM     83  C   UNL A   1      49.590  26.541  24.320  1.00  0.00     0.006 A 
ENDBRANCH  55  76
BRANCH  67  84
ATOM     84  C   UNL A   1      44.249  32.962  27.743  1.00  0.00     0.057 A 
ATOM     85  C   UNL A   1      44.184  34.010  28.665  1.00  0.00     0.134 A 
ATOM     86  C   UNL A   1      43.957  33.324  26.407  1.00  0.00     0.134 A 
ATOM     87  F   UNL A   1      44.260  33.780  29.984  1.00  0.00    -0.206 F 
ATOM     88  C   UNL A   1      44.010  35.341  28.270  1.00  0.00     0.040 A 
ATOM     89  C   UNL A   1      43.711  34.637  26.010  1.00  0.00     0.040 A 
ATOM     90  F   UNL A   1      43.918  32.440  25.404  1.00  0.00    -0.206 F 
ATOM     91  C   UNL A   1      43.782  35.658  26.936  1.00  0.00     0.006 A 
ENDBRANCH  67  84
ENDBRANCH  41  42
ENDBRANCH  33  36
ENDBRANCH  31  32
ENDBRANCH  30  31
ENDBRANCH  29  30
ENDBRANCH   1  29
TORSDOF 17
ENDMDL
MODEL 3
REMARK VINA RESULT:     -13.8      2.874      5.284
REMARK SMILES Cc1ccc([C@@H](C)Nc2ccc(N)cc2C(=O)NCCCCCCNC(=O)c2ccc(-c3c4nc(c(-c5c(F)cccc5F)c5ccc([nH]5)c(-c5c(F)cccc5F)c5nc(c(-c6c(F)cccc6F)c6ccc3[nH]6)C=C5)C=C4)cc2)cc1F
REMARK SMILES IDX 21 1 20 2 19 3 18 4 16 5 17 6 15 8 9 9 10 10 11 11 14 12
REMARK SMILES IDX 12 13 8 14 6 16 7 17 5 18 1 19 2 20 3 21 83 22 4 23 82 24
REMARK SMILES IDX 84 25 13 26 22 29 23 30 24 31 25 32 26 33 27 35 28 36 29 37
REMARK SMILES IDX 81 38 30 39 80 40 31 41 32 42 33 43 74 44 34 45 79 46 73 47
REMARK SMILES IDX 75 48 35 49 78 50 72 51 71 52 36 54 62 55 45 56 61 57 46 58
REMARK SMILES IDX 49 59 60 60 76 61 47 62 48 63 59 65 77 66 50 67 37 68 38 69
REMARK SMILES IDX 43 70 39 71 40 72 42 73 44 74 41 75 63 76 64 77 69 78 65 79
REMARK SMILES IDX 66 80 68 81 70 82 67 83 51 84 52 85 57 86 53 87 54 88 56 89
REMARK SMILES IDX 58 90 55 91
REMARK H PARENT 18 7 8 15 13 27 13 28 25 34 75 53 49 64
REMARK Flexibility Score: inf
ROOT
ATOM      1  C   UNL A   1      32.370  25.918  26.249  1.00  0.00     0.002 C 
ENDROOT
BRANCH   1   2
ATOM      2  C   UNL A   1      32.301  23.819  26.895  1.00  0.00     0.021 C 
BRANCH   2   3
ATOM      3  C   UNL A   1      33.396  22.604  27.467  1.00  0.00     0.116 C 
BRANCH   3   4
ATOM      4  N   UNL A   1      34.786  22.570  27.035  1.00  0.00    -0.352 N 
ATOM      5  C   UNL A   1      35.341  22.188  25.839  1.00  0.00     0.253 C 
ATOM      6  O   UNL A   1      36.536  22.399  25.633  1.00  0.00    -0.269 OA
ATOM      7  H   UNL A   1      35.435  22.871  27.712  1.00  0.00     0.163 HD
BRANCH   5   8
ATOM      8  C   UNL A   1      34.558  21.386  24.876  1.00  0.00     0.065 A 
ATOM      9  C   UNL A   1      33.553  21.890  24.043  1.00  0.00     0.048 A 
ATOM     10  C   UNL A   1      32.543  20.963  23.716  1.00  0.00     0.028 A 
ATOM     11  C   UNL A   1      32.629  19.599  24.049  1.00  0.00     0.027 A 
ATOM     12  C   UNL A   1      34.729  19.995  25.069  1.00  0.00     0.041 A 
ATOM     13  C   UNL A   1      33.781  19.085  24.627  1.00  0.00     0.032 A 
BRANCH   9  14
ATOM     14  N   UNL A   1      33.431  23.176  23.541  1.00  0.00    -0.378 N 
ATOM     15  H   UNL A   1      33.925  23.856  24.053  1.00  0.00     0.161 HD
BRANCH  14  16
ATOM     16  C   UNL A   1      32.697  23.713  22.382  1.00  0.00     0.106 C 
ATOM     17  C   UNL A   1      33.278  23.328  21.029  1.00  0.00     0.036 C 
BRANCH  16  18
ATOM     18  C   UNL A   1      32.226  25.142  22.640  1.00  0.00    -0.023 A 
ATOM     19  C   UNL A   1      30.281  29.715  23.881  1.00  0.00     0.047 C 
ATOM     20  C   UNL A   1      30.870  28.386  23.537  1.00  0.00    -0.015 A 
ATOM     21  C   UNL A   1      29.810  26.929  23.556  1.00  0.00     0.007 A 
ATOM     22  C   UNL A   1      32.599  28.232  23.046  1.00  0.00     0.126 A 
ATOM     23  C   UNL A   1      30.491  25.314  23.128  1.00  0.00     0.006 A 
ATOM     24  C   UNL A   1      33.274  26.618  22.572  1.00  0.00     0.045 A 
ATOM     25  F   UNL A   1      33.396  29.305  23.076  1.00  0.00    -0.207 F 
ENDBRANCH  16  18
ENDBRANCH  14  16
ENDBRANCH   9  14
BRANCH  13  26
ATOM     26  N   UNL A   1      33.895  17.742  24.947  1.00  0.00    -0.399 N 
ATOM     27  H   UNL A   1      33.090  17.214  25.151  1.00  0.00     0.156 HD
ATOM     28  H   UNL A   1      34.783  17.315  24.970  1.00  0.00     0.156 HD
ENDBRANCH  13  26
ENDBRANCH   5   8
ENDBRANCH   3   4
ENDBRANCH   2   3
ENDBRANCH   1   2
BRANCH   1  29
ATOM     29  C   UNL A   1      31.818  27.451  26.784  1.00  0.00     0.002 C 
BRANCH  29  30
ATOM     30  C   UNL A   1      32.702  28.530  27.446  1.00  0.00     0.021 C 
BRANCH  30  31
ATOM     31  C   UNL A   1      33.826  29.149  26.630  1.00  0.00     0.116 C 
BRANCH  31  32
ATOM     32  N   UNL A   1      34.112  30.541  26.965  1.00  0.00    -0.352 N 
ATOM     33  C   UNL A   1      34.922  30.959  28.001  1.00  0.00     0.251 C 
ATOM     34  H   UNL A   1      33.694  31.236  26.407  1.00  0.00     0.163 HD
ATOM     35  O   UNL A   1      34.798  32.049  28.545  1.00  0.00    -0.269 OA
BRANCH  33  36
ATOM     36  C   UNL A   1      36.064  30.103  28.341  1.00  0.00     0.039 A 
ATOM     37  C   UNL A   1      36.251  29.541  29.611  1.00  0.00     0.014 A 
ATOM     38  C   UNL A   1      37.040  30.024  27.351  1.00  0.00     0.014 A 
ATOM     39  C   UNL A   1      37.476  28.953  29.904  1.00  0.00     0.010 A 
ATOM     40  C   UNL A   1      38.177  29.330  27.586  1.00  0.00     0.010 A 
ATOM     41  C   UNL A   1      38.433  28.919  28.891  1.00  0.00    -0.014 A 
BRANCH  41  42
ATOM     42  C   UNL A   1      39.809  28.521  29.052  1.00  0.00     0.031 A 
ATOM     43  C   UNL A   1      40.148  27.157  28.659  1.00  0.00     0.074 A 
ATOM     44  C   UNL A   1      40.643  29.562  29.284  1.00  0.00     0.049 A 
ATOM     45  N   UNL A   1      41.145  26.497  29.113  1.00  0.00    -0.248 NA
ATOM     46  C   UNL A   1      39.309  26.371  27.752  1.00  0.00     0.031 C 
ATOM     47  C   UNL A   1      42.068  29.733  29.080  1.00  0.00     0.029 A 
ATOM     48  N   UNL A   1      40.260  30.766  29.897  1.00  0.00    -0.354 N 
ATOM     49  C   UNL A   1      41.326  25.448  28.236  1.00  0.00     0.074 A 
ATOM     50  C   UNL A   1      40.052  25.271  27.591  1.00  0.00     0.031 C 
ATOM     51  C   UNL A   1      42.490  30.770  29.836  1.00  0.00     0.029 A 
ATOM     52  C   UNL A   1      41.362  31.211  30.646  1.00  0.00     0.049 A 
ATOM     53  H   UNL A   1      39.387  31.212  29.819  1.00  0.00     0.167 HD
ATOM     54  C   UNL A   1      42.605  25.053  27.973  1.00  0.00     0.037 A 
ATOM     55  C   UNL A   1      41.264  31.117  32.008  1.00  0.00     0.037 A 
ATOM     56  C   UNL A   1      43.533  25.916  28.712  1.00  0.00     0.049 A 
ATOM     57  C   UNL A   1      42.104  29.982  32.558  1.00  0.00     0.074 A 
ATOM     58  C   UNL A   1      44.269  27.039  28.372  1.00  0.00     0.029 A 
ATOM     59  N   UNL A   1      43.475  25.911  30.089  1.00  0.00    -0.354 N 
ATOM     60  N   UNL A   1      42.655  29.052  31.823  1.00  0.00    -0.248 NA
ATOM     61  C   UNL A   1      42.365  29.788  33.980  1.00  0.00     0.031 C 
ATOM     62  C   UNL A   1      44.635  27.709  29.582  1.00  0.00     0.029 A 
ATOM     63  C   UNL A   1      44.119  26.993  30.648  1.00  0.00     0.049 A 
ATOM     64  H   UNL A   1      43.024  25.211  30.615  1.00  0.00     0.167 HD
ATOM     65  C   UNL A   1      43.346  28.177  32.611  1.00  0.00     0.074 A 
ATOM     66  C   UNL A   1      43.085  28.651  33.963  1.00  0.00     0.031 C 
ATOM     67  C   UNL A   1      44.077  27.139  32.097  1.00  0.00     0.037 A 
BRANCH  54  68
ATOM     68  C   UNL A   1      43.062  24.119  26.876  1.00  0.00     0.057 A 
ATOM     69  C   UNL A   1      43.105  22.729  27.118  1.00  0.00     0.134 A 
ATOM     70  C   UNL A   1      43.449  24.485  25.574  1.00  0.00     0.134 A 
ATOM     71  F   UNL A   1      42.698  22.202  28.280  1.00  0.00    -0.206 F 
ATOM     72  C   UNL A   1      43.551  21.796  26.174  1.00  0.00     0.040 A 
ATOM     73  C   UNL A   1      43.921  23.562  24.626  1.00  0.00     0.040 A 
ATOM     74  F   UNL A   1      43.346  25.739  25.124  1.00  0.00    -0.206 F 
ATOM     75  C   UNL A   1      43.977  22.211  24.925  1.00  0.00     0.006 A 
ENDBRANCH  54  68
BRANCH  55  76
ATOM     76  C   UNL A   1      39.881  31.494  32.466  1.00  0.00     0.057 A 
ATOM     77  C   UNL A   1      39.075  30.457  32.981  1.00  0.00     0.134 A 
ATOM     78  C   UNL A   1      39.601  32.790  32.912  1.00  0.00     0.134 A 
ATOM     79  F   UNL A   1      39.259  29.193  32.567  1.00  0.00    -0.206 F 
ATOM     80  C   UNL A   1      38.202  30.664  34.054  1.00  0.00     0.040 A 
ATOM     81  C   UNL A   1      38.698  33.012  33.961  1.00  0.00     0.040 A 
ATOM     82  F   UNL A   1      40.303  33.838  32.457  1.00  0.00    -0.206 F 
ATOM     83  C   UNL A   1      38.054  31.942  34.581  1.00  0.00     0.006 A 
ENDBRANCH  55  76
BRANCH  67  84
ATOM     84  C   UNL A   1      44.795  26.127  32.953  1.00  0.00     0.057 A 
ATOM     85  C   UNL A   1      44.120  25.262  33.817  1.00  0.00     0.134 A 
ATOM     86  C   UNL A   1      46.205  26.026  32.989  1.00  0.00     0.134 A 
ATOM     87  F   UNL A   1      42.798  25.372  34.019  1.00  0.00    -0.206 F 
ATOM     88  C   UNL A   1      44.781  24.259  34.536  1.00  0.00     0.040 A 
ATOM     89  C   UNL A   1      46.881  25.079  33.755  1.00  0.00     0.040 A 
ATOM     90  F   UNL A   1      47.011  26.815  32.270  1.00  0.00    -0.206 F 
ATOM     91  C   UNL A   1      46.167  24.160  34.497  1.00  0.00     0.006 A 
ENDBRANCH  67  84
ENDBRANCH  41  42
ENDBRANCH  33  36
ENDBRANCH  31  32
ENDBRANCH  30  31
ENDBRANCH  29  30
ENDBRANCH   1  29
TORSDOF 17
ENDMDL
