MODEL 1
REMARK VINA RESULT:     -11.4      0.000      0.000
REMARK SMILES COc1ccccc1Nc1nc(C)c(C(=O)NCCCCCCNC(=O)c2ccc(-c3c4nc(c(-c5c(F)cccc5F)c5ccc([nH]5)c(-c5c(F)cccc5F)c5nc(c(-c6c(F)cccc6F)c6ccc3[nH]6)C=C5)C=C4)cc2)s1
REMARK SMILES IDX 20 1 19 2 18 3 17 4 15 5 16 6 14 8 10 9 11 10 81 11 12 12
REMARK SMILES IDX 13 13 9 14 8 16 3 17 4 18 5 19 7 20 6 21 2 22 1 23 21 24
REMARK SMILES IDX 22 25 23 26 24 27 25 28 26 30 27 31 28 32 80 33 29 34 79 35
REMARK SMILES IDX 30 36 31 37 32 38 73 39 33 40 78 41 72 42 74 43 34 44 77 45
REMARK SMILES IDX 71 46 70 47 35 49 61 50 44 51 60 52 45 53 48 54 59 55 75 56
REMARK SMILES IDX 46 57 47 58 58 60 76 61 49 62 36 63 37 64 42 65 38 66 39 67
REMARK SMILES IDX 41 68 43 69 40 70 62 71 63 72 68 73 64 74 65 75 67 76 69 77
REMARK SMILES IDX 66 78 50 79 51 80 56 81 52 82 53 83 55 84 57 85 54 86
REMARK H PARENT 17 7 9 15 24 29 74 48 48 59
REMARK Flexibility Score: inf
ROOT
ATOM      1  C   UNL A   1      36.614  21.995  25.754  1.00  0.00     0.002 C 
ENDROOT
BRANCH   1   2
ATOM      2  C   UNL A   1      35.150  22.405  25.926  1.00  0.00     0.021 C 
BRANCH   2   3
ATOM      3  C   UNL A   1      34.393  21.530  26.927  1.00  0.00     0.116 C 
BRANCH   3   4
ATOM      4  N   UNL A   1      33.631  20.537  26.220  1.00  0.00    -0.351 N 
ATOM      5  C   UNL A   1      32.558  20.604  25.374  1.00  0.00     0.263 C 
ATOM      6  O   UNL A   1      32.153  19.487  25.025  1.00  0.00    -0.268 OA
ATOM      7  H   UNL A   1      33.946  19.617  26.378  1.00  0.00     0.163 HD
BRANCH   5   8
ATOM      8  C   UNL A   1      31.957  21.841  24.892  1.00  0.00     0.117 A 
ATOM      9  C   UNL A   1      30.703  23.951  25.018  1.00  0.00     0.188 A 
ATOM     10  N   UNL A   1      31.225  23.798  23.833  1.00  0.00    -0.225 NA
ATOM     11  S   UNL A   1      30.827  22.572  26.012  1.00  0.00    -0.091 S 
ATOM     12  C   UNL A   1      32.046  22.684  23.786  1.00  0.00     0.063 A 
ATOM     13  C   UNL A   1      32.898  22.687  22.573  1.00  0.00     0.068 C 
BRANCH   9  14
ATOM     14  N   UNL A   1      30.086  25.106  25.331  1.00  0.00    -0.328 N 
ATOM     15  H   UNL A   1      29.429  25.060  26.063  1.00  0.00     0.169 HD
BRANCH  14  16
ATOM     16  C   UNL A   1      30.266  26.378  24.740  1.00  0.00     0.083 A 
ATOM     17  C   UNL A   1      31.326  27.209  25.160  1.00  0.00     0.142 A 
ATOM     18  C   UNL A   1      31.439  28.512  24.657  1.00  0.00     0.048 A 
ATOM     19  C   UNL A   1      30.533  28.997  23.715  1.00  0.00     0.004 A 
ATOM     20  C   UNL A   1      29.379  26.882  23.770  1.00  0.00     0.030 A 
ATOM     21  C   UNL A   1      29.505  28.180  23.268  1.00  0.00     0.002 A 
BRANCH  17  22
ATOM     22  O   UNL A   1      32.231  26.919  26.153  1.00  0.00    -0.495 OA
ATOM     23  C   UNL A   1      33.485  26.377  25.752  1.00  0.00     0.278 C 
ENDBRANCH  17  22
ENDBRANCH  14  16
ENDBRANCH   9  14
ENDBRANCH   5   8
ENDBRANCH   3   4
ENDBRANCH   2   3
ENDBRANCH   1   2
BRANCH   1  24
ATOM     24  C   UNL A   1      36.843  20.971  24.636  1.00  0.00     0.002 C 
BRANCH  24  25
ATOM     25  C   UNL A   1      37.800  19.832  25.001  1.00  0.00     0.021 C 
BRANCH  25  26
ATOM     26  C   UNL A   1      39.042  20.295  25.753  1.00  0.00     0.116 C 
BRANCH  26  27
ATOM     27  N   UNL A   1      39.987  19.202  25.929  1.00  0.00    -0.352 N 
ATOM     28  C   UNL A   1      41.351  19.258  26.072  1.00  0.00     0.251 C 
ATOM     29  H   UNL A   1      39.594  18.300  25.948  1.00  0.00     0.163 HD
ATOM     30  O   UNL A   1      42.037  18.256  25.922  1.00  0.00    -0.269 OA
BRANCH  28  31
ATOM     31  C   UNL A   1      41.981  20.550  26.406  1.00  0.00     0.039 A 
ATOM     32  C   UNL A   1      42.382  21.402  25.377  1.00  0.00     0.014 A 
ATOM     33  C   UNL A   1      42.152  20.919  27.743  1.00  0.00     0.014 A 
ATOM     34  C   UNL A   1      42.902  22.658  25.692  1.00  0.00     0.010 A 
ATOM     35  C   UNL A   1      42.590  22.199  28.052  1.00  0.00     0.010 A 
ATOM     36  C   UNL A   1      42.974  23.080  27.031  1.00  0.00    -0.014 A 
BRANCH  36  37
ATOM     37  C   UNL A   1      43.440  24.443  27.386  1.00  0.00     0.031 A 
ATOM     38  C   UNL A   1      42.450  25.488  27.818  1.00  0.00     0.074 A 
ATOM     39  C   UNL A   1      44.742  24.756  27.247  1.00  0.00     0.049 A 
ATOM     40  N   UNL A   1      42.650  26.750  28.098  1.00  0.00    -0.248 NA
ATOM     41  C   UNL A   1      41.043  25.067  27.920  1.00  0.00     0.031 C 
ATOM     42  C   UNL A   1      45.789  23.841  26.787  1.00  0.00     0.029 A 
ATOM     43  N   UNL A   1      45.406  25.936  27.468  1.00  0.00    -0.354 N 
ATOM     44  C   UNL A   1      41.399  27.274  28.394  1.00  0.00     0.074 A 
ATOM     45  C   UNL A   1      40.438  26.211  28.201  1.00  0.00     0.031 C 
ATOM     46  C   UNL A   1      46.966  24.486  26.786  1.00  0.00     0.029 A 
ATOM     47  C   UNL A   1      46.753  25.868  27.202  1.00  0.00     0.049 A 
ATOM     48  H   UNL A   1      44.961  26.753  27.787  1.00  0.00     0.167 HD
ATOM     49  C   UNL A   1      41.083  28.522  28.814  1.00  0.00     0.037 A 
ATOM     50  C   UNL A   1      47.705  26.817  27.274  1.00  0.00     0.037 A 
ATOM     51  C   UNL A   1      42.048  29.570  29.020  1.00  0.00     0.049 A 
ATOM     52  C   UNL A   1      47.326  28.200  27.728  1.00  0.00     0.074 A 
ATOM     53  C   UNL A   1      41.838  30.852  29.496  1.00  0.00     0.029 A 
ATOM     54  N   UNL A   1      43.404  29.458  28.754  1.00  0.00    -0.354 N 
ATOM     55  N   UNL A   1      46.150  28.663  28.074  1.00  0.00    -0.248 NA
ATOM     56  C   UNL A   1      48.407  29.191  27.805  1.00  0.00     0.031 C 
ATOM     57  C   UNL A   1      43.058  31.534  29.466  1.00  0.00     0.029 A 
ATOM     58  C   UNL A   1      44.040  30.657  29.033  1.00  0.00     0.049 A 
ATOM     59  H   UNL A   1      43.850  28.647  28.417  1.00  0.00     0.167 HD
ATOM     60  C   UNL A   1      46.355  29.985  28.448  1.00  0.00     0.074 A 
ATOM     61  C   UNL A   1      47.770  30.247  28.291  1.00  0.00     0.031 C 
ATOM     62  C   UNL A   1      45.453  30.898  28.885  1.00  0.00     0.037 A 
BRANCH  49  63
ATOM     63  C   UNL A   1      39.635  28.819  29.079  1.00  0.00     0.057 A 
ATOM     64  C   UNL A   1      39.066  28.665  30.351  1.00  0.00     0.134 A 
ATOM     65  C   UNL A   1      38.804  29.292  28.055  1.00  0.00     0.134 A 
ATOM     66  F   UNL A   1      39.802  28.205  31.374  1.00  0.00    -0.206 F 
ATOM     67  C   UNL A   1      37.719  28.943  30.589  1.00  0.00     0.040 A 
ATOM     68  C   UNL A   1      37.462  29.604  28.288  1.00  0.00     0.040 A 
ATOM     69  F   UNL A   1      39.282  29.469  26.815  1.00  0.00    -0.206 F 
ATOM     70  C   UNL A   1      36.914  29.421  29.556  1.00  0.00     0.006 A 
ENDBRANCH  49  63
BRANCH  50  71
ATOM     71  C   UNL A   1      49.112  26.486  26.933  1.00  0.00     0.057 A 
ATOM     72  C   UNL A   1      50.011  26.057  27.915  1.00  0.00     0.134 A 
ATOM     73  C   UNL A   1      49.593  26.595  25.622  1.00  0.00     0.134 A 
ATOM     74  F   UNL A   1      49.615  25.947  29.192  1.00  0.00    -0.206 F 
ATOM     75  C   UNL A   1      51.343  25.769  27.613  1.00  0.00     0.040 A 
ATOM     76  C   UNL A   1      50.916  26.284  25.301  1.00  0.00     0.040 A 
ATOM     77  F   UNL A   1      48.780  26.990  24.632  1.00  0.00    -0.206 F 
ATOM     78  C   UNL A   1      51.798  25.878  26.301  1.00  0.00     0.006 A 
ENDBRANCH  50  71
BRANCH  62  79
ATOM     79  C   UNL A   1      45.972  32.252  29.276  1.00  0.00     0.057 A 
ATOM     80  C   UNL A   1      46.029  33.318  28.371  1.00  0.00     0.134 A 
ATOM     81  C   UNL A   1      46.372  32.501  30.596  1.00  0.00     0.134 A 
ATOM     82  F   UNL A   1      45.673  33.143  27.089  1.00  0.00    -0.206 F 
ATOM     83  C   UNL A   1      46.484  34.579  28.759  1.00  0.00     0.040 A 
ATOM     84  C   UNL A   1      46.799  33.765  31.003  1.00  0.00     0.040 A 
ATOM     85  F   UNL A   1      46.333  31.525  31.515  1.00  0.00    -0.206 F 
ATOM     86  C   UNL A   1      46.861  34.808  30.081  1.00  0.00     0.006 A 
ENDBRANCH  62  79
ENDBRANCH  36  37
ENDBRANCH  28  31
ENDBRANCH  26  27
ENDBRANCH  25  26
ENDBRANCH  24  25
ENDBRANCH   1  24
TORSDOF 16
ENDMDL
MODEL 2
REMARK VINA RESULT:     -11.2      5.007     10.228
REMARK SMILES COc1ccccc1Nc1nc(C)c(C(=O)NCCCCCCNC(=O)c2ccc(-c3c4nc(c(-c5c(F)cccc5F)c5ccc([nH]5)c(-c5c(F)cccc5F)c5nc(c(-c6c(F)cccc6F)c6ccc3[nH]6)C=C5)C=C4)cc2)s1
REMARK SMILES IDX 20 1 19 2 18 3 17 4 15 5 16 6 14 8 10 9 11 10 81 11 12 12
REMARK SMILES IDX 13 13 9 14 8 16 3 17 4 18 5 19 7 20 6 21 2 22 1 23 21 24
REMARK SMILES IDX 22 25 23 26 24 27 25 28 26 30 27 31 28 32 80 33 29 34 79 35
REMARK SMILES IDX 30 36 31 37 32 38 73 39 33 40 78 41 72 42 74 43 34 44 77 45
REMARK SMILES IDX 71 46 70 47 35 49 61 50 44 51 60 52 45 53 48 54 59 55 75 56
REMARK SMILES IDX 46 57 47 58 58 60 76 61 49 62 36 63 37 64 42 65 38 66 39 67
REMARK SMILES IDX 41 68 43 69 40 70 62 71 63 72 68 73 64 74 65 75 67 76 69 77
REMARK SMILES IDX 66 78 50 79 51 80 56 81 52 82 53 83 55 84 57 85 54 86
REMARK H PARENT 17 7 9 15 24 29 74 48 48 59
REMARK Flexibility Score: inf
ROOT
ATOM      1  C   UNL A   1      31.715  29.808  25.402  1.00  0.00     0.002 C 
ENDROOT
BRANCH   1   2
ATOM      2  C   UNL A   1      33.064  29.265  24.930  1.00  0.00     0.021 C 
BRANCH   2   3
ATOM      3  C   UNL A   1      33.176  29.171  23.406  1.00  0.00     0.116 C 
BRANCH   3   4
ATOM      4  N   UNL A   1      31.862  29.193  22.824  1.00  0.00    -0.351 N 
ATOM      5  C   UNL A   1      30.973  28.213  22.476  1.00  0.00     0.263 C 
ATOM      6  O   UNL A   1      29.956  28.661  21.931  1.00  0.00    -0.268 OA
ATOM      7  H   UNL A   1      31.533  30.102  22.635  1.00  0.00     0.163 HD
BRANCH   5   8
ATOM      8  C   UNL A   1      31.161  26.791  22.737  1.00  0.00     0.117 A 
ATOM      9  C   UNL A   1      32.117  24.543  22.462  1.00  0.00     0.188 A 
ATOM     10  N   UNL A   1      31.306  24.576  23.483  1.00  0.00    -0.225 NA
ATOM     11  S   UNL A   1      32.078  25.952  21.504  1.00  0.00    -0.091 S 
ATOM     12  C   UNL A   1      30.865  25.863  23.734  1.00  0.00     0.063 A 
ATOM     13  C   UNL A   1      30.227  25.970  25.067  1.00  0.00     0.068 C 
BRANCH   9  14
ATOM     14  N   UNL A   1      32.843  23.436  22.222  1.00  0.00    -0.328 N 
ATOM     15  H   UNL A   1      33.282  23.390  21.342  1.00  0.00     0.169 HD
BRANCH  14  16
ATOM     16  C   UNL A   1      33.055  22.330  23.078  1.00  0.00     0.083 A 
ATOM     17  C   UNL A   1      34.179  22.301  23.930  1.00  0.00     0.142 A 
ATOM     18  C   UNL A   1      34.452  21.160  24.695  1.00  0.00     0.048 A 
ATOM     19  C   UNL A   1      33.606  20.052  24.655  1.00  0.00     0.004 A 
ATOM     20  C   UNL A   1      32.204  21.209  23.074  1.00  0.00     0.030 A 
ATOM     21  C   UNL A   1      32.479  20.078  23.847  1.00  0.00     0.002 A 
BRANCH  17  22
ATOM     22  O   UNL A   1      35.159  23.263  24.002  1.00  0.00    -0.495 OA
ATOM     23  C   UNL A   1      36.387  22.992  23.334  1.00  0.00     0.278 C 
ENDBRANCH  17  22
ENDBRANCH  14  16
ENDBRANCH   9  14
ENDBRANCH   5   8
ENDBRANCH   3   4
ENDBRANCH   2   3
ENDBRANCH   1   2
BRANCH   1  24
ATOM     24  C   UNL A   1      31.749  30.410  26.813  1.00  0.00     0.002 C 
BRANCH  24  25
ATOM     25  C   UNL A   1      31.566  31.930  26.862  1.00  0.00     0.021 C 
BRANCH  25  26
ATOM     26  C   UNL A   1      32.838  32.688  27.226  1.00  0.00     0.116 C 
BRANCH  26  27
ATOM     27  N   UNL A   1      32.546  34.075  27.553  1.00  0.00    -0.352 N 
ATOM     28  C   UNL A   1      33.043  34.841  28.577  1.00  0.00     0.251 C 
ATOM     29  H   UNL A   1      31.905  34.527  26.957  1.00  0.00     0.163 HD
ATOM     30  O   UNL A   1      32.497  35.888  28.898  1.00  0.00    -0.269 OA
BRANCH  28  31
ATOM     31  C   UNL A   1      34.248  34.379  29.293  1.00  0.00     0.039 A 
ATOM     32  C   UNL A   1      34.107  33.695  30.501  1.00  0.00     0.014 A 
ATOM     33  C   UNL A   1      35.515  34.611  28.751  1.00  0.00     0.014 A 
ATOM     34  C   UNL A   1      35.241  33.186  31.136  1.00  0.00     0.010 A 
ATOM     35  C   UNL A   1      36.631  34.033  29.339  1.00  0.00     0.010 A 
ATOM     36  C   UNL A   1      36.506  33.319  30.540  1.00  0.00    -0.014 A 
BRANCH  36  37
ATOM     37  C   UNL A   1      37.714  32.711  31.150  1.00  0.00     0.031 A 
ATOM     38  C   UNL A   1      38.344  31.498  30.526  1.00  0.00     0.074 A 
ATOM     39  C   UNL A   1      38.195  33.208  32.306  1.00  0.00     0.049 A 
ATOM     40  N   UNL A   1      39.354  30.781  30.948  1.00  0.00    -0.248 NA
ATOM     41  C   UNL A   1      37.740  31.005  29.277  1.00  0.00     0.031 C 
ATOM     42  C   UNL A   1      37.638  34.350  33.034  1.00  0.00     0.029 A 
ATOM     43  N   UNL A   1      39.256  32.808  33.078  1.00  0.00    -0.354 N 
ATOM     44  C   UNL A   1      39.496  29.752  30.027  1.00  0.00     0.074 A 
ATOM     45  C   UNL A   1      38.433  29.899  29.059  1.00  0.00     0.031 C 
ATOM     46  C   UNL A   1      38.377  34.574  34.131  1.00  0.00     0.029 A 
ATOM     47  C   UNL A   1      39.432  33.569  34.209  1.00  0.00     0.049 A 
ATOM     48  H   UNL A   1      39.836  32.048  32.845  1.00  0.00     0.167 HD
ATOM     49  C   UNL A   1      40.444  28.786  29.980  1.00  0.00     0.037 A 
ATOM     50  C   UNL A   1      40.336  33.460  35.201  1.00  0.00     0.037 A 
ATOM     51  C   UNL A   1      41.509  28.655  30.939  1.00  0.00     0.049 A 
ATOM     52  C   UNL A   1      41.368  32.369  35.134  1.00  0.00     0.074 A 
ATOM     53  C   UNL A   1      42.551  27.746  30.950  1.00  0.00     0.029 A 
ATOM     54  N   UNL A   1      41.663  29.455  32.062  1.00  0.00    -0.354 N 
ATOM     55  N   UNL A   1      41.536  31.445  34.220  1.00  0.00    -0.248 NA
ATOM     56  C   UNL A   1      42.339  32.308  36.234  1.00  0.00     0.031 C 
ATOM     57  C   UNL A   1      43.305  27.959  32.108  1.00  0.00     0.029 A 
ATOM     58  C   UNL A   1      42.770  29.044  32.786  1.00  0.00     0.049 A 
ATOM     59  H   UNL A   1      41.073  30.204  32.308  1.00  0.00     0.167 HD
ATOM     60  C   UNL A   1      42.652  30.718  34.612  1.00  0.00     0.074 A 
ATOM     61  C   UNL A   1      43.125  31.314  35.844  1.00  0.00     0.031 C 
ATOM     62  C   UNL A   1      43.236  29.656  34.004  1.00  0.00     0.037 A 
BRANCH  49  63
ATOM     63  C   UNL A   1      40.369  27.795  28.853  1.00  0.00     0.057 A 
ATOM     64  C   UNL A   1      39.575  26.642  28.931  1.00  0.00     0.134 A 
ATOM     65  C   UNL A   1      41.076  28.010  27.664  1.00  0.00     0.134 A 
ATOM     66  F   UNL A   1      38.880  26.368  30.046  1.00  0.00    -0.206 F 
ATOM     67  C   UNL A   1      39.511  25.726  27.880  1.00  0.00     0.040 A 
ATOM     68  C   UNL A   1      40.994  27.117  26.593  1.00  0.00     0.040 A 
ATOM     69  F   UNL A   1      41.850  29.096  27.517  1.00  0.00    -0.206 F 
ATOM     70  C   UNL A   1      40.217  25.966  26.703  1.00  0.00     0.006 A 
ENDBRANCH  49  63
BRANCH  50  71
ATOM     71  C   UNL A   1      40.320  34.427  36.329  1.00  0.00     0.057 A 
ATOM     72  C   UNL A   1      39.562  34.182  37.478  1.00  0.00     0.134 A 
ATOM     73  C   UNL A   1      41.058  35.617  36.284  1.00  0.00     0.134 A 
ATOM     74  F   UNL A   1      38.822  33.068  37.575  1.00  0.00    -0.206 F 
ATOM     75  C   UNL A   1      39.517  35.095  38.534  1.00  0.00     0.040 A 
ATOM     76  C   UNL A   1      41.044  36.525  37.344  1.00  0.00     0.040 A 
ATOM     77  F   UNL A   1      41.815  35.905  35.216  1.00  0.00    -0.206 F 
ATOM     78  C   UNL A   1      40.264  36.269  38.470  1.00  0.00     0.006 A 
ENDBRANCH  50  71
BRANCH  62  79
ATOM     79  C   UNL A   1      44.482  29.099  34.631  1.00  0.00     0.057 A 
ATOM     80  C   UNL A   1      45.757  29.567  34.296  1.00  0.00     0.134 A 
ATOM     81  C   UNL A   1      44.393  28.114  35.624  1.00  0.00     0.134 A 
ATOM     82  F   UNL A   1      45.912  30.500  33.345  1.00  0.00    -0.206 F 
ATOM     83  C   UNL A   1      46.904  29.061  34.912  1.00  0.00     0.040 A 
ATOM     84  C   UNL A   1      45.529  27.623  36.268  1.00  0.00     0.040 A 
ATOM     85  F   UNL A   1      43.201  27.629  35.998  1.00  0.00    -0.206 F 
ATOM     86  C   UNL A   1      46.791  28.093  35.908  1.00  0.00     0.006 A 
ENDBRANCH  62  79
ENDBRANCH  36  37
ENDBRANCH  28  31
ENDBRANCH  26  27
ENDBRANCH  25  26
ENDBRANCH  24  25
ENDBRANCH   1  24
TORSDOF 16
ENDMDL
MODEL 3
REMARK VINA RESULT:     -11.2      2.471      7.641
REMARK SMILES COc1ccccc1Nc1nc(C)c(C(=O)NCCCCCCNC(=O)c2ccc(-c3c4nc(c(-c5c(F)cccc5F)c5ccc([nH]5)c(-c5c(F)cccc5F)c5nc(c(-c6c(F)cccc6F)c6ccc3[nH]6)C=C5)C=C4)cc2)s1
REMARK SMILES IDX 20 1 19 2 18 3 17 4 15 5 16 6 14 8 10 9 11 10 81 11 12 12
REMARK SMILES IDX 13 13 9 14 8 16 3 17 4 18 5 19 7 20 6 21 2 22 1 23 21 24
REMARK SMILES IDX 22 25 23 26 24 27 25 28 26 30 27 31 28 32 80 33 29 34 79 35
REMARK SMILES IDX 30 36 31 37 32 38 73 39 33 40 78 41 72 42 74 43 34 44 77 45
REMARK SMILES IDX 71 46 70 47 35 49 61 50 44 51 60 52 45 53 48 54 59 55 75 56
REMARK SMILES IDX 46 57 47 58 58 60 76 61 49 62 36 63 37 64 42 65 38 66 39 67
REMARK SMILES IDX 41 68 43 69 40 70 62 71 63 72 68 73 64 74 65 75 67 76 69 77
REMARK SMILES IDX 66 78 50 79 51 80 56 81 52 82 53 83 55 84 57 85 54 86
REMARK H PARENT 17 7 9 15 24 29 74 48 48 59
REMARK Flexibility Score: inf
ROOT
ATOM      1  C   UNL A   1      31.043  29.545  24.793  1.00  0.00     0.002 C 
ENDROOT
BRANCH   1   2
ATOM      2  C   UNL A   1      31.143  29.303  23.286  1.00  0.00     0.021 C 
BRANCH   2   3
ATOM      3  C   UNL A   1      32.471  28.671  22.864  1.00  0.00     0.116 C 
BRANCH   3   4
ATOM      4  N   UNL A   1      32.219  27.555  21.993  1.00  0.00    -0.351 N 
ATOM      5  C   UNL A   1      32.228  26.200  22.178  1.00  0.00     0.263 C 
ATOM      6  O   UNL A   1      32.015  25.573  21.132  1.00  0.00    -0.268 OA
ATOM      7  H   UNL A   1      31.993  27.821  21.071  1.00  0.00     0.163 HD
BRANCH   5   8
ATOM      8  C   UNL A   1      32.431  25.539  23.461  1.00  0.00     0.117 A 
ATOM      9  C   UNL A   1      33.679  24.463  25.285  1.00  0.00     0.188 A 
ATOM     10  N   UNL A   1      32.427  24.617  25.614  1.00  0.00    -0.225 NA
ATOM     11  S   UNL A   1      34.011  24.810  23.650  1.00  0.00    -0.091 S 
ATOM     12  C   UNL A   1      31.740  25.342  24.655  1.00  0.00     0.063 A 
ATOM     13  C   UNL A   1      30.428  25.808  25.162  1.00  0.00     0.068 C 
BRANCH   9  14
ATOM     14  N   UNL A   1      34.559  24.013  26.199  1.00  0.00    -0.328 N 
ATOM     15  H   UNL A   1      34.342  24.207  27.139  1.00  0.00     0.169 HD
BRANCH  14  16
ATOM     16  C   UNL A   1      35.756  23.294  25.976  1.00  0.00     0.083 A 
ATOM     17  C   UNL A   1      35.717  21.896  25.791  1.00  0.00     0.142 A 
ATOM     18  C   UNL A   1      36.909  21.168  25.683  1.00  0.00     0.048 A 
ATOM     19  C   UNL A   1      38.146  21.809  25.722  1.00  0.00     0.004 A 
ATOM     20  C   UNL A   1      37.017  23.921  25.988  1.00  0.00     0.030 A 
ATOM     21  C   UNL A   1      38.200  23.187  25.871  1.00  0.00     0.002 A 
BRANCH  17  22
ATOM     22  O   UNL A   1      34.590  21.110  25.837  1.00  0.00    -0.495 OA
ATOM     23  C   UNL A   1      34.189  20.477  24.626  1.00  0.00     0.278 C 
ENDBRANCH  17  22
ENDBRANCH  14  16
ENDBRANCH   9  14
ENDBRANCH   5   8
ENDBRANCH   3   4
ENDBRANCH   2   3
ENDBRANCH   1   2
BRANCH   1  24
ATOM     24  C   UNL A   1      32.402  29.607  25.502  1.00  0.00     0.002 C 
BRANCH  24  25
ATOM     25  C   UNL A   1      32.645  28.481  26.512  1.00  0.00     0.021 C 
BRANCH  25  26
ATOM     26  C   UNL A   1      33.821  28.742  27.446  1.00  0.00     0.116 C 
BRANCH  26  27
ATOM     27  N   UNL A   1      33.846  30.129  27.886  1.00  0.00    -0.352 N 
ATOM     28  C   UNL A   1      34.827  30.796  28.575  1.00  0.00     0.251 C 
ATOM     29  H   UNL A   1      33.049  30.661  27.657  1.00  0.00     0.163 HD
ATOM     30  O   UNL A   1      34.591  31.865  29.122  1.00  0.00    -0.269 OA
BRANCH  28  31
ATOM     31  C   UNL A   1      36.175  30.202  28.650  1.00  0.00     0.039 A 
ATOM     32  C   UNL A   1      37.002  30.234  27.527  1.00  0.00     0.014 A 
ATOM     33  C   UNL A   1      36.620  29.629  29.846  1.00  0.00     0.014 A 
ATOM     34  C   UNL A   1      38.306  29.745  27.623  1.00  0.00     0.010 A 
ATOM     35  C   UNL A   1      37.942  29.222  29.962  1.00  0.00     0.010 A 
ATOM     36  C   UNL A   1      38.796  29.271  28.851  1.00  0.00    -0.014 A 
BRANCH  36  37
ATOM     37  C   UNL A   1      40.205  28.829  29.000  1.00  0.00     0.031 A 
ATOM     38  C   UNL A   1      41.242  29.782  29.524  1.00  0.00     0.074 A 
ATOM     39  C   UNL A   1      40.559  27.595  28.594  1.00  0.00     0.049 A 
ATOM     40  N   UNL A   1      42.532  29.608  29.656  1.00  0.00    -0.248 NA
ATOM     41  C   UNL A   1      40.773  31.120  29.922  1.00  0.00     0.031 C 
ATOM     42  C   UNL A   1      39.652  26.598  28.021  1.00  0.00     0.029 A 
ATOM     43  N   UNL A   1      41.782  26.972  28.589  1.00  0.00    -0.354 N 
ATOM     44  C   UNL A   1      43.026  30.813  30.139  1.00  0.00     0.074 A 
ATOM     45  C   UNL A   1      41.911  31.728  30.217  1.00  0.00     0.031 C 
ATOM     46  C   UNL A   1      40.343  25.481  27.747  1.00  0.00     0.029 A 
ATOM     47  C   UNL A   1      41.747  25.695  28.081  1.00  0.00     0.049 A 
ATOM     48  H   UNL A   1      42.605  27.398  28.918  1.00  0.00     0.167 HD
ATOM     49  C   UNL A   1      44.293  31.119  30.508  1.00  0.00     0.037 A 
ATOM     50  C   UNL A   1      42.739  24.804  27.895  1.00  0.00     0.037 A 
ATOM     51  C   UNL A   1      45.396  30.196  30.442  1.00  0.00     0.049 A 
ATOM     52  C   UNL A   1      44.139  25.174  28.297  1.00  0.00     0.074 A 
ATOM     53  C   UNL A   1      46.706  30.390  30.843  1.00  0.00     0.029 A 
ATOM     54  N   UNL A   1      45.318  28.908  29.936  1.00  0.00    -0.354 N 
ATOM     55  N   UNL A   1      44.582  26.291  28.820  1.00  0.00    -0.248 NA
ATOM     56  C   UNL A   1      45.179  24.156  28.089  1.00  0.00     0.031 C 
ATOM     57  C   UNL A   1      47.433  29.239  30.529  1.00  0.00     0.029 A 
ATOM     58  C   UNL A   1      46.563  28.303  29.991  1.00  0.00     0.049 A 
ATOM     59  H   UNL A   1      44.499  28.485  29.589  1.00  0.00     0.167 HD
ATOM     60  C   UNL A   1      45.940  26.099  29.039  1.00  0.00     0.074 A 
ATOM     61  C   UNL A   1      46.247  24.755  28.598  1.00  0.00     0.031 C 
ATOM     62  C   UNL A   1      46.849  26.958  29.561  1.00  0.00     0.037 A 
BRANCH  49  63
ATOM     63  C   UNL A   1      44.551  32.509  31.014  1.00  0.00     0.057 A 
ATOM     64  C   UNL A   1      44.442  32.836  32.373  1.00  0.00     0.134 A 
ATOM     65  C   UNL A   1      44.942  33.529  30.137  1.00  0.00     0.134 A 
ATOM     66  F   UNL A   1      44.061  31.910  33.267  1.00  0.00    -0.206 F 
ATOM     67  C   UNL A   1      44.683  34.131  32.836  1.00  0.00     0.040 A 
ATOM     68  C   UNL A   1      45.216  34.820  30.593  1.00  0.00     0.040 A 
ATOM     69  F   UNL A   1      45.072  33.287  28.824  1.00  0.00    -0.206 F 
ATOM     70  C   UNL A   1      45.079  35.126  31.945  1.00  0.00     0.006 A 
ENDBRANCH  49  63
BRANCH  50  71
ATOM     71  C   UNL A   1      42.438  23.466  27.324  1.00  0.00     0.057 A 
ATOM     72  C   UNL A   1      42.042  22.403  28.144  1.00  0.00     0.134 A 
ATOM     73  C   UNL A   1      42.543  23.216  25.950  1.00  0.00     0.134 A 
ATOM     74  F   UNL A   1      41.938  22.576  29.470  1.00  0.00    -0.206 F 
ATOM     75  C   UNL A   1      41.784  21.134  27.623  1.00  0.00     0.040 A 
ATOM     76  C   UNL A   1      42.260  21.959  25.413  1.00  0.00     0.040 A 
ATOM     77  F   UNL A   1      42.905  24.194  25.109  1.00  0.00    -0.206 F 
ATOM     78  C   UNL A   1      41.888  20.910  26.252  1.00  0.00     0.006 A 
ENDBRANCH  50  71
BRANCH  62  79
ATOM     79  C   UNL A   1      48.254  26.456  29.736  1.00  0.00     0.057 A 
ATOM     80  C   UNL A   1      49.222  26.587  28.734  1.00  0.00     0.134 A 
ATOM     81  C   UNL A   1      48.653  25.881  30.950  1.00  0.00     0.134 A 
ATOM     82  F   UNL A   1      48.902  27.117  27.543  1.00  0.00    -0.206 F 
ATOM     83  C   UNL A   1      50.532  26.144  28.924  1.00  0.00     0.040 A 
ATOM     84  C   UNL A   1      49.967  25.463  31.163  1.00  0.00     0.040 A 
ATOM     85  F   UNL A   1      47.777  25.735  31.955  1.00  0.00    -0.206 F 
ATOM     86  C   UNL A   1      50.910  25.589  30.145  1.00  0.00     0.006 A 
ENDBRANCH  62  79
ENDBRANCH  36  37
ENDBRANCH  28  31
ENDBRANCH  26  27
ENDBRANCH  25  26
ENDBRANCH  24  25
ENDBRANCH   1  24
TORSDOF 16
ENDMDL
