MODEL 1
REMARK VINA RESULT:     -11.3      0.000      0.000
REMARK SMILES C/C=C(\C)[C@H]1C(C)=C[C@H]2CC[C@@H](OS(=O)(=O)[O-])[C@@H](C)[C@H]2[C@H]1/C=C/C=C/C(=O)NCCCCCCNC(=O)c1ccc(-c2c3nc(c(-c4c(F)cccc4F)c4ccc([nH]4)c(-c4c(F)cccc4F)c4nc(c(-c5c(F)cccc5F)c5ccc2[nH]5)C=C4)C=C3)cc1
REMARK SMILES IDX 30 1 29 2 28 3 26 4 27 5 25 7 24 8 23 9 22 10 21 11 5 12
REMARK SMILES IDX 6 13 7 14 8 15 20 16 9 17 18 18 10 19 12 20 19 21 11 22 3 23
REMARK SMILES IDX 1 24 2 25 4 26 13 27 14 28 15 29 16 30 17 31 31 32 32 33
REMARK SMILES IDX 33 34 34 35 35 36 36 37 37 39 38 40 39 41 91 42 40 43 90 44
REMARK SMILES IDX 41 45 42 46 43 47 84 48 44 49 89 50 83 51 85 52 45 53 88 54
REMARK SMILES IDX 82 55 81 56 46 58 72 59 55 60 71 61 56 62 59 63 70 64 86 65
REMARK SMILES IDX 57 66 58 67 69 69 87 70 60 71 47 72 48 73 53 74 49 75 50 76
REMARK SMILES IDX 52 77 54 78 51 79 73 80 74 81 79 82 75 83 76 84 78 85 80 86
REMARK SMILES IDX 77 87 61 88 62 89 67 90 63 91 64 92 66 93 68 94 65 95
REMARK H PARENT 28 6 35 38 85 57 59 68
REMARK Flexibility Score: inf
ROOT
ATOM      1  C   UNL A   1      38.580  28.453  29.723  1.00  0.00     0.021 C 
ENDROOT
BRANCH   1   2
ATOM      2  C   UNL A   1      38.468  28.986  28.297  1.00  0.00     0.116 C 
BRANCH   2   3
ATOM      3  N   UNL A   1      37.887  30.319  28.231  1.00  0.00    -0.353 N 
ATOM      4  C   UNL A   1      36.583  30.720  28.193  1.00  0.00     0.243 C 
ATOM      5  O   UNL A   1      36.307  31.907  28.043  1.00  0.00    -0.270 OA
ATOM      6  H   UNL A   1      38.543  31.053  28.212  1.00  0.00     0.163 HD
BRANCH   4   7
ATOM      7  C   UNL A   1      35.501  29.712  28.227  1.00  0.00     0.071 C 
ATOM      8  C   UNL A   1      34.708  29.480  27.173  1.00  0.00     0.005 C 
BRANCH   8   9
ATOM      9  C   UNL A   1      33.493  28.707  27.282  1.00  0.00    -0.004 C 
ATOM     10  C   UNL A   1      33.426  27.489  26.718  1.00  0.00    -0.022 C 
BRANCH  10  11
ATOM     11  C   UNL A   1      32.155  26.694  26.511  1.00  0.00     0.027 C 
ATOM     12  C   UNL A   1      31.120  27.222  25.413  1.00  0.00     0.047 C 
ATOM     13  C   UNL A   1      30.265  26.084  24.807  1.00  0.00    -0.069 C 
ATOM     14  C   UNL A   1      29.406  26.354  23.601  1.00  0.00     0.040 C 
ATOM     15  C   UNL A   1      30.227  24.844  25.345  1.00  0.00    -0.024 C 
ATOM     16  C   UNL A   1      32.432  25.138  26.481  1.00  0.00     0.009 C 
ATOM     17  C   UNL A   1      31.080  24.399  26.500  1.00  0.00     0.016 C 
ATOM     18  C   UNL A   1      33.416  24.577  25.389  1.00  0.00     0.021 C 
ATOM     19  C   UNL A   1      31.289  22.875  26.559  1.00  0.00     0.011 C 
ATOM     20  C   UNL A   1      33.544  23.031  25.430  1.00  0.00     0.141 C 
ATOM     21  C   UNL A   1      33.109  24.987  23.961  1.00  0.00     0.011 C 
ATOM     22  C   UNL A   1      32.184  22.328  25.452  1.00  0.00     0.034 C 
BRANCH  12  23
ATOM     23  C   UNL A   1      31.547  28.340  24.395  1.00  0.00    -0.070 C 
ATOM     24  C   UNL A   1      33.094  29.005  22.454  1.00  0.00     0.035 C 
ATOM     25  C   UNL A   1      32.487  28.068  23.458  1.00  0.00    -0.031 C 
ATOM     26  C   UNL A   1      30.934  29.722  24.438  1.00  0.00     0.040 C 
ENDBRANCH  12  23
BRANCH  20  27
ATOM     27  O   UNL A   1      34.466  22.590  24.425  1.00  0.00    -0.276 OA
BRANCH  27  28
ATOM     28  S   UNL A   1      35.962  22.027  24.731  1.00  0.00     0.217 S 
ATOM     29  O   UNL A   1      35.866  20.700  25.296  1.00  0.00    -0.213 OA
ATOM     30  O   UNL A   1      36.849  22.308  23.629  1.00  0.00    -0.213 OA
ATOM     31  O   UNL A   1      36.464  23.007  25.903  1.00  0.00    -0.726 OA
ENDBRANCH  27  28
ENDBRANCH  20  27
ENDBRANCH  10  11
ENDBRANCH   8   9
ENDBRANCH   4   7
ENDBRANCH   2   3
ENDBRANCH   1   2
BRANCH   1  32
ATOM     32  C   UNL A   1      39.276  27.097  29.865  1.00  0.00     0.002 C 
BRANCH  32  33
ATOM     33  C   UNL A   1      39.942  26.557  28.595  1.00  0.00     0.002 C 
BRANCH  33  34
ATOM     34  C   UNL A   1      39.272  25.334  27.965  1.00  0.00     0.021 C 
BRANCH  34  35
ATOM     35  C   UNL A   1      39.755  24.981  26.562  1.00  0.00     0.116 C 
BRANCH  35  36
ATOM     36  N   UNL A   1      40.494  23.729  26.528  1.00  0.00    -0.352 N 
ATOM     37  C   UNL A   1      41.839  23.510  26.367  1.00  0.00     0.251 C 
ATOM     38  H   UNL A   1      39.947  22.917  26.636  1.00  0.00     0.163 HD
ATOM     39  O   UNL A   1      42.261  22.373  26.177  1.00  0.00    -0.269 OA
BRANCH  37  40
ATOM     40  C   UNL A   1      42.785  24.646  26.402  1.00  0.00     0.039 A 
ATOM     41  C   UNL A   1      43.286  25.069  27.636  1.00  0.00     0.014 A 
ATOM     42  C   UNL A   1      43.168  25.300  25.228  1.00  0.00     0.014 A 
ATOM     43  C   UNL A   1      44.218  26.108  27.686  1.00  0.00     0.010 A 
ATOM     44  C   UNL A   1      44.156  26.280  25.272  1.00  0.00     0.010 A 
ATOM     45  C   UNL A   1      44.688  26.697  26.501  1.00  0.00    -0.014 A 
BRANCH  45  46
ATOM     46  C   UNL A   1      45.743  27.742  26.531  1.00  0.00     0.031 A 
ATOM     47  C   UNL A   1      45.378  29.191  26.691  1.00  0.00     0.074 A 
ATOM     48  C   UNL A   1      47.030  27.392  26.342  1.00  0.00     0.049 A 
ATOM     49  N   UNL A   1      46.153  30.245  26.684  1.00  0.00    -0.248 NA
ATOM     50  C   UNL A   1      43.948  29.499  26.846  1.00  0.00     0.031 C 
ATOM     51  C   UNL A   1      47.508  26.027  26.115  1.00  0.00     0.029 A 
ATOM     52  N   UNL A   1      48.168  28.156  26.295  1.00  0.00    -0.354 N 
ATOM     53  C   UNL A   1      45.307  31.339  26.817  1.00  0.00     0.074 A 
ATOM     54  C   UNL A   1      43.955  30.823  26.839  1.00  0.00     0.031 C 
ATOM     55  C   UNL A   1      48.841  26.048  25.974  1.00  0.00     0.029 A 
ATOM     56  C   UNL A   1      49.309  27.428  26.057  1.00  0.00     0.049 A 
ATOM     57  H   UNL A   1      48.169  29.133  26.420  1.00  0.00     0.167 HD
ATOM     58  C   UNL A   1      45.627  32.650  26.931  1.00  0.00     0.037 A 
ATOM     59  C   UNL A   1      50.586  27.825  25.911  1.00  0.00     0.037 A 
ATOM     60  C   UNL A   1      46.976  33.155  26.921  1.00  0.00     0.049 A 
ATOM     61  C   UNL A   1      50.923  29.284  26.039  1.00  0.00     0.074 A 
ATOM     62  C   UNL A   1      47.411  34.456  27.106  1.00  0.00     0.029 A 
ATOM     63  N   UNL A   1      48.109  32.385  26.699  1.00  0.00    -0.354 N 
ATOM     64  N   UNL A   1      50.121  30.300  26.253  1.00  0.00    -0.248 NA
ATOM     65  C   UNL A   1      52.339  29.651  25.913  1.00  0.00     0.031 C 
ATOM     66  C   UNL A   1      48.798  34.483  26.926  1.00  0.00     0.029 A 
ATOM     67  C   UNL A   1      49.238  33.189  26.701  1.00  0.00     0.049 A 
ATOM     68  H   UNL A   1      48.110  31.410  26.561  1.00  0.00     0.167 HD
ATOM     69  C   UNL A   1      50.936  31.423  26.310  1.00  0.00     0.074 A 
ATOM     70  C   UNL A   1      52.297  30.960  26.123  1.00  0.00     0.031 C 
ATOM     71  C   UNL A   1      50.587  32.720  26.502  1.00  0.00     0.037 A 
BRANCH  58  72
ATOM     72  C   UNL A   1      44.491  33.629  27.050  1.00  0.00     0.057 A 
ATOM     73  C   UNL A   1      43.927  33.975  28.286  1.00  0.00     0.134 A 
ATOM     74  C   UNL A   1      43.953  34.237  25.907  1.00  0.00     0.134 A 
ATOM     75  F   UNL A   1      44.386  33.425  29.420  1.00  0.00    -0.206 F 
ATOM     76  C   UNL A   1      42.840  34.847  28.377  1.00  0.00     0.040 A 
ATOM     77  C   UNL A   1      42.891  35.139  25.989  1.00  0.00     0.040 A 
ATOM     78  F   UNL A   1      44.449  33.962  24.692  1.00  0.00    -0.206 F 
ATOM     79  C   UNL A   1      42.323  35.436  27.225  1.00  0.00     0.006 A 
ENDBRANCH  58  72
BRANCH  59  80
ATOM     80  C   UNL A   1      51.638  26.814  25.638  1.00  0.00     0.057 A 
ATOM     81  C   UNL A   1      52.085  26.560  24.336  1.00  0.00     0.134 A 
ATOM     82  C   UNL A   1      52.251  26.105  26.679  1.00  0.00     0.134 A 
ATOM     83  F   UNL A   1      51.525  27.197  23.296  1.00  0.00    -0.206 F 
ATOM     84  C   UNL A   1      53.097  25.635  24.077  1.00  0.00     0.040 A 
ATOM     85  C   UNL A   1      53.283  25.197  26.437  1.00  0.00     0.040 A 
ATOM     86  F   UNL A   1      51.877  26.312  27.949  1.00  0.00    -0.206 F 
ATOM     87  C   UNL A   1      53.706  24.957  25.132  1.00  0.00     0.006 A 
ENDBRANCH  59  80
BRANCH  71  88
ATOM     88  C   UNL A   1      51.697  33.733  26.545  1.00  0.00     0.057 A 
ATOM     89  C   UNL A   1      52.393  34.022  27.726  1.00  0.00     0.134 A 
ATOM     90  C   UNL A   1      52.102  34.397  25.379  1.00  0.00     0.134 A 
ATOM     91  F   UNL A   1      52.051  33.431  28.881  1.00  0.00    -0.206 F 
ATOM     92  C   UNL A   1      53.434  34.953  27.750  1.00  0.00     0.040 A 
ATOM     93  C   UNL A   1      53.161  35.305  25.385  1.00  0.00     0.040 A 
ATOM     94  F   UNL A   1      51.485  34.159  24.212  1.00  0.00    -0.206 F 
ATOM     95  C   UNL A   1      53.826  35.591  26.575  1.00  0.00     0.006 A 
ENDBRANCH  71  88
ENDBRANCH  45  46
ENDBRANCH  37  40
ENDBRANCH  35  36
ENDBRANCH  34  35
ENDBRANCH  33  34
ENDBRANCH  32  33
ENDBRANCH   1  32
TORSDOF 18
ENDMDL
MODEL 2
REMARK VINA RESULT:     -11.1      0.685      5.914
REMARK SMILES C/C=C(\C)[C@H]1C(C)=C[C@H]2CC[C@@H](OS(=O)(=O)[O-])[C@@H](C)[C@H]2[C@H]1/C=C/C=C/C(=O)NCCCCCCNC(=O)c1ccc(-c2c3nc(c(-c4c(F)cccc4F)c4ccc([nH]4)c(-c4c(F)cccc4F)c4nc(c(-c5c(F)cccc5F)c5ccc2[nH]5)C=C4)C=C3)cc1
REMARK SMILES IDX 30 1 29 2 28 3 26 4 27 5 25 7 24 8 23 9 22 10 21 11 5 12
REMARK SMILES IDX 6 13 7 14 8 15 20 16 9 17 18 18 10 19 12 20 19 21 11 22 3 23
REMARK SMILES IDX 1 24 2 25 4 26 13 27 14 28 15 29 16 30 17 31 31 32 32 33
REMARK SMILES IDX 33 34 34 35 35 36 36 37 37 39 38 40 39 41 91 42 40 43 90 44
REMARK SMILES IDX 41 45 42 46 43 47 84 48 44 49 89 50 83 51 85 52 45 53 88 54
REMARK SMILES IDX 82 55 81 56 46 58 72 59 55 60 71 61 56 62 59 63 70 64 86 65
REMARK SMILES IDX 57 66 58 67 69 69 87 70 60 71 47 72 48 73 53 74 49 75 50 76
REMARK SMILES IDX 52 77 54 78 51 79 73 80 74 81 79 82 75 83 76 84 78 85 80 86
REMARK SMILES IDX 77 87 61 88 62 89 67 90 63 91 64 92 66 93 68 94 65 95
REMARK H PARENT 28 6 35 38 85 57 59 68
REMARK Flexibility Score: inf
ROOT
ATOM      1  C   UNL A   1      38.888  29.432  28.026  1.00  0.00     0.021 C 
ENDROOT
BRANCH   1   2
ATOM      2  C   UNL A   1      38.328  30.378  29.086  1.00  0.00     0.116 C 
BRANCH   2   3
ATOM      3  N   UNL A   1      37.528  31.455  28.521  1.00  0.00    -0.353 N 
ATOM      4  C   UNL A   1      36.217  31.484  28.140  1.00  0.00     0.243 C 
ATOM      5  O   UNL A   1      35.756  32.481  27.592  1.00  0.00    -0.270 OA
ATOM      6  H   UNL A   1      38.011  32.303  28.393  1.00  0.00     0.163 HD
BRANCH   4   7
ATOM      7  C   UNL A   1      35.379  30.275  28.290  1.00  0.00     0.071 C 
ATOM      8  C   UNL A   1      34.687  29.754  27.270  1.00  0.00     0.005 C 
BRANCH   8   9
ATOM      9  C   UNL A   1      33.666  28.751  27.466  1.00  0.00    -0.004 C 
ATOM     10  C   UNL A   1      33.444  27.831  26.512  1.00  0.00    -0.022 C 
BRANCH  10  11
ATOM     11  C   UNL A   1      32.245  26.909  26.454  1.00  0.00     0.027 C 
ATOM     12  C   UNL A   1      31.000  27.367  25.563  1.00  0.00     0.047 C 
ATOM     13  C   UNL A   1      30.181  26.169  25.026  1.00  0.00    -0.069 C 
ATOM     14  C   UNL A   1      29.118  26.395  23.984  1.00  0.00     0.040 C 
ATOM     15  C   UNL A   1      30.357  24.910  25.485  1.00  0.00    -0.024 C 
ATOM     16  C   UNL A   1      32.673  25.397  26.286  1.00  0.00     0.009 C 
ATOM     17  C   UNL A   1      31.424  24.512  26.466  1.00  0.00     0.016 C 
ATOM     18  C   UNL A   1      33.523  24.998  25.024  1.00  0.00     0.021 C 
ATOM     19  C   UNL A   1      31.796  23.019  26.399  1.00  0.00     0.011 C 
ATOM     20  C   UNL A   1      33.814  23.476  24.949  1.00  0.00     0.141 C 
ATOM     21  C   UNL A   1      32.952  25.435  23.688  1.00  0.00     0.011 C 
ATOM     22  C   UNL A   1      32.555  22.626  25.136  1.00  0.00     0.034 C 
BRANCH  12  23
ATOM     23  C   UNL A   1      31.142  28.571  24.562  1.00  0.00    -0.070 C 
ATOM     24  C   UNL A   1      31.551  29.315  22.137  1.00  0.00     0.035 C 
ATOM     25  C   UNL A   1      31.314  28.325  23.240  1.00  0.00    -0.031 C 
ATOM     26  C   UNL A   1      31.095  30.005  25.041  1.00  0.00     0.040 C 
ENDBRANCH  12  23
BRANCH  20  27
ATOM     27  O   UNL A   1      34.605  23.186  23.789  1.00  0.00    -0.276 OA
BRANCH  27  28
ATOM     28  S   UNL A   1      36.168  22.733  23.831  1.00  0.00     0.217 S 
ATOM     29  O   UNL A   1      36.274  21.442  24.471  1.00  0.00    -0.213 OA
ATOM     30  O   UNL A   1      36.809  22.995  22.565  1.00  0.00    -0.213 OA
ATOM     31  O   UNL A   1      36.812  23.814  24.831  1.00  0.00    -0.726 OA
ENDBRANCH  27  28
ENDBRANCH  20  27
ENDBRANCH  10  11
ENDBRANCH   8   9
ENDBRANCH   4   7
ENDBRANCH   2   3
ENDBRANCH   1   2
BRANCH   1  32
ATOM     32  C   UNL A   1      39.495  28.133  28.562  1.00  0.00     0.002 C 
BRANCH  32  33
ATOM     33  C   UNL A   1      40.142  27.220  27.515  1.00  0.00     0.002 C 
BRANCH  33  34
ATOM     34  C   UNL A   1      39.800  25.734  27.631  1.00  0.00     0.021 C 
BRANCH  34  35
ATOM     35  C   UNL A   1      39.948  24.932  26.342  1.00  0.00     0.116 C 
BRANCH  35  36
ATOM     36  N   UNL A   1      40.756  23.736  26.521  1.00  0.00    -0.352 N 
ATOM     37  C   UNL A   1      42.121  23.590  26.491  1.00  0.00     0.251 C 
ATOM     38  H   UNL A   1      40.250  22.909  26.688  1.00  0.00     0.163 HD
ATOM     39  O   UNL A   1      42.621  22.469  26.477  1.00  0.00    -0.269 OA
BRANCH  37  40
ATOM     40  C   UNL A   1      42.994  24.782  26.455  1.00  0.00     0.039 A 
ATOM     41  C   UNL A   1      43.496  25.289  27.658  1.00  0.00     0.014 A 
ATOM     42  C   UNL A   1      43.310  25.407  25.245  1.00  0.00     0.014 A 
ATOM     43  C   UNL A   1      44.362  26.384  27.640  1.00  0.00     0.010 A 
ATOM     44  C   UNL A   1      44.235  26.447  25.224  1.00  0.00     0.010 A 
ATOM     45  C   UNL A   1      44.767  26.949  26.421  1.00  0.00    -0.014 A 
BRANCH  45  46
ATOM     46  C   UNL A   1      45.755  28.057  26.381  1.00  0.00     0.031 A 
ATOM     47  C   UNL A   1      47.226  27.766  26.274  1.00  0.00     0.074 A 
ATOM     48  C   UNL A   1      45.332  29.329  26.513  1.00  0.00     0.049 A 
ATOM     49  N   UNL A   1      48.236  28.596  26.282  1.00  0.00    -0.248 NA
ATOM     50  C   UNL A   1      47.613  26.350  26.181  1.00  0.00     0.031 C 
ATOM     51  C   UNL A   1      43.938  29.740  26.685  1.00  0.00     0.029 A 
ATOM     52  N   UNL A   1      46.033  30.508  26.539  1.00  0.00    -0.354 N 
ATOM     53  C   UNL A   1      49.377  27.806  26.210  1.00  0.00     0.074 A 
ATOM     54  C   UNL A   1      48.934  26.429  26.223  1.00  0.00     0.031 C 
ATOM     55  C   UNL A   1      43.884  31.077  26.777  1.00  0.00     0.029 A 
ATOM     56  C   UNL A   1      45.239  31.616  26.715  1.00  0.00     0.049 A 
ATOM     57  H   UNL A   1      47.011  30.557  26.441  1.00  0.00     0.167 HD
ATOM     58  C   UNL A   1      50.672  28.192  26.120  1.00  0.00     0.037 A 
ATOM     59  C   UNL A   1      45.563  32.917  26.825  1.00  0.00     0.037 A 
ATOM     60  C   UNL A   1      51.105  29.566  26.094  1.00  0.00     0.049 A 
ATOM     61  C   UNL A   1      47.006  33.327  26.725  1.00  0.00     0.074 A 
ATOM     62  C   UNL A   1      52.385  30.064  25.929  1.00  0.00     0.029 A 
ATOM     63  N   UNL A   1      50.269  30.663  26.254  1.00  0.00    -0.354 N 
ATOM     64  N   UNL A   1      48.068  32.574  26.568  1.00  0.00    -0.248 NA
ATOM     65  C   UNL A   1      47.294  34.764  26.809  1.00  0.00     0.031 C 
ATOM     66  C   UNL A   1      52.334  31.456  26.059  1.00  0.00     0.029 A 
ATOM     67  C   UNL A   1      51.012  31.833  26.233  1.00  0.00     0.049 A 
ATOM     68  H   UNL A   1      49.292  30.617  26.365  1.00  0.00     0.167 HD
ATOM     69  C   UNL A   1      49.148  33.446  26.513  1.00  0.00     0.074 A 
ATOM     70  C   UNL A   1      48.608  34.785  26.637  1.00  0.00     0.031 C 
ATOM     71  C   UNL A   1      50.467  33.161  26.369  1.00  0.00     0.037 A 
BRANCH  58  72
ATOM     72  C   UNL A   1      51.712  27.107  26.070  1.00  0.00     0.057 A 
ATOM     73  C   UNL A   1      52.073  26.470  24.875  1.00  0.00     0.134 A 
ATOM     74  C   UNL A   1      52.366  26.694  27.239  1.00  0.00     0.134 A 
ATOM     75  F   UNL A   1      51.482  26.809  23.719  1.00  0.00    -0.206 F 
ATOM     76  C   UNL A   1      53.005  25.431  24.850  1.00  0.00     0.040 A 
ATOM     77  C   UNL A   1      53.327  25.681  27.221  1.00  0.00     0.040 A 
ATOM     78  F   UNL A   1      52.081  27.265  28.418  1.00  0.00    -0.206 F 
ATOM     79  C   UNL A   1      53.639  25.037  26.027  1.00  0.00     0.006 A 
ENDBRANCH  58  72
BRANCH  59  80
ATOM     80  C   UNL A   1      44.490  33.922  27.032  1.00  0.00     0.057 A 
ATOM     81  C   UNL A   1      43.858  34.545  25.950  1.00  0.00     0.134 A 
ATOM     82  C   UNL A   1      44.042  34.251  28.317  1.00  0.00     0.134 A 
ATOM     83  F   UNL A   1      44.253  34.281  24.695  1.00  0.00    -0.206 F 
ATOM     84  C   UNL A   1      42.825  35.464  26.138  1.00  0.00     0.040 A 
ATOM     85  C   UNL A   1      42.993  35.149  28.518  1.00  0.00     0.040 A 
ATOM     86  F   UNL A   1      44.598  33.679  29.394  1.00  0.00    -0.206 F 
ATOM     87  C   UNL A   1      42.384  35.762  27.426  1.00  0.00     0.006 A 
ENDBRANCH  59  80
BRANCH  71  88
ATOM     88  C   UNL A   1      51.420  34.322  26.313  1.00  0.00     0.057 A 
ATOM     89  C   UNL A   1      51.819  34.898  25.100  1.00  0.00     0.134 A 
ATOM     90  C   UNL A   1      51.913  34.897  27.492  1.00  0.00     0.134 A 
ATOM     91  F   UNL A   1      51.394  34.391  23.933  1.00  0.00    -0.206 F 
ATOM     92  C   UNL A   1      52.692  35.987  25.061  1.00  0.00     0.040 A 
ATOM     93  C   UNL A   1      52.761  36.005  27.467  1.00  0.00     0.040 A 
ATOM     94  F   UNL A   1      51.564  34.401  28.688  1.00  0.00    -0.206 F 
ATOM     95  C   UNL A   1      53.159  36.549  26.248  1.00  0.00     0.006 A 
ENDBRANCH  71  88
ENDBRANCH  45  46
ENDBRANCH  37  40
ENDBRANCH  35  36
ENDBRANCH  34  35
ENDBRANCH  33  34
ENDBRANCH  32  33
ENDBRANCH   1  32
TORSDOF 18
ENDMDL
MODEL 3
REMARK VINA RESULT:     -11.0      2.805      7.570
REMARK SMILES C/C=C(\C)[C@H]1C(C)=C[C@H]2CC[C@@H](OS(=O)(=O)[O-])[C@@H](C)[C@H]2[C@H]1/C=C/C=C/C(=O)NCCCCCCNC(=O)c1ccc(-c2c3nc(c(-c4c(F)cccc4F)c4ccc([nH]4)c(-c4c(F)cccc4F)c4nc(c(-c5c(F)cccc5F)c5ccc2[nH]5)C=C4)C=C3)cc1
REMARK SMILES IDX 30 1 29 2 28 3 26 4 27 5 25 7 24 8 23 9 22 10 21 11 5 12
REMARK SMILES IDX 6 13 7 14 8 15 20 16 9 17 18 18 10 19 12 20 19 21 11 22 3 23
REMARK SMILES IDX 1 24 2 25 4 26 13 27 14 28 15 29 16 30 17 31 31 32 32 33
REMARK SMILES IDX 33 34 34 35 35 36 36 37 37 39 38 40 39 41 91 42 40 43 90 44
REMARK SMILES IDX 41 45 42 46 43 47 84 48 44 49 89 50 83 51 85 52 45 53 88 54
REMARK SMILES IDX 82 55 81 56 46 58 72 59 55 60 71 61 56 62 59 63 70 64 86 65
REMARK SMILES IDX 57 66 58 67 69 69 87 70 60 71 47 72 48 73 53 74 49 75 50 76
REMARK SMILES IDX 52 77 54 78 51 79 73 80 74 81 79 82 75 83 76 84 78 85 80 86
REMARK SMILES IDX 77 87 61 88 62 89 67 90 63 91 64 92 66 93 68 94 65 95
REMARK H PARENT 28 6 35 38 85 57 59 68
REMARK Flexibility Score: inf
ROOT
ATOM      1  C   UNL A   1      39.913  23.182  26.785  1.00  0.00     0.021 C 
ENDROOT
BRANCH   1   2
ATOM      2  C   UNL A   1      38.451  23.113  26.349  1.00  0.00     0.116 C 
BRANCH   2   3
ATOM      3  N   UNL A   1      38.023  21.765  26.005  1.00  0.00    -0.353 N 
ATOM      4  C   UNL A   1      36.926  21.327  25.321  1.00  0.00     0.243 C 
ATOM      5  O   UNL A   1      36.702  20.124  25.220  1.00  0.00    -0.270 OA
ATOM      6  H   UNL A   1      38.625  21.051  26.317  1.00  0.00     0.163 HD
BRANCH   4   7
ATOM      7  C   UNL A   1      35.949  22.303  24.792  1.00  0.00     0.071 C 
ATOM      8  C   UNL A   1      35.967  22.712  23.517  1.00  0.00     0.005 C 
BRANCH   8   9
ATOM      9  C   UNL A   1      35.204  23.852  23.064  1.00  0.00    -0.004 C 
ATOM     10  C   UNL A   1      34.257  24.377  23.860  1.00  0.00    -0.022 C 
BRANCH  10  11
ATOM     11  C   UNL A   1      33.207  25.374  23.422  1.00  0.00     0.027 C 
ATOM     12  C   UNL A   1      31.673  24.968  23.612  1.00  0.00     0.047 C 
ATOM     13  C   UNL A   1      30.750  26.197  23.789  1.00  0.00    -0.069 C 
ATOM     14  C   UNL A   1      29.318  26.004  24.211  1.00  0.00     0.040 C 
ATOM     15  C   UNL A   1      31.171  27.458  23.543  1.00  0.00    -0.024 C 
ATOM     16  C   UNL A   1      33.572  26.847  23.862  1.00  0.00     0.009 C 
ATOM     17  C   UNL A   1      32.586  27.820  23.187  1.00  0.00     0.016 C 
ATOM     18  C   UNL A   1      33.761  27.141  25.397  1.00  0.00     0.021 C 
ATOM     19  C   UNL A   1      32.948  29.281  23.512  1.00  0.00     0.011 C 
ATOM     20  C   UNL A   1      34.049  28.637  25.693  1.00  0.00     0.141 C 
ATOM     21  C   UNL A   1      32.620  26.694  26.292  1.00  0.00     0.011 C 
ATOM     22  C   UNL A   1      33.055  29.575  25.005  1.00  0.00     0.034 C 
BRANCH  12  23
ATOM     23  C   UNL A   1      31.286  23.721  24.488  1.00  0.00    -0.070 C 
ATOM     24  C   UNL A   1      30.423  22.868  26.752  1.00  0.00     0.035 C 
ATOM     25  C   UNL A   1      30.776  23.908  25.729  1.00  0.00    -0.031 C 
ATOM     26  C   UNL A   1      31.474  22.310  23.978  1.00  0.00     0.040 C 
ENDBRANCH  12  23
BRANCH  20  27
ATOM     27  O   UNL A   1      34.228  28.830  27.102  1.00  0.00    -0.276 OA
BRANCH  27  28
ATOM     28  S   UNL A   1      35.058  30.063  27.764  1.00  0.00     0.217 S 
ATOM     29  O   UNL A   1      36.284  30.265  27.027  1.00  0.00    -0.213 OA
ATOM     30  O   UNL A   1      34.178  31.166  28.068  1.00  0.00    -0.213 OA
ATOM     31  O   UNL A   1      35.461  29.472  29.204  1.00  0.00    -0.726 OA
ENDBRANCH  27  28
ENDBRANCH  20  27
ENDBRANCH  10  11
ENDBRANCH   8   9
ENDBRANCH   4   7
ENDBRANCH   2   3
ENDBRANCH   1   2
BRANCH   1  32
ATOM     32  C   UNL A   1      40.551  21.841  27.156  1.00  0.00     0.002 C 
BRANCH  32  33
ATOM     33  C   UNL A   1      41.748  21.414  26.299  1.00  0.00     0.002 C 
BRANCH  33  34
ATOM     34  C   UNL A   1      41.742  19.956  25.835  1.00  0.00     0.021 C 
BRANCH  34  35
ATOM     35  C   UNL A   1      42.974  19.147  26.227  1.00  0.00     0.116 C 
BRANCH  35  36
ATOM     36  N   UNL A   1      43.791  18.787  25.079  1.00  0.00    -0.352 N 
ATOM     37  C   UNL A   1      44.606  19.573  24.304  1.00  0.00     0.251 C 
ATOM     38  H   UNL A   1      43.753  17.839  24.819  1.00  0.00     0.163 HD
ATOM     39  O   UNL A   1      45.075  19.133  23.259  1.00  0.00    -0.269 OA
BRANCH  37  40
ATOM     40  C   UNL A   1      44.908  20.961  24.715  1.00  0.00     0.039 A 
ATOM     41  C   UNL A   1      44.557  22.010  23.861  1.00  0.00     0.014 A 
ATOM     42  C   UNL A   1      45.543  21.229  25.931  1.00  0.00     0.014 A 
ATOM     43  C   UNL A   1      44.788  23.330  24.254  1.00  0.00     0.010 A 
ATOM     44  C   UNL A   1      45.699  22.546  26.355  1.00  0.00     0.010 A 
ATOM     45  C   UNL A   1      45.327  23.610  25.519  1.00  0.00    -0.014 A 
BRANCH  45  46
ATOM     46  C   UNL A   1      45.498  25.009  25.987  1.00  0.00     0.031 A 
ATOM     47  C   UNL A   1      46.841  25.680  25.914  1.00  0.00     0.074 A 
ATOM     48  C   UNL A   1      44.456  25.654  26.547  1.00  0.00     0.049 A 
ATOM     49  N   UNL A   1      47.194  26.872  26.324  1.00  0.00    -0.248 NA
ATOM     50  C   UNL A   1      47.941  24.895  25.333  1.00  0.00     0.031 C 
ATOM     51  C   UNL A   1      43.117  25.092  26.731  1.00  0.00     0.029 A 
ATOM     52  N   UNL A   1      44.364  26.916  27.076  1.00  0.00    -0.354 N 
ATOM     53  C   UNL A   1      48.555  26.973  26.066  1.00  0.00     0.074 A 
ATOM     54  C   UNL A   1      48.975  25.699  25.523  1.00  0.00     0.031 C 
ATOM     55  C   UNL A   1      42.333  26.011  27.312  1.00  0.00     0.029 A 
ATOM     56  C   UNL A   1      43.120  27.211  27.579  1.00  0.00     0.049 A 
ATOM     57  H   UNL A   1      45.116  27.551  27.093  1.00  0.00     0.167 HD
ATOM     58  C   UNL A   1      49.375  28.036  26.247  1.00  0.00     0.037 A 
ATOM     59  C   UNL A   1      42.665  28.316  28.198  1.00  0.00     0.037 A 
ATOM     60  C   UNL A   1      48.947  29.305  26.776  1.00  0.00     0.049 A 
ATOM     61  C   UNL A   1      43.589  29.485  28.390  1.00  0.00     0.074 A 
ATOM     62  C   UNL A   1      49.681  30.468  26.927  1.00  0.00     0.029 A 
ATOM     63  N   UNL A   1      47.673  29.574  27.257  1.00  0.00    -0.354 N 
ATOM     64  N   UNL A   1      44.854  29.599  28.061  1.00  0.00    -0.248 NA
ATOM     65  C   UNL A   1      43.024  30.679  29.032  1.00  0.00     0.031 C 
ATOM     66  C   UNL A   1      48.873  31.417  27.563  1.00  0.00     0.029 A 
ATOM     67  C   UNL A   1      47.613  30.871  27.743  1.00  0.00     0.049 A 
ATOM     68  H   UNL A   1      46.922  28.937  27.253  1.00  0.00     0.167 HD
ATOM     69  C   UNL A   1      45.230  30.884  28.435  1.00  0.00     0.074 A 
ATOM     70  C   UNL A   1      44.054  31.513  29.001  1.00  0.00     0.031 C 
ATOM     71  C   UNL A   1      46.440  31.485  28.316  1.00  0.00     0.037 A 
BRANCH  58  72
ATOM     72  C   UNL A   1      50.825  27.855  25.890  1.00  0.00     0.057 A 
ATOM     73  C   UNL A   1      51.804  27.577  26.854  1.00  0.00     0.134 A 
ATOM     74  C   UNL A   1      51.249  27.960  24.558  1.00  0.00     0.134 A 
ATOM     75  F   UNL A   1      51.472  27.470  28.149  1.00  0.00    -0.206 F 
ATOM     76  C   UNL A   1      53.154  27.460  26.515  1.00  0.00     0.040 A 
ATOM     77  C   UNL A   1      52.590  27.810  24.202  1.00  0.00     0.040 A 
ATOM     78  F   UNL A   1      50.367  28.215  23.580  1.00  0.00    -0.206 F 
ATOM     79  C   UNL A   1      53.549  27.572  25.183  1.00  0.00     0.006 A 
ENDBRANCH  58  72
BRANCH  59  80
ATOM     80  C   UNL A   1      41.257  28.363  28.666  1.00  0.00     0.057 A 
ATOM     81  C   UNL A   1      40.213  28.712  27.802  1.00  0.00     0.134 A 
ATOM     82  C   UNL A   1      40.917  28.019  29.981  1.00  0.00     0.134 A 
ATOM     83  F   UNL A   1      40.476  29.066  26.535  1.00  0.00    -0.206 F 
ATOM     84  C   UNL A   1      38.884  28.725  28.228  1.00  0.00     0.040 A 
ATOM     85  C   UNL A   1      39.591  28.001  30.413  1.00  0.00     0.040 A 
ATOM     86  F   UNL A   1      41.870  27.662  30.853  1.00  0.00    -0.206 F 
ATOM     87  C   UNL A   1      38.569  28.359  29.536  1.00  0.00     0.006 A 
ENDBRANCH  59  80
BRANCH  71  88
ATOM     88  C   UNL A   1      46.551  32.909  28.785  1.00  0.00     0.057 A 
ATOM     89  C   UNL A   1      46.270  33.993  27.944  1.00  0.00     0.134 A 
ATOM     90  C   UNL A   1      46.902  33.196  30.111  1.00  0.00     0.134 A 
ATOM     91  F   UNL A   1      45.938  33.790  26.660  1.00  0.00    -0.206 F 
ATOM     92  C   UNL A   1      46.360  35.311  28.396  1.00  0.00     0.040 A 
ATOM     93  C   UNL A   1      46.964  34.508  30.583  1.00  0.00     0.040 A 
ATOM     94  F   UNL A   1      47.174  32.206  30.973  1.00  0.00    -0.206 F 
ATOM     95  C   UNL A   1      46.700  35.570  29.723  1.00  0.00     0.006 A 
ENDBRANCH  71  88
ENDBRANCH  45  46
ENDBRANCH  37  40
ENDBRANCH  35  36
ENDBRANCH  34  35
ENDBRANCH  33  34
ENDBRANCH  32  33
ENDBRANCH   1  32
TORSDOF 18
ENDMDL
