MODEL 1
REMARK VINA RESULT:     -11.2      0.000      0.000
REMARK SMILES O=C(NCCCCCCNC(=O)[C@H](CCc1ccccn1)c1ccccc1Br)c1ccc(-c2c3nc(c(-c4c(F)cccc4F)c4ccc([nH]4)c(-c4c(F)cccc4F)c4nc(c(-c5c(F)cccc5F)c5ccc2[nH]5)C=C4)C=C3)cc1
REMARK SMILES IDX 7 1 6 2 5 3 4 4 3 5 1 6 2 7 29 9 30 10 82 11 31 12 81 13
REMARK SMILES IDX 32 14 33 15 34 16 75 17 35 18 80 19 74 20 76 21 36 22 79 23
REMARK SMILES IDX 73 24 72 25 37 27 63 28 46 29 62 30 47 31 50 32 61 33 77 34
REMARK SMILES IDX 48 35 49 36 60 38 78 39 51 40 38 41 39 42 44 43 40 44 41 45
REMARK SMILES IDX 43 46 45 47 42 48 64 49 65 50 70 51 66 52 67 53 69 54 71 55
REMARK SMILES IDX 68 56 52 57 53 58 58 59 54 60 55 61 57 62 59 63 56 64 8 65
REMARK SMILES IDX 9 66 10 67 11 68 12 70 13 71 22 72 23 73 27 74 24 75 26 76
REMARK SMILES IDX 28 77 25 78 14 79 15 80 16 81 17 82 21 83 18 84 20 85 19 86
REMARK H PARENT 3 8 76 26 50 37 10 69
REMARK Flexibility Score: inf
ROOT
ATOM      1  C   UNL A   1      37.199  21.973  24.909  1.00  0.00     0.002 C 
ENDROOT
BRANCH   1   2
ATOM      2  C   UNL A   1      36.771  20.506  24.964  1.00  0.00     0.002 C 
BRANCH   2   3
ATOM      3  C   UNL A   1      37.917  19.493  24.994  1.00  0.00     0.021 C 
BRANCH   3   4
ATOM      4  C   UNL A   1      39.184  19.985  25.685  1.00  0.00     0.116 C 
BRANCH   4   5
ATOM      5  N   UNL A   1      40.171  18.926  25.838  1.00  0.00    -0.352 N 
ATOM      6  O   UNL A   1      42.274  18.086  25.939  1.00  0.00    -0.269 OA
ATOM      7  C   UNL A   1      41.525  19.051  26.045  1.00  0.00     0.251 C 
ATOM      8  H   UNL A   1      39.826  18.006  25.788  1.00  0.00     0.163 HD
BRANCH   7   9
ATOM      9  C   UNL A   1      42.068  20.382  26.384  1.00  0.00     0.039 A 
ATOM     10  C   UNL A   1      42.145  20.768  27.723  1.00  0.00     0.014 A 
ATOM     11  C   UNL A   1      42.454  21.260  25.369  1.00  0.00     0.014 A 
ATOM     12  C   UNL A   1      42.452  22.083  28.038  1.00  0.00     0.010 A 
ATOM     13  C   UNL A   1      42.866  22.556  25.699  1.00  0.00     0.010 A 
ATOM     14  C   UNL A   1      42.841  22.987  27.033  1.00  0.00    -0.014 A 
BRANCH  14  15
ATOM     15  C   UNL A   1      43.293  24.342  27.440  1.00  0.00     0.031 A 
ATOM     16  C   UNL A   1      44.726  24.774  27.313  1.00  0.00     0.074 A 
ATOM     17  C   UNL A   1      42.359  25.212  27.876  1.00  0.00     0.049 A 
ATOM     18  N   UNL A   1      45.257  25.942  27.575  1.00  0.00    -0.248 NA
ATOM     19  C   UNL A   1      45.692  23.771  26.840  1.00  0.00     0.031 C 
ATOM     20  C   UNL A   1      40.939  24.895  28.061  1.00  0.00     0.029 A 
ATOM     21  N   UNL A   1      42.447  26.538  28.206  1.00  0.00    -0.354 N 
ATOM     22  C   UNL A   1      46.615  25.815  27.310  1.00  0.00     0.074 A 
ATOM     23  C   UNL A   1      46.834  24.445  26.895  1.00  0.00     0.031 C 
ATOM     24  C   UNL A   1      40.281  26.009  28.406  1.00  0.00     0.029 A 
ATOM     25  C   UNL A   1      41.239  27.099  28.541  1.00  0.00     0.049 A 
ATOM     26  H   UNL A   1      43.294  27.040  28.205  1.00  0.00     0.167 HD
ATOM     27  C   UNL A   1      47.585  26.758  27.399  1.00  0.00     0.037 A 
ATOM     28  C   UNL A   1      40.931  28.348  28.930  1.00  0.00     0.037 A 
ATOM     29  C   UNL A   1      47.358  28.121  27.811  1.00  0.00     0.049 A 
ATOM     30  C   UNL A   1      42.027  29.366  29.024  1.00  0.00     0.074 A 
ATOM     31  C   UNL A   1      48.276  29.151  27.933  1.00  0.00     0.029 A 
ATOM     32  N   UNL A   1      46.123  28.645  28.167  1.00  0.00    -0.354 N 
ATOM     33  N   UNL A   1      43.303  29.230  28.759  1.00  0.00    -0.248 NA
ATOM     34  C   UNL A   1      41.642  30.709  29.475  1.00  0.00     0.031 C 
ATOM     35  C   UNL A   1      47.602  30.288  28.395  1.00  0.00     0.029 A 
ATOM     36  C   UNL A   1      46.258  29.979  28.517  1.00  0.00     0.049 A 
ATOM     37  H   UNL A   1      45.277  28.143  28.169  1.00  0.00     0.167 HD
ATOM     38  C   UNL A   1      43.875  30.469  29.007  1.00  0.00     0.074 A 
ATOM     39  C   UNL A   1      42.799  31.353  29.409  1.00  0.00     0.031 C 
ATOM     40  C   UNL A   1      45.175  30.840  28.922  1.00  0.00     0.037 A 
BRANCH  27  41
ATOM     41  C   UNL A   1      48.989  26.350  27.052  1.00  0.00     0.057 A 
ATOM     42  C   UNL A   1      49.487  26.459  25.748  1.00  0.00     0.134 A 
ATOM     43  C   UNL A   1      49.872  25.903  28.044  1.00  0.00     0.134 A 
ATOM     44  F   UNL A   1      48.692  26.871  24.748  1.00  0.00    -0.206 F 
ATOM     45  C   UNL A   1      50.808  26.125  25.439  1.00  0.00     0.040 A 
ATOM     46  C   UNL A   1      51.201  25.587  27.752  1.00  0.00     0.040 A 
ATOM     47  F   UNL A   1      49.463  25.782  29.315  1.00  0.00    -0.206 F 
ATOM     48  C   UNL A   1      51.671  25.695  26.445  1.00  0.00     0.006 A 
ENDBRANCH  27  41
BRANCH  28  49
ATOM     49  C   UNL A   1      39.530  28.689  29.276  1.00  0.00     0.057 A 
ATOM     50  C   UNL A   1      39.034  28.516  30.572  1.00  0.00     0.134 A 
ATOM     51  C   UNL A   1      38.653  29.209  28.314  1.00  0.00     0.134 A 
ATOM     52  F   UNL A   1      39.821  28.009  31.534  1.00  0.00    -0.206 F 
ATOM     53  C   UNL A   1      37.714  28.830  30.898  1.00  0.00     0.040 A 
ATOM     54  C   UNL A   1      37.341  29.557  28.632  1.00  0.00     0.040 A 
ATOM     55  F   UNL A   1      39.071  29.410  27.056  1.00  0.00    -0.206 F 
ATOM     56  C   UNL A   1      36.865  29.359  29.926  1.00  0.00     0.006 A 
ENDBRANCH  28  49
BRANCH  40  57
ATOM     57  C   UNL A   1      45.489  32.269  29.256  1.00  0.00     0.057 A 
ATOM     58  C   UNL A   1      45.838  32.661  30.555  1.00  0.00     0.134 A 
ATOM     59  C   UNL A   1      45.436  33.261  28.270  1.00  0.00     0.134 A 
ATOM     60  F   UNL A   1      45.889  31.759  31.547  1.00  0.00    -0.206 F 
ATOM     61  C   UNL A   1      46.093  33.997  30.868  1.00  0.00     0.040 A 
ATOM     62  C   UNL A   1      45.715  34.595  28.566  1.00  0.00     0.040 A 
ATOM     63  F   UNL A   1      45.114  32.950  27.006  1.00  0.00    -0.206 F 
ATOM     64  C   UNL A   1      46.035  34.967  29.870  1.00  0.00     0.006 A 
ENDBRANCH  40  57
ENDBRANCH  14  15
ENDBRANCH   7   9
ENDBRANCH   4   5
ENDBRANCH   3   4
ENDBRANCH   2   3
ENDBRANCH   1   2
BRANCH   1  65
ATOM     65  C   UNL A   1      36.272  22.887  24.101  1.00  0.00     0.021 C 
BRANCH  65  66
ATOM     66  C   UNL A   1      35.693  24.075  24.872  1.00  0.00     0.116 C 
BRANCH  66  67
ATOM     67  N   UNL A   1      35.315  23.738  26.230  1.00  0.00    -0.356 N 
ATOM     68  C   UNL A   1      34.286  23.018  26.765  1.00  0.00     0.227 C 
ATOM     69  H   UNL A   1      35.928  24.105  26.906  1.00  0.00     0.163 HD
ATOM     70  O   UNL A   1      34.563  22.580  27.888  1.00  0.00    -0.274 OA
BRANCH  68  71
ATOM     71  C   UNL A   1      32.967  22.670  25.986  1.00  0.00     0.110 C 
BRANCH  71  72
ATOM     72  C   UNL A   1      32.938  21.351  25.158  1.00  0.00    -0.021 A 
ATOM     73  C   UNL A   1      33.138  20.090  25.760  1.00  0.00     0.006 A 
ATOM     74  C   UNL A   1      32.624  21.317  23.778  1.00  0.00     0.021 A 
ATOM     75  C   UNL A   1      32.956  18.883  25.075  1.00  0.00     0.000 A 
ATOM     76  C   UNL A   1      32.363  20.104  23.113  1.00  0.00     0.016 A 
ATOM     77  Br  UNL A   1      32.605  22.851  22.646  1.00  0.00    -0.051 Br
ATOM     78  C   UNL A   1      32.520  18.888  23.764  1.00  0.00     0.001 A 
ENDBRANCH  71  72
BRANCH  71  79
ATOM     79  C   UNL A   1      31.691  22.781  26.871  1.00  0.00     0.025 C 
BRANCH  79  80
ATOM     80  C   UNL A   1      30.443  23.464  26.297  1.00  0.00     0.057 C 
BRANCH  80  81
ATOM     81  C   UNL A   1      30.639  24.887  25.856  1.00  0.00     0.040 A 
ATOM     82  C   UNL A   1      30.298  25.308  24.575  1.00  0.00     0.024 A 
ATOM     83  N   UNL A   1      31.174  25.727  26.768  1.00  0.00    -0.261 NA
ATOM     84  C   UNL A   1      30.554  26.626  24.210  1.00  0.00     0.003 A 
ATOM     85  C   UNL A   1      31.416  26.998  26.392  1.00  0.00     0.111 A 
ATOM     86  C   UNL A   1      31.131  27.490  25.132  1.00  0.00     0.020 A 
ENDBRANCH  80  81
ENDBRANCH  79  80
ENDBRANCH  71  79
ENDBRANCH  68  71
ENDBRANCH  66  67
ENDBRANCH  65  66
ENDBRANCH   1  65
TORSDOF 17
ENDMDL
MODEL 2
REMARK VINA RESULT:     -11.1      5.195      9.964
REMARK SMILES O=C(NCCCCCCNC(=O)[C@H](CCc1ccccn1)c1ccccc1Br)c1ccc(-c2c3nc(c(-c4c(F)cccc4F)c4ccc([nH]4)c(-c4c(F)cccc4F)c4nc(c(-c5c(F)cccc5F)c5ccc2[nH]5)C=C4)C=C3)cc1
REMARK SMILES IDX 7 1 6 2 5 3 4 4 3 5 1 6 2 7 29 9 30 10 82 11 31 12 81 13
REMARK SMILES IDX 32 14 33 15 34 16 75 17 35 18 80 19 74 20 76 21 36 22 79 23
REMARK SMILES IDX 73 24 72 25 37 27 63 28 46 29 62 30 47 31 50 32 61 33 77 34
REMARK SMILES IDX 48 35 49 36 60 38 78 39 51 40 38 41 39 42 44 43 40 44 41 45
REMARK SMILES IDX 43 46 45 47 42 48 64 49 65 50 70 51 66 52 67 53 69 54 71 55
REMARK SMILES IDX 68 56 52 57 53 58 58 59 54 60 55 61 57 62 59 63 56 64 8 65
REMARK SMILES IDX 9 66 10 67 11 68 12 70 13 71 22 72 23 73 27 74 24 75 26 76
REMARK SMILES IDX 28 77 25 78 14 79 15 80 16 81 17 82 21 83 18 84 20 85 19 86
REMARK H PARENT 3 8 76 26 50 37 10 69
REMARK Flexibility Score: inf
ROOT
ATOM      1  C   UNL A   1      32.084  29.778  27.278  1.00  0.00     0.002 C 
ENDROOT
BRANCH   1   2
ATOM      2  C   UNL A   1      31.661  30.731  26.160  1.00  0.00     0.002 C 
BRANCH   2   3
ATOM      3  C   UNL A   1      31.460  32.186  26.586  1.00  0.00     0.021 C 
BRANCH   3   4
ATOM      4  C   UNL A   1      32.655  32.815  27.294  1.00  0.00     0.116 C 
BRANCH   4   5
ATOM      5  N   UNL A   1      32.411  34.203  27.656  1.00  0.00    -0.352 N 
ATOM      6  O   UNL A   1      32.571  36.032  28.987  1.00  0.00    -0.269 OA
ATOM      7  C   UNL A   1      33.021  34.944  28.641  1.00  0.00     0.251 C 
ATOM      8  H   UNL A   1      31.723  34.670  27.129  1.00  0.00     0.163 HD
BRANCH   7   9
ATOM      9  C   UNL A   1      34.227  34.396  29.292  1.00  0.00     0.039 A 
ATOM     10  C   UNL A   1      35.479  34.632  28.722  1.00  0.00     0.014 A 
ATOM     11  C   UNL A   1      34.107  33.608  30.439  1.00  0.00     0.014 A 
ATOM     12  C   UNL A   1      36.588  33.952  29.203  1.00  0.00     0.010 A 
ATOM     13  C   UNL A   1      35.246  33.007  30.986  1.00  0.00     0.010 A 
ATOM     14  C   UNL A   1      36.491  33.151  30.355  1.00  0.00    -0.014 A 
BRANCH  14  15
ATOM     15  C   UNL A   1      37.735  32.556  30.907  1.00  0.00     0.031 A 
ATOM     16  C   UNL A   1      38.350  33.044  32.187  1.00  0.00     0.074 A 
ATOM     17  C   UNL A   1      38.275  31.507  30.252  1.00  0.00     0.049 A 
ATOM     18  N   UNL A   1      39.401  32.586  32.820  1.00  0.00    -0.248 NA
ATOM     19  C   UNL A   1      37.714  34.197  32.842  1.00  0.00     0.031 C 
ATOM     20  C   UNL A   1      37.775  30.961  28.987  1.00  0.00     0.029 A 
ATOM     21  N   UNL A   1      39.331  30.693  30.569  1.00  0.00    -0.354 N 
ATOM     22  C   UNL A   1      39.561  33.396  33.937  1.00  0.00     0.074 A 
ATOM     23  C   UNL A   1      38.514  34.395  33.882  1.00  0.00     0.031 C 
ATOM     24  C   UNL A   1      38.479  29.867  28.671  1.00  0.00     0.029 A 
ATOM     25  C   UNL A   1      39.526  29.677  29.667  1.00  0.00     0.049 A 
ATOM     26  H   UNL A   1      39.894  30.825  31.365  1.00  0.00     0.167 HD
ATOM     27  C   UNL A   1      40.490  33.306  34.920  1.00  0.00     0.037 A 
ATOM     28  C   UNL A   1      40.454  28.705  29.631  1.00  0.00     0.037 A 
ATOM     29  C   UNL A   1      41.528  32.305  34.968  1.00  0.00     0.049 A 
ATOM     30  C   UNL A   1      41.471  28.636  30.729  1.00  0.00     0.074 A 
ATOM     31  C   UNL A   1      42.516  32.131  35.922  1.00  0.00     0.029 A 
ATOM     32  N   UNL A   1      41.709  31.307  34.021  1.00  0.00    -0.354 N 
ATOM     33  N   UNL A   1      41.598  29.404  31.783  1.00  0.00    -0.248 NA
ATOM     34  C   UNL A   1      42.476  27.570  30.631  1.00  0.00     0.031 C 
ATOM     35  C   UNL A   1      43.316  31.049  35.535  1.00  0.00     0.029 A 
ATOM     36  C   UNL A   1      42.799  30.521  34.364  1.00  0.00     0.049 A 
ATOM     37  H   UNL A   1      41.147  31.176  33.225  1.00  0.00     0.167 HD
ATOM     38  C   UNL A   1      42.695  28.913  32.478  1.00  0.00     0.074 A 
ATOM     39  C   UNL A   1      43.173  27.759  31.742  1.00  0.00     0.031 C 
ATOM     40  C   UNL A   1      43.263  29.381  33.615  1.00  0.00     0.037 A 
BRANCH  27  41
ATOM     41  C   UNL A   1      40.438  34.322  36.026  1.00  0.00     0.057 A 
ATOM     42  C   UNL A   1      41.121  35.542  35.939  1.00  0.00     0.134 A 
ATOM     43  C   UNL A   1      39.645  34.107  37.161  1.00  0.00     0.134 A 
ATOM     44  F   UNL A   1      41.905  35.809  34.883  1.00  0.00    -0.206 F 
ATOM     45  C   UNL A   1      41.030  36.505  36.947  1.00  0.00     0.040 A 
ATOM     46  C   UNL A   1      39.529  35.071  38.165  1.00  0.00     0.040 A 
ATOM     47  F   UNL A   1      38.959  32.964  37.305  1.00  0.00    -0.206 F 
ATOM     48  C   UNL A   1      40.226  36.272  38.061  1.00  0.00     0.006 A 
ENDBRANCH  27  41
BRANCH  28  49
ATOM     49  C   UNL A   1      40.467  27.739  28.505  1.00  0.00     0.057 A 
ATOM     50  C   UNL A   1      39.755  26.537  28.566  1.00  0.00     0.134 A 
ATOM     51  C   UNL A   1      41.187  28.004  27.333  1.00  0.00     0.134 A 
ATOM     52  F   UNL A   1      39.057  26.220  29.667  1.00  0.00    -0.206 F 
ATOM     53  C   UNL A   1      39.772  25.624  27.510  1.00  0.00     0.040 A 
ATOM     54  C   UNL A   1      41.187  27.116  26.258  1.00  0.00     0.040 A 
ATOM     55  F   UNL A   1      41.881  29.145  27.208  1.00  0.00    -0.206 F 
ATOM     56  C   UNL A   1      40.484  25.917  26.348  1.00  0.00     0.006 A 
ENDBRANCH  28  49
BRANCH  40  57
ATOM     57  C   UNL A   1      44.453  28.627  34.131  1.00  0.00     0.057 A 
ATOM     58  C   UNL A   1      45.759  28.973  33.762  1.00  0.00     0.134 A 
ATOM     59  C   UNL A   1      44.288  27.543  35.001  1.00  0.00     0.134 A 
ATOM     60  F   UNL A   1      45.981  29.992  32.918  1.00  0.00    -0.206 F 
ATOM     61  C   UNL A   1      46.860  28.244  34.216  1.00  0.00     0.040 A 
ATOM     62  C   UNL A   1      45.383  26.824  35.482  1.00  0.00     0.040 A 
ATOM     63  F   UNL A   1      43.064  27.165  35.396  1.00  0.00    -0.206 F 
ATOM     64  C   UNL A   1      46.672  27.169  35.082  1.00  0.00     0.006 A 
ENDBRANCH  40  57
ENDBRANCH  14  15
ENDBRANCH   7   9
ENDBRANCH   4   5
ENDBRANCH   3   4
ENDBRANCH   2   3
ENDBRANCH   1   2
BRANCH   1  65
ATOM     65  C   UNL A   1      33.330  28.938  26.976  1.00  0.00     0.021 C 
BRANCH  65  66
ATOM     66  C   UNL A   1      33.093  27.429  26.887  1.00  0.00     0.116 C 
BRANCH  66  67
ATOM     67  N   UNL A   1      31.689  27.074  26.910  1.00  0.00    -0.356 N 
ATOM     68  C   UNL A   1      30.840  26.546  25.980  1.00  0.00     0.227 C 
ATOM     69  H   UNL A   1      31.258  27.250  27.777  1.00  0.00     0.163 HD
ATOM     70  O   UNL A   1      29.878  25.973  26.504  1.00  0.00    -0.274 OA
BRANCH  68  71
ATOM     71  C   UNL A   1      31.129  26.546  24.436  1.00  0.00     0.110 C 
BRANCH  71  72
ATOM     72  C   UNL A   1      31.728  25.251  23.809  1.00  0.00    -0.021 A 
ATOM     73  C   UNL A   1      31.279  23.967  24.182  1.00  0.00     0.006 A 
ATOM     74  C   UNL A   1      32.690  25.276  22.770  1.00  0.00     0.021 A 
ATOM     75  C   UNL A   1      31.680  22.799  23.522  1.00  0.00     0.000 A 
ATOM     76  C   UNL A   1      33.030  24.112  22.055  1.00  0.00     0.016 A 
ATOM     77  Br  UNL A   1      33.693  26.820  22.275  1.00  0.00    -0.051 Br
ATOM     78  C   UNL A   1      32.518  22.875  22.425  1.00  0.00     0.001 A 
ENDBRANCH  71  72
BRANCH  71  79
ATOM     79  C   UNL A   1      29.922  27.046  23.591  1.00  0.00     0.025 C 
BRANCH  79  80
ATOM     80  C   UNL A   1      30.175  28.019  22.432  1.00  0.00     0.057 C 
BRANCH  80  81
ATOM     81  C   UNL A   1      29.443  29.328  22.526  1.00  0.00     0.040 A 
ATOM     82  C   UNL A   1      29.519  30.126  23.663  1.00  0.00     0.024 A 
ATOM     83  N   UNL A   1      28.704  29.677  21.453  1.00  0.00    -0.261 NA
ATOM     84  C   UNL A   1      28.774  31.301  23.709  1.00  0.00     0.003 A 
ATOM     85  C   UNL A   1      27.989  30.818  21.520  1.00  0.00     0.111 A 
ATOM     86  C   UNL A   1      27.987  31.654  22.621  1.00  0.00     0.020 A 
ENDBRANCH  80  81
ENDBRANCH  79  80
ENDBRANCH  71  79
ENDBRANCH  68  71
ENDBRANCH  66  67
ENDBRANCH  65  66
ENDBRANCH   1  65
TORSDOF 17
ENDMDL
MODEL 3
REMARK VINA RESULT:     -11.0      4.954     10.089
REMARK SMILES O=C(NCCCCCCNC(=O)[C@H](CCc1ccccn1)c1ccccc1Br)c1ccc(-c2c3nc(c(-c4c(F)cccc4F)c4ccc([nH]4)c(-c4c(F)cccc4F)c4nc(c(-c5c(F)cccc5F)c5ccc2[nH]5)C=C4)C=C3)cc1
REMARK SMILES IDX 7 1 6 2 5 3 4 4 3 5 1 6 2 7 29 9 30 10 82 11 31 12 81 13
REMARK SMILES IDX 32 14 33 15 34 16 75 17 35 18 80 19 74 20 76 21 36 22 79 23
REMARK SMILES IDX 73 24 72 25 37 27 63 28 46 29 62 30 47 31 50 32 61 33 77 34
REMARK SMILES IDX 48 35 49 36 60 38 78 39 51 40 38 41 39 42 44 43 40 44 41 45
REMARK SMILES IDX 43 46 45 47 42 48 64 49 65 50 70 51 66 52 67 53 69 54 71 55
REMARK SMILES IDX 68 56 52 57 53 58 58 59 54 60 55 61 57 62 59 63 56 64 8 65
REMARK SMILES IDX 9 66 10 67 11 68 12 70 13 71 22 72 23 73 27 74 24 75 26 76
REMARK SMILES IDX 28 77 25 78 14 79 15 80 16 81 17 82 21 83 18 84 20 85 19 86
REMARK H PARENT 3 8 76 26 50 37 10 69
REMARK Flexibility Score: inf
ROOT
ATOM      1  C   UNL A   1      32.108  29.868  26.910  1.00  0.00     0.002 C 
ENDROOT
BRANCH   1   2
ATOM      2  C   UNL A   1      31.333  30.801  25.979  1.00  0.00     0.002 C 
BRANCH   2   3
ATOM      3  C   UNL A   1      31.240  32.255  26.444  1.00  0.00     0.021 C 
BRANCH   3   4
ATOM      4  C   UNL A   1      32.530  32.822  27.025  1.00  0.00     0.116 C 
BRANCH   4   5
ATOM      5  N   UNL A   1      32.341  34.151  27.587  1.00  0.00    -0.352 N 
ATOM      6  O   UNL A   1      32.645  35.786  29.128  1.00  0.00    -0.269 OA
ATOM      7  C   UNL A   1      33.045  34.751  28.605  1.00  0.00     0.251 C 
ATOM      8  H   UNL A   1      31.618  34.688  27.188  1.00  0.00     0.163 HD
BRANCH   7   9
ATOM      9  C   UNL A   1      34.293  34.115  29.071  1.00  0.00     0.039 A 
ATOM     10  C   UNL A   1      34.231  33.126  30.054  1.00  0.00     0.014 A 
ATOM     11  C   UNL A   1      35.524  34.537  28.566  1.00  0.00     0.014 A 
ATOM     12  C   UNL A   1      35.401  32.676  30.645  1.00  0.00     0.010 A 
ATOM     13  C   UNL A   1      36.705  34.001  29.091  1.00  0.00     0.010 A 
ATOM     14  C   UNL A   1      36.654  33.088  30.155  1.00  0.00    -0.014 A 
BRANCH  14  15
ATOM     15  C   UNL A   1      37.875  32.470  30.733  1.00  0.00     0.031 A 
ATOM     16  C   UNL A   1      38.460  32.934  32.037  1.00  0.00     0.074 A 
ATOM     17  C   UNL A   1      38.421  31.424  30.079  1.00  0.00     0.049 A 
ATOM     18  N   UNL A   1      39.487  32.454  32.692  1.00  0.00    -0.248 NA
ATOM     19  C   UNL A   1      37.819  34.086  32.690  1.00  0.00     0.031 C 
ATOM     20  C   UNL A   1      37.950  30.901  28.793  1.00  0.00     0.029 A 
ATOM     21  N   UNL A   1      39.457  30.593  30.414  1.00  0.00    -0.354 N 
ATOM     22  C   UNL A   1      39.624  33.247  33.824  1.00  0.00     0.074 A 
ATOM     23  C   UNL A   1      38.592  34.260  33.754  1.00  0.00     0.031 C 
ATOM     24  C   UNL A   1      38.649  29.803  28.482  1.00  0.00     0.029 A 
ATOM     25  C   UNL A   1      39.665  29.586  29.504  1.00  0.00     0.049 A 
ATOM     26  H   UNL A   1      39.999  30.707  31.228  1.00  0.00     0.167 HD
ATOM     27  C   UNL A   1      40.525  33.132  34.831  1.00  0.00     0.037 A 
ATOM     28  C   UNL A   1      40.582  28.603  29.480  1.00  0.00     0.037 A 
ATOM     29  C   UNL A   1      41.548  32.118  34.895  1.00  0.00     0.049 A 
ATOM     30  C   UNL A   1      41.567  28.507  30.606  1.00  0.00     0.074 A 
ATOM     31  C   UNL A   1      42.508  31.919  35.874  1.00  0.00     0.029 A 
ATOM     32  N   UNL A   1      41.744  31.130  33.940  1.00  0.00    -0.354 N 
ATOM     33  N   UNL A   1      41.674  29.259  31.673  1.00  0.00    -0.248 NA
ATOM     34  C   UNL A   1      42.561  27.430  30.521  1.00  0.00     0.031 C 
ATOM     35  C   UNL A   1      43.305  30.833  35.494  1.00  0.00     0.029 A 
ATOM     36  C   UNL A   1      42.814  30.327  34.302  1.00  0.00     0.049 A 
ATOM     37  H   UNL A   1      41.203  31.017  33.126  1.00  0.00     0.167 HD
ATOM     38  C   UNL A   1      42.744  28.746  32.392  1.00  0.00     0.074 A 
ATOM     39  C   UNL A   1      43.229  27.596  31.654  1.00  0.00     0.031 C 
ATOM     40  C   UNL A   1      43.286  29.191  33.550  1.00  0.00     0.037 A 
BRANCH  27  41
ATOM     41  C   UNL A   1      40.454  34.134  35.949  1.00  0.00     0.057 A 
ATOM     42  C   UNL A   1      41.116  35.366  35.878  1.00  0.00     0.134 A 
ATOM     43  C   UNL A   1      39.663  33.892  37.080  1.00  0.00     0.134 A 
ATOM     44  F   UNL A   1      41.897  35.659  34.827  1.00  0.00    -0.206 F 
ATOM     45  C   UNL A   1      41.008  36.315  36.898  1.00  0.00     0.040 A 
ATOM     46  C   UNL A   1      39.529  34.841  38.096  1.00  0.00     0.040 A 
ATOM     47  F   UNL A   1      38.995  32.736  37.209  1.00  0.00    -0.206 F 
ATOM     48  C   UNL A   1      40.206  36.056  38.007  1.00  0.00     0.006 A 
ENDBRANCH  27  41
BRANCH  28  49
ATOM     49  C   UNL A   1      40.615  27.653  28.342  1.00  0.00     0.057 A 
ATOM     50  C   UNL A   1      39.904  26.449  28.375  1.00  0.00     0.134 A 
ATOM     51  C   UNL A   1      41.354  27.934  27.186  1.00  0.00     0.134 A 
ATOM     52  F   UNL A   1      39.189  26.116  29.461  1.00  0.00    -0.206 F 
ATOM     53  C   UNL A   1      39.940  25.550  27.308  1.00  0.00     0.040 A 
ATOM     54  C   UNL A   1      41.373  27.061  26.099  1.00  0.00     0.040 A 
ATOM     55  F   UNL A   1      42.048  29.078  27.087  1.00  0.00    -0.206 F 
ATOM     56  C   UNL A   1      40.671  25.860  26.162  1.00  0.00     0.006 A 
ENDBRANCH  28  49
BRANCH  40  57
ATOM     57  C   UNL A   1      44.451  28.416  34.089  1.00  0.00     0.057 A 
ATOM     58  C   UNL A   1      44.273  27.272  34.878  1.00  0.00     0.134 A 
ATOM     59  C   UNL A   1      45.764  28.821  33.819  1.00  0.00     0.134 A 
ATOM     60  F   UNL A   1      43.039  26.844  35.186  1.00  0.00    -0.206 F 
ATOM     61  C   UNL A   1      45.362  26.576  35.407  1.00  0.00     0.040 A 
ATOM     62  C   UNL A   1      46.860  28.118  34.320  1.00  0.00     0.040 A 
ATOM     63  F   UNL A   1      46.002  29.904  33.065  1.00  0.00    -0.206 F 
ATOM     64  C   UNL A   1      46.659  26.998  35.124  1.00  0.00     0.006 A 
ENDBRANCH  40  57
ENDBRANCH  14  15
ENDBRANCH   7   9
ENDBRANCH   4   5
ENDBRANCH   3   4
ENDBRANCH   2   3
ENDBRANCH   1   2
BRANCH   1  65
ATOM     65  C   UNL A   1      31.928  28.373  26.624  1.00  0.00     0.021 C 
BRANCH  65  66
ATOM     66  C   UNL A   1      33.225  27.575  26.482  1.00  0.00     0.116 C 
BRANCH  66  67
ATOM     67  N   UNL A   1      34.016  27.979  25.338  1.00  0.00    -0.356 N 
ATOM     68  C   UNL A   1      33.779  27.997  23.993  1.00  0.00     0.227 C 
ATOM     69  H   UNL A   1      34.911  28.310  25.581  1.00  0.00     0.163 HD
ATOM     70  O   UNL A   1      34.493  28.820  23.408  1.00  0.00    -0.274 OA
BRANCH  68  71
ATOM     71  C   UNL A   1      32.637  27.173  23.298  1.00  0.00     0.110 C 
BRANCH  71  72
ATOM     72  C   UNL A   1      31.218  27.814  23.227  1.00  0.00    -0.021 A 
ATOM     73  C   UNL A   1      30.997  29.063  22.609  1.00  0.00     0.006 A 
ATOM     74  C   UNL A   1      30.053  27.155  23.691  1.00  0.00     0.021 A 
ATOM     75  C   UNL A   1      29.716  29.584  22.386  1.00  0.00     0.000 A 
ATOM     76  C   UNL A   1      28.766  27.641  23.394  1.00  0.00     0.016 A 
ATOM     77  Br  UNL A   1      30.071  25.622  24.824  1.00  0.00    -0.051 Br
ATOM     78  C   UNL A   1      28.598  28.851  22.734  1.00  0.00     0.001 A 
ENDBRANCH  71  72
BRANCH  71  79
ATOM     79  C   UNL A   1      33.049  26.617  21.904  1.00  0.00     0.025 C 
BRANCH  79  80
ATOM     80  C   UNL A   1      32.635  25.191  21.518  1.00  0.00     0.057 C 
BRANCH  80  81
ATOM     81  C   UNL A   1      33.186  24.106  22.397  1.00  0.00     0.040 A 
ATOM     82  C   UNL A   1      32.361  23.144  22.972  1.00  0.00     0.024 A 
ATOM     83  N   UNL A   1      34.519  24.124  22.606  1.00  0.00    -0.261 NA
ATOM     84  C   UNL A   1      32.925  22.196  23.822  1.00  0.00     0.003 A 
ATOM     85  C   UNL A   1      35.043  23.199  23.434  1.00  0.00     0.111 A 
ATOM     86  C   UNL A   1      34.292  22.225  24.065  1.00  0.00     0.020 A 
ENDBRANCH  80  81
ENDBRANCH  79  80
ENDBRANCH  71  79
ENDBRANCH  68  71
ENDBRANCH  66  67
ENDBRANCH  65  66
ENDBRANCH   1  65
TORSDOF 17
ENDMDL
