MODEL 1
REMARK VINA RESULT:     -12.6      0.000      0.000
REMARK SMILES CC(C)[C@H](NC(=O)[C@H](Cc1ccccc1)n1c(=O)[nH]c2ccccc2c1=O)C(=O)NCCCCCCNC(=O)c1ccc(-c2c3nc(c(-c4c(F)cccc4F)c4ccc([nH]4)c(-c4c(F)cccc4F)c4nc(c(-c5c(F)cccc5F)c5ccc2[nH]5)C=C4)C=C3)cc1
REMARK SMILES IDX 32 1 31 2 30 3 28 4 29 5 4 7 2 8 1 9 3 10 5 11 6 12 7 14
REMARK SMILES IDX 8 15 16 16 17 17 26 18 18 19 19 20 25 21 27 22 20 23 24 25
REMARK SMILES IDX 21 26 23 27 22 28 9 29 10 30 11 31 15 32 12 33 14 34 13 35
REMARK SMILES IDX 33 36 34 37 35 38 36 39 37 40 38 41 39 43 40 44 41 45 93 46
REMARK SMILES IDX 42 47 92 48 43 49 44 50 45 51 86 52 46 53 91 54 85 55 87 56
REMARK SMILES IDX 47 57 90 58 84 59 83 60 48 62 74 63 57 64 73 65 58 66 61 67
REMARK SMILES IDX 72 68 88 69 59 70 60 71 71 73 89 74 62 75 49 76 50 77 55 78
REMARK SMILES IDX 51 79 52 80 54 81 56 82 53 83 75 84 76 85 81 86 77 87 78 88
REMARK SMILES IDX 80 89 82 90 79 91 63 92 64 93 69 94 65 95 66 96 68 97 70 98
REMARK SMILES IDX 67 99
REMARK H PARENT 30 6 5 13 19 24 37 42 87 61 61 72
REMARK Flexibility Score: inf
ROOT
ATOM      1  C   UNL A   1      36.906  22.863  25.533  1.00  0.00     0.021 C 
ENDROOT
BRANCH   1   2
ATOM      2  C   UNL A   1      35.986  23.957  25.019  1.00  0.00     0.116 C 
BRANCH   2   3
ATOM      3  N   UNL A   1      35.575  23.701  23.658  1.00  0.00    -0.354 N 
ATOM      4  C   UNL A   1      34.387  23.284  23.153  1.00  0.00     0.242 C 
ATOM      5  O   UNL A   1      34.209  23.460  21.944  1.00  0.00    -0.273 OA
ATOM      6  H   UNL A   1      36.274  23.857  22.984  1.00  0.00     0.163 HD
BRANCH   4   7
ATOM      7  C   UNL A   1      33.256  22.746  24.048  1.00  0.00     0.173 C 
BRANCH   7   8
ATOM      8  C   UNL A   1      33.431  21.257  24.464  1.00  0.00     0.015 C 
ATOM      9  C   UNL A   1      33.250  20.941  25.950  1.00  0.00     0.010 C 
ATOM     10  C   UNL A   1      32.471  20.355  23.675  1.00  0.00     0.010 C 
ENDBRANCH   7   8
BRANCH   7  11
ATOM     11  N   UNL A   1      31.902  23.072  23.544  1.00  0.00    -0.342 N 
ATOM     12  C   UNL A   1      31.230  24.271  23.508  1.00  0.00     0.244 C 
ATOM     13  H   UNL A   1      31.402  22.308  23.177  1.00  0.00     0.164 HD
ATOM     14  O   UNL A   1      30.138  24.291  22.942  1.00  0.00    -0.273 OA
BRANCH  12  15
ATOM     15  C   UNL A   1      31.890  25.512  24.120  1.00  0.00     0.189 C 
BRANCH  15  16
ATOM     16  N   UNL A   1      31.353  26.775  23.607  1.00  0.00    -0.247 N 
ATOM     17  C   UNL A   1      32.149  27.619  22.852  1.00  0.00     0.329 A 
ATOM     18  C   UNL A   1      30.041  27.080  23.963  1.00  0.00     0.264 A 
ATOM     19  O   UNL A   1      33.353  27.468  22.665  1.00  0.00    -0.248 OA
ATOM     20  N   UNL A   1      31.515  28.670  22.243  1.00  0.00    -0.307 N 
ATOM     21  C   UNL A   1      29.379  28.147  23.206  1.00  0.00     0.064 A 
ATOM     22  O   UNL A   1      29.403  26.490  24.832  1.00  0.00    -0.268 OA
ATOM     23  C   UNL A   1      30.146  28.907  22.334  1.00  0.00     0.055 A 
ATOM     24  H   UNL A   1      32.059  29.294  21.709  1.00  0.00     0.171 HD
ATOM     25  C   UNL A   1      28.001  28.349  23.313  1.00  0.00     0.016 A 
ATOM     26  C   UNL A   1      29.537  29.879  21.543  1.00  0.00     0.027 A 
ATOM     27  C   UNL A   1      27.387  29.307  22.511  1.00  0.00     0.001 A 
ATOM     28  C   UNL A   1      28.153  30.066  21.625  1.00  0.00     0.002 A 
ENDBRANCH  15  16
BRANCH  15  29
ATOM     29  C   UNL A   1      32.088  25.451  25.645  1.00  0.00     0.071 C 
BRANCH  29  30
ATOM     30  C   UNL A   1      32.546  26.752  26.308  1.00  0.00    -0.045 A 
ATOM     31  C   UNL A   1      31.718  27.592  27.072  1.00  0.00     0.004 A 
ATOM     32  C   UNL A   1      33.864  27.177  26.080  1.00  0.00     0.004 A 
ATOM     33  C   UNL A   1      32.160  28.832  27.535  1.00  0.00     0.000 A 
ATOM     34  C   UNL A   1      34.316  28.410  26.566  1.00  0.00     0.000 A 
ATOM     35  C   UNL A   1      33.459  29.245  27.278  1.00  0.00     0.000 A 
ENDBRANCH  29  30
ENDBRANCH  15  29
ENDBRANCH  12  15
ENDBRANCH   7  11
ENDBRANCH   4   7
ENDBRANCH   2   3
ENDBRANCH   1   2
BRANCH   1  36
ATOM     36  C   UNL A   1      37.221  21.794  24.483  1.00  0.00     0.002 C 
BRANCH  36  37
ATOM     37  C   UNL A   1      36.971  20.351  24.938  1.00  0.00     0.002 C 
BRANCH  37  38
ATOM     38  C   UNL A   1      38.212  19.453  24.954  1.00  0.00     0.021 C 
BRANCH  38  39
ATOM     39  C   UNL A   1      39.299  19.902  25.918  1.00  0.00     0.116 C 
BRANCH  39  40
ATOM     40  N   UNL A   1      40.434  18.998  25.916  1.00  0.00    -0.352 N 
ATOM     41  C   UNL A   1      41.764  19.278  26.082  1.00  0.00     0.251 C 
ATOM     42  H   UNL A   1      40.217  18.048  25.774  1.00  0.00     0.163 HD
ATOM     43  O   UNL A   1      42.609  18.420  25.858  1.00  0.00    -0.269 OA
BRANCH  41  44
ATOM     44  C   UNL A   1      42.173  20.630  26.513  1.00  0.00     0.039 A 
ATOM     45  C   UNL A   1      42.584  21.544  25.542  1.00  0.00     0.014 A 
ATOM     46  C   UNL A   1      42.155  20.993  27.863  1.00  0.00     0.014 A 
ATOM     47  C   UNL A   1      42.937  22.838  25.921  1.00  0.00     0.010 A 
ATOM     48  C   UNL A   1      42.428  22.307  28.230  1.00  0.00     0.010 A 
ATOM     49  C   UNL A   1      42.834  23.238  27.264  1.00  0.00    -0.014 A 
BRANCH  49  50
ATOM     50  C   UNL A   1      43.156  24.629  27.668  1.00  0.00     0.031 A 
ATOM     51  C   UNL A   1      44.586  25.079  27.762  1.00  0.00     0.074 A 
ATOM     52  C   UNL A   1      42.156  25.473  27.989  1.00  0.00     0.049 A 
ATOM     53  N   UNL A   1      45.064  26.244  28.119  1.00  0.00    -0.248 NA
ATOM     54  C   UNL A   1      45.621  24.083  27.436  1.00  0.00     0.031 C 
ATOM     55  C   UNL A   1      40.730  25.137  27.984  1.00  0.00     0.029 A 
ATOM     56  N   UNL A   1      42.186  26.786  28.384  1.00  0.00    -0.354 N 
ATOM     57  C   UNL A   1      46.446  26.119  28.070  1.00  0.00     0.074 A 
ATOM     58  C   UNL A   1      46.734  24.749  27.706  1.00  0.00     0.031 C 
ATOM     59  C   UNL A   1      40.022  26.223  28.330  1.00  0.00     0.029 A 
ATOM     60  C   UNL A   1      40.942  27.318  28.619  1.00  0.00     0.049 A 
ATOM     61  H   UNL A   1      43.020  27.298  28.489  1.00  0.00     0.167 HD
ATOM     62  C   UNL A   1      47.390  27.066  28.285  1.00  0.00     0.037 A 
ATOM     63  C   UNL A   1      40.584  28.550  29.029  1.00  0.00     0.037 A 
ATOM     64  C   UNL A   1      47.097  28.432  28.629  1.00  0.00     0.049 A 
ATOM     65  C   UNL A   1      41.652  29.579  29.272  1.00  0.00     0.074 A 
ATOM     66  C   UNL A   1      47.980  29.483  28.811  1.00  0.00     0.029 A 
ATOM     67  N   UNL A   1      45.824  28.936  28.852  1.00  0.00    -0.354 N 
ATOM     68  N   UNL A   1      42.952  29.468  29.147  1.00  0.00    -0.248 NA
ATOM     69  C   UNL A   1      41.203  30.909  29.705  1.00  0.00     0.031 C 
ATOM     70  C   UNL A   1      47.245  30.609  29.198  1.00  0.00     0.029 A 
ATOM     71  C   UNL A   1      45.900  30.276  29.196  1.00  0.00     0.049 A 
ATOM     72  H   UNL A   1      44.990  28.418  28.777  1.00  0.00     0.167 HD
ATOM     73  C   UNL A   1      43.474  30.718  29.455  1.00  0.00     0.074 A 
ATOM     74  C   UNL A   1      42.347  31.577  29.755  1.00  0.00     0.031 C 
ATOM     75  C   UNL A   1      44.768  31.120  29.487  1.00  0.00     0.037 A 
BRANCH  62  76
ATOM     76  C   UNL A   1      48.829  26.656  28.152  1.00  0.00     0.057 A 
ATOM     77  C   UNL A   1      49.576  26.205  29.249  1.00  0.00     0.134 A 
ATOM     78  C   UNL A   1      49.464  26.673  26.904  1.00  0.00     0.134 A 
ATOM     79  F   UNL A   1      49.032  26.174  30.475  1.00  0.00    -0.206 F 
ATOM     80  C   UNL A   1      50.908  25.809  29.113  1.00  0.00     0.040 A 
ATOM     81  C   UNL A   1      50.786  26.251  26.750  1.00  0.00     0.040 A 
ATOM     82  F   UNL A   1      48.807  27.088  25.809  1.00  0.00    -0.206 F 
ATOM     83  C   UNL A   1      51.514  25.824  27.859  1.00  0.00     0.006 A 
ENDBRANCH  62  76
BRANCH  63  84
ATOM     84  C   UNL A   1      39.149  28.885  29.220  1.00  0.00     0.057 A 
ATOM     85  C   UNL A   1      38.378  29.397  28.171  1.00  0.00     0.134 A 
ATOM     86  C   UNL A   1      38.519  28.716  30.460  1.00  0.00     0.134 A 
ATOM     87  F   UNL A   1      38.929  29.599  26.964  1.00  0.00    -0.206 F 
ATOM     88  C   UNL A   1      37.042  29.757  28.351  1.00  0.00     0.040 A 
ATOM     89  C   UNL A   1      37.175  29.041  30.647  1.00  0.00     0.040 A 
ATOM     90  F   UNL A   1      39.198  28.218  31.504  1.00  0.00    -0.206 F 
ATOM     91  C   UNL A   1      36.435  29.575  29.593  1.00  0.00     0.006 A 
ENDBRANCH  63  84
BRANCH  75  92
ATOM     92  C   UNL A   1      45.032  32.559  29.822  1.00  0.00     0.057 A 
ATOM     93  C   UNL A   1      45.287  32.983  31.132  1.00  0.00     0.134 A 
ATOM     94  C   UNL A   1      45.063  33.530  28.812  1.00  0.00     0.134 A 
ATOM     95  F   UNL A   1      45.261  32.107  32.149  1.00  0.00    -0.206 F 
ATOM     96  C   UNL A   1      45.532  34.325  31.431  1.00  0.00     0.040 A 
ATOM     97  C   UNL A   1      45.338  34.868  29.092  1.00  0.00     0.040 A 
ATOM     98  F   UNL A   1      44.839  33.190  27.533  1.00  0.00    -0.206 F 
ATOM     99  C   UNL A   1      45.565  35.271  30.407  1.00  0.00     0.006 A 
ENDBRANCH  75  92
ENDBRANCH  49  50
ENDBRANCH  41  44
ENDBRANCH  39  40
ENDBRANCH  38  39
ENDBRANCH  37  38
ENDBRANCH  36  37
ENDBRANCH   1  36
TORSDOF 19
ENDMDL
MODEL 2
REMARK VINA RESULT:     -12.5      0.897      5.758
REMARK SMILES CC(C)[C@H](NC(=O)[C@H](Cc1ccccc1)n1c(=O)[nH]c2ccccc2c1=O)C(=O)NCCCCCCNC(=O)c1ccc(-c2c3nc(c(-c4c(F)cccc4F)c4ccc([nH]4)c(-c4c(F)cccc4F)c4nc(c(-c5c(F)cccc5F)c5ccc2[nH]5)C=C4)C=C3)cc1
REMARK SMILES IDX 32 1 31 2 30 3 28 4 29 5 4 7 2 8 1 9 3 10 5 11 6 12 7 14
REMARK SMILES IDX 8 15 16 16 17 17 26 18 18 19 19 20 25 21 27 22 20 23 24 25
REMARK SMILES IDX 21 26 23 27 22 28 9 29 10 30 11 31 15 32 12 33 14 34 13 35
REMARK SMILES IDX 33 36 34 37 35 38 36 39 37 40 38 41 39 43 40 44 41 45 93 46
REMARK SMILES IDX 42 47 92 48 43 49 44 50 45 51 86 52 46 53 91 54 85 55 87 56
REMARK SMILES IDX 47 57 90 58 84 59 83 60 48 62 74 63 57 64 73 65 58 66 61 67
REMARK SMILES IDX 72 68 88 69 59 70 60 71 71 73 89 74 62 75 49 76 50 77 55 78
REMARK SMILES IDX 51 79 52 80 54 81 56 82 53 83 75 84 76 85 81 86 77 87 78 88
REMARK SMILES IDX 80 89 82 90 79 91 63 92 64 93 69 94 65 95 66 96 68 97 70 98
REMARK SMILES IDX 67 99
REMARK H PARENT 30 6 5 13 19 24 37 42 87 61 61 72
REMARK Flexibility Score: inf
ROOT
ATOM      1  C   UNL A   1      36.867  22.984  25.687  1.00  0.00     0.021 C 
ENDROOT
BRANCH   1   2
ATOM      2  C   UNL A   1      35.972  24.048  25.079  1.00  0.00     0.116 C 
BRANCH   2   3
ATOM      3  N   UNL A   1      35.579  23.699  23.733  1.00  0.00    -0.354 N 
ATOM      4  C   UNL A   1      34.398  23.251  23.240  1.00  0.00     0.242 C 
ATOM      5  O   UNL A   1      34.238  23.343  22.019  1.00  0.00    -0.273 OA
ATOM      6  H   UNL A   1      36.290  23.805  23.060  1.00  0.00     0.163 HD
BRANCH   4   7
ATOM      7  C   UNL A   1      33.251  22.780  24.154  1.00  0.00     0.173 C 
BRANCH   7   8
ATOM      8  C   UNL A   1      33.394  21.310  24.644  1.00  0.00     0.015 C 
ATOM      9  C   UNL A   1      33.648  21.116  26.140  1.00  0.00     0.010 C 
ATOM     10  C   UNL A   1      32.152  20.489  24.270  1.00  0.00     0.010 C 
ENDBRANCH   7   8
BRANCH   7  11
ATOM     11  N   UNL A   1      31.907  23.108  23.626  1.00  0.00    -0.342 N 
ATOM     12  C   UNL A   1      31.252  24.314  23.543  1.00  0.00     0.244 C 
ATOM     13  H   UNL A   1      31.400  22.338  23.280  1.00  0.00     0.164 HD
ATOM     14  O   UNL A   1      30.166  24.329  22.965  1.00  0.00    -0.273 OA
BRANCH  12  15
ATOM     15  C   UNL A   1      31.923  25.565  24.119  1.00  0.00     0.189 C 
BRANCH  15  16
ATOM     16  N   UNL A   1      31.349  26.819  23.624  1.00  0.00    -0.247 N 
ATOM     17  C   UNL A   1      32.104  27.673  22.838  1.00  0.00     0.329 A 
ATOM     18  C   UNL A   1      30.047  27.106  24.028  1.00  0.00     0.264 A 
ATOM     19  O   UNL A   1      33.302  27.539  22.607  1.00  0.00    -0.248 OA
ATOM     20  N   UNL A   1      31.432  28.713  22.251  1.00  0.00    -0.307 N 
ATOM     21  C   UNL A   1      29.342  28.161  23.294  1.00  0.00     0.064 A 
ATOM     22  O   UNL A   1      29.451  26.508  24.921  1.00  0.00    -0.268 OA
ATOM     23  C   UNL A   1      30.064  28.931  22.393  1.00  0.00     0.055 A 
ATOM     24  H   UNL A   1      31.947  29.344  21.697  1.00  0.00     0.171 HD
ATOM     25  C   UNL A   1      27.966  28.343  23.452  1.00  0.00     0.016 A 
ATOM     26  C   UNL A   1      29.412  29.892  21.624  1.00  0.00     0.027 A 
ATOM     27  C   UNL A   1      27.309  29.291  22.673  1.00  0.00     0.001 A 
ATOM     28  C   UNL A   1      28.030  30.059  21.757  1.00  0.00     0.002 A 
ENDBRANCH  15  16
BRANCH  15  29
ATOM     29  C   UNL A   1      32.189  25.515  25.634  1.00  0.00     0.071 C 
BRANCH  29  30
ATOM     30  C   UNL A   1      32.642  26.830  26.273  1.00  0.00    -0.045 A 
ATOM     31  C   UNL A   1      31.809  27.682  27.019  1.00  0.00     0.004 A 
ATOM     32  C   UNL A   1      33.959  27.254  26.041  1.00  0.00     0.004 A 
ATOM     33  C   UNL A   1      32.246  28.932  27.459  1.00  0.00     0.000 A 
ATOM     34  C   UNL A   1      34.406  28.497  26.505  1.00  0.00     0.000 A 
ATOM     35  C   UNL A   1      33.544  29.343  27.198  1.00  0.00     0.000 A 
ENDBRANCH  29  30
ENDBRANCH  15  29
ENDBRANCH  12  15
ENDBRANCH   7  11
ENDBRANCH   4   7
ENDBRANCH   2   3
ENDBRANCH   1   2
BRANCH   1  36
ATOM     36  C   UNL A   1      37.398  21.980  24.660  1.00  0.00     0.002 C 
BRANCH  36  37
ATOM     37  C   UNL A   1      36.986  20.523  24.909  1.00  0.00     0.002 C 
BRANCH  37  38
ATOM     38  C   UNL A   1      38.147  19.529  25.001  1.00  0.00     0.021 C 
BRANCH  38  39
ATOM     39  C   UNL A   1      39.352  20.039  25.776  1.00  0.00     0.116 C 
BRANCH  39  40
ATOM     40  N   UNL A   1      40.372  19.018  25.927  1.00  0.00    -0.352 N 
ATOM     41  C   UNL A   1      41.719  19.164  26.126  1.00  0.00     0.251 C 
ATOM     42  H   UNL A   1      40.050  18.089  25.880  1.00  0.00     0.163 HD
ATOM     43  O   UNL A   1      42.464  18.196  26.038  1.00  0.00    -0.269 OA
BRANCH  41  44
ATOM     44  C   UNL A   1      42.268  20.501  26.427  1.00  0.00     0.039 A 
ATOM     45  C   UNL A   1      42.771  21.267  25.374  1.00  0.00     0.014 A 
ATOM     46  C   UNL A   1      42.292  20.994  27.734  1.00  0.00     0.014 A 
ATOM     47  C   UNL A   1      43.258  22.548  25.628  1.00  0.00     0.010 A 
ATOM     48  C   UNL A   1      42.702  22.302  27.973  1.00  0.00     0.010 A 
ATOM     49  C   UNL A   1      43.201  23.086  26.925  1.00  0.00    -0.014 A 
BRANCH  49  50
ATOM     50  C   UNL A   1      43.667  24.469  27.193  1.00  0.00     0.031 A 
ATOM     51  C   UNL A   1      42.688  25.534  27.601  1.00  0.00     0.074 A 
ATOM     52  C   UNL A   1      44.969  24.772  27.030  1.00  0.00     0.049 A 
ATOM     53  N   UNL A   1      42.902  26.799  27.855  1.00  0.00    -0.248 NA
ATOM     54  C   UNL A   1      41.276  25.131  27.716  1.00  0.00     0.031 C 
ATOM     55  C   UNL A   1      46.007  23.836  26.589  1.00  0.00     0.029 A 
ATOM     56  N   UNL A   1      45.643  25.952  27.212  1.00  0.00    -0.354 N 
ATOM     57  C   UNL A   1      41.659  27.343  28.148  1.00  0.00     0.074 A 
ATOM     58  C   UNL A   1      40.686  26.286  27.985  1.00  0.00     0.031 C 
ATOM     59  C   UNL A   1      47.189  24.471  26.564  1.00  0.00     0.029 A 
ATOM     60  C   UNL A   1      46.988  25.864  26.945  1.00  0.00     0.049 A 
ATOM     61  H   UNL A   1      45.205  26.783  27.505  1.00  0.00     0.167 HD
ATOM     62  C   UNL A   1      41.358  28.604  28.542  1.00  0.00     0.037 A 
ATOM     63  C   UNL A   1      47.950  26.805  26.998  1.00  0.00     0.037 A 
ATOM     64  C   UNL A   1      42.333  29.647  28.720  1.00  0.00     0.049 A 
ATOM     65  C   UNL A   1      47.587  28.199  27.427  1.00  0.00     0.074 A 
ATOM     66  C   UNL A   1      42.137  30.941  29.173  1.00  0.00     0.029 A 
ATOM     67  N   UNL A   1      43.687  29.519  28.448  1.00  0.00    -0.354 N 
ATOM     68  N   UNL A   1      46.418  28.680  27.775  1.00  0.00    -0.248 NA
ATOM     69  C   UNL A   1      48.679  29.181  27.477  1.00  0.00     0.031 C 
ATOM     70  C   UNL A   1      43.364  31.612  29.121  1.00  0.00     0.029 A 
ATOM     71  C   UNL A   1      44.334  30.718  28.696  1.00  0.00     0.049 A 
ATOM     72  H   UNL A   1      44.123  28.697  28.127  1.00  0.00     0.167 HD
ATOM     73  C   UNL A   1      46.638  30.009  28.116  1.00  0.00     0.074 A 
ATOM     74  C   UNL A   1      48.056  30.252  27.949  1.00  0.00     0.031 C 
ATOM     75  C   UNL A   1      45.748  30.943  28.530  1.00  0.00     0.037 A 
BRANCH  62  76
ATOM     76  C   UNL A   1      39.914  28.923  28.809  1.00  0.00     0.057 A 
ATOM     77  C   UNL A   1      39.372  28.881  30.101  1.00  0.00     0.134 A 
ATOM     78  C   UNL A   1      39.066  29.319  27.767  1.00  0.00     0.134 A 
ATOM     79  F   UNL A   1      40.127  28.499  31.142  1.00  0.00    -0.206 F 
ATOM     80  C   UNL A   1      38.034  29.197  30.343  1.00  0.00     0.040 A 
ATOM     81  C   UNL A   1      37.734  29.666  28.002  1.00  0.00     0.040 A 
ATOM     82  F   UNL A   1      39.520  29.387  26.506  1.00  0.00    -0.206 F 
ATOM     83  C   UNL A   1      37.213  29.599  29.292  1.00  0.00     0.006 A 
ENDBRANCH  62  76
BRANCH  63  84
ATOM     84  C   UNL A   1      49.352  26.458  26.650  1.00  0.00     0.057 A 
ATOM     85  C   UNL A   1      49.844  26.643  25.353  1.00  0.00     0.134 A 
ATOM     86  C   UNL A   1      50.228  25.918  27.600  1.00  0.00     0.134 A 
ATOM     87  F   UNL A   1      49.049  27.139  24.394  1.00  0.00    -0.206 F 
ATOM     88  C   UNL A   1      51.146  26.279  25.005  1.00  0.00     0.040 A 
ATOM     89  C   UNL A   1      51.542  25.578  27.274  1.00  0.00     0.040 A 
ATOM     90  F   UNL A   1      49.823  25.726  28.864  1.00  0.00    -0.206 F 
ATOM     91  C   UNL A   1      52.001  25.748  25.969  1.00  0.00     0.006 A 
ENDBRANCH  63  84
BRANCH  75  92
ATOM     92  C   UNL A   1      46.287  32.304  28.867  1.00  0.00     0.057 A 
ATOM     93  C   UNL A   1      46.758  32.620  30.148  1.00  0.00     0.134 A 
ATOM     94  C   UNL A   1      46.365  33.301  27.886  1.00  0.00     0.134 A 
ATOM     95  F   UNL A   1      46.702  31.714  31.137  1.00  0.00    -0.206 F 
ATOM     96  C   UNL A   1      47.258  33.888  30.449  1.00  0.00     0.040 A 
ATOM     97  C   UNL A   1      46.891  34.562  28.166  1.00  0.00     0.040 A 
ATOM     98  F   UNL A   1      45.941  33.061  26.636  1.00  0.00    -0.206 F 
ATOM     99  C   UNL A   1      47.332  34.862  29.453  1.00  0.00     0.006 A 
ENDBRANCH  75  92
ENDBRANCH  49  50
ENDBRANCH  41  44
ENDBRANCH  39  40
ENDBRANCH  38  39
ENDBRANCH  37  38
ENDBRANCH  36  37
ENDBRANCH   1  36
TORSDOF 19
ENDMDL
MODEL 3
REMARK VINA RESULT:     -12.1      4.196      9.294
REMARK SMILES CC(C)[C@H](NC(=O)[C@H](Cc1ccccc1)n1c(=O)[nH]c2ccccc2c1=O)C(=O)NCCCCCCNC(=O)c1ccc(-c2c3nc(c(-c4c(F)cccc4F)c4ccc([nH]4)c(-c4c(F)cccc4F)c4nc(c(-c5c(F)cccc5F)c5ccc2[nH]5)C=C4)C=C3)cc1
REMARK SMILES IDX 32 1 31 2 30 3 28 4 29 5 4 7 2 8 1 9 3 10 5 11 6 12 7 14
REMARK SMILES IDX 8 15 16 16 17 17 26 18 18 19 19 20 25 21 27 22 20 23 24 25
REMARK SMILES IDX 21 26 23 27 22 28 9 29 10 30 11 31 15 32 12 33 14 34 13 35
REMARK SMILES IDX 33 36 34 37 35 38 36 39 37 40 38 41 39 43 40 44 41 45 93 46
REMARK SMILES IDX 42 47 92 48 43 49 44 50 45 51 86 52 46 53 91 54 85 55 87 56
REMARK SMILES IDX 47 57 90 58 84 59 83 60 48 62 74 63 57 64 73 65 58 66 61 67
REMARK SMILES IDX 72 68 88 69 59 70 60 71 71 73 89 74 62 75 49 76 50 77 55 78
REMARK SMILES IDX 51 79 52 80 54 81 56 82 53 83 75 84 76 85 81 86 77 87 78 88
REMARK SMILES IDX 80 89 82 90 79 91 63 92 64 93 69 94 65 95 66 96 68 97 70 98
REMARK SMILES IDX 67 99
REMARK H PARENT 30 6 5 13 19 24 37 42 87 61 61 72
REMARK Flexibility Score: inf
ROOT
ATOM      1  C   UNL A   1      32.948  28.515  27.256  1.00  0.00     0.021 C 
ENDROOT
BRANCH   1   2
ATOM      2  C   UNL A   1      32.721  27.192  26.546  1.00  0.00     0.116 C 
BRANCH   2   3
ATOM      3  N   UNL A   1      31.391  26.684  26.794  1.00  0.00    -0.354 N 
ATOM      4  C   UNL A   1      30.463  26.175  25.947  1.00  0.00     0.242 C 
ATOM      5  O   UNL A   1      29.550  25.519  26.457  1.00  0.00    -0.273 OA
ATOM      6  H   UNL A   1      31.113  26.711  27.738  1.00  0.00     0.163 HD
BRANCH   4   7
ATOM      7  C   UNL A   1      30.600  26.281  24.417  1.00  0.00     0.173 C 
BRANCH   7   8
ATOM      8  C   UNL A   1      29.980  27.573  23.812  1.00  0.00     0.015 C 
ATOM      9  C   UNL A   1      30.651  28.123  22.552  1.00  0.00     0.010 C 
ATOM     10  C   UNL A   1      28.491  27.366  23.497  1.00  0.00     0.010 C 
ENDBRANCH   7   8
BRANCH   7  11
ATOM     11  N   UNL A   1      30.213  25.040  23.705  1.00  0.00    -0.342 N 
ATOM     12  C   UNL A   1      30.828  23.812  23.658  1.00  0.00     0.244 C 
ATOM     13  H   UNL A   1      29.383  25.107  23.180  1.00  0.00     0.164 HD
ATOM     14  O   UNL A   1      30.241  22.909  23.063  1.00  0.00    -0.273 OA
BRANCH  12  15
ATOM     15  C   UNL A   1      32.165  23.622  24.381  1.00  0.00     0.189 C 
BRANCH  15  16
ATOM     16  N   UNL A   1      32.475  22.221  24.682  1.00  0.00    -0.247 N 
ATOM     17  C   UNL A   1      32.621  21.802  25.993  1.00  0.00     0.329 A 
ATOM     18  C   UNL A   1      32.656  21.379  23.587  1.00  0.00     0.264 A 
ATOM     19  O   UNL A   1      32.641  22.545  26.970  1.00  0.00    -0.248 OA
ATOM     20  N   UNL A   1      32.704  20.449  26.193  1.00  0.00    -0.307 N 
ATOM     21  C   UNL A   1      32.634  19.936  23.850  1.00  0.00     0.064 A 
ATOM     22  O   UNL A   1      32.789  21.766  22.429  1.00  0.00    -0.268 OA
ATOM     23  C   UNL A   1      32.634  19.508  25.169  1.00  0.00     0.055 A 
ATOM     24  H   UNL A   1      32.821  20.123  27.115  1.00  0.00     0.171 HD
ATOM     25  C   UNL A   1      32.550  19.021  22.798  1.00  0.00     0.016 A 
ATOM     26  C   UNL A   1      32.537  18.148  25.457  1.00  0.00     0.027 A 
ATOM     27  C   UNL A   1      32.436  17.663  23.082  1.00  0.00     0.001 A 
ATOM     28  C   UNL A   1      32.425  17.229  24.409  1.00  0.00     0.002 A 
ENDBRANCH  15  16
BRANCH  15  29
ATOM     29  C   UNL A   1      33.332  24.447  23.809  1.00  0.00     0.071 C 
BRANCH  29  30
ATOM     30  C   UNL A   1      34.728  24.039  24.283  1.00  0.00    -0.045 A 
ATOM     31  C   UNL A   1      35.271  24.364  25.539  1.00  0.00     0.004 A 
ATOM     32  C   UNL A   1      35.556  23.355  23.379  1.00  0.00     0.004 A 
ATOM     33  C   UNL A   1      36.599  24.080  25.858  1.00  0.00     0.000 A 
ATOM     34  C   UNL A   1      36.881  23.047  23.709  1.00  0.00     0.000 A 
ATOM     35  C   UNL A   1      37.407  23.425  24.941  1.00  0.00     0.000 A 
ENDBRANCH  29  30
ENDBRANCH  15  29
ENDBRANCH  12  15
ENDBRANCH   7  11
ENDBRANCH   4   7
ENDBRANCH   2   3
ENDBRANCH   1   2
BRANCH   1  36
ATOM     36  C   UNL A   1      31.720  29.430  27.239  1.00  0.00     0.002 C 
BRANCH  36  37
ATOM     37  C   UNL A   1      31.786  30.580  26.227  1.00  0.00     0.002 C 
BRANCH  37  38
ATOM     38  C   UNL A   1      31.530  31.972  26.811  1.00  0.00     0.021 C 
BRANCH  38  39
ATOM     39  C   UNL A   1      32.789  32.774  27.101  1.00  0.00     0.116 C 
BRANCH  39  40
ATOM     40  N   UNL A   1      32.484  34.089  27.633  1.00  0.00    -0.352 N 
ATOM     41  C   UNL A   1      33.050  34.745  28.693  1.00  0.00     0.251 C 
ATOM     42  H   UNL A   1      31.769  34.579  27.166  1.00  0.00     0.163 HD
ATOM     43  O   UNL A   1      32.540  35.771  29.128  1.00  0.00    -0.269 OA
BRANCH  41  44
ATOM     44  C   UNL A   1      34.267  34.195  29.323  1.00  0.00     0.039 A 
ATOM     45  C   UNL A   1      34.126  33.380  30.447  1.00  0.00     0.014 A 
ATOM     46  C   UNL A   1      35.536  34.482  28.812  1.00  0.00     0.014 A 
ATOM     47  C   UNL A   1      35.258  32.818  31.035  1.00  0.00     0.010 A 
ATOM     48  C   UNL A   1      36.655  33.855  29.349  1.00  0.00     0.010 A 
ATOM     49  C   UNL A   1      36.529  33.027  30.472  1.00  0.00    -0.014 A 
BRANCH  49  50
ATOM     50  C   UNL A   1      37.732  32.388  31.059  1.00  0.00     0.031 A 
ATOM     51  C   UNL A   1      38.343  31.179  30.407  1.00  0.00     0.074 A 
ATOM     52  C   UNL A   1      38.250  32.875  32.203  1.00  0.00     0.049 A 
ATOM     53  N   UNL A   1      39.377  30.471  30.784  1.00  0.00    -0.248 NA
ATOM     54  C   UNL A   1      37.692  30.682  29.183  1.00  0.00     0.031 C 
ATOM     55  C   UNL A   1      37.715  34.013  32.956  1.00  0.00     0.029 A 
ATOM     56  N   UNL A   1      39.338  32.475  32.935  1.00  0.00    -0.354 N 
ATOM     57  C   UNL A   1      39.495  29.447  29.854  1.00  0.00     0.074 A 
ATOM     58  C   UNL A   1      38.393  29.588  28.928  1.00  0.00     0.031 C 
ATOM     59  C   UNL A   1      38.495  34.236  34.026  1.00  0.00     0.029 A 
ATOM     60  C   UNL A   1      39.556  33.236  34.058  1.00  0.00     0.049 A 
ATOM     61  H   UNL A   1      39.908  31.714  32.681  1.00  0.00     0.167 HD
ATOM     62  C   UNL A   1      40.448  28.489  29.765  1.00  0.00     0.037 A 
ATOM     63  C   UNL A   1      40.503  33.134  35.010  1.00  0.00     0.037 A 
ATOM     64  C   UNL A   1      41.552  28.364  30.680  1.00  0.00     0.049 A 
ATOM     65  C   UNL A   1      41.543  32.055  34.894  1.00  0.00     0.074 A 
ATOM     66  C   UNL A   1      42.604  27.465  30.643  1.00  0.00     0.029 A 
ATOM     67  N   UNL A   1      41.744  29.159  31.801  1.00  0.00    -0.354 N 
ATOM     68  N   UNL A   1      41.686  31.140  33.966  1.00  0.00    -0.248 NA
ATOM     69  C   UNL A   1      42.559  31.999  35.954  1.00  0.00     0.031 C 
ATOM     70  C   UNL A   1      43.402  27.679  31.772  1.00  0.00     0.029 A 
ATOM     71  C   UNL A   1      42.882  28.752  32.479  1.00  0.00     0.049 A 
ATOM     72  H   UNL A   1      41.159  29.901  32.074  1.00  0.00     0.167 HD
ATOM     73  C   UNL A   1      42.823  30.420  34.312  1.00  0.00     0.074 A 
ATOM     74  C   UNL A   1      43.341  31.018  35.525  1.00  0.00     0.031 C 
ATOM     75  C   UNL A   1      43.388  29.360  33.683  1.00  0.00     0.037 A 
BRANCH  62  76
ATOM     76  C   UNL A   1      40.339  27.501  28.639  1.00  0.00     0.057 A 
ATOM     77  C   UNL A   1      41.028  27.676  27.430  1.00  0.00     0.134 A 
ATOM     78  C   UNL A   1      39.571  26.339  28.780  1.00  0.00     0.134 A 
ATOM     79  F   UNL A   1      41.773  28.772  27.226  1.00  0.00    -0.206 F 
ATOM     80  C   UNL A   1      40.936  26.744  26.395  1.00  0.00     0.040 A 
ATOM     81  C   UNL A   1      39.495  25.386  27.763  1.00  0.00     0.040 A 
ATOM     82  F   UNL A   1      38.890  26.104  29.912  1.00  0.00    -0.206 F 
ATOM     83  C   UNL A   1      40.174  25.590  26.564  1.00  0.00     0.006 A 
ENDBRANCH  62  76
BRANCH  63  84
ATOM     84  C   UNL A   1      40.523  34.090  36.147  1.00  0.00     0.057 A 
ATOM     85  C   UNL A   1      41.116  35.351  36.024  1.00  0.00     0.134 A 
ATOM     86  C   UNL A   1      39.966  33.759  37.388  1.00  0.00     0.134 A 
ATOM     87  F   UNL A   1      41.684  35.720  34.865  1.00  0.00    -0.206 F 
ATOM     88  C   UNL A   1      41.180  36.239  37.098  1.00  0.00     0.040 A 
ATOM     89  C   UNL A   1      39.995  34.648  38.463  1.00  0.00     0.040 A 
ATOM     90  F   UNL A   1      39.372  32.570  37.570  1.00  0.00    -0.206 F 
ATOM     91  C   UNL A   1      40.614  35.889  38.323  1.00  0.00     0.006 A 
ENDBRANCH  63  84
BRANCH  75  92
ATOM     92  C   UNL A   1      44.651  28.804  34.274  1.00  0.00     0.057 A 
ATOM     93  C   UNL A   1      45.914  29.304  33.933  1.00  0.00     0.134 A 
ATOM     94  C   UNL A   1      44.599  27.774  35.223  1.00  0.00     0.134 A 
ATOM     95  F   UNL A   1      46.037  30.282  33.022  1.00  0.00    -0.206 F 
ATOM     96  C   UNL A   1      47.082  28.778  34.491  1.00  0.00     0.040 A 
ATOM     97  C   UNL A   1      45.755  27.263  35.811  1.00  0.00     0.040 A 
ATOM     98  F   UNL A   1      43.420  27.257  35.603  1.00  0.00    -0.206 F 
ATOM     99  C   UNL A   1      47.003  27.759  35.438  1.00  0.00     0.006 A 
ENDBRANCH  75  92
ENDBRANCH  49  50
ENDBRANCH  41  44
ENDBRANCH  39  40
ENDBRANCH  38  39
ENDBRANCH  37  38
ENDBRANCH  36  37
ENDBRANCH   1  36
TORSDOF 19
ENDMDL
