MODEL 1
REMARK VINA RESULT:     -10.9      0.000      0.000
REMARK SMILES CC[NH2+][C@]1(C(=O)NCCCCCCNC(=O)c2ccc(-c3c4nc(c(-c5c(F)cccc5F)c5ccc([nH]5)c(-c5c(F)cccc5F)c5nc(c(-c6c(F)cccc6F)c6ccc3[nH]6)C=C5)C=C4)cc2)CCC[C@@H]1CCSc1ccc(C)cc1
REMARK SMILES IDX 9 1 8 2 7 3 5 4 6 5 4 7 71 8 74 9 72 10 73 11 3 12 2 15 1 16
REMARK SMILES IDX 75 17 76 18 77 19 78 20 79 21 84 22 80 23 83 24 81 25 82 26
REMARK SMILES IDX 10 27 11 28 12 29 13 30 14 31 15 32 16 34 17 35 18 36 70 37
REMARK SMILES IDX 19 38 69 39 20 40 21 41 22 42 63 43 23 44 68 45 62 46 64 47
REMARK SMILES IDX 24 48 67 49 61 50 60 51 25 53 51 54 34 55 50 56 35 57 38 58
REMARK SMILES IDX 49 59 65 60 36 61 37 62 48 64 66 65 39 66 26 67 27 68 32 69
REMARK SMILES IDX 28 70 29 71 31 72 33 73 30 74 52 75 53 76 58 77 54 78 55 79
REMARK SMILES IDX 57 80 59 81 56 82 40 83 41 84 46 85 42 86 43 87 45 88 47 89
REMARK SMILES IDX 44 90
REMARK H PARENT 7 6 3 13 3 14 14 33 64 52 38 63
REMARK Flexibility Score: inf
ROOT
ATOM      1  C   UNL A   1      36.671  23.379  25.750  1.00  0.00     0.021 C 
ENDROOT
BRANCH   1   2
ATOM      2  C   UNL A   1      35.374  24.169  25.826  1.00  0.00     0.116 C 
BRANCH   2   3
ATOM      3  N   UNL A   1      34.967  24.620  24.519  1.00  0.00    -0.351 N 
ATOM      4  C   UNL A   1      33.843  25.225  24.070  1.00  0.00     0.281 C 
ATOM      5  O   UNL A   1      33.735  25.265  22.836  1.00  0.00    -0.268 OA
ATOM      6  H   UNL A   1      35.637  24.454  23.815  1.00  0.00     0.163 HD
BRANCH   4   7
ATOM      7  C   UNL A   1      32.787  25.908  24.968  1.00  0.00     0.178 C 
ATOM      8  C   UNL A   1      31.978  26.869  24.052  1.00  0.00     0.079 C 
ATOM      9  C   UNL A   1      31.637  24.928  25.365  1.00  0.00     0.061 C 
ATOM     10  C   UNL A   1      30.694  27.130  24.816  1.00  0.00     0.008 C 
ATOM     11  C   UNL A   1      30.567  25.940  25.753  1.00  0.00     0.011 C 
BRANCH   7  12
ATOM     12  N   UNL A   1      33.247  26.601  26.186  1.00  0.00    -0.334 N 
ATOM     13  H   UNL A   1      32.420  26.791  26.750  1.00  0.00     0.347 HD
ATOM     14  H   UNL A   1      33.937  25.961  26.579  1.00  0.00     0.347 HD
BRANCH  12  15
ATOM     15  C   UNL A   1      33.972  27.849  26.066  1.00  0.00     0.257 C 
ATOM     16  C   UNL A   1      33.757  28.722  27.293  1.00  0.00     0.071 C 
ENDBRANCH  12  15
ENDBRANCH   7  12
BRANCH   9  17
ATOM     17  C   UNL A   1      31.921  23.799  26.386  1.00  0.00     0.022 C 
BRANCH  17  18
ATOM     18  C   UNL A   1      32.175  22.360  25.874  1.00  0.00     0.075 C 
BRANCH  18  19
ATOM     19  S   UNL A   1      32.235  22.029  24.051  1.00  0.00    -0.126 SA
BRANCH  19  20
ATOM     20  C   UNL A   1      32.553  20.275  23.945  1.00  0.00     0.007 A 
ATOM     21  C   UNL A   1      33.453  19.724  24.866  1.00  0.00     0.015 A 
ATOM     22  C   UNL A   1      32.057  19.468  22.910  1.00  0.00     0.015 A 
ATOM     23  C   UNL A   1      33.981  18.443  24.664  1.00  0.00     0.004 A 
ATOM     24  C   UNL A   1      32.583  18.177  22.711  1.00  0.00     0.004 A 
ATOM     25  C   UNL A   1      33.586  17.677  23.559  1.00  0.00    -0.051 A 
ATOM     26  C   UNL A   1      34.362  16.442  23.194  1.00  0.00     0.044 C 
ENDBRANCH  19  20
ENDBRANCH  18  19
ENDBRANCH  17  18
ENDBRANCH   9  17
ENDBRANCH   4   7
ENDBRANCH   2   3
ENDBRANCH   1   2
BRANCH   1  27
ATOM     27  C   UNL A   1      36.488  21.864  25.796  1.00  0.00     0.002 C 
BRANCH  27  28
ATOM     28  C   UNL A   1      37.027  21.115  24.574  1.00  0.00     0.002 C 
BRANCH  28  29
ATOM     29  C   UNL A   1      37.953  19.941  24.896  1.00  0.00     0.021 C 
BRANCH  29  30
ATOM     30  C   UNL A   1      39.151  20.312  25.755  1.00  0.00     0.116 C 
BRANCH  30  31
ATOM     31  N   UNL A   1      40.106  19.222  25.852  1.00  0.00    -0.352 N 
ATOM     32  C   UNL A   1      41.459  19.294  26.076  1.00  0.00     0.251 C 
ATOM     33  H   UNL A   1      39.736  18.317  25.742  1.00  0.00     0.163 HD
ATOM     34  O   UNL A   1      42.176  18.319  25.927  1.00  0.00    -0.269 OA
BRANCH  32  35
ATOM     35  C   UNL A   1      42.030  20.591  26.490  1.00  0.00     0.039 A 
ATOM     36  C   UNL A   1      42.453  21.494  25.515  1.00  0.00     0.014 A 
ATOM     37  C   UNL A   1      42.104  20.916  27.847  1.00  0.00     0.014 A 
ATOM     38  C   UNL A   1      42.911  22.754  25.900  1.00  0.00     0.010 A 
ATOM     39  C   UNL A   1      42.481  22.197  28.223  1.00  0.00     0.010 A 
ATOM     40  C   UNL A   1      42.903  23.123  27.256  1.00  0.00    -0.014 A 
BRANCH  40  41
ATOM     41  C   UNL A   1      43.375  24.452  27.711  1.00  0.00     0.031 A 
ATOM     42  C   UNL A   1      42.362  25.495  28.095  1.00  0.00     0.074 A 
ATOM     43  C   UNL A   1      44.688  24.751  27.687  1.00  0.00     0.049 A 
ATOM     44  N   UNL A   1      42.538  26.764  28.354  1.00  0.00    -0.248 NA
ATOM     45  C   UNL A   1      40.958  25.055  28.158  1.00  0.00     0.031 C 
ATOM     46  C   UNL A   1      45.762  23.832  27.312  1.00  0.00     0.029 A 
ATOM     47  N   UNL A   1      45.338  25.927  27.965  1.00  0.00    -0.354 N 
ATOM     48  C   UNL A   1      41.267  27.277  28.584  1.00  0.00     0.074 A 
ATOM     49  C   UNL A   1      40.328  26.198  28.379  1.00  0.00     0.031 C 
ATOM     50  C   UNL A   1      46.939  24.475  27.393  1.00  0.00     0.029 A 
ATOM     51  C   UNL A   1      46.697  25.863  27.774  1.00  0.00     0.049 A 
ATOM     52  H   UNL A   1      44.875  26.740  28.272  1.00  0.00     0.167 HD
ATOM     53  C   UNL A   1      40.917  28.531  28.953  1.00  0.00     0.037 A 
ATOM     54  C   UNL A   1      47.638  26.823  27.875  1.00  0.00     0.037 A 
ATOM     55  C   UNL A   1      41.862  29.591  29.182  1.00  0.00     0.049 A 
ATOM     56  C   UNL A   1      47.222  28.217  28.262  1.00  0.00     0.074 A 
ATOM     57  C   UNL A   1      41.617  30.884  29.606  1.00  0.00     0.029 A 
ATOM     58  N   UNL A   1      43.233  29.477  29.006  1.00  0.00    -0.354 N 
ATOM     59  N   UNL A   1      46.023  28.681  28.522  1.00  0.00    -0.248 NA
ATOM     60  C   UNL A   1      48.289  29.223  28.374  1.00  0.00     0.031 C 
ATOM     61  C   UNL A   1      42.835  31.569  29.638  1.00  0.00     0.029 A 
ATOM     62  C   UNL A   1      43.845  30.684  29.295  1.00  0.00     0.049 A 
ATOM     63  H   UNL A   1      43.701  28.659  28.719  1.00  0.00     0.167 HD
ATOM     64  C   UNL A   1      46.196  30.014  28.872  1.00  0.00     0.074 A 
ATOM     65  C   UNL A   1      47.615  30.288  28.786  1.00  0.00     0.031 C 
ATOM     66  C   UNL A   1      45.264  30.927  29.237  1.00  0.00     0.037 A 
BRANCH  53  67
ATOM     67  C   UNL A   1      39.456  28.823  29.126  1.00  0.00     0.057 A 
ATOM     68  C   UNL A   1      38.811  28.675  30.362  1.00  0.00     0.134 A 
ATOM     69  C   UNL A   1      38.687  29.286  28.050  1.00  0.00     0.134 A 
ATOM     70  F   UNL A   1      39.485  28.224  31.431  1.00  0.00    -0.206 F 
ATOM     71  C   UNL A   1      37.451  28.949  30.514  1.00  0.00     0.040 A 
ATOM     72  C   UNL A   1      37.335  29.595  28.197  1.00  0.00     0.040 A 
ATOM     73  F   UNL A   1      39.241  29.456  26.840  1.00  0.00    -0.206 F 
ATOM     74  C   UNL A   1      36.711  29.418  29.431  1.00  0.00     0.006 A 
ENDBRANCH  53  67
BRANCH  54  75
ATOM     75  C   UNL A   1      49.064  26.501  27.617  1.00  0.00     0.057 A 
ATOM     76  C   UNL A   1      49.597  26.575  26.324  1.00  0.00     0.134 A 
ATOM     77  C   UNL A   1      49.925  26.100  28.646  1.00  0.00     0.134 A 
ATOM     78  F   UNL A   1      48.820  26.938  25.294  1.00  0.00    -0.206 F 
ATOM     79  C   UNL A   1      50.926  26.238  26.059  1.00  0.00     0.040 A 
ATOM     80  C   UNL A   1      51.263  25.786  28.399  1.00  0.00     0.040 A 
ATOM     81  F   UNL A   1      49.482  26.017  29.908  1.00  0.00    -0.206 F 
ATOM     82  C   UNL A   1      51.765  25.846  27.100  1.00  0.00     0.006 A 
ENDBRANCH  54  75
BRANCH  66  83
ATOM     83  C   UNL A   1      45.741  32.289  29.647  1.00  0.00     0.057 A 
ATOM     84  C   UNL A   1      46.211  32.559  30.937  1.00  0.00     0.134 A 
ATOM     85  C   UNL A   1      45.815  33.322  28.702  1.00  0.00     0.134 A 
ATOM     86  F   UNL A   1      46.159  31.616  31.890  1.00  0.00    -0.206 F 
ATOM     87  C   UNL A   1      46.730  33.809  31.276  1.00  0.00     0.040 A 
ATOM     88  C   UNL A   1      46.356  34.567  29.021  1.00  0.00     0.040 A 
ATOM     89  F   UNL A   1      45.389  33.125  27.444  1.00  0.00    -0.206 F 
ATOM     90  C   UNL A   1      46.815  34.813  30.312  1.00  0.00     0.006 A 
ENDBRANCH  66  83
ENDBRANCH  40  41
ENDBRANCH  32  35
ENDBRANCH  30  31
ENDBRANCH  29  30
ENDBRANCH  28  29
ENDBRANCH  27  28
ENDBRANCH   1  27
TORSDOF 19
ENDMDL
MODEL 2
REMARK VINA RESULT:     -10.6      5.104      9.887
REMARK SMILES CC[NH2+][C@]1(C(=O)NCCCCCCNC(=O)c2ccc(-c3c4nc(c(-c5c(F)cccc5F)c5ccc([nH]5)c(-c5c(F)cccc5F)c5nc(c(-c6c(F)cccc6F)c6ccc3[nH]6)C=C5)C=C4)cc2)CCC[C@@H]1CCSc1ccc(C)cc1
REMARK SMILES IDX 9 1 8 2 7 3 5 4 6 5 4 7 71 8 74 9 72 10 73 11 3 12 2 15 1 16
REMARK SMILES IDX 75 17 76 18 77 19 78 20 79 21 84 22 80 23 83 24 81 25 82 26
REMARK SMILES IDX 10 27 11 28 12 29 13 30 14 31 15 32 16 34 17 35 18 36 70 37
REMARK SMILES IDX 19 38 69 39 20 40 21 41 22 42 63 43 23 44 68 45 62 46 64 47
REMARK SMILES IDX 24 48 67 49 61 50 60 51 25 53 51 54 34 55 50 56 35 57 38 58
REMARK SMILES IDX 49 59 65 60 36 61 37 62 48 64 66 65 39 66 26 67 27 68 32 69
REMARK SMILES IDX 28 70 29 71 31 72 33 73 30 74 52 75 53 76 58 77 54 78 55 79
REMARK SMILES IDX 57 80 59 81 56 82 40 83 41 84 46 85 42 86 43 87 45 88 47 89
REMARK SMILES IDX 44 90
REMARK H PARENT 7 6 3 13 3 14 14 33 64 52 38 63
REMARK Flexibility Score: inf
ROOT
ATOM      1  C   UNL A   1      33.264  28.684  27.199  1.00  0.00     0.021 C 
ENDROOT
BRANCH   1   2
ATOM      2  C   UNL A   1      34.101  27.824  26.264  1.00  0.00     0.116 C 
BRANCH   2   3
ATOM      3  N   UNL A   1      34.140  28.390  24.939  1.00  0.00    -0.351 N 
ATOM      4  C   UNL A   1      33.827  27.888  23.722  1.00  0.00     0.281 C 
ATOM      5  O   UNL A   1      34.200  28.583  22.766  1.00  0.00    -0.268 OA
ATOM      6  H   UNL A   1      34.458  29.322  24.915  1.00  0.00     0.163 HD
BRANCH   4   7
ATOM      7  C   UNL A   1      32.997  26.607  23.481  1.00  0.00     0.178 C 
ATOM      8  C   UNL A   1      32.352  26.754  22.073  1.00  0.00     0.079 C 
ATOM      9  C   UNL A   1      33.906  25.368  23.201  1.00  0.00     0.061 C 
ATOM     10  C   UNL A   1      31.976  25.338  21.679  1.00  0.00     0.008 C 
ATOM     11  C   UNL A   1      32.890  24.460  22.518  1.00  0.00     0.011 C 
BRANCH   7  12
ATOM     12  N   UNL A   1      31.989  26.226  24.487  1.00  0.00    -0.334 N 
ATOM     13  H   UNL A   1      31.654  25.297  24.235  1.00  0.00     0.347 HD
ATOM     14  H   UNL A   1      32.489  26.313  25.371  1.00  0.00     0.347 HD
BRANCH  12  15
ATOM     15  C   UNL A   1      30.819  27.060  24.677  1.00  0.00     0.257 C 
ATOM     16  C   UNL A   1      29.542  26.249  24.515  1.00  0.00     0.071 C 
ENDBRANCH  12  15
ENDBRANCH   7  12
BRANCH   9  17
ATOM     17  C   UNL A   1      34.715  24.744  24.364  1.00  0.00     0.022 C 
BRANCH  17  18
ATOM     18  C   UNL A   1      35.728  23.613  24.061  1.00  0.00     0.075 C 
BRANCH  18  19
ATOM     19  S   UNL A   1      35.576  21.984  24.930  1.00  0.00    -0.126 SA
BRANCH  19  20
ATOM     20  C   UNL A   1      33.958  22.049  25.683  1.00  0.00     0.007 A 
ATOM     21  C   UNL A   1      32.860  21.698  24.887  1.00  0.00     0.015 A 
ATOM     22  C   UNL A   1      33.732  22.561  26.970  1.00  0.00     0.015 A 
ATOM     23  C   UNL A   1      31.558  22.008  25.298  1.00  0.00     0.004 A 
ATOM     24  C   UNL A   1      32.422  22.867  27.384  1.00  0.00     0.004 A 
ATOM     25  C   UNL A   1      31.330  22.638  26.529  1.00  0.00    -0.051 A 
ATOM     26  C   UNL A   1      29.978  23.223  26.828  1.00  0.00     0.044 C 
ENDBRANCH  19  20
ENDBRANCH  18  19
ENDBRANCH  17  18
ENDBRANCH   9  17
ENDBRANCH   4   7
ENDBRANCH   2   3
ENDBRANCH   1   2
BRANCH   1  27
ATOM     27  C   UNL A   1      33.182  30.154  26.796  1.00  0.00     0.002 C 
BRANCH  27  28
ATOM     28  C   UNL A   1      31.772  30.650  26.461  1.00  0.00     0.002 C 
BRANCH  28  29
ATOM     29  C   UNL A   1      31.507  32.116  26.807  1.00  0.00     0.021 C 
BRANCH  29  30
ATOM     30  C   UNL A   1      32.723  32.858  27.341  1.00  0.00     0.116 C 
BRANCH  30  31
ATOM     31  N   UNL A   1      32.424  34.251  27.624  1.00  0.00    -0.352 N 
ATOM     32  C   UNL A   1      32.968  35.056  28.595  1.00  0.00     0.251 C 
ATOM     33  H   UNL A   1      31.746  34.671  27.048  1.00  0.00     0.163 HD
ATOM     34  O   UNL A   1      32.480  36.143  28.860  1.00  0.00    -0.269 OA
BRANCH  32  35
ATOM     35  C   UNL A   1      34.153  34.567  29.326  1.00  0.00     0.039 A 
ATOM     36  C   UNL A   1      33.988  33.974  30.577  1.00  0.00     0.014 A 
ATOM     37  C   UNL A   1      35.419  34.665  28.741  1.00  0.00     0.014 A 
ATOM     38  C   UNL A   1      35.095  33.431  31.230  1.00  0.00     0.010 A 
ATOM     39  C   UNL A   1      36.503  34.053  29.353  1.00  0.00     0.010 A 
ATOM     40  C   UNL A   1      36.356  33.444  30.610  1.00  0.00    -0.014 A 
BRANCH  40  41
ATOM     41  C   UNL A   1      37.558  32.875  31.263  1.00  0.00     0.031 A 
ATOM     42  C   UNL A   1      38.229  31.681  30.643  1.00  0.00     0.074 A 
ATOM     43  C   UNL A   1      37.984  33.362  32.444  1.00  0.00     0.049 A 
ATOM     44  N   UNL A   1      39.179  30.922  31.125  1.00  0.00    -0.248 NA
ATOM     45  C   UNL A   1      37.739  31.264  29.319  1.00  0.00     0.031 C 
ATOM     46  C   UNL A   1      37.401  34.501  33.153  1.00  0.00     0.029 A 
ATOM     47  N   UNL A   1      38.997  32.940  33.268  1.00  0.00    -0.354 N 
ATOM     48  C   UNL A   1      39.378  29.926  30.177  1.00  0.00     0.074 A 
ATOM     49  C   UNL A   1      38.415  30.144  29.120  1.00  0.00     0.031 C 
ATOM     50  C   UNL A   1      38.072  34.693  34.301  1.00  0.00     0.029 A 
ATOM     51  C   UNL A   1      39.097  33.662  34.432  1.00  0.00     0.049 A 
ATOM     52  H   UNL A   1      39.596  32.190  33.046  1.00  0.00     0.167 HD
ATOM     53  C   UNL A   1      40.295  28.931  30.177  1.00  0.00     0.037 A 
ATOM     54  C   UNL A   1      39.909  33.494  35.494  1.00  0.00     0.037 A 
ATOM     55  C   UNL A   1      41.267  28.739  31.220  1.00  0.00     0.049 A 
ATOM     56  C   UNL A   1      40.905  32.365  35.484  1.00  0.00     0.074 A 
ATOM     57  C   UNL A   1      42.272  27.793  31.294  1.00  0.00     0.029 A 
ATOM     58  N   UNL A   1      41.354  29.511  32.369  1.00  0.00    -0.354 N 
ATOM     59  N   UNL A   1      41.116  31.457  34.561  1.00  0.00    -0.248 NA
ATOM     60  C   UNL A   1      41.778  32.237  36.661  1.00  0.00     0.031 C 
ATOM     61  C   UNL A   1      42.936  27.959  32.513  1.00  0.00     0.029 A 
ATOM     62  C   UNL A   1      42.385  29.048  33.168  1.00  0.00     0.049 A 
ATOM     63  H   UNL A   1      40.769  30.274  32.584  1.00  0.00     0.167 HD
ATOM     64  C   UNL A   1      42.173  30.682  35.024  1.00  0.00     0.074 A 
ATOM     65  C   UNL A   1      42.557  31.222  36.310  1.00  0.00     0.031 C 
ATOM     66  C   UNL A   1      42.774  29.622  34.431  1.00  0.00     0.037 A 
BRANCH  53  67
ATOM     67  C   UNL A   1      40.286  27.976  29.021  1.00  0.00     0.057 A 
ATOM     68  C   UNL A   1      39.525  26.798  29.035  1.00  0.00     0.134 A 
ATOM     69  C   UNL A   1      41.026  28.249  27.863  1.00  0.00     0.134 A 
ATOM     70  F   UNL A   1      38.803  26.469  30.118  1.00  0.00    -0.206 F 
ATOM     71  C   UNL A   1      39.524  25.915  27.955  1.00  0.00     0.040 A 
ATOM     72  C   UNL A   1      41.006  27.391  26.763  1.00  0.00     0.040 A 
ATOM     73  F   UNL A   1      41.772  29.361  27.778  1.00  0.00    -0.206 F 
ATOM     74  C   UNL A   1      40.260  26.215  26.811  1.00  0.00     0.006 A 
ENDBRANCH  53  67
BRANCH  54  75
ATOM     75  C   UNL A   1      39.826  34.422  36.651  1.00  0.00     0.057 A 
ATOM     76  C   UNL A   1      40.519  35.638  36.651  1.00  0.00     0.134 A 
ATOM     77  C   UNL A   1      39.067  34.114  37.787  1.00  0.00     0.134 A 
ATOM     78  F   UNL A   1      41.276  35.984  35.599  1.00  0.00    -0.206 F 
ATOM     79  C   UNL A   1      40.481  36.503  37.746  1.00  0.00     0.040 A 
ATOM     80  C   UNL A   1      38.999  34.982  38.879  1.00  0.00     0.040 A 
ATOM     81  F   UNL A   1      38.372  32.970  37.849  1.00  0.00    -0.206 F 
ATOM     82  C   UNL A   1      39.716  36.177  38.864  1.00  0.00     0.006 A 
ENDBRANCH  54  75
BRANCH  66  83
ATOM     83  C   UNL A   1      43.959  29.015  35.121  1.00  0.00     0.057 A 
ATOM     84  C   UNL A   1      45.265  29.467  34.899  1.00  0.00     0.134 A 
ATOM     85  C   UNL A   1      43.774  28.021  36.092  1.00  0.00     0.134 A 
ATOM     86  F   UNL A   1      45.510  30.409  33.975  1.00  0.00    -0.206 F 
ATOM     87  C   UNL A   1      46.346  28.947  35.612  1.00  0.00     0.040 A 
ATOM     88  C   UNL A   1      44.843  27.513  36.831  1.00  0.00     0.040 A 
ATOM     89  F   UNL A   1      42.546  27.551  36.360  1.00  0.00    -0.206 F 
ATOM     90  C   UNL A   1      46.134  27.976  36.591  1.00  0.00     0.006 A 
ENDBRANCH  66  83
ENDBRANCH  40  41
ENDBRANCH  32  35
ENDBRANCH  30  31
ENDBRANCH  29  30
ENDBRANCH  28  29
ENDBRANCH  27  28
ENDBRANCH   1  27
TORSDOF 19
ENDMDL
MODEL 3
REMARK VINA RESULT:     -10.6      0.899      1.879
REMARK SMILES CC[NH2+][C@]1(C(=O)NCCCCCCNC(=O)c2ccc(-c3c4nc(c(-c5c(F)cccc5F)c5ccc([nH]5)c(-c5c(F)cccc5F)c5nc(c(-c6c(F)cccc6F)c6ccc3[nH]6)C=C5)C=C4)cc2)CCC[C@@H]1CCSc1ccc(C)cc1
REMARK SMILES IDX 9 1 8 2 7 3 5 4 6 5 4 7 71 8 74 9 72 10 73 11 3 12 2 15 1 16
REMARK SMILES IDX 75 17 76 18 77 19 78 20 79 21 84 22 80 23 83 24 81 25 82 26
REMARK SMILES IDX 10 27 11 28 12 29 13 30 14 31 15 32 16 34 17 35 18 36 70 37
REMARK SMILES IDX 19 38 69 39 20 40 21 41 22 42 63 43 23 44 68 45 62 46 64 47
REMARK SMILES IDX 24 48 67 49 61 50 60 51 25 53 51 54 34 55 50 56 35 57 38 58
REMARK SMILES IDX 49 59 65 60 36 61 37 62 48 64 66 65 39 66 26 67 27 68 32 69
REMARK SMILES IDX 28 70 29 71 31 72 33 73 30 74 52 75 53 76 58 77 54 78 55 79
REMARK SMILES IDX 57 80 59 81 56 82 40 83 41 84 46 85 42 86 43 87 45 88 47 89
REMARK SMILES IDX 44 90
REMARK H PARENT 7 6 3 13 3 14 14 33 64 52 38 63
REMARK Flexibility Score: inf
ROOT
ATOM      1  C   UNL A   1      36.611  23.415  24.671  1.00  0.00     0.021 C 
ENDROOT
BRANCH   1   2
ATOM      2  C   UNL A   1      35.857  24.144  25.772  1.00  0.00     0.116 C 
BRANCH   2   3
ATOM      3  N   UNL A   1      34.546  23.577  25.963  1.00  0.00    -0.351 N 
ATOM      4  C   UNL A   1      33.301  24.068  25.769  1.00  0.00     0.281 C 
ATOM      5  O   UNL A   1      32.392  23.381  26.256  1.00  0.00    -0.268 OA
ATOM      6  H   UNL A   1      34.559  22.652  26.302  1.00  0.00     0.163 HD
BRANCH   4   7
ATOM      7  C   UNL A   1      32.967  25.331  24.941  1.00  0.00     0.178 C 
ATOM      8  C   UNL A   1      33.637  26.530  25.669  1.00  0.00     0.079 C 
ATOM      9  C   UNL A   1      33.773  25.380  23.603  1.00  0.00     0.061 C 
ATOM     10  C   UNL A   1      33.712  27.619  24.616  1.00  0.00     0.008 C 
ATOM     11  C   UNL A   1      33.657  26.867  23.295  1.00  0.00     0.011 C 
BRANCH   7  12
ATOM     12  N   UNL A   1      31.552  25.617  24.642  1.00  0.00    -0.334 N 
ATOM     13  H   UNL A   1      31.533  26.140  23.767  1.00  0.00     0.347 HD
ATOM     14  H   UNL A   1      31.117  24.694  24.638  1.00  0.00     0.347 HD
BRANCH  12  15
ATOM     15  C   UNL A   1      30.757  26.362  25.596  1.00  0.00     0.257 C 
ATOM     16  C   UNL A   1      29.617  25.510  26.136  1.00  0.00     0.071 C 
ENDBRANCH  12  15
ENDBRANCH   7  12
BRANCH   9  17
ATOM     17  C   UNL A   1      33.400  24.408  22.458  1.00  0.00     0.022 C 
BRANCH  17  18
ATOM     18  C   UNL A   1      33.477  22.881  22.703  1.00  0.00     0.075 C 
BRANCH  18  19
ATOM     19  S   UNL A   1      31.923  21.871  22.715  1.00  0.00    -0.126 SA
BRANCH  19  20
ATOM     20  C   UNL A   1      32.440  20.298  23.382  1.00  0.00     0.007 A 
ATOM     21  C   UNL A   1      33.239  20.314  24.533  1.00  0.00     0.015 A 
ATOM     22  C   UNL A   1      32.201  19.076  22.735  1.00  0.00     0.015 A 
ATOM     23  C   UNL A   1      33.926  19.163  24.937  1.00  0.00     0.004 A 
ATOM     24  C   UNL A   1      32.887  17.917  23.146  1.00  0.00     0.004 A 
ATOM     25  C   UNL A   1      33.793  17.966  24.219  1.00  0.00    -0.051 A 
ATOM     26  C   UNL A   1      34.744  16.831  24.481  1.00  0.00     0.044 C 
ENDBRANCH  19  20
ENDBRANCH  18  19
ENDBRANCH  17  18
ENDBRANCH   9  17
ENDBRANCH   4   7
ENDBRANCH   2   3
ENDBRANCH   1   2
BRANCH   1  27
ATOM     27  C   UNL A   1      37.505  22.281  25.166  1.00  0.00     0.002 C 
BRANCH  27  28
ATOM     28  C   UNL A   1      37.011  20.874  24.819  1.00  0.00     0.002 C 
BRANCH  28  29
ATOM     29  C   UNL A   1      38.061  19.771  24.957  1.00  0.00     0.021 C 
BRANCH  29  30
ATOM     30  C   UNL A   1      39.290  20.179  25.754  1.00  0.00     0.116 C 
BRANCH  30  31
ATOM     31  N   UNL A   1      40.232  19.083  25.893  1.00  0.00    -0.352 N 
ATOM     32  C   UNL A   1      41.586  19.149  26.119  1.00  0.00     0.251 C 
ATOM     33  H   UNL A   1      39.854  18.178  25.815  1.00  0.00     0.163 HD
ATOM     34  O   UNL A   1      42.293  18.161  26.008  1.00  0.00    -0.269 OA
BRANCH  32  35
ATOM     35  C   UNL A   1      42.170  20.453  26.486  1.00  0.00     0.039 A 
ATOM     36  C   UNL A   1      42.656  21.292  25.483  1.00  0.00     0.014 A 
ATOM     37  C   UNL A   1      42.194  20.852  27.826  1.00  0.00     0.014 A 
ATOM     38  C   UNL A   1      43.127  22.561  25.820  1.00  0.00     0.010 A 
ATOM     39  C   UNL A   1      42.586  22.143  28.148  1.00  0.00     0.010 A 
ATOM     40  C   UNL A   1      43.070  23.005  27.151  1.00  0.00    -0.014 A 
BRANCH  40  41
ATOM     41  C   UNL A   1      43.554  24.346  27.553  1.00  0.00     0.031 A 
ATOM     42  C   UNL A   1      42.554  25.390  27.967  1.00  0.00     0.074 A 
ATOM     43  C   UNL A   1      44.862  24.654  27.457  1.00  0.00     0.049 A 
ATOM     44  N   UNL A   1      42.733  26.666  28.190  1.00  0.00    -0.248 NA
ATOM     45  C   UNL A   1      41.159  24.943  28.110  1.00  0.00     0.031 C 
ATOM     46  C   UNL A   1      45.923  23.734  27.047  1.00  0.00     0.029 A 
ATOM     47  N   UNL A   1      45.517  25.840  27.676  1.00  0.00    -0.354 N 
ATOM     48  C   UNL A   1      41.471  27.175  28.473  1.00  0.00     0.074 A 
ATOM     49  C   UNL A   1      40.531  26.085  28.339  1.00  0.00     0.031 C 
ATOM     50  C   UNL A   1      47.097  24.387  27.054  1.00  0.00     0.029 A 
ATOM     51  C   UNL A   1      46.865  25.780  27.419  1.00  0.00     0.049 A 
ATOM     52  H   UNL A   1      45.063  26.656  27.990  1.00  0.00     0.167 HD
ATOM     53  C   UNL A   1      41.131  28.434  28.833  1.00  0.00     0.037 A 
ATOM     54  C   UNL A   1      47.801  26.749  27.451  1.00  0.00     0.037 A 
ATOM     55  C   UNL A   1      42.078  29.505  28.992  1.00  0.00     0.049 A 
ATOM     56  C   UNL A   1      47.395  28.148  27.830  1.00  0.00     0.074 A 
ATOM     57  C   UNL A   1      41.845  30.806  29.400  1.00  0.00     0.029 A 
ATOM     58  N   UNL A   1      43.439  29.397  28.749  1.00  0.00    -0.354 N 
ATOM     59  N   UNL A   1      46.207  28.609  28.140  1.00  0.00    -0.248 NA
ATOM     60  C   UNL A   1      48.459  29.163  27.865  1.00  0.00     0.031 C 
ATOM     61  C   UNL A   1      43.058  31.499  29.356  1.00  0.00     0.029 A 
ATOM     62  C   UNL A   1      44.055  30.614  28.981  1.00  0.00     0.049 A 
ATOM     63  H   UNL A   1      43.898  28.576  28.455  1.00  0.00     0.167 HD
ATOM     64  C   UNL A   1      46.388  29.951  28.453  1.00  0.00     0.074 A 
ATOM     65  C   UNL A   1      47.798  30.232  28.289  1.00  0.00     0.031 C 
ATOM     66  C   UNL A   1      45.468  30.865  28.845  1.00  0.00     0.037 A 
BRANCH  53  67
ATOM     67  C   UNL A   1      39.678  28.720  29.075  1.00  0.00     0.057 A 
ATOM     68  C   UNL A   1      39.093  28.577  30.340  1.00  0.00     0.134 A 
ATOM     69  C   UNL A   1      38.856  29.173  28.034  1.00  0.00     0.134 A 
ATOM     70  F   UNL A   1      39.820  28.135  31.379  1.00  0.00    -0.206 F 
ATOM     71  C   UNL A   1      37.741  28.844  30.555  1.00  0.00     0.040 A 
ATOM     72  C   UNL A   1      37.511  29.476  28.244  1.00  0.00     0.040 A 
ATOM     73  F   UNL A   1      39.352  29.339  26.798  1.00  0.00    -0.206 F 
ATOM     74  C   UNL A   1      36.948  29.303  29.507  1.00  0.00     0.006 A 
ENDBRANCH  53  67
BRANCH  54  75
ATOM     75  C   UNL A   1      49.215  26.431  27.128  1.00  0.00     0.057 A 
ATOM     76  C   UNL A   1      50.110  26.029  28.126  1.00  0.00     0.134 A 
ATOM     77  C   UNL A   1      49.711  26.532  25.822  1.00  0.00     0.134 A 
ATOM     78  F   UNL A   1      49.700  25.929  29.399  1.00  0.00    -0.206 F 
ATOM     79  C   UNL A   1      51.452  25.764  27.844  1.00  0.00     0.040 A 
ATOM     80  C   UNL A   1      51.044  26.243  25.521  1.00  0.00     0.040 A 
ATOM     81  F   UNL A   1      48.905  26.902  24.816  1.00  0.00    -0.206 F 
ATOM     82  C   UNL A   1      51.921  25.867  26.537  1.00  0.00     0.006 A 
ENDBRANCH  54  75
BRANCH  66  83
ATOM     83  C   UNL A   1      45.955  32.238  29.202  1.00  0.00     0.057 A 
ATOM     84  C   UNL A   1      45.985  33.285  28.272  1.00  0.00     0.134 A 
ATOM     85  C   UNL A   1      46.313  32.536  30.524  1.00  0.00     0.134 A 
ATOM     86  F   UNL A   1      45.664  33.062  26.988  1.00  0.00    -0.206 F 
ATOM     87  C   UNL A   1      46.360  34.576  28.643  1.00  0.00     0.040 A 
ATOM     88  C   UNL A   1      46.663  33.829  30.912  1.00  0.00     0.040 A 
ATOM     89  F   UNL A   1      46.297  31.580  31.465  1.00  0.00    -0.206 F 
ATOM     90  C   UNL A   1      46.689  34.853  29.970  1.00  0.00     0.006 A 
ENDBRANCH  66  83
ENDBRANCH  40  41
ENDBRANCH  32  35
ENDBRANCH  30  31
ENDBRANCH  29  30
ENDBRANCH  28  29
ENDBRANCH  27  28
ENDBRANCH   1  27
TORSDOF 19
ENDMDL
