MODEL 1
REMARK VINA RESULT:     -11.6      0.000      0.000
REMARK SMILES N#Cc1ccn2cc(C(=O)NCCCCCCNC(=O)c3ccc(-c4c5nc(c(-c6c(F)cccc6F)c6ccc([nH]6)c(-c6c(F)cccc6F)c6nc(c(-c7c(F)cccc7F)c7ccc4[nH]7)C=C6)C=C5)cc3)nc2c1
REMARK SMILES IDX 15 1 14 2 13 3 12 4 11 5 9 6 10 7 8 9 3 10 4 11 77 12 5 13
REMARK SMILES IDX 76 14 6 15 75 16 7 17 2 18 1 19 16 20 17 21 18 22 19 23
REMARK SMILES IDX 20 25 21 26 22 27 74 28 23 29 73 30 24 31 25 32 26 33 67 34
REMARK SMILES IDX 27 35 72 36 66 37 68 38 28 39 71 40 65 41 64 42 29 44 55 45
REMARK SMILES IDX 38 46 54 47 39 48 42 49 53 50 69 51 40 52 41 53 52 55 70 56
REMARK SMILES IDX 43 57 30 58 31 59 36 60 32 61 33 62 35 63 37 64 34 65 56 66
REMARK SMILES IDX 57 67 62 68 58 69 59 70 61 71 63 72 60 73 44 74 45 75 50 76
REMARK SMILES IDX 46 77 47 78 49 79 51 80 48 81
REMARK H PARENT 11 8 18 24 68 43 42 54
REMARK Flexibility Score: inf
ROOT
ATOM      1  C   UNL A   1      32.466  28.238  27.491  1.00  0.00     0.002 C 
ENDROOT
BRANCH   1   2
ATOM      2  C   UNL A   1      31.674  27.387  26.491  1.00  0.00     0.002 C 
BRANCH   2   3
ATOM      3  C   UNL A   1      31.798  27.825  25.030  1.00  0.00     0.021 C 
BRANCH   3   4
ATOM      4  C   UNL A   1      31.353  26.760  24.031  1.00  0.00     0.116 C 
BRANCH   4   5
ATOM      5  N   UNL A   1      32.162  26.796  22.823  1.00  0.00    -0.351 N 
ATOM      6  C   UNL A   1      33.006  25.864  22.273  1.00  0.00     0.271 C 
ATOM      7  O   UNL A   1      33.600  26.172  21.230  1.00  0.00    -0.267 OA
ATOM      8  H   UNL A   1      32.093  27.635  22.312  1.00  0.00     0.163 HD
BRANCH   6   9
ATOM      9  C   UNL A   1      33.181  24.546  22.886  1.00  0.00     0.147 A 
ATOM     10  C   UNL A   1      33.081  20.318  24.364  1.00  0.00     0.057 A 
ATOM     11  C   UNL A   1      34.427  20.667  24.821  1.00  0.00     0.038 A 
ATOM     12  C   UNL A   1      32.300  21.206  23.723  1.00  0.00     0.067 A 
ATOM     13  C   UNL A   1      34.893  21.906  24.585  1.00  0.00     0.094 A 
ATOM     14  C   UNL A   1      32.798  22.512  23.478  1.00  0.00     0.138 A 
ATOM     15  N   UNL A   1      34.080  22.816  23.915  1.00  0.00    -0.306 N 
ATOM     16  N   UNL A   1      32.243  23.533  22.877  1.00  0.00    -0.223 NA
ATOM     17  C   UNL A   1      34.321  24.112  23.545  1.00  0.00     0.127 A 
BRANCH  10  18
ATOM     18  C   UNL A   1      32.561  18.916  24.637  1.00  0.00     0.099 C 
ATOM     19  N   UNL A   1      32.129  17.753  24.863  1.00  0.00    -0.192 NA
ENDBRANCH  10  18
ENDBRANCH   6   9
ENDBRANCH   4   5
ENDBRANCH   3   4
ENDBRANCH   2   3
ENDBRANCH   1   2
BRANCH   1  20
ATOM     20  C   UNL A   1      33.389  29.297  26.872  1.00  0.00     0.021 C 
BRANCH  20  21
ATOM     21  C   UNL A   1      34.870  29.126  27.219  1.00  0.00     0.116 C 
BRANCH  21  22
ATOM     22  N   UNL A   1      35.199  29.631  28.536  1.00  0.00    -0.352 N 
ATOM     23  C   UNL A   1      36.335  29.712  29.289  1.00  0.00     0.251 C 
ATOM     24  H   UNL A   1      34.415  30.005  29.000  1.00  0.00     0.163 HD
ATOM     25  O   UNL A   1      36.224  30.303  30.367  1.00  0.00    -0.269 OA
BRANCH  23  26
ATOM     26  C   UNL A   1      37.652  29.112  28.941  1.00  0.00     0.039 A 
ATOM     27  C   UNL A   1      38.364  28.204  29.722  1.00  0.00     0.014 A 
ATOM     28  C   UNL A   1      38.251  29.591  27.758  1.00  0.00     0.014 A 
ATOM     29  C   UNL A   1      39.671  27.864  29.386  1.00  0.00     0.010 A 
ATOM     30  C   UNL A   1      39.553  29.243  27.410  1.00  0.00     0.010 A 
ATOM     31  C   UNL A   1      40.285  28.425  28.260  1.00  0.00    -0.014 A 
BRANCH  31  32
ATOM     32  C   UNL A   1      41.697  28.124  28.047  1.00  0.00     0.031 A 
ATOM     33  C   UNL A   1      41.996  26.850  27.336  1.00  0.00     0.074 A 
ATOM     34  C   UNL A   1      42.710  28.903  28.476  1.00  0.00     0.049 A 
ATOM     35  N   UNL A   1      42.489  25.762  27.834  1.00  0.00    -0.248 NA
ATOM     36  C   UNL A   1      41.617  26.745  25.922  1.00  0.00     0.031 C 
ATOM     37  C   UNL A   1      42.680  30.275  28.989  1.00  0.00     0.029 A 
ATOM     38  N   UNL A   1      44.039  28.596  28.496  1.00  0.00    -0.354 N 
ATOM     39  C   UNL A   1      42.630  24.874  26.772  1.00  0.00     0.074 A 
ATOM     40  C   UNL A   1      41.986  25.494  25.640  1.00  0.00     0.031 C 
ATOM     41  C   UNL A   1      43.946  30.746  29.086  1.00  0.00     0.029 A 
ATOM     42  C   UNL A   1      44.870  29.662  28.797  1.00  0.00     0.049 A 
ATOM     43  H   UNL A   1      44.380  27.691  28.313  1.00  0.00     0.167 HD
ATOM     44  C   UNL A   1      43.411  23.760  26.862  1.00  0.00     0.037 A 
ATOM     45  C   UNL A   1      46.224  29.659  28.787  1.00  0.00     0.037 A 
ATOM     46  C   UNL A   1      43.707  23.422  28.228  1.00  0.00     0.049 A 
ATOM     47  C   UNL A   1      46.674  28.256  28.955  1.00  0.00     0.074 A 
ATOM     48  C   UNL A   1      42.965  23.040  29.329  1.00  0.00     0.029 A 
ATOM     49  N   UNL A   1      44.944  23.752  28.724  1.00  0.00    -0.354 N 
ATOM     50  N   UNL A   1      46.533  27.580  30.061  1.00  0.00    -0.248 NA
ATOM     51  C   UNL A   1      46.891  27.457  27.760  1.00  0.00     0.031 C 
ATOM     52  C   UNL A   1      43.620  23.643  30.444  1.00  0.00     0.029 A 
ATOM     53  C   UNL A   1      44.732  24.326  29.950  1.00  0.00     0.049 A 
ATOM     54  H   UNL A   1      45.812  23.604  28.285  1.00  0.00     0.167 HD
ATOM     55  C   UNL A   1      46.221  26.292  29.652  1.00  0.00     0.074 A 
ATOM     56  C   UNL A   1      46.545  26.256  28.228  1.00  0.00     0.031 C 
ATOM     57  C   UNL A   1      45.477  25.459  30.440  1.00  0.00     0.037 A 
BRANCH  44  58
ATOM     58  C   UNL A   1      44.187  23.161  25.717  1.00  0.00     0.057 A 
ATOM     59  C   UNL A   1      45.241  23.826  25.060  1.00  0.00     0.134 A 
ATOM     60  C   UNL A   1      44.106  21.777  25.475  1.00  0.00     0.134 A 
ATOM     61  F   UNL A   1      45.483  25.130  25.240  1.00  0.00    -0.206 F 
ATOM     62  C   UNL A   1      46.172  23.157  24.260  1.00  0.00     0.040 A 
ATOM     63  C   UNL A   1      45.061  21.091  24.715  1.00  0.00     0.040 A 
ATOM     64  F   UNL A   1      43.144  21.033  26.042  1.00  0.00    -0.206 F 
ATOM     65  C   UNL A   1      46.107  21.781  24.116  1.00  0.00     0.006 A 
ENDBRANCH  44  58
BRANCH  45  66
ATOM     66  C   UNL A   1      47.122  30.742  28.340  1.00  0.00     0.057 A 
ATOM     67  C   UNL A   1      47.895  31.464  29.267  1.00  0.00     0.134 A 
ATOM     68  C   UNL A   1      47.048  31.277  27.048  1.00  0.00     0.134 A 
ATOM     69  F   UNL A   1      47.964  31.085  30.552  1.00  0.00    -0.206 F 
ATOM     70  C   UNL A   1      48.549  32.652  28.934  1.00  0.00     0.040 A 
ATOM     71  C   UNL A   1      47.697  32.471  26.700  1.00  0.00     0.040 A 
ATOM     72  F   UNL A   1      46.295  30.687  26.108  1.00  0.00    -0.206 F 
ATOM     73  C   UNL A   1      48.443  33.166  27.649  1.00  0.00     0.006 A 
ENDBRANCH  45  66
BRANCH  57  74
ATOM     74  C   UNL A   1      45.195  25.910  31.844  1.00  0.00     0.057 A 
ATOM     75  C   UNL A   1      44.069  26.699  32.098  1.00  0.00     0.134 A 
ATOM     76  C   UNL A   1      46.072  25.691  32.916  1.00  0.00     0.134 A 
ATOM     77  F   UNL A   1      43.219  27.008  31.106  1.00  0.00    -0.206 F 
ATOM     78  C   UNL A   1      43.812  27.225  33.368  1.00  0.00     0.040 A 
ATOM     79  C   UNL A   1      45.812  26.185  34.198  1.00  0.00     0.040 A 
ATOM     80  F   UNL A   1      47.229  25.040  32.739  1.00  0.00    -0.206 F 
ATOM     81  C   UNL A   1      44.678  26.957  34.426  1.00  0.00     0.006 A 
ENDBRANCH  57  74
ENDBRANCH  31  32
ENDBRANCH  23  26
ENDBRANCH  21  22
ENDBRANCH  20  21
ENDBRANCH   1  20
TORSDOF 14
ENDMDL
MODEL 2
REMARK VINA RESULT:     -11.5      4.777      9.197
REMARK SMILES N#Cc1ccn2cc(C(=O)NCCCCCCNC(=O)c3ccc(-c4c5nc(c(-c6c(F)cccc6F)c6ccc([nH]6)c(-c6c(F)cccc6F)c6nc(c(-c7c(F)cccc7F)c7ccc4[nH]7)C=C6)C=C5)cc3)nc2c1
REMARK SMILES IDX 15 1 14 2 13 3 12 4 11 5 9 6 10 7 8 9 3 10 4 11 77 12 5 13
REMARK SMILES IDX 76 14 6 15 75 16 7 17 2 18 1 19 16 20 17 21 18 22 19 23
REMARK SMILES IDX 20 25 21 26 22 27 74 28 23 29 73 30 24 31 25 32 26 33 67 34
REMARK SMILES IDX 27 35 72 36 66 37 68 38 28 39 71 40 65 41 64 42 29 44 55 45
REMARK SMILES IDX 38 46 54 47 39 48 42 49 53 50 69 51 40 52 41 53 52 55 70 56
REMARK SMILES IDX 43 57 30 58 31 59 36 60 32 61 33 62 35 63 37 64 34 65 56 66
REMARK SMILES IDX 57 67 62 68 58 69 59 70 61 71 63 72 60 73 44 74 45 75 50 76
REMARK SMILES IDX 46 77 47 78 49 79 51 80 48 81
REMARK H PARENT 11 8 18 24 68 43 42 54
REMARK Flexibility Score: inf
ROOT
ATOM      1  C   UNL A   1      34.886  34.772  28.465  1.00  0.00     0.002 C 
ENDROOT
BRANCH   1   2
ATOM      2  C   UNL A   1      35.142  33.332  28.004  1.00  0.00     0.002 C 
BRANCH   2   3
ATOM      3  C   UNL A   1      34.218  32.282  28.626  1.00  0.00     0.021 C 
BRANCH   3   4
ATOM      4  C   UNL A   1      33.842  31.153  27.669  1.00  0.00     0.116 C 
BRANCH   4   5
ATOM      5  N   UNL A   1      32.620  31.460  26.943  1.00  0.00    -0.351 N 
ATOM      6  C   UNL A   1      31.858  30.698  26.095  1.00  0.00     0.271 C 
ATOM      7  O   UNL A   1      30.860  31.229  25.585  1.00  0.00    -0.267 OA
ATOM      8  H   UNL A   1      32.282  32.375  27.083  1.00  0.00     0.163 HD
BRANCH   6   9
ATOM      9  C   UNL A   1      32.198  29.301  25.819  1.00  0.00     0.147 A 
ATOM     10  C   UNL A   1      33.755  25.320  24.476  1.00  0.00     0.057 A 
ATOM     11  C   UNL A   1      32.994  24.865  25.641  1.00  0.00     0.038 A 
ATOM     12  C   UNL A   1      33.795  26.617  24.122  1.00  0.00     0.067 A 
ATOM     13  C   UNL A   1      32.324  25.770  26.375  1.00  0.00     0.094 A 
ATOM     14  C   UNL A   1      33.086  27.568  24.901  1.00  0.00     0.138 A 
ATOM     15  N   UNL A   1      32.377  27.112  26.004  1.00  0.00    -0.306 N 
ATOM     16  N   UNL A   1      32.978  28.865  24.767  1.00  0.00    -0.223 NA
ATOM     17  C   UNL A   1      31.806  28.213  26.583  1.00  0.00     0.127 A 
BRANCH  10  18
ATOM     18  C   UNL A   1      34.507  24.289  23.650  1.00  0.00     0.099 C 
ATOM     19  N   UNL A   1      35.131  23.434  22.964  1.00  0.00    -0.192 NA
ENDBRANCH  10  18
ENDBRANCH   6   9
ENDBRANCH   4   5
ENDBRANCH   3   4
ENDBRANCH   2   3
ENDBRANCH   1   2
BRANCH   1  20
ATOM     20  C   UNL A   1      33.411  35.147  28.674  1.00  0.00     0.021 C 
BRANCH  20  21
ATOM     21  C   UNL A   1      33.191  36.390  29.538  1.00  0.00     0.116 C 
BRANCH  21  22
ATOM     22  N   UNL A   1      32.506  36.096  30.780  1.00  0.00    -0.352 N 
ATOM     23  C   UNL A   1      32.836  35.470  31.947  1.00  0.00     0.251 C 
ATOM     24  H   UNL A   1      31.580  36.428  30.783  1.00  0.00     0.163 HD
ATOM     25  O   UNL A   1      31.976  35.493  32.831  1.00  0.00    -0.269 OA
BRANCH  23  26
ATOM     26  C   UNL A   1      34.104  34.735  32.209  1.00  0.00     0.039 A 
ATOM     27  C   UNL A   1      35.351  35.318  32.428  1.00  0.00     0.014 A 
ATOM     28  C   UNL A   1      34.027  33.330  32.132  1.00  0.00     0.014 A 
ATOM     29  C   UNL A   1      36.497  34.528  32.466  1.00  0.00     0.010 A 
ATOM     30  C   UNL A   1      35.168  32.535  32.184  1.00  0.00     0.010 A 
ATOM     31  C   UNL A   1      36.412  33.143  32.291  1.00  0.00    -0.014 A 
BRANCH  31  32
ATOM     32  C   UNL A   1      37.665  32.399  32.212  1.00  0.00     0.031 A 
ATOM     33  C   UNL A   1      38.499  32.386  33.446  1.00  0.00     0.074 A 
ATOM     34  C   UNL A   1      38.105  31.771  31.103  1.00  0.00     0.049 A 
ATOM     35  N   UNL A   1      39.614  33.010  33.655  1.00  0.00    -0.248 NA
ATOM     36  C   UNL A   1      37.984  31.666  34.617  1.00  0.00     0.031 C 
ATOM     37  C   UNL A   1      37.389  31.457  29.863  1.00  0.00     0.029 A 
ATOM     38  N   UNL A   1      39.341  31.235  30.889  1.00  0.00    -0.354 N 
ATOM     39  C   UNL A   1      40.032  32.646  34.932  1.00  0.00     0.074 A 
ATOM     40  C   UNL A   1      38.944  31.900  35.515  1.00  0.00     0.031 C 
ATOM     41  C   UNL A   1      38.143  30.621  29.110  1.00  0.00     0.029 A 
ATOM     42  C   UNL A   1      39.445  30.473  29.738  1.00  0.00     0.049 A 
ATOM     43  H   UNL A   1      40.097  31.380  31.502  1.00  0.00     0.167 HD
ATOM     44  C   UNL A   1      41.311  32.849  35.357  1.00  0.00     0.037 A 
ATOM     45  C   UNL A   1      40.520  29.752  29.341  1.00  0.00     0.037 A 
ATOM     46  C   UNL A   1      42.006  33.801  34.532  1.00  0.00     0.049 A 
ATOM     47  C   UNL A   1      41.718  30.327  29.998  1.00  0.00     0.074 A 
ATOM     48  C   UNL A   1      41.850  35.141  34.232  1.00  0.00     0.029 A 
ATOM     49  N   UNL A   1      42.894  33.324  33.600  1.00  0.00    -0.354 N 
ATOM     50  N   UNL A   1      42.209  31.499  29.705  1.00  0.00    -0.248 NA
ATOM     51  C   UNL A   1      42.119  29.788  31.288  1.00  0.00     0.031 C 
ATOM     52  C   UNL A   1      42.238  35.261  32.864  1.00  0.00     0.029 A 
ATOM     53  C   UNL A   1      42.632  33.994  32.434  1.00  0.00     0.049 A 
ATOM     54  H   UNL A   1      43.583  32.637  33.743  1.00  0.00     0.167 HD
ATOM     55  C   UNL A   1      42.624  32.023  30.921  1.00  0.00     0.074 A 
ATOM     56  C   UNL A   1      42.626  30.891  31.843  1.00  0.00     0.031 C 
ATOM     57  C   UNL A   1      42.666  33.373  31.132  1.00  0.00     0.037 A 
BRANCH  44  58
ATOM     58  C   UNL A   1      42.051  31.949  36.314  1.00  0.00     0.057 A 
ATOM     59  C   UNL A   1      42.428  30.628  36.005  1.00  0.00     0.134 A 
ATOM     60  C   UNL A   1      42.686  32.509  37.439  1.00  0.00     0.134 A 
ATOM     61  F   UNL A   1      41.957  29.986  34.929  1.00  0.00    -0.206 F 
ATOM     62  C   UNL A   1      43.399  29.932  36.730  1.00  0.00     0.040 A 
ATOM     63  C   UNL A   1      43.693  31.837  38.143  1.00  0.00     0.040 A 
ATOM     64  F   UNL A   1      42.408  33.760  37.836  1.00  0.00    -0.206 F 
ATOM     65  C   UNL A   1      44.062  30.549  37.779  1.00  0.00     0.006 A 
ENDBRANCH  44  58
BRANCH  45  66
ATOM     66  C   UNL A   1      40.522  28.431  28.683  1.00  0.00     0.057 A 
ATOM     67  C   UNL A   1      40.926  28.297  27.342  1.00  0.00     0.134 A 
ATOM     68  C   UNL A   1      39.882  27.321  29.249  1.00  0.00     0.134 A 
ATOM     69  F   UNL A   1      41.472  29.328  26.679  1.00  0.00    -0.206 F 
ATOM     70  C   UNL A   1      40.700  27.132  26.603  1.00  0.00     0.040 A 
ATOM     71  C   UNL A   1      39.645  26.148  28.518  1.00  0.00     0.040 A 
ATOM     72  F   UNL A   1      39.417  27.371  30.506  1.00  0.00    -0.206 F 
ATOM     73  C   UNL A   1      40.047  26.056  27.188  1.00  0.00     0.006 A 
ENDBRANCH  45  66
BRANCH  57  74
ATOM     74  C   UNL A   1      42.453  34.263  29.942  1.00  0.00     0.057 A 
ATOM     75  C   UNL A   1      43.562  34.784  29.268  1.00  0.00     0.134 A 
ATOM     76  C   UNL A   1      41.190  34.714  29.532  1.00  0.00     0.134 A 
ATOM     77  F   UNL A   1      44.804  34.451  29.648  1.00  0.00    -0.206 F 
ATOM     78  C   UNL A   1      43.420  35.694  28.216  1.00  0.00     0.040 A 
ATOM     79  C   UNL A   1      41.033  35.599  28.462  1.00  0.00     0.040 A 
ATOM     80  F   UNL A   1      40.081  34.353  30.190  1.00  0.00    -0.206 F 
ATOM     81  C   UNL A   1      42.151  36.093  27.800  1.00  0.00     0.006 A 
ENDBRANCH  57  74
ENDBRANCH  31  32
ENDBRANCH  23  26
ENDBRANCH  21  22
ENDBRANCH  20  21
ENDBRANCH   1  20
TORSDOF 14
ENDMDL
MODEL 3
REMARK VINA RESULT:     -11.5      3.589      7.246
REMARK SMILES N#Cc1ccn2cc(C(=O)NCCCCCCNC(=O)c3ccc(-c4c5nc(c(-c6c(F)cccc6F)c6ccc([nH]6)c(-c6c(F)cccc6F)c6nc(c(-c7c(F)cccc7F)c7ccc4[nH]7)C=C6)C=C5)cc3)nc2c1
REMARK SMILES IDX 15 1 14 2 13 3 12 4 11 5 9 6 10 7 8 9 3 10 4 11 77 12 5 13
REMARK SMILES IDX 76 14 6 15 75 16 7 17 2 18 1 19 16 20 17 21 18 22 19 23
REMARK SMILES IDX 20 25 21 26 22 27 74 28 23 29 73 30 24 31 25 32 26 33 67 34
REMARK SMILES IDX 27 35 72 36 66 37 68 38 28 39 71 40 65 41 64 42 29 44 55 45
REMARK SMILES IDX 38 46 54 47 39 48 42 49 53 50 69 51 40 52 41 53 52 55 70 56
REMARK SMILES IDX 43 57 30 58 31 59 36 60 32 61 33 62 35 63 37 64 34 65 56 66
REMARK SMILES IDX 57 67 62 68 58 69 59 70 61 71 63 72 60 73 44 74 45 75 50 76
REMARK SMILES IDX 46 77 47 78 49 79 51 80 48 81
REMARK H PARENT 11 8 18 24 68 43 42 54
REMARK Flexibility Score: inf
ROOT
ATOM      1  C   UNL A   1      35.968  21.836  24.243  1.00  0.00     0.002 C 
ENDROOT
BRANCH   1   2
ATOM      2  C   UNL A   1      36.005  23.325  23.878  1.00  0.00     0.002 C 
BRANCH   2   3
ATOM      3  C   UNL A   1      35.173  24.233  24.788  1.00  0.00     0.021 C 
BRANCH   3   4
ATOM      4  C   UNL A   1      34.331  23.471  25.808  1.00  0.00     0.116 C 
BRANCH   4   5
ATOM      5  N   UNL A   1      32.910  23.690  25.589  1.00  0.00    -0.351 N 
ATOM      6  C   UNL A   1      31.925  22.848  25.139  1.00  0.00     0.271 C 
ATOM      7  O   UNL A   1      30.781  23.312  25.023  1.00  0.00    -0.267 OA
ATOM      8  H   UNL A   1      32.601  24.601  25.801  1.00  0.00     0.163 HD
BRANCH   6   9
ATOM      9  C   UNL A   1      32.210  21.447  24.827  1.00  0.00     0.147 A 
ATOM     10  C   UNL A   1      32.921  17.027  24.621  1.00  0.00     0.057 A 
ATOM     11  C   UNL A   1      32.907  17.304  23.183  1.00  0.00     0.038 A 
ATOM     12  C   UNL A   1      32.760  18.006  25.530  1.00  0.00     0.067 A 
ATOM     13  C   UNL A   1      32.722  18.569  22.766  1.00  0.00     0.094 A 
ATOM     14  C   UNL A   1      32.565  19.338  25.083  1.00  0.00     0.138 A 
ATOM     15  N   UNL A   1      32.549  19.574  23.715  1.00  0.00    -0.306 N 
ATOM     16  N   UNL A   1      32.380  20.443  25.760  1.00  0.00    -0.223 NA
ATOM     17  C   UNL A   1      32.332  20.916  23.553  1.00  0.00     0.127 A 
BRANCH  10  18
ATOM     18  C   UNL A   1      33.134  15.595  25.084  1.00  0.00     0.099 C 
ATOM     19  N   UNL A   1      33.311  14.407  25.468  1.00  0.00    -0.192 NA
ENDBRANCH  10  18
ENDBRANCH   6   9
ENDBRANCH   4   5
ENDBRANCH   3   4
ENDBRANCH   2   3
ENDBRANCH   1   2
BRANCH   1  20
ATOM     20  C   UNL A   1      37.318  21.217  24.631  1.00  0.00     0.021 C 
BRANCH  20  21
ATOM     21  C   UNL A   1      37.985  21.865  25.846  1.00  0.00     0.116 C 
BRANCH  21  22
ATOM     22  N   UNL A   1      39.430  21.770  25.810  1.00  0.00    -0.352 N 
ATOM     23  C   UNL A   1      40.465  22.495  26.328  1.00  0.00     0.251 C 
ATOM     24  H   UNL A   1      39.741  20.997  25.287  1.00  0.00     0.163 HD
ATOM     25  O   UNL A   1      41.593  22.034  26.138  1.00  0.00    -0.269 OA
BRANCH  23  26
ATOM     26  C   UNL A   1      40.341  23.796  27.042  1.00  0.00     0.039 A 
ATOM     27  C   UNL A   1      39.320  24.727  26.863  1.00  0.00     0.014 A 
ATOM     28  C   UNL A   1      41.409  24.130  27.899  1.00  0.00     0.014 A 
ATOM     29  C   UNL A   1      39.414  25.990  27.441  1.00  0.00     0.010 A 
ATOM     30  C   UNL A   1      41.501  25.387  28.490  1.00  0.00     0.010 A 
ATOM     31  C   UNL A   1      40.530  26.339  28.210  1.00  0.00    -0.014 A 
BRANCH  31  32
ATOM     32  C   UNL A   1      40.621  27.721  28.671  1.00  0.00     0.031 A 
ATOM     33  C   UNL A   1      41.757  28.519  28.130  1.00  0.00     0.074 A 
ATOM     34  C   UNL A   1      39.773  28.282  29.555  1.00  0.00     0.049 A 
ATOM     35  N   UNL A   1      42.823  28.903  28.756  1.00  0.00    -0.248 NA
ATOM     36  C   UNL A   1      41.748  28.849  26.700  1.00  0.00     0.031 C 
ATOM     37  C   UNL A   1      38.484  27.793  30.051  1.00  0.00     0.029 A 
ATOM     38  N   UNL A   1      39.907  29.486  30.183  1.00  0.00    -0.354 N 
ATOM     39  C   UNL A   1      43.559  29.659  27.847  1.00  0.00     0.074 A 
ATOM     40  C   UNL A   1      42.901  29.509  26.572  1.00  0.00     0.031 C 
ATOM     41  C   UNL A   1      37.869  28.777  30.749  1.00  0.00     0.029 A 
ATOM     42  C   UNL A   1      38.786  29.897  30.882  1.00  0.00     0.049 A 
ATOM     43  H   UNL A   1      40.735  30.018  30.143  1.00  0.00     0.167 HD
ATOM     44  C   UNL A   1      44.566  30.486  28.246  1.00  0.00     0.037 A 
ATOM     45  C   UNL A   1      38.615  31.086  31.507  1.00  0.00     0.037 A 
ATOM     46  C   UNL A   1      45.018  30.179  29.577  1.00  0.00     0.049 A 
ATOM     47  C   UNL A   1      39.958  31.636  31.808  1.00  0.00     0.074 A 
ATOM     48  C   UNL A   1      45.615  29.091  30.185  1.00  0.00     0.029 A 
ATOM     49  N   UNL A   1      44.590  30.979  30.607  1.00  0.00    -0.354 N 
ATOM     50  N   UNL A   1      40.768  31.121  32.690  1.00  0.00    -0.248 NA
ATOM     51  C   UNL A   1      40.581  32.504  30.821  1.00  0.00     0.031 C 
ATOM     52  C   UNL A   1      45.063  29.055  31.501  1.00  0.00     0.029 A 
ATOM     53  C   UNL A   1      44.192  30.139  31.614  1.00  0.00     0.049 A 
ATOM     54  H   UNL A   1      44.575  31.962  30.620  1.00  0.00     0.167 HD
ATOM     55  C   UNL A   1      42.030  31.249  32.129  1.00  0.00     0.074 A 
ATOM     56  C   UNL A   1      41.862  32.188  31.023  1.00  0.00     0.031 C 
ATOM     57  C   UNL A   1      43.036  30.378  32.442  1.00  0.00     0.037 A 
BRANCH  44  58
ATOM     58  C   UNL A   1      44.926  31.787  27.574  1.00  0.00     0.057 A 
ATOM     59  C   UNL A   1      44.240  32.996  27.802  1.00  0.00     0.134 A 
ATOM     60  C   UNL A   1      46.176  31.914  26.939  1.00  0.00     0.134 A 
ATOM     61  F   UNL A   1      43.071  33.040  28.451  1.00  0.00    -0.206 F 
ATOM     62  C   UNL A   1      44.778  34.242  27.468  1.00  0.00     0.040 A 
ATOM     63  C   UNL A   1      46.743  33.160  26.643  1.00  0.00     0.040 A 
ATOM     64  F   UNL A   1      46.924  30.834  26.665  1.00  0.00    -0.206 F 
ATOM     65  C   UNL A   1      46.048  34.330  26.922  1.00  0.00     0.006 A 
ENDBRANCH  44  58
BRANCH  45  66
ATOM     66  C   UNL A   1      37.382  31.895  31.577  1.00  0.00     0.057 A 
ATOM     67  C   UNL A   1      36.605  31.921  32.750  1.00  0.00     0.134 A 
ATOM     68  C   UNL A   1      36.788  32.439  30.431  1.00  0.00     0.134 A 
ATOM     69  F   UNL A   1      37.045  31.351  33.882  1.00  0.00    -0.206 F 
ATOM     70  C   UNL A   1      35.312  32.451  32.782  1.00  0.00     0.040 A 
ATOM     71  C   UNL A   1      35.491  32.971  30.448  1.00  0.00     0.040 A 
ATOM     72  F   UNL A   1      37.431  32.415  29.254  1.00  0.00    -0.206 F 
ATOM     73  C   UNL A   1      34.746  32.968  31.625  1.00  0.00     0.006 A 
ENDBRANCH  45  66
BRANCH  57  74
ATOM     74  C   UNL A   1      42.788  29.416  33.568  1.00  0.00     0.057 A 
ATOM     75  C   UNL A   1      43.316  29.689  34.833  1.00  0.00     0.134 A 
ATOM     76  C   UNL A   1      42.153  28.177  33.397  1.00  0.00     0.134 A 
ATOM     77  F   UNL A   1      43.995  30.825  35.053  1.00  0.00    -0.206 F 
ATOM     78  C   UNL A   1      43.197  28.781  35.890  1.00  0.00     0.040 A 
ATOM     79  C   UNL A   1      42.000  27.273  34.453  1.00  0.00     0.040 A 
ATOM     80  F   UNL A   1      41.714  27.786  32.194  1.00  0.00    -0.206 F 
ATOM     81  C   UNL A   1      42.525  27.574  35.705  1.00  0.00     0.006 A 
ENDBRANCH  57  74
ENDBRANCH  31  32
ENDBRANCH  23  26
ENDBRANCH  21  22
ENDBRANCH  20  21
ENDBRANCH   1  20
TORSDOF 14
ENDMDL
