MODEL 1
REMARK VINA RESULT:     -11.2      0.000      0.000
REMARK SMILES CC[C@@H](O)C[NH+]1CC(n2cc(C(=O)NCCCCCCNC(=O)c3ccc(-c4c5nc(c(-c6c(F)cccc6F)c6ccc([nH]6)c(-c6c(F)cccc6F)c6nc(c(-c7c(F)cccc7F)c7ccc4[nH]7)C=C6)C=C5)cc3)nn2)C1
REMARK SMILES IDX 16 1 15 2 14 3 12 4 13 5 11 7 9 8 10 9 79 10 78 11 8 12 6 13
REMARK SMILES IDX 7 14 80 15 5 17 3 18 2 19 1 20 4 21 17 23 18 24 19 25 20 26
REMARK SMILES IDX 21 27 22 28 23 30 24 31 25 32 77 33 26 34 76 35 27 36 28 37
REMARK SMILES IDX 29 38 70 39 30 40 75 41 69 42 71 43 31 44 74 45 68 46 67 47
REMARK SMILES IDX 32 49 58 50 41 51 57 52 42 53 45 54 56 55 72 56 43 57 44 58
REMARK SMILES IDX 55 60 73 61 46 62 33 63 34 64 39 65 35 66 36 67 38 68 40 69
REMARK SMILES IDX 37 70 59 71 60 72 65 73 61 74 62 75 64 76 66 77 63 78 47 79
REMARK SMILES IDX 48 80 53 81 49 82 50 83 52 84 54 85 51 86
REMARK H PARENT 14 6 6 16 4 22 21 29 71 48 45 59
REMARK Flexibility Score: inf
ROOT
ATOM      1  C   UNL A   1      32.709  28.832  23.802  1.00  0.00     0.021 C 
ENDROOT
BRANCH   1   2
ATOM      2  C   UNL A   1      32.010  27.547  23.354  1.00  0.00     0.116 C 
BRANCH   2   3
ATOM      3  N   UNL A   1      32.438  27.140  22.027  1.00  0.00    -0.351 N 
ATOM      4  C   UNL A   1      32.921  25.941  21.562  1.00  0.00     0.273 C 
ATOM      5  O   UNL A   1      33.032  25.824  20.328  1.00  0.00    -0.267 OA
ATOM      6  H   UNL A   1      32.370  27.845  21.343  1.00  0.00     0.163 HD
BRANCH   4   7
ATOM      7  C   UNL A   1      33.271  24.856  22.464  1.00  0.00     0.170 A 
ATOM      8  N   UNL A   1      33.314  23.159  23.824  1.00  0.00    -0.237 N 
ATOM      9  C   UNL A   1      32.454  24.014  23.192  1.00  0.00     0.145 A 
ATOM     10  N   UNL A   1      34.589  23.471  23.565  1.00  0.00    -0.066 NA
ATOM     11  N   UNL A   1      34.580  24.532  22.765  1.00  0.00    -0.125 NA
BRANCH   8  12
ATOM     12  C   UNL A   1      32.860  22.083  24.633  1.00  0.00     0.218 C 
ATOM     13  N   UNL A   1      32.708  20.038  24.894  1.00  0.00    -0.329 N 
ATOM     14  C   UNL A   1      33.862  20.995  25.081  1.00  0.00     0.296 C 
ATOM     15  C   UNL A   1      32.296  20.928  23.765  1.00  0.00     0.296 C 
ATOM     16  H   UNL A   1      32.074  19.775  25.649  1.00  0.00     0.348 HD
BRANCH  13  17
ATOM     17  C   UNL A   1      33.157  18.720  24.435  1.00  0.00     0.294 C 
BRANCH  17  18
ATOM     18  C   UNL A   1      32.497  17.575  25.247  1.00  0.00     0.169 C 
BRANCH  18  19
ATOM     19  C   UNL A   1      33.152  16.206  25.017  1.00  0.00     0.034 C 
ATOM     20  C   UNL A   1      34.196  16.222  23.908  1.00  0.00     0.007 C 
ENDBRANCH  18  19
BRANCH  18  21
ATOM     21  O   UNL A   1      32.581  17.904  26.637  1.00  0.00    -0.387 OA
ATOM     22  H   UNL A   1      33.460  17.669  26.972  1.00  0.00     0.211 HD
ENDBRANCH  18  21
ENDBRANCH  17  18
ENDBRANCH  13  17
ENDBRANCH   8  12
ENDBRANCH   4   7
ENDBRANCH   2   3
ENDBRANCH   1   2
BRANCH   1  23
ATOM     23  C   UNL A   1      31.957  29.624  24.883  1.00  0.00     0.002 C 
BRANCH  23  24
ATOM     24  C   UNL A   1      32.747  29.940  26.163  1.00  0.00     0.002 C 
BRANCH  24  25
ATOM     25  C   UNL A   1      33.378  28.742  26.888  1.00  0.00     0.021 C 
BRANCH  25  26
ATOM     26  C   UNL A   1      34.848  28.931  27.238  1.00  0.00     0.116 C 
BRANCH  26  27
ATOM     27  N   UNL A   1      35.054  30.028  28.183  1.00  0.00    -0.352 N 
ATOM     28  C   UNL A   1      36.109  30.221  29.041  1.00  0.00     0.251 C 
ATOM     29  H   UNL A   1      34.349  30.714  28.206  1.00  0.00     0.163 HD
ATOM     30  O   UNL A   1      36.011  30.978  30.011  1.00  0.00    -0.269 OA
BRANCH  28  31
ATOM     31  C   UNL A   1      37.363  29.499  28.797  1.00  0.00     0.039 A 
ATOM     32  C   UNL A   1      38.143  29.781  27.673  1.00  0.00     0.014 A 
ATOM     33  C   UNL A   1      37.782  28.572  29.749  1.00  0.00     0.014 A 
ATOM     34  C   UNL A   1      39.401  29.191  27.558  1.00  0.00     0.010 A 
ATOM     35  C   UNL A   1      39.066  28.080  29.689  1.00  0.00     0.010 A 
ATOM     36  C   UNL A   1      39.874  28.360  28.584  1.00  0.00    -0.014 A 
BRANCH  36  37
ATOM     37  C   UNL A   1      41.262  27.888  28.571  1.00  0.00     0.031 A 
ATOM     38  C   UNL A   1      41.520  26.603  27.848  1.00  0.00     0.074 A 
ATOM     39  C   UNL A   1      42.296  28.678  28.931  1.00  0.00     0.049 A 
ATOM     40  N   UNL A   1      42.131  25.544  28.275  1.00  0.00    -0.248 NA
ATOM     41  C   UNL A   1      40.986  26.464  26.482  1.00  0.00     0.031 C 
ATOM     42  C   UNL A   1      42.250  30.082  29.360  1.00  0.00     0.029 A 
ATOM     43  N   UNL A   1      43.635  28.430  28.852  1.00  0.00    -0.354 N 
ATOM     44  C   UNL A   1      42.215  24.672  27.186  1.00  0.00     0.074 A 
ATOM     45  C   UNL A   1      41.385  25.235  26.155  1.00  0.00     0.031 C 
ATOM     46  C   UNL A   1      43.482  30.622  29.261  1.00  0.00     0.029 A 
ATOM     47  C   UNL A   1      44.423  29.568  28.938  1.00  0.00     0.049 A 
ATOM     48  H   UNL A   1      44.007  27.526  28.742  1.00  0.00     0.167 HD
ATOM     49  C   UNL A   1      43.128  23.660  27.144  1.00  0.00     0.037 A 
ATOM     50  C   UNL A   1      45.758  29.660  28.736  1.00  0.00     0.037 A 
ATOM     51  C   UNL A   1      43.615  23.337  28.460  1.00  0.00     0.049 A 
ATOM     52  C   UNL A   1      46.329  28.302  28.867  1.00  0.00     0.074 A 
ATOM     53  C   UNL A   1      43.043  22.905  29.641  1.00  0.00     0.029 A 
ATOM     54  N   UNL A   1      44.880  23.746  28.796  1.00  0.00    -0.354 N 
ATOM     55  N   UNL A   1      46.381  27.636  29.986  1.00  0.00    -0.248 NA
ATOM     56  C   UNL A   1      46.502  27.510  27.660  1.00  0.00     0.031 C 
ATOM     57  C   UNL A   1      43.803  23.534  30.671  1.00  0.00     0.029 A 
ATOM     58  C   UNL A   1      44.810  24.278  30.055  1.00  0.00     0.049 A 
ATOM     59  H   UNL A   1      45.687  23.672  28.237  1.00  0.00     0.167 HD
ATOM     60  C   UNL A   1      46.161  26.317  29.620  1.00  0.00     0.074 A 
ATOM     61  C   UNL A   1      46.375  26.285  28.177  1.00  0.00     0.031 C 
ATOM     62  C   UNL A   1      45.552  25.443  30.475  1.00  0.00     0.037 A 
BRANCH  49  63
ATOM     63  C   UNL A   1      43.866  23.216  25.894  1.00  0.00     0.057 A 
ATOM     64  C   UNL A   1      43.912  21.843  25.576  1.00  0.00     0.134 A 
ATOM     65  C   UNL A   1      44.784  24.017  25.184  1.00  0.00     0.134 A 
ATOM     66  F   UNL A   1      43.087  20.968  26.170  1.00  0.00    -0.206 F 
ATOM     67  C   UNL A   1      44.870  21.298  24.710  1.00  0.00     0.040 A 
ATOM     68  C   UNL A   1      45.711  23.488  24.278  1.00  0.00     0.040 A 
ATOM     69  F   UNL A   1      44.904  25.332  25.390  1.00  0.00    -0.206 F 
ATOM     70  C   UNL A   1      45.784  22.121  24.068  1.00  0.00     0.006 A 
ENDBRANCH  49  63
BRANCH  50  71
ATOM     71  C   UNL A   1      46.528  30.814  28.229  1.00  0.00     0.057 A 
ATOM     72  C   UNL A   1      46.145  31.499  27.070  1.00  0.00     0.134 A 
ATOM     73  C   UNL A   1      47.529  31.420  29.008  1.00  0.00     0.134 A 
ATOM     74  F   UNL A   1      45.168  31.018  26.287  1.00  0.00    -0.206 F 
ATOM     75  C   UNL A   1      46.717  32.726  26.711  1.00  0.00     0.040 A 
ATOM     76  C   UNL A   1      48.115  32.640  28.658  1.00  0.00     0.040 A 
ATOM     77  F   UNL A   1      47.912  30.890  30.179  1.00  0.00    -0.206 F 
ATOM     78  C   UNL A   1      47.701  33.303  27.510  1.00  0.00     0.006 A 
ENDBRANCH  50  71
BRANCH  62  79
ATOM     79  C   UNL A   1      45.398  25.859  31.911  1.00  0.00     0.057 A 
ATOM     80  C   UNL A   1      46.405  25.719  32.877  1.00  0.00     0.134 A 
ATOM     81  C   UNL A   1      44.251  26.562  32.292  1.00  0.00     0.134 A 
ATOM     82  F   UNL A   1      47.579  25.154  32.577  1.00  0.00    -0.206 F 
ATOM     83  C   UNL A   1      46.257  26.214  34.175  1.00  0.00     0.040 A 
ATOM     84  C   UNL A   1      44.104  27.092  33.577  1.00  0.00     0.040 A 
ATOM     85  F   UNL A   1      43.272  26.790  31.403  1.00  0.00    -0.206 F 
ATOM     86  C   UNL A   1      45.106  26.909  34.527  1.00  0.00     0.006 A 
ENDBRANCH  62  79
ENDBRANCH  36  37
ENDBRANCH  28  31
ENDBRANCH  26  27
ENDBRANCH  25  26
ENDBRANCH  24  25
ENDBRANCH  23  24
ENDBRANCH   1  23
TORSDOF 18
ENDMDL
MODEL 2
REMARK VINA RESULT:     -10.6      1.894      6.155
REMARK SMILES CC[C@@H](O)C[NH+]1CC(n2cc(C(=O)NCCCCCCNC(=O)c3ccc(-c4c5nc(c(-c6c(F)cccc6F)c6ccc([nH]6)c(-c6c(F)cccc6F)c6nc(c(-c7c(F)cccc7F)c7ccc4[nH]7)C=C6)C=C5)cc3)nn2)C1
REMARK SMILES IDX 16 1 15 2 14 3 12 4 13 5 11 7 9 8 10 9 79 10 78 11 8 12 6 13
REMARK SMILES IDX 7 14 80 15 5 17 3 18 2 19 1 20 4 21 17 23 18 24 19 25 20 26
REMARK SMILES IDX 21 27 22 28 23 30 24 31 25 32 77 33 26 34 76 35 27 36 28 37
REMARK SMILES IDX 29 38 70 39 30 40 75 41 69 42 71 43 31 44 74 45 68 46 67 47
REMARK SMILES IDX 32 49 58 50 41 51 57 52 42 53 45 54 56 55 72 56 43 57 44 58
REMARK SMILES IDX 55 60 73 61 46 62 33 63 34 64 39 65 35 66 36 67 38 68 40 69
REMARK SMILES IDX 37 70 59 71 60 72 65 73 61 74 62 75 64 76 66 77 63 78 47 79
REMARK SMILES IDX 48 80 53 81 49 82 50 83 52 84 54 85 51 86
REMARK H PARENT 14 6 6 16 4 22 21 29 71 48 45 59
REMARK Flexibility Score: inf
ROOT
ATOM      1  C   UNL A   1      32.015  29.152  23.858  1.00  0.00     0.021 C 
ENDROOT
BRANCH   1   2
ATOM      2  C   UNL A   1      31.520  27.758  23.468  1.00  0.00     0.116 C 
BRANCH   2   3
ATOM      3  N   UNL A   1      32.227  27.245  22.307  1.00  0.00    -0.351 N 
ATOM      4  C   UNL A   1      32.936  26.084  22.121  1.00  0.00     0.273 C 
ATOM      5  O   UNL A   1      33.278  25.819  20.955  1.00  0.00    -0.267 OA
ATOM      6  H   UNL A   1      32.190  27.831  21.516  1.00  0.00     0.163 HD
BRANCH   4   7
ATOM      7  C   UNL A   1      33.258  25.199  23.229  1.00  0.00     0.170 A 
ATOM      8  N   UNL A   1      33.379  23.605  24.703  1.00  0.00    -0.237 N 
ATOM      9  C   UNL A   1      32.622  24.049  23.655  1.00  0.00     0.145 A 
ATOM     10  N   UNL A   1      34.390  24.441  24.964  1.00  0.00    -0.066 NA
ATOM     11  N   UNL A   1      34.306  25.443  24.095  1.00  0.00    -0.125 NA
BRANCH   8  12
ATOM     12  C   UNL A   1      33.094  22.393  25.388  1.00  0.00     0.218 C 
ATOM     13  N   UNL A   1      33.069  20.326  25.344  1.00  0.00    -0.329 N 
ATOM     14  C   UNL A   1      34.196  21.317  25.519  1.00  0.00     0.296 C 
ATOM     15  C   UNL A   1      32.460  21.346  24.435  1.00  0.00     0.296 C 
ATOM     16  H   UNL A   1      32.563  19.914  26.128  1.00  0.00     0.348 HD
BRANCH  13  17
ATOM     17  C   UNL A   1      33.502  19.123  24.627  1.00  0.00     0.294 C 
BRANCH  17  18
ATOM     18  C   UNL A   1      32.702  17.871  25.073  1.00  0.00     0.169 C 
BRANCH  18  19
ATOM     19  C   UNL A   1      33.378  16.546  24.694  1.00  0.00     0.034 C 
ATOM     20  C   UNL A   1      34.025  16.579  23.315  1.00  0.00     0.007 C 
ENDBRANCH  18  19
BRANCH  18  21
ATOM     21  O   UNL A   1      32.544  17.923  26.495  1.00  0.00    -0.387 OA
ATOM     22  H   UNL A   1      33.060  17.210  26.903  1.00  0.00     0.211 HD
ENDBRANCH  18  21
ENDBRANCH  17  18
ENDBRANCH  13  17
ENDBRANCH   8  12
ENDBRANCH   4   7
ENDBRANCH   2   3
ENDBRANCH   1   2
BRANCH   1  23
ATOM     23  C   UNL A   1      31.129  29.880  24.881  1.00  0.00     0.002 C 
BRANCH  23  24
ATOM     24  C   UNL A   1      31.814  30.303  26.190  1.00  0.00     0.002 C 
BRANCH  24  25
ATOM     25  C   UNL A   1      32.603  29.213  26.930  1.00  0.00     0.021 C 
BRANCH  25  26
ATOM     26  C   UNL A   1      34.113  29.410  26.900  1.00  0.00     0.116 C 
BRANCH  26  27
ATOM     27  N   UNL A   1      34.500  30.766  27.285  1.00  0.00    -0.352 N 
ATOM     28  C   UNL A   1      35.566  31.156  28.060  1.00  0.00     0.251 C 
ATOM     29  H   UNL A   1      33.927  31.491  26.946  1.00  0.00     0.163 HD
ATOM     30  O   UNL A   1      35.594  32.271  28.590  1.00  0.00    -0.269 OA
BRANCH  28  31
ATOM     31  C   UNL A   1      36.675  30.218  28.264  1.00  0.00     0.039 A 
ATOM     32  C   UNL A   1      37.700  30.106  27.322  1.00  0.00     0.014 A 
ATOM     33  C   UNL A   1      36.708  29.490  29.452  1.00  0.00     0.014 A 
ATOM     34  C   UNL A   1      38.814  29.325  27.623  1.00  0.00     0.010 A 
ATOM     35  C   UNL A   1      37.857  28.811  29.793  1.00  0.00     0.010 A 
ATOM     36  C   UNL A   1      38.904  28.699  28.875  1.00  0.00    -0.014 A 
BRANCH  36  37
ATOM     37  C   UNL A   1      40.146  28.035  29.281  1.00  0.00     0.031 A 
ATOM     38  C   UNL A   1      40.504  28.123  30.731  1.00  0.00     0.074 A 
ATOM     39  C   UNL A   1      40.792  27.160  28.479  1.00  0.00     0.049 A 
ATOM     40  N   UNL A   1      41.617  28.511  31.268  1.00  0.00    -0.248 NA
ATOM     41  C   UNL A   1      39.466  27.772  31.716  1.00  0.00     0.031 C 
ATOM     42  C   UNL A   1      40.399  26.709  27.138  1.00  0.00     0.029 A 
ATOM     43  N   UNL A   1      41.872  26.375  28.757  1.00  0.00    -0.354 N 
ATOM     44  C   UNL A   1      41.489  28.293  32.642  1.00  0.00     0.074 A 
ATOM     45  C   UNL A   1      40.107  27.963  32.870  1.00  0.00     0.031 C 
ATOM     46  C   UNL A   1      41.066  25.577  26.831  1.00  0.00     0.029 A 
ATOM     47  C   UNL A   1      42.051  25.328  27.866  1.00  0.00     0.049 A 
ATOM     48  H   UNL A   1      42.470  26.538  29.522  1.00  0.00     0.167 HD
ATOM     49  C   UNL A   1      42.576  28.198  33.459  1.00  0.00     0.037 A 
ATOM     50  C   UNL A   1      42.926  24.302  27.969  1.00  0.00     0.037 A 
ATOM     51  C   UNL A   1      43.741  28.789  32.853  1.00  0.00     0.049 A 
ATOM     52  C   UNL A   1      43.982  24.704  28.924  1.00  0.00     0.074 A 
ATOM     53  C   UNL A   1      44.078  30.044  32.387  1.00  0.00     0.029 A 
ATOM     54  N   UNL A   1      44.706  27.947  32.362  1.00  0.00    -0.354 N 
ATOM     55  N   UNL A   1      44.858  25.641  28.693  1.00  0.00    -0.248 NA
ATOM     56  C   UNL A   1      43.830  24.322  30.318  1.00  0.00     0.031 C 
ATOM     57  C   UNL A   1      44.918  29.807  31.259  1.00  0.00     0.029 A 
ATOM     58  C   UNL A   1      45.069  28.426  31.132  1.00  0.00     0.049 A 
ATOM     59  H   UNL A   1      45.069  27.148  32.809  1.00  0.00     0.167 HD
ATOM     60  C   UNL A   1      45.045  26.257  29.921  1.00  0.00     0.074 A 
ATOM     61  C   UNL A   1      44.494  25.324  30.899  1.00  0.00     0.031 C 
ATOM     62  C   UNL A   1      45.370  27.581  30.000  1.00  0.00     0.037 A 
BRANCH  49  63
ATOM     63  C   UNL A   1      42.690  27.246  34.636  1.00  0.00     0.057 A 
ATOM     64  C   UNL A   1      42.957  25.883  34.393  1.00  0.00     0.134 A 
ATOM     65  C   UNL A   1      42.239  27.535  35.940  1.00  0.00     0.134 A 
ATOM     66  F   UNL A   1      43.401  25.469  33.196  1.00  0.00    -0.206 F 
ATOM     67  C   UNL A   1      42.686  24.879  35.333  1.00  0.00     0.040 A 
ATOM     68  C   UNL A   1      42.015  26.545  36.903  1.00  0.00     0.040 A 
ATOM     69  F   UNL A   1      41.901  28.768  36.330  1.00  0.00    -0.206 F 
ATOM     70  C   UNL A   1      42.199  25.208  36.589  1.00  0.00     0.006 A 
ENDBRANCH  49  63
BRANCH  50  71
ATOM     71  C   UNL A   1      42.786  22.925  27.455  1.00  0.00     0.057 A 
ATOM     72  C   UNL A   1      41.694  22.121  27.801  1.00  0.00     0.134 A 
ATOM     73  C   UNL A   1      43.605  22.448  26.416  1.00  0.00     0.134 A 
ATOM     74  F   UNL A   1      40.833  22.515  28.751  1.00  0.00    -0.206 F 
ATOM     75  C   UNL A   1      41.423  20.914  27.144  1.00  0.00     0.040 A 
ATOM     76  C   UNL A   1      43.352  21.241  25.757  1.00  0.00     0.040 A 
ATOM     77  F   UNL A   1      44.630  23.178  25.952  1.00  0.00    -0.206 F 
ATOM     78  C   UNL A   1      42.250  20.475  26.113  1.00  0.00     0.006 A 
ENDBRANCH  50  71
BRANCH  62  79
ATOM     79  C   UNL A   1      45.806  28.273  28.740  1.00  0.00     0.057 A 
ATOM     80  C   UNL A   1      44.925  28.900  27.848  1.00  0.00     0.134 A 
ATOM     81  C   UNL A   1      47.174  28.444  28.501  1.00  0.00     0.134 A 
ATOM     82  F   UNL A   1      43.604  28.882  28.051  1.00  0.00    -0.206 F 
ATOM     83  C   UNL A   1      45.382  29.623  26.742  1.00  0.00     0.040 A 
ATOM     84  C   UNL A   1      47.645  29.192  27.419  1.00  0.00     0.040 A 
ATOM     85  F   UNL A   1      48.077  27.926  29.347  1.00  0.00    -0.206 F 
ATOM     86  C   UNL A   1      46.747  29.776  26.528  1.00  0.00     0.006 A 
ENDBRANCH  62  79
ENDBRANCH  36  37
ENDBRANCH  28  31
ENDBRANCH  26  27
ENDBRANCH  25  26
ENDBRANCH  24  25
ENDBRANCH  23  24
ENDBRANCH   1  23
TORSDOF 18
ENDMDL
MODEL 3
REMARK VINA RESULT:     -10.6      1.868      6.140
REMARK SMILES CC[C@@H](O)C[NH+]1CC(n2cc(C(=O)NCCCCCCNC(=O)c3ccc(-c4c5nc(c(-c6c(F)cccc6F)c6ccc([nH]6)c(-c6c(F)cccc6F)c6nc(c(-c7c(F)cccc7F)c7ccc4[nH]7)C=C6)C=C5)cc3)nn2)C1
REMARK SMILES IDX 16 1 15 2 14 3 12 4 13 5 11 7 9 8 10 9 79 10 78 11 8 12 6 13
REMARK SMILES IDX 7 14 80 15 5 17 3 18 2 19 1 20 4 21 17 23 18 24 19 25 20 26
REMARK SMILES IDX 21 27 22 28 23 30 24 31 25 32 77 33 26 34 76 35 27 36 28 37
REMARK SMILES IDX 29 38 70 39 30 40 75 41 69 42 71 43 31 44 74 45 68 46 67 47
REMARK SMILES IDX 32 49 58 50 41 51 57 52 42 53 45 54 56 55 72 56 43 57 44 58
REMARK SMILES IDX 55 60 73 61 46 62 33 63 34 64 39 65 35 66 36 67 38 68 40 69
REMARK SMILES IDX 37 70 59 71 60 72 65 73 61 74 62 75 64 76 66 77 63 78 47 79
REMARK SMILES IDX 48 80 53 81 49 82 50 83 52 84 54 85 51 86
REMARK H PARENT 14 6 6 16 4 22 21 29 71 48 45 59
REMARK Flexibility Score: inf
ROOT
ATOM      1  C   UNL A   1      32.832  28.947  23.932  1.00  0.00     0.021 C 
ENDROOT
BRANCH   1   2
ATOM      2  C   UNL A   1      33.947  27.909  23.793  1.00  0.00     0.116 C 
BRANCH   2   3
ATOM      3  N   UNL A   1      33.924  27.272  22.488  1.00  0.00    -0.351 N 
ATOM      4  C   UNL A   1      33.224  26.185  22.024  1.00  0.00     0.273 C 
ATOM      5  O   UNL A   1      33.262  25.977  20.798  1.00  0.00    -0.267 OA
ATOM      6  H   UNL A   1      34.513  27.692  21.819  1.00  0.00     0.163 HD
BRANCH   4   7
ATOM      7  C   UNL A   1      32.463  25.327  22.919  1.00  0.00     0.170 A 
ATOM      8  N   UNL A   1      31.724  23.767  24.241  1.00  0.00    -0.237 N 
ATOM      9  C   UNL A   1      32.771  24.076  23.417  1.00  0.00     0.145 A 
ATOM     10  N   UNL A   1      30.790  24.723  24.224  1.00  0.00    -0.066 NA
ATOM     11  N   UNL A   1      31.209  25.668  23.388  1.00  0.00    -0.125 NA
BRANCH   8  12
ATOM     12  C   UNL A   1      31.687  22.571  25.008  1.00  0.00     0.218 C 
ATOM     13  N   UNL A   1      32.378  20.640  25.267  1.00  0.00    -0.329 N 
ATOM     14  C   UNL A   1      33.005  21.982  25.562  1.00  0.00     0.296 C 
ATOM     15  C   UNL A   1      31.739  21.318  24.096  1.00  0.00     0.296 C 
ATOM     16  H   UNL A   1      31.843  20.111  25.957  1.00  0.00     0.348 HD
BRANCH  13  17
ATOM     17  C   UNL A   1      33.376  19.645  24.864  1.00  0.00     0.294 C 
BRANCH  17  18
ATOM     18  C   UNL A   1      32.930  18.205  25.231  1.00  0.00     0.169 C 
BRANCH  18  19
ATOM     19  C   UNL A   1      33.922  17.124  24.780  1.00  0.00     0.034 C 
ATOM     20  C   UNL A   1      34.038  17.014  23.265  1.00  0.00     0.007 C 
ENDBRANCH  18  19
BRANCH  18  21
ATOM     21  O   UNL A   1      32.775  18.131  26.652  1.00  0.00    -0.387 OA
ATOM     22  H   UNL A   1      33.618  17.871  27.055  1.00  0.00     0.211 HD
ENDBRANCH  18  21
ENDBRANCH  17  18
ENDBRANCH  13  17
ENDBRANCH   8  12
ENDBRANCH   4   7
ENDBRANCH   2   3
ENDBRANCH   1   2
BRANCH   1  23
ATOM     23  C   UNL A   1      31.876  28.703  25.110  1.00  0.00     0.002 C 
BRANCH  23  24
ATOM     24  C   UNL A   1      32.160  29.505  26.390  1.00  0.00     0.002 C 
BRANCH  24  25
ATOM     25  C   UNL A   1      33.328  29.014  27.257  1.00  0.00     0.021 C 
BRANCH  25  26
ATOM     26  C   UNL A   1      34.527  29.952  27.276  1.00  0.00     0.116 C 
BRANCH  26  27
ATOM     27  N   UNL A   1      34.254  31.181  28.020  1.00  0.00    -0.352 N 
ATOM     28  C   UNL A   1      34.868  31.635  29.162  1.00  0.00     0.251 C 
ATOM     29  H   UNL A   1      33.543  31.756  27.655  1.00  0.00     0.163 HD
ATOM     30  O   UNL A   1      34.335  32.490  29.875  1.00  0.00    -0.269 OA
BRANCH  28  31
ATOM     31  C   UNL A   1      36.171  31.075  29.537  1.00  0.00     0.039 A 
ATOM     32  C   UNL A   1      36.289  29.739  29.931  1.00  0.00     0.014 A 
ATOM     33  C   UNL A   1      37.293  31.894  29.430  1.00  0.00     0.014 A 
ATOM     34  C   UNL A   1      37.560  29.202  30.125  1.00  0.00     0.010 A 
ATOM     35  C   UNL A   1      38.547  31.332  29.513  1.00  0.00     0.010 A 
ATOM     36  C   UNL A   1      38.692  29.994  29.888  1.00  0.00    -0.014 A 
BRANCH  36  37
ATOM     37  C   UNL A   1      40.030  29.393  29.901  1.00  0.00     0.031 A 
ATOM     38  C   UNL A   1      40.676  29.240  31.242  1.00  0.00     0.074 A 
ATOM     39  C   UNL A   1      40.545  28.756  28.827  1.00  0.00     0.049 A 
ATOM     40  N   UNL A   1      41.851  29.630  31.622  1.00  0.00    -0.248 NA
ATOM     41  C   UNL A   1      39.890  28.607  32.315  1.00  0.00     0.031 C 
ATOM     42  C   UNL A   1      39.909  28.530  27.523  1.00  0.00     0.029 A 
ATOM     43  N   UNL A   1      41.704  28.045  28.725  1.00  0.00    -0.354 N 
ATOM     44  C   UNL A   1      42.026  29.144  32.921  1.00  0.00     0.074 A 
ATOM     45  C   UNL A   1      40.745  28.639  33.338  1.00  0.00     0.031 C 
ATOM     46  C   UNL A   1      40.563  27.549  26.868  1.00  0.00     0.029 A 
ATOM     47  C   UNL A   1      41.756  27.209  27.620  1.00  0.00     0.049 A 
ATOM     48  H   UNL A   1      42.438  28.119  29.377  1.00  0.00     0.167 HD
ATOM     49  C   UNL A   1      43.264  29.006  33.476  1.00  0.00     0.037 A 
ATOM     50  C   UNL A   1      42.693  26.275  27.339  1.00  0.00     0.037 A 
ATOM     51  C   UNL A   1      44.239  29.814  32.791  1.00  0.00     0.049 A 
ATOM     52  C   UNL A   1      43.899  26.593  28.134  1.00  0.00     0.074 A 
ATOM     53  C   UNL A   1      44.395  31.163  32.539  1.00  0.00     0.029 A 
ATOM     54  N   UNL A   1      45.129  29.182  31.961  1.00  0.00    -0.354 N 
ATOM     55  N   UNL A   1      44.649  27.640  27.937  1.00  0.00    -0.248 NA
ATOM     56  C   UNL A   1      44.064  25.940  29.423  1.00  0.00     0.031 C 
ATOM     57  C   UNL A   1      44.994  31.229  31.245  1.00  0.00     0.029 A 
ATOM     58  C   UNL A   1      45.198  29.919  30.810  1.00  0.00     0.049 A 
ATOM     59  H   UNL A   1      45.625  28.354  32.156  1.00  0.00     0.167 HD
ATOM     60  C   UNL A   1      45.052  28.028  29.206  1.00  0.00     0.074 A 
ATOM     61  C   UNL A   1      44.774  26.876  30.058  1.00  0.00     0.031 C 
ATOM     62  C   UNL A   1      45.306  29.339  29.492  1.00  0.00     0.037 A 
BRANCH  49  63
ATOM     63  C   UNL A   1      43.677  27.864  34.387  1.00  0.00     0.057 A 
ATOM     64  C   UNL A   1      44.187  28.160  35.669  1.00  0.00     0.134 A 
ATOM     65  C   UNL A   1      43.897  26.540  33.957  1.00  0.00     0.134 A 
ATOM     66  F   UNL A   1      44.039  29.380  36.207  1.00  0.00    -0.206 F 
ATOM     67  C   UNL A   1      44.952  27.248  36.408  1.00  0.00     0.040 A 
ATOM     68  C   UNL A   1      44.617  25.606  34.710  1.00  0.00     0.040 A 
ATOM     69  F   UNL A   1      43.518  26.101  32.753  1.00  0.00    -0.206 F 
ATOM     70  C   UNL A   1      45.183  25.969  35.922  1.00  0.00     0.006 A 
ENDBRANCH  49  63
BRANCH  50  71
ATOM     71  C   UNL A   1      42.531  25.013  26.589  1.00  0.00     0.057 A 
ATOM     72  C   UNL A   1      43.272  24.747  25.433  1.00  0.00     0.134 A 
ATOM     73  C   UNL A   1      41.812  23.932  27.130  1.00  0.00     0.134 A 
ATOM     74  F   UNL A   1      44.024  25.706  24.871  1.00  0.00    -0.206 F 
ATOM     75  C   UNL A   1      43.306  23.474  24.850  1.00  0.00     0.040 A 
ATOM     76  C   UNL A   1      41.829  22.658  26.554  1.00  0.00     0.040 A 
ATOM     77  F   UNL A   1      41.135  24.057  28.281  1.00  0.00    -0.206 F 
ATOM     78  C   UNL A   1      42.588  22.423  25.415  1.00  0.00     0.006 A 
ENDBRANCH  50  71
BRANCH  62  79
ATOM     79  C   UNL A   1      45.428  30.298  28.342  1.00  0.00     0.057 A 
ATOM     80  C   UNL A   1      44.347  31.006  27.797  1.00  0.00     0.134 A 
ATOM     81  C   UNL A   1      46.702  30.630  27.871  1.00  0.00     0.134 A 
ATOM     82  F   UNL A   1      43.103  30.833  28.256  1.00  0.00    -0.206 F 
ATOM     83  C   UNL A   1      44.521  31.967  26.797  1.00  0.00     0.040 A 
ATOM     84  C   UNL A   1      46.893  31.612  26.895  1.00  0.00     0.040 A 
ATOM     85  F   UNL A   1      47.789  30.039  28.389  1.00  0.00    -0.206 F 
ATOM     86  C   UNL A   1      45.799  32.277  26.347  1.00  0.00     0.006 A 
ENDBRANCH  62  79
ENDBRANCH  36  37
ENDBRANCH  28  31
ENDBRANCH  26  27
ENDBRANCH  25  26
ENDBRANCH  24  25
ENDBRANCH  23  24
ENDBRANCH   1  23
TORSDOF 18
ENDMDL
