MODEL 1
REMARK VINA RESULT:     -13.4      0.000      0.000
REMARK SMILES Cc1ccccc1C(=O)Nc1ccc(N2CCCCC2)cc1C(=O)NCCCCCCNC(=O)c1ccc(-c2c3nc(c(-c4c(F)cccc4F)c4ccc([nH]4)c(-c4c(F)cccc4F)c4nc(c(-c5c(F)cccc5F)c5ccc2[nH]5)C=C4)C=C3)cc1
REMARK SMILES IDX 28 1 27 2 26 3 25 4 23 5 24 6 22 8 11 9 12 10 13 11 21 12
REMARK SMILES IDX 14 13 10 14 8 15 9 16 7 18 1 19 2 20 3 21 4 22 6 23 5 24
REMARK SMILES IDX 15 25 16 26 20 27 17 28 19 29 18 30 29 31 30 32 31 33 32 34
REMARK SMILES IDX 33 35 34 37 35 38 36 39 88 40 37 41 87 42 38 43 39 44 40 45
REMARK SMILES IDX 81 46 41 47 86 48 80 49 82 50 42 51 85 52 79 53 78 54 43 56
REMARK SMILES IDX 69 57 52 58 68 59 53 60 56 61 67 62 83 63 54 64 55 65 66 67
REMARK SMILES IDX 84 68 57 69 44 70 45 71 50 72 46 73 47 74 49 75 51 76 48 77
REMARK SMILES IDX 70 78 71 79 76 80 72 81 73 82 75 83 77 84 74 85 58 86 59 87
REMARK SMILES IDX 64 88 60 89 61 90 63 91 65 92 62 93
REMARK H PARENT 25 7 10 17 32 36 82 55 56 66
REMARK Flexibility Score: inf
ROOT
ATOM      1  C   UNL A   1      34.612  31.330  28.035  1.00  0.00     0.002 C 
ENDROOT
BRANCH   1   2
ATOM      2  C   UNL A   1      33.173  31.464  27.530  1.00  0.00     0.021 C 
BRANCH   2   3
ATOM      3  C   UNL A   1      32.415  30.188  27.172  1.00  0.00     0.116 C 
BRANCH   3   4
ATOM      4  N   UNL A   1      33.234  29.017  26.938  1.00  0.00    -0.352 N 
ATOM      5  C   UNL A   1      33.013  27.931  26.117  1.00  0.00     0.253 C 
ATOM      6  O   UNL A   1      33.906  27.098  25.994  1.00  0.00    -0.269 OA
ATOM      7  H   UNL A   1      34.079  28.991  27.443  1.00  0.00     0.163 HD
BRANCH   5   8
ATOM      8  C   UNL A   1      31.728  27.752  25.387  1.00  0.00     0.065 A 
ATOM      9  C   UNL A   1      30.953  26.587  25.530  1.00  0.00     0.054 A 
ATOM     10  C   UNL A   1      29.842  26.401  24.697  1.00  0.00     0.029 A 
ATOM     11  C   UNL A   1      29.391  27.434  23.882  1.00  0.00     0.028 A 
ATOM     12  C   UNL A   1      31.324  28.724  24.449  1.00  0.00     0.042 A 
ATOM     13  C   UNL A   1      30.097  28.634  23.786  1.00  0.00     0.038 A 
BRANCH   9  14
ATOM     14  N   UNL A   1      31.112  25.567  26.480  1.00  0.00    -0.321 N 
ATOM     15  C   UNL A   1      31.735  24.344  26.447  1.00  0.00     0.255 C 
ATOM     16  O   UNL A   1      31.603  23.612  27.432  1.00  0.00    -0.269 OA
ATOM     17  H   UNL A   1      30.691  25.769  27.347  1.00  0.00     0.170 HD
BRANCH  15  18
ATOM     18  C   UNL A   1      32.657  23.891  25.369  1.00  0.00     0.043 A 
ATOM     19  C   UNL A   1      30.875  23.393  23.565  1.00  0.00     0.045 C 
ATOM     20  C   UNL A   1      32.286  23.492  24.067  1.00  0.00    -0.038 A 
ATOM     21  C   UNL A   1      33.303  23.185  23.140  1.00  0.00     0.004 A 
ATOM     22  C   UNL A   1      34.651  23.345  23.459  1.00  0.00     0.000 A 
ATOM     23  C   UNL A   1      34.024  24.061  25.667  1.00  0.00     0.014 A 
ATOM     24  C   UNL A   1      35.013  23.797  24.720  1.00  0.00     0.001 A 
ENDBRANCH  15  18
ENDBRANCH   9  14
BRANCH  13  25
ATOM     25  N   UNL A   1      29.514  29.702  23.116  1.00  0.00    -0.372 N 
ATOM     26  C   UNL A   1      29.454  30.946  23.901  1.00  0.00     0.116 C 
ATOM     27  C   UNL A   1      29.703  29.874  21.679  1.00  0.00     0.116 C 
ATOM     28  C   UNL A   1      28.322  31.829  23.385  1.00  0.00     0.021 C 
ATOM     29  C   UNL A   1      28.555  30.725  21.131  1.00  0.00     0.021 C 
ATOM     30  C   UNL A   1      28.429  32.052  21.879  1.00  0.00     0.004 C 
ENDBRANCH  13  25
ENDBRANCH   5   8
ENDBRANCH   3   4
ENDBRANCH   2   3
ENDBRANCH   1   2
BRANCH   1  31
ATOM     31  C   UNL A   1      35.506  32.576  28.001  1.00  0.00     0.002 C 
BRANCH  31  32
ATOM     32  C   UNL A   1      34.806  33.926  27.856  1.00  0.00     0.021 C 
BRANCH  32  33
ATOM     33  C   UNL A   1      35.111  34.943  28.946  1.00  0.00     0.116 C 
BRANCH  33  34
ATOM     34  N   UNL A   1      33.976  35.277  29.798  1.00  0.00    -0.352 N 
ATOM     35  C   UNL A   1      33.699  34.847  31.088  1.00  0.00     0.251 C 
ATOM     36  H   UNL A   1      33.315  35.891  29.404  1.00  0.00     0.163 HD
ATOM     37  O   UNL A   1      32.707  35.248  31.677  1.00  0.00    -0.269 OA
BRANCH  35  38
ATOM     38  C   UNL A   1      34.700  34.012  31.799  1.00  0.00     0.039 A 
ATOM     39  C   UNL A   1      35.772  34.670  32.409  1.00  0.00     0.014 A 
ATOM     40  C   UNL A   1      34.718  32.629  31.646  1.00  0.00     0.014 A 
ATOM     41  C   UNL A   1      36.968  33.986  32.593  1.00  0.00     0.010 A 
ATOM     42  C   UNL A   1      35.930  31.972  31.733  1.00  0.00     0.010 A 
ATOM     43  C   UNL A   1      37.073  32.679  32.122  1.00  0.00    -0.014 A 
BRANCH  43  44
ATOM     44  C   UNL A   1      38.357  32.045  31.845  1.00  0.00     0.031 A 
ATOM     45  C   UNL A   1      38.427  30.775  31.093  1.00  0.00     0.074 A 
ATOM     46  C   UNL A   1      39.494  32.648  32.262  1.00  0.00     0.049 A 
ATOM     47  N   UNL A   1      39.439  29.976  31.131  1.00  0.00    -0.248 NA
ATOM     48  C   UNL A   1      37.315  30.251  30.308  1.00  0.00     0.031 C 
ATOM     49  C   UNL A   1      40.863  32.329  31.867  1.00  0.00     0.029 A 
ATOM     50  N   UNL A   1      39.641  33.551  33.325  1.00  0.00    -0.354 N 
ATOM     51  C   UNL A   1      39.242  28.999  30.184  1.00  0.00     0.074 A 
ATOM     52  C   UNL A   1      37.857  29.134  29.811  1.00  0.00     0.031 C 
ATOM     53  C   UNL A   1      41.705  32.782  32.807  1.00  0.00     0.029 A 
ATOM     54  C   UNL A   1      40.899  33.285  33.905  1.00  0.00     0.049 A 
ATOM     55  H   UNL A   1      38.993  34.236  33.611  1.00  0.00     0.167 HD
ATOM     56  C   UNL A   1      40.319  28.291  29.741  1.00  0.00     0.037 A 
ATOM     57  C   UNL A   1      41.021  32.882  35.202  1.00  0.00     0.037 A 
ATOM     58  C   UNL A   1      41.472  28.499  30.623  1.00  0.00     0.049 A 
ATOM     59  C   UNL A   1      41.668  31.529  35.374  1.00  0.00     0.074 A 
ATOM     60  C   UNL A   1      42.643  29.227  30.502  1.00  0.00     0.029 A 
ATOM     61  N   UNL A   1      41.392  28.099  31.955  1.00  0.00    -0.354 N 
ATOM     62  N   UNL A   1      41.809  30.662  34.409  1.00  0.00    -0.248 NA
ATOM     63  C   UNL A   1      42.174  31.029  36.650  1.00  0.00     0.031 C 
ATOM     64  C   UNL A   1      43.223  29.336  31.793  1.00  0.00     0.029 A 
ATOM     65  C   UNL A   1      42.427  28.641  32.690  1.00  0.00     0.049 A 
ATOM     66  H   UNL A   1      40.694  27.510  32.323  1.00  0.00     0.167 HD
ATOM     67  C   UNL A   1      42.353  29.507  34.908  1.00  0.00     0.074 A 
ATOM     68  C   UNL A   1      42.594  29.798  36.308  1.00  0.00     0.031 C 
ATOM     69  C   UNL A   1      42.534  28.403  34.125  1.00  0.00     0.037 A 
BRANCH  56  70
ATOM     70  C   UNL A   1      40.427  27.580  28.399  1.00  0.00     0.057 A 
ATOM     71  C   UNL A   1      39.893  26.281  28.242  1.00  0.00     0.134 A 
ATOM     72  C   UNL A   1      41.142  28.033  27.271  1.00  0.00     0.134 A 
ATOM     73  F   UNL A   1      39.170  25.698  29.208  1.00  0.00    -0.206 F 
ATOM     74  C   UNL A   1      40.093  25.497  27.093  1.00  0.00     0.040 A 
ATOM     75  C   UNL A   1      41.317  27.274  26.103  1.00  0.00     0.040 A 
ATOM     76  F   UNL A   1      41.760  29.214  27.229  1.00  0.00    -0.206 F 
ATOM     77  C   UNL A   1      40.809  25.992  26.016  1.00  0.00     0.006 A 
ENDBRANCH  56  70
BRANCH  57  78
ATOM     78  C   UNL A   1      39.996  33.457  36.107  1.00  0.00     0.057 A 
ATOM     79  C   UNL A   1      38.859  32.688  36.402  1.00  0.00     0.134 A 
ATOM     80  C   UNL A   1      40.279  34.531  36.953  1.00  0.00     0.134 A 
ATOM     81  F   UNL A   1      38.531  31.645  35.624  1.00  0.00    -0.206 F 
ATOM     82  C   UNL A   1      38.094  32.913  37.550  1.00  0.00     0.040 A 
ATOM     83  C   UNL A   1      39.521  34.765  38.107  1.00  0.00     0.040 A 
ATOM     84  F   UNL A   1      41.362  35.295  36.746  1.00  0.00    -0.206 F 
ATOM     85  C   UNL A   1      38.449  33.933  38.426  1.00  0.00     0.006 A 
ENDBRANCH  57  78
BRANCH  69  86
ATOM     86  C   UNL A   1      42.900  27.024  34.621  1.00  0.00     0.057 A 
ATOM     87  C   UNL A   1      44.205  26.615  34.939  1.00  0.00     0.134 A 
ATOM     88  C   UNL A   1      41.891  26.086  34.932  1.00  0.00     0.134 A 
ATOM     89  F   UNL A   1      45.251  27.443  34.809  1.00  0.00    -0.206 F 
ATOM     90  C   UNL A   1      44.491  25.348  35.467  1.00  0.00     0.040 A 
ATOM     91  C   UNL A   1      42.159  24.839  35.507  1.00  0.00     0.040 A 
ATOM     92  F   UNL A   1      40.594  26.349  34.711  1.00  0.00    -0.206 F 
ATOM     93  C   UNL A   1      43.467  24.458  35.762  1.00  0.00     0.006 A 
ENDBRANCH  69  86
ENDBRANCH  43  44
ENDBRANCH  35  38
ENDBRANCH  33  34
ENDBRANCH  32  33
ENDBRANCH  31  32
ENDBRANCH   1  31
TORSDOF 16
ENDMDL
MODEL 2
REMARK VINA RESULT:     -13.3      2.263      4.705
REMARK SMILES Cc1ccccc1C(=O)Nc1ccc(N2CCCCC2)cc1C(=O)NCCCCCCNC(=O)c1ccc(-c2c3nc(c(-c4c(F)cccc4F)c4ccc([nH]4)c(-c4c(F)cccc4F)c4nc(c(-c5c(F)cccc5F)c5ccc2[nH]5)C=C4)C=C3)cc1
REMARK SMILES IDX 28 1 27 2 26 3 25 4 23 5 24 6 22 8 11 9 12 10 13 11 21 12
REMARK SMILES IDX 14 13 10 14 8 15 9 16 7 18 1 19 2 20 3 21 4 22 6 23 5 24
REMARK SMILES IDX 15 25 16 26 20 27 17 28 19 29 18 30 29 31 30 32 31 33 32 34
REMARK SMILES IDX 33 35 34 37 35 38 36 39 88 40 37 41 87 42 38 43 39 44 40 45
REMARK SMILES IDX 81 46 41 47 86 48 80 49 82 50 42 51 85 52 79 53 78 54 43 56
REMARK SMILES IDX 69 57 52 58 68 59 53 60 56 61 67 62 83 63 54 64 55 65 66 67
REMARK SMILES IDX 84 68 57 69 44 70 45 71 50 72 46 73 47 74 49 75 51 76 48 77
REMARK SMILES IDX 70 78 71 79 76 80 72 81 73 82 75 83 77 84 74 85 58 86 59 87
REMARK SMILES IDX 64 88 60 89 61 90 63 91 65 92 62 93
REMARK H PARENT 25 7 10 17 32 36 82 55 56 66
REMARK Flexibility Score: inf
ROOT
ATOM      1  C   UNL A   1      32.832  28.759  25.846  1.00  0.00     0.002 C 
ENDROOT
BRANCH   1   2
ATOM      2  C   UNL A   1      32.648  27.290  26.234  1.00  0.00     0.021 C 
BRANCH   2   3
ATOM      3  C   UNL A   1      33.693  26.284  25.758  1.00  0.00     0.116 C 
BRANCH   3   4
ATOM      4  N   UNL A   1      33.785  26.105  24.324  1.00  0.00    -0.352 N 
ATOM      5  C   UNL A   1      34.254  25.034  23.593  1.00  0.00     0.253 C 
ATOM      6  O   UNL A   1      34.133  25.061  22.371  1.00  0.00    -0.269 OA
ATOM      7  H   UNL A   1      33.464  26.866  23.788  1.00  0.00     0.163 HD
BRANCH   5   8
ATOM      8  C   UNL A   1      34.894  23.861  24.248  1.00  0.00     0.065 A 
ATOM      9  C   UNL A   1      34.362  22.565  24.127  1.00  0.00     0.054 A 
ATOM     10  C   UNL A   1      34.908  21.529  24.896  1.00  0.00     0.029 A 
ATOM     11  C   UNL A   1      36.081  21.729  25.616  1.00  0.00     0.028 A 
ATOM     12  C   UNL A   1      36.002  24.063  25.097  1.00  0.00     0.042 A 
ATOM     13  C   UNL A   1      36.678  22.989  25.683  1.00  0.00     0.038 A 
BRANCH   9  14
ATOM     14  N   UNL A   1      33.352  22.135  23.254  1.00  0.00    -0.321 N 
ATOM     15  C   UNL A   1      31.992  22.321  23.229  1.00  0.00     0.255 C 
ATOM     16  O   UNL A   1      31.350  21.708  22.370  1.00  0.00    -0.269 OA
ATOM     17  H   UNL A   1      33.686  21.588  22.506  1.00  0.00     0.170 HD
BRANCH  15  18
ATOM     18  C   UNL A   1      31.254  23.300  24.075  1.00  0.00     0.043 A 
ATOM     19  C   UNL A   1      31.738  22.219  26.371  1.00  0.00     0.045 C 
ATOM     20  C   UNL A   1      31.160  23.280  25.482  1.00  0.00    -0.038 A 
ATOM     21  C   UNL A   1      30.499  24.345  26.128  1.00  0.00     0.004 A 
ATOM     22  C   UNL A   1      30.015  25.442  25.415  1.00  0.00     0.000 A 
ATOM     23  C   UNL A   1      30.773  24.424  23.373  1.00  0.00     0.014 A 
ATOM     24  C   UNL A   1      30.165  25.488  24.036  1.00  0.00     0.001 A 
ENDBRANCH  15  18
ENDBRANCH   9  14
BRANCH  13  25
ATOM     25  N   UNL A   1      37.942  23.102  26.247  1.00  0.00    -0.372 N 
ATOM     26  C   UNL A   1      38.892  22.065  25.814  1.00  0.00     0.116 C 
ATOM     27  C   UNL A   1      38.524  24.415  26.516  1.00  0.00     0.116 C 
ATOM     28  C   UNL A   1      39.978  21.884  26.869  1.00  0.00     0.021 C 
ATOM     29  C   UNL A   1      39.590  24.265  27.603  1.00  0.00     0.021 C 
ATOM     30  C   UNL A   1      40.636  23.214  27.227  1.00  0.00     0.004 C 
ENDBRANCH  13  25
ENDBRANCH   5   8
ENDBRANCH   3   4
ENDBRANCH   2   3
ENDBRANCH   1   2
BRANCH   1  31
ATOM     31  C   UNL A   1      33.229  29.750  26.947  1.00  0.00     0.002 C 
BRANCH  31  32
ATOM     32  C   UNL A   1      34.697  29.766  27.367  1.00  0.00     0.021 C 
BRANCH  32  33
ATOM     33  C   UNL A   1      35.276  31.140  27.674  1.00  0.00     0.116 C 
BRANCH  33  34
ATOM     34  N   UNL A   1      34.300  32.119  28.137  1.00  0.00    -0.352 N 
ATOM     35  C   UNL A   1      34.395  33.008  29.199  1.00  0.00     0.251 C 
ATOM     36  H   UNL A   1      33.459  32.155  27.627  1.00  0.00     0.163 HD
ATOM     37  O   UNL A   1      33.487  33.789  29.438  1.00  0.00    -0.269 OA
BRANCH  35  38
ATOM     38  C   UNL A   1      35.673  33.100  29.948  1.00  0.00     0.039 A 
ATOM     39  C   UNL A   1      36.708  33.839  29.368  1.00  0.00     0.014 A 
ATOM     40  C   UNL A   1      35.922  32.280  31.044  1.00  0.00     0.014 A 
ATOM     41  C   UNL A   1      38.024  33.532  29.697  1.00  0.00     0.010 A 
ATOM     42  C   UNL A   1      37.226  31.902  31.302  1.00  0.00     0.010 A 
ATOM     43  C   UNL A   1      38.269  32.466  30.560  1.00  0.00    -0.014 A 
BRANCH  43  44
ATOM     44  C   UNL A   1      39.553  31.778  30.613  1.00  0.00     0.031 A 
ATOM     45  C   UNL A   1      39.773  30.528  29.858  1.00  0.00     0.074 A 
ATOM     46  C   UNL A   1      40.559  32.312  31.344  1.00  0.00     0.049 A 
ATOM     47  N   UNL A   1      40.705  29.679  30.134  1.00  0.00    -0.248 NA
ATOM     48  C   UNL A   1      38.893  30.080  28.783  1.00  0.00     0.031 C 
ATOM     49  C   UNL A   1      41.970  31.937  31.317  1.00  0.00     0.029 A 
ATOM     50  N   UNL A   1      40.449  33.178  32.442  1.00  0.00    -0.354 N 
ATOM     51  C   UNL A   1      40.731  28.739  29.130  1.00  0.00     0.074 A 
ATOM     52  C   UNL A   1      39.504  28.952  28.405  1.00  0.00     0.031 C 
ATOM     53  C   UNL A   1      42.544  32.323  32.466  1.00  0.00     0.029 A 
ATOM     54  C   UNL A   1      41.493  32.834  33.327  1.00  0.00     0.049 A 
ATOM     55  H   UNL A   1      39.777  33.886  32.570  1.00  0.00     0.167 HD
ATOM     56  C   UNL A   1      41.858  27.991  28.965  1.00  0.00     0.037 A 
ATOM     57  C   UNL A   1      41.244  32.390  34.592  1.00  0.00     0.037 A 
ATOM     58  C   UNL A   1      42.738  28.118  30.131  1.00  0.00     0.049 A 
ATOM     59  C   UNL A   1      41.767  31.002  34.877  1.00  0.00     0.074 A 
ATOM     60  C   UNL A   1      43.927  28.790  30.357  1.00  0.00     0.029 A 
ATOM     61  N   UNL A   1      42.286  27.686  31.376  1.00  0.00    -0.354 N 
ATOM     62  N   UNL A   1      42.128  30.157  33.952  1.00  0.00    -0.248 NA
ATOM     63  C   UNL A   1      41.889  30.443  36.222  1.00  0.00     0.031 C 
ATOM     64  C   UNL A   1      44.140  28.836  31.760  1.00  0.00     0.029 A 
ATOM     65  C   UNL A   1      43.106  28.156  32.382  1.00  0.00     0.049 A 
ATOM     66  H   UNL A   1      41.492  27.122  31.519  1.00  0.00     0.167 HD
ATOM     67  C   UNL A   1      42.471  28.963  34.532  1.00  0.00     0.074 A 
ATOM     68  C   UNL A   1      42.336  29.203  35.956  1.00  0.00     0.031 C 
ATOM     69  C   UNL A   1      42.812  27.873  33.783  1.00  0.00     0.037 A 
BRANCH  56  70
ATOM     70  C   UNL A   1      42.296  27.313  27.674  1.00  0.00     0.057 A 
ATOM     71  C   UNL A   1      42.879  26.027  27.713  1.00  0.00     0.134 A 
ATOM     72  C   UNL A   1      42.305  27.894  26.389  1.00  0.00     0.134 A 
ATOM     73  F   UNL A   1      42.941  25.319  28.849  1.00  0.00    -0.206 F 
ATOM     74  C   UNL A   1      43.454  25.405  26.592  1.00  0.00     0.040 A 
ATOM     75  C   UNL A   1      42.842  27.267  25.253  1.00  0.00     0.040 A 
ATOM     76  F   UNL A   1      41.841  29.120  26.142  1.00  0.00    -0.206 F 
ATOM     77  C   UNL A   1      43.439  26.024  25.354  1.00  0.00     0.006 A 
ENDBRANCH  56  70
BRANCH  57  78
ATOM     78  C   UNL A   1      40.037  32.989  35.211  1.00  0.00     0.057 A 
ATOM     79  C   UNL A   1      38.831  32.272  35.155  1.00  0.00     0.134 A 
ATOM     80  C   UNL A   1      40.125  34.021  36.148  1.00  0.00     0.134 A 
ATOM     81  F   UNL A   1      38.684  31.271  34.273  1.00  0.00    -0.206 F 
ATOM     82  C   UNL A   1      37.794  32.501  36.063  1.00  0.00     0.040 A 
ATOM     83  C   UNL A   1      39.092  34.259  37.064  1.00  0.00     0.040 A 
ATOM     84  F   UNL A   1      41.254  34.734  36.274  1.00  0.00    -0.206 F 
ATOM     85  C   UNL A   1      37.940  33.475  37.046  1.00  0.00     0.006 A 
ENDBRANCH  57  78
BRANCH  69  86
ATOM     86  C   UNL A   1      42.975  26.465  34.303  1.00  0.00     0.057 A 
ATOM     87  C   UNL A   1      44.201  25.785  34.383  1.00  0.00     0.134 A 
ATOM     88  C   UNL A   1      41.881  25.787  34.885  1.00  0.00     0.134 A 
ATOM     89  F   UNL A   1      45.346  26.353  33.979  1.00  0.00    -0.206 F 
ATOM     90  C   UNL A   1      44.319  24.505  34.942  1.00  0.00     0.040 A 
ATOM     91  C   UNL A   1      41.996  24.532  35.492  1.00  0.00     0.040 A 
ATOM     92  F   UNL A   1      40.652  26.327  34.911  1.00  0.00    -0.206 F 
ATOM     93  C   UNL A   1      43.217  23.876  35.507  1.00  0.00     0.006 A 
ENDBRANCH  69  86
ENDBRANCH  43  44
ENDBRANCH  35  38
ENDBRANCH  33  34
ENDBRANCH  32  33
ENDBRANCH  31  32
ENDBRANCH   1  31
TORSDOF 16
ENDMDL
MODEL 3
REMARK VINA RESULT:     -13.1      2.549      4.244
REMARK SMILES Cc1ccccc1C(=O)Nc1ccc(N2CCCCC2)cc1C(=O)NCCCCCCNC(=O)c1ccc(-c2c3nc(c(-c4c(F)cccc4F)c4ccc([nH]4)c(-c4c(F)cccc4F)c4nc(c(-c5c(F)cccc5F)c5ccc2[nH]5)C=C4)C=C3)cc1
REMARK SMILES IDX 28 1 27 2 26 3 25 4 23 5 24 6 22 8 11 9 12 10 13 11 21 12
REMARK SMILES IDX 14 13 10 14 8 15 9 16 7 18 1 19 2 20 3 21 4 22 6 23 5 24
REMARK SMILES IDX 15 25 16 26 20 27 17 28 19 29 18 30 29 31 30 32 31 33 32 34
REMARK SMILES IDX 33 35 34 37 35 38 36 39 88 40 37 41 87 42 38 43 39 44 40 45
REMARK SMILES IDX 81 46 41 47 86 48 80 49 82 50 42 51 85 52 79 53 78 54 43 56
REMARK SMILES IDX 69 57 52 58 68 59 53 60 56 61 67 62 83 63 54 64 55 65 66 67
REMARK SMILES IDX 84 68 57 69 44 70 45 71 50 72 46 73 47 74 49 75 51 76 48 77
REMARK SMILES IDX 70 78 71 79 76 80 72 81 73 82 75 83 77 84 74 85 58 86 59 87
REMARK SMILES IDX 64 88 60 89 61 90 63 91 65 92 62 93
REMARK H PARENT 25 7 10 17 32 36 82 55 56 66
REMARK Flexibility Score: inf
ROOT
ATOM      1  C   UNL A   1      32.599  28.610  27.085  1.00  0.00     0.002 C 
ENDROOT
BRANCH   1   2
ATOM      2  C   UNL A   1      31.813  27.324  27.355  1.00  0.00     0.021 C 
BRANCH   2   3
ATOM      3  C   UNL A   1      32.401  26.004  26.863  1.00  0.00     0.116 C 
BRANCH   3   4
ATOM      4  N   UNL A   1      31.455  24.920  26.696  1.00  0.00    -0.352 N 
ATOM      5  C   UNL A   1      30.733  24.538  25.585  1.00  0.00     0.253 C 
ATOM      6  O   UNL A   1      30.066  23.508  25.645  1.00  0.00    -0.269 OA
ATOM      7  H   UNL A   1      31.303  24.372  27.499  1.00  0.00     0.163 HD
BRANCH   5   8
ATOM      8  C   UNL A   1      30.748  25.338  24.330  1.00  0.00     0.065 A 
ATOM      9  C   UNL A   1      31.260  24.819  23.128  1.00  0.00     0.054 A 
ATOM     10  C   UNL A   1      31.400  25.668  22.022  1.00  0.00     0.029 A 
ATOM     11  C   UNL A   1      30.860  26.950  22.046  1.00  0.00     0.028 A 
ATOM     12  C   UNL A   1      30.335  26.686  24.365  1.00  0.00     0.042 A 
ATOM     13  C   UNL A   1      30.269  27.460  23.203  1.00  0.00     0.038 A 
BRANCH   9  14
ATOM     14  N   UNL A   1      31.608  23.488  22.852  1.00  0.00    -0.321 N 
ATOM     15  C   UNL A   1      32.681  22.708  23.203  1.00  0.00     0.255 C 
ATOM     16  O   UNL A   1      32.754  21.582  22.702  1.00  0.00    -0.269 OA
ATOM     17  H   UNL A   1      30.949  23.018  22.292  1.00  0.00     0.170 HD
BRANCH  15  18
ATOM     18  C   UNL A   1      33.690  23.069  24.237  1.00  0.00     0.043 A 
ATOM     19  C   UNL A   1      32.853  21.499  26.111  1.00  0.00     0.045 C 
ATOM     20  C   UNL A   1      33.794  22.513  25.530  1.00  0.00    -0.038 A 
ATOM     21  C   UNL A   1      34.874  22.905  26.347  1.00  0.00     0.004 A 
ATOM     22  C   UNL A   1      35.872  23.758  25.876  1.00  0.00     0.000 A 
ATOM     23  C   UNL A   1      34.716  23.918  23.775  1.00  0.00     0.014 A 
ATOM     24  C   UNL A   1      35.800  24.255  24.583  1.00  0.00     0.001 A 
ENDBRANCH  15  18
ENDBRANCH   9  14
BRANCH  13  25
ATOM     25  N   UNL A   1      29.574  28.660  23.127  1.00  0.00    -0.372 N 
ATOM     26  C   UNL A   1      28.113  28.508  23.031  1.00  0.00     0.116 C 
ATOM     27  C   UNL A   1      30.037  29.837  23.857  1.00  0.00     0.116 C 
ATOM     28  C   UNL A   1      27.507  29.737  22.363  1.00  0.00     0.021 C 
ATOM     29  C   UNL A   1      29.473  31.088  23.180  1.00  0.00     0.021 C 
ATOM     30  C   UNL A   1      27.950  31.025  23.054  1.00  0.00     0.004 C 
ENDBRANCH  13  25
ENDBRANCH   5   8
ENDBRANCH   3   4
ENDBRANCH   2   3
ENDBRANCH   1   2
BRANCH   1  31
ATOM     31  C   UNL A   1      31.839  29.941  27.130  1.00  0.00     0.002 C 
BRANCH  31  32
ATOM     32  C   UNL A   1      32.680  31.216  27.153  1.00  0.00     0.021 C 
BRANCH  32  33
ATOM     33  C   UNL A   1      34.158  31.022  27.457  1.00  0.00     0.116 C 
BRANCH  33  34
ATOM     34  N   UNL A   1      34.630  31.723  28.645  1.00  0.00    -0.352 N 
ATOM     35  C   UNL A   1      35.650  31.369  29.517  1.00  0.00     0.251 C 
ATOM     36  H   UNL A   1      34.161  32.562  28.858  1.00  0.00     0.163 HD
ATOM     37  O   UNL A   1      35.939  32.090  30.460  1.00  0.00    -0.269 OA
BRANCH  35  38
ATOM     38  C   UNL A   1      36.484  30.181  29.205  1.00  0.00     0.039 A 
ATOM     39  C   UNL A   1      36.727  29.274  30.240  1.00  0.00     0.014 A 
ATOM     40  C   UNL A   1      37.205  30.104  28.017  1.00  0.00     0.014 A 
ATOM     41  C   UNL A   1      37.876  28.492  30.198  1.00  0.00     0.010 A 
ATOM     42  C   UNL A   1      38.397  29.406  28.014  1.00  0.00     0.010 A 
ATOM     43  C   UNL A   1      38.772  28.673  29.145  1.00  0.00    -0.014 A 
BRANCH  43  44
ATOM     44  C   UNL A   1      40.171  28.271  29.228  1.00  0.00     0.031 A 
ATOM     45  C   UNL A   1      40.613  26.959  28.716  1.00  0.00     0.074 A 
ATOM     46  C   UNL A   1      41.074  29.129  29.758  1.00  0.00     0.049 A 
ATOM     47  N   UNL A   1      41.710  26.381  29.076  1.00  0.00    -0.248 NA
ATOM     48  C   UNL A   1      39.803  26.138  27.822  1.00  0.00     0.031 C 
ATOM     49  C   UNL A   1      42.529  29.037  29.693  1.00  0.00     0.029 A 
ATOM     50  N   UNL A   1      40.831  30.165  30.673  1.00  0.00    -0.354 N 
ATOM     51  C   UNL A   1      41.889  25.278  28.276  1.00  0.00     0.074 A 
ATOM     52  C   UNL A   1      40.617  25.095  27.624  1.00  0.00     0.031 C 
ATOM     53  C   UNL A   1      43.056  29.755  30.696  1.00  0.00     0.029 A 
ATOM     54  C   UNL A   1      41.957  30.220  31.521  1.00  0.00     0.049 A 
ATOM     55  H   UNL A   1      40.033  30.741  30.714  1.00  0.00     0.167 HD
ATOM     56  C   UNL A   1      43.138  24.744  28.169  1.00  0.00     0.037 A 
ATOM     57  C   UNL A   1      41.854  30.007  32.865  1.00  0.00     0.037 A 
ATOM     58  C   UNL A   1      44.018  25.276  29.214  1.00  0.00     0.049 A 
ATOM     59  C   UNL A   1      42.661  28.836  33.371  1.00  0.00     0.074 A 
ATOM     60  C   UNL A   1      45.052  26.198  29.210  1.00  0.00     0.029 A 
ATOM     61  N   UNL A   1      43.714  25.032  30.552  1.00  0.00    -0.354 N 
ATOM     62  N   UNL A   1      43.152  27.904  32.603  1.00  0.00    -0.248 NA
ATOM     63  C   UNL A   1      42.949  28.601  34.785  1.00  0.00     0.031 C 
ATOM     64  C   UNL A   1      45.306  26.572  30.556  1.00  0.00     0.029 A 
ATOM     65  C   UNL A   1      44.458  25.849  31.379  1.00  0.00     0.049 A 
ATOM     66  H   UNL A   1      43.058  24.368  30.865  1.00  0.00     0.167 HD
ATOM     67  C   UNL A   1      43.755  26.945  33.374  1.00  0.00     0.074 A 
ATOM     68  C   UNL A   1      43.629  27.443  34.730  1.00  0.00     0.031 C 
ATOM     69  C   UNL A   1      44.283  25.811  32.826  1.00  0.00     0.037 A 
BRANCH  56  70
ATOM     70  C   UNL A   1      43.655  23.911  27.004  1.00  0.00     0.057 A 
ATOM     71  C   UNL A   1      44.260  24.545  25.895  1.00  0.00     0.134 A 
ATOM     72  C   UNL A   1      43.482  22.522  26.831  1.00  0.00     0.134 A 
ATOM     73  F   UNL A   1      44.516  25.861  25.893  1.00  0.00    -0.206 F 
ATOM     74  C   UNL A   1      44.613  23.868  24.716  1.00  0.00     0.040 A 
ATOM     75  C   UNL A   1      43.866  21.828  25.673  1.00  0.00     0.040 A 
ATOM     76  F   UNL A   1      42.893  21.745  27.740  1.00  0.00    -0.206 F 
ATOM     77  C   UNL A   1      44.416  22.503  24.599  1.00  0.00     0.006 A 
ENDBRANCH  56  70
BRANCH  57  78
ATOM     78  C   UNL A   1      40.575  30.477  33.449  1.00  0.00     0.057 A 
ATOM     79  C   UNL A   1      40.427  31.846  33.719  1.00  0.00     0.134 A 
ATOM     80  C   UNL A   1      39.411  29.707  33.390  1.00  0.00     0.134 A 
ATOM     81  F   UNL A   1      41.507  32.639  33.792  1.00  0.00    -0.206 F 
ATOM     82  C   UNL A   1      39.169  32.446  33.821  1.00  0.00     0.040 A 
ATOM     83  C   UNL A   1      38.145  30.297  33.490  1.00  0.00     0.040 A 
ATOM     84  F   UNL A   1      39.475  28.396  33.114  1.00  0.00    -0.206 F 
ATOM     85  C   UNL A   1      38.022  31.673  33.669  1.00  0.00     0.006 A 
ENDBRANCH  57  78
BRANCH  69  86
ATOM     86  C   UNL A   1      44.752  24.599  33.596  1.00  0.00     0.057 A 
ATOM     87  C   UNL A   1      46.095  24.207  33.719  1.00  0.00     0.134 A 
ATOM     88  C   UNL A   1      43.841  23.850  34.375  1.00  0.00     0.134 A 
ATOM     89  F   UNL A   1      47.083  24.896  33.132  1.00  0.00    -0.206 F 
ATOM     90  C   UNL A   1      46.494  23.116  34.504  1.00  0.00     0.040 A 
ATOM     91  C   UNL A   1      44.234  22.793  35.203  1.00  0.00     0.040 A 
ATOM     92  F   UNL A   1      42.529  24.129  34.383  1.00  0.00    -0.206 F 
ATOM     93  C   UNL A   1      45.565  22.410  35.257  1.00  0.00     0.006 A 
ENDBRANCH  69  86
ENDBRANCH  43  44
ENDBRANCH  35  38
ENDBRANCH  33  34
ENDBRANCH  32  33
ENDBRANCH  31  32
ENDBRANCH   1  31
TORSDOF 16
ENDMDL
