MODEL 1
REMARK VINA RESULT:     -12.9      0.000      0.000
REMARK SMILES O=C(NCCCCCCNC(=O)[C@@H](Cc1ccccc1)N1C(=O)/C(=C/c2ccncc2)SC1=S)c1ccc(-c2c3nc(c(-c4c(F)cccc4F)c4ccc([nH]4)c(-c4c(F)cccc4F)c4nc(c(-c5c(F)cccc5F)c5ccc2[nH]5)C=C4)C=C3)cc1
REMARK SMILES IDX 6 1 5 2 4 3 3 4 1 5 2 6 35 8 36 9 88 10 37 11 87 12 38 13
REMARK SMILES IDX 39 14 40 15 81 16 41 17 86 18 80 19 82 20 42 21 85 22 79 23
REMARK SMILES IDX 78 24 43 26 69 27 52 28 68 29 53 30 56 31 67 32 83 33 54 34
REMARK SMILES IDX 55 35 66 37 84 38 57 39 44 40 45 41 50 42 46 43 47 44 49 45
REMARK SMILES IDX 51 46 48 47 70 48 71 49 76 50 72 51 73 52 75 53 77 54 74 55
REMARK SMILES IDX 58 56 59 57 64 58 60 59 61 60 63 61 65 62 62 63 7 64 8 65
REMARK SMILES IDX 9 66 10 67 11 68 12 70 13 71 14 72 15 73 16 74 20 75 17 76
REMARK SMILES IDX 19 77 18 78 21 79 22 80 33 81 23 82 24 83 32 84 34 85 25 86
REMARK SMILES IDX 26 87 27 88 31 89 28 90 30 91 29 92
REMARK H PARENT 3 7 82 25 56 36 10 69
REMARK Flexibility Score: inf
ROOT
ATOM      1  C   UNL A   1      31.422  30.357  25.989  1.00  0.00     0.002 C 
ENDROOT
BRANCH   1   2
ATOM      2  C   UNL A   1      31.326  31.802  26.479  1.00  0.00     0.021 C 
BRANCH   2   3
ATOM      3  C   UNL A   1      32.595  32.371  27.093  1.00  0.00     0.116 C 
BRANCH   3   4
ATOM      4  N   UNL A   1      32.433  33.743  27.544  1.00  0.00    -0.352 N 
ATOM      5  O   UNL A   1      32.735  35.553  28.853  1.00  0.00    -0.269 OA
ATOM      6  C   UNL A   1      33.133  34.449  28.489  1.00  0.00     0.251 C 
ATOM      7  H   UNL A   1      31.709  34.243  27.102  1.00  0.00     0.163 HD
BRANCH   6   8
ATOM      8  C   UNL A   1      34.362  33.880  29.080  1.00  0.00     0.039 A 
ATOM      9  C   UNL A   1      34.288  32.823  29.989  1.00  0.00     0.014 A 
ATOM     10  C   UNL A   1      35.608  34.388  28.699  1.00  0.00     0.014 A 
ATOM     11  C   UNL A   1      35.438  32.381  30.627  1.00  0.00     0.010 A 
ATOM     12  C   UNL A   1      36.777  33.865  29.261  1.00  0.00     0.010 A 
ATOM     13  C   UNL A   1      36.699  32.870  30.246  1.00  0.00    -0.014 A 
BRANCH  13  14
ATOM     14  C   UNL A   1      37.907  32.234  30.829  1.00  0.00     0.031 A 
ATOM     15  C   UNL A   1      38.420  32.610  32.190  1.00  0.00     0.074 A 
ATOM     16  C   UNL A   1      38.504  31.252  30.124  1.00  0.00     0.049 A 
ATOM     17  N   UNL A   1      39.420  32.092  32.859  1.00  0.00    -0.248 NA
ATOM     18  C   UNL A   1      37.736  33.708  32.888  1.00  0.00     0.031 C 
ATOM     19  C   UNL A   1      38.107  30.824  28.778  1.00  0.00     0.029 A 
ATOM     20  N   UNL A   1      39.543  30.417  30.441  1.00  0.00    -0.354 N 
ATOM     21  C   UNL A   1      39.488  32.800  34.052  1.00  0.00     0.074 A 
ATOM     22  C   UNL A   1      38.451  33.808  34.002  1.00  0.00     0.031 C 
ATOM     23  C   UNL A   1      38.847  29.768  28.415  1.00  0.00     0.029 A 
ATOM     24  C   UNL A   1      39.817  29.490  29.465  1.00  0.00     0.049 A 
ATOM     25  H   UNL A   1      40.044  30.475  31.286  1.00  0.00     0.167 HD
ATOM     26  C   UNL A   1      40.333  32.614  35.095  1.00  0.00     0.037 A 
ATOM     27  C   UNL A   1      40.756  28.529  29.411  1.00  0.00     0.037 A 
ATOM     28  C   UNL A   1      41.364  31.607  35.137  1.00  0.00     0.049 A 
ATOM     29  C   UNL A   1      41.686  28.363  30.575  1.00  0.00     0.074 A 
ATOM     30  C   UNL A   1      42.264  31.333  36.153  1.00  0.00     0.029 A 
ATOM     31  N   UNL A   1      41.632  30.705  34.116  1.00  0.00    -0.354 N 
ATOM     32  N   UNL A   1      41.717  29.022  31.708  1.00  0.00    -0.248 NA
ATOM     33  C   UNL A   1      42.712  27.319  30.456  1.00  0.00     0.031 C 
ATOM     34  C   UNL A   1      43.102  30.295  35.731  1.00  0.00     0.029 A 
ATOM     35  C   UNL A   1      42.693  29.887  34.472  1.00  0.00     0.049 A 
ATOM     36  H   UNL A   1      41.141  30.654  33.264  1.00  0.00     0.167 HD
ATOM     37  C   UNL A   1      42.760  28.471  32.438  1.00  0.00     0.074 A 
ATOM     38  C   UNL A   1      43.308  27.396  31.636  1.00  0.00     0.031 C 
ATOM     39  C   UNL A   1      43.230  28.829  33.657  1.00  0.00     0.037 A 
BRANCH  26  40
ATOM     40  C   UNL A   1      40.187  33.521  36.285  1.00  0.00     0.057 A 
ATOM     41  C   UNL A   1      40.933  34.700  36.408  1.00  0.00     0.134 A 
ATOM     42  C   UNL A   1      39.240  33.250  37.281  1.00  0.00     0.134 A 
ATOM     43  F   UNL A   1      41.864  35.014  35.494  1.00  0.00    -0.206 F 
ATOM     44  C   UNL A   1      40.751  35.571  37.484  1.00  0.00     0.040 A 
ATOM     45  C   UNL A   1      39.031  34.126  38.348  1.00  0.00     0.040 A 
ATOM     46  F   UNL A   1      38.485  32.143  37.220  1.00  0.00    -0.206 F 
ATOM     47  C   UNL A   1      39.790  35.289  38.453  1.00  0.00     0.006 A 
ENDBRANCH  26  40
BRANCH  27  48
ATOM     48  C   UNL A   1      40.877  27.675  28.204  1.00  0.00     0.057 A 
ATOM     49  C   UNL A   1      41.653  28.065  27.106  1.00  0.00     0.134 A 
ATOM     50  C   UNL A   1      40.207  26.448  28.115  1.00  0.00     0.134 A 
ATOM     51  F   UNL A   1      42.306  29.236  27.123  1.00  0.00    -0.206 F 
ATOM     52  C   UNL A   1      41.738  27.279  25.955  1.00  0.00     0.040 A 
ATOM     53  C   UNL A   1      40.311  25.636  26.986  1.00  0.00     0.040 A 
ATOM     54  F   UNL A   1      39.456  26.010  29.137  1.00  0.00    -0.206 F 
ATOM     55  C   UNL A   1      41.069  26.058  25.896  1.00  0.00     0.006 A 
ENDBRANCH  27  48
BRANCH  39  56
ATOM     56  C   UNL A   1      44.384  28.031  34.192  1.00  0.00     0.057 A 
ATOM     57  C   UNL A   1      44.189  26.852  34.923  1.00  0.00     0.134 A 
ATOM     58  C   UNL A   1      45.702  28.451  33.980  1.00  0.00     0.134 A 
ATOM     59  F   UNL A   1      42.949  26.406  35.176  1.00  0.00    -0.206 F 
ATOM     60  C   UNL A   1      45.263  26.138  35.457  1.00  0.00     0.040 A 
ATOM     61  C   UNL A   1      46.787  27.729  34.483  1.00  0.00     0.040 A 
ATOM     62  F   UNL A   1      45.960  29.567  33.281  1.00  0.00    -0.206 F 
ATOM     63  C   UNL A   1      46.566  26.576  35.233  1.00  0.00     0.006 A 
ENDBRANCH  39  56
ENDBRANCH  13  14
ENDBRANCH   6   8
ENDBRANCH   3   4
ENDBRANCH   2   3
ENDBRANCH   1   2
BRANCH   1  64
ATOM     64  C   UNL A   1      32.179  29.371  26.893  1.00  0.00     0.002 C 
BRANCH  64  65
ATOM     65  C   UNL A   1      31.460  28.066  27.240  1.00  0.00     0.021 C 
BRANCH  65  66
ATOM     66  C   UNL A   1      31.097  27.209  26.041  1.00  0.00     0.116 C 
BRANCH  66  67
ATOM     67  N   UNL A   1      30.509  25.930  26.335  1.00  0.00    -0.354 N 
ATOM     68  C   UNL A   1      31.184  24.751  26.452  1.00  0.00     0.243 C 
ATOM     69  H   UNL A   1      29.534  25.904  26.462  1.00  0.00     0.163 HD
ATOM     70  O   UNL A   1      30.737  23.953  27.285  1.00  0.00    -0.273 OA
BRANCH  68  71
ATOM     71  C   UNL A   1      32.450  24.390  25.621  1.00  0.00     0.185 C 
BRANCH  71  72
ATOM     72  C   UNL A   1      33.570  25.469  25.508  1.00  0.00     0.071 C 
BRANCH  72  73
ATOM     73  C   UNL A   1      33.681  26.354  24.293  1.00  0.00    -0.045 A 
ATOM     74  C   UNL A   1      33.377  25.854  23.018  1.00  0.00     0.004 A 
ATOM     75  C   UNL A   1      34.115  27.680  24.399  1.00  0.00     0.004 A 
ATOM     76  C   UNL A   1      33.393  26.693  21.900  1.00  0.00     0.000 A 
ATOM     77  C   UNL A   1      34.098  28.527  23.290  1.00  0.00     0.000 A 
ATOM     78  C   UNL A   1      33.721  28.038  22.043  1.00  0.00     0.000 A 
ENDBRANCH  72  73
ENDBRANCH  71  72
BRANCH  71  79
ATOM     79  N   UNL A   1      32.849  22.962  25.432  1.00  0.00    -0.280 N 
ATOM     80  C   UNL A   1      32.316  22.259  24.344  1.00  0.00     0.266 C 
ATOM     81  C   UNL A   1      33.713  22.195  26.190  1.00  0.00     0.149 C 
ATOM     82  O   UNL A   1      31.473  22.635  23.552  1.00  0.00    -0.268 OA
ATOM     83  C   UNL A   1      32.920  20.894  24.295  1.00  0.00     0.081 C 
ATOM     84  S   UNL A   1      34.389  20.935  25.175  1.00  0.00    -0.054 SA
ATOM     85  S   UNL A   1      34.079  22.154  27.802  1.00  0.00    -0.052 S 
ATOM     86  C   UNL A   1      32.317  19.788  23.838  1.00  0.00     0.029 C 
BRANCH  86  87
ATOM     87  C   UNL A   1      32.886  18.462  24.118  1.00  0.00    -0.021 A 
ATOM     88  C   UNL A   1      33.617  17.800  23.125  1.00  0.00     0.028 A 
ATOM     89  C   UNL A   1      32.558  17.778  25.286  1.00  0.00     0.028 A 
ATOM     90  C   UNL A   1      33.966  16.476  23.333  1.00  0.00     0.111 A 
ATOM     91  C   UNL A   1      32.966  16.458  25.403  1.00  0.00     0.111 A 
ATOM     92  N   UNL A   1      33.659  15.792  24.454  1.00  0.00    -0.265 NA
ENDBRANCH  86  87
ENDBRANCH  71  79
ENDBRANCH  68  71
ENDBRANCH  66  67
ENDBRANCH  65  66
ENDBRANCH  64  65
ENDBRANCH   1  64
TORSDOF 17
ENDMDL
MODEL 2
REMARK VINA RESULT:     -12.8      1.892      2.570
REMARK SMILES O=C(NCCCCCCNC(=O)[C@@H](Cc1ccccc1)N1C(=O)/C(=C/c2ccncc2)SC1=S)c1ccc(-c2c3nc(c(-c4c(F)cccc4F)c4ccc([nH]4)c(-c4c(F)cccc4F)c4nc(c(-c5c(F)cccc5F)c5ccc2[nH]5)C=C4)C=C3)cc1
REMARK SMILES IDX 6 1 5 2 4 3 3 4 1 5 2 6 35 8 36 9 88 10 37 11 87 12 38 13
REMARK SMILES IDX 39 14 40 15 81 16 41 17 86 18 80 19 82 20 42 21 85 22 79 23
REMARK SMILES IDX 78 24 43 26 69 27 52 28 68 29 53 30 56 31 67 32 83 33 54 34
REMARK SMILES IDX 55 35 66 37 84 38 57 39 44 40 45 41 50 42 46 43 47 44 49 45
REMARK SMILES IDX 51 46 48 47 70 48 71 49 76 50 72 51 73 52 75 53 77 54 74 55
REMARK SMILES IDX 58 56 59 57 64 58 60 59 61 60 63 61 65 62 62 63 7 64 8 65
REMARK SMILES IDX 9 66 10 67 11 68 12 70 13 71 14 72 15 73 16 74 20 75 17 76
REMARK SMILES IDX 19 77 18 78 21 79 22 80 33 81 23 82 24 83 32 84 34 85 25 86
REMARK SMILES IDX 26 87 27 88 31 89 28 90 30 91 29 92
REMARK H PARENT 3 7 82 25 56 36 10 69
REMARK Flexibility Score: inf
ROOT
ATOM      1  C   UNL A   1      31.408  30.794  25.980  1.00  0.00     0.002 C 
ENDROOT
BRANCH   1   2
ATOM      2  C   UNL A   1      31.264  32.212  26.531  1.00  0.00     0.021 C 
BRANCH   2   3
ATOM      3  C   UNL A   1      32.539  32.835  27.077  1.00  0.00     0.116 C 
BRANCH   3   4
ATOM      4  N   UNL A   1      32.334  34.185  27.575  1.00  0.00    -0.352 N 
ATOM      5  O   UNL A   1      32.562  35.950  28.958  1.00  0.00    -0.269 OA
ATOM      6  C   UNL A   1      32.994  34.870  28.564  1.00  0.00     0.251 C 
ATOM      7  H   UNL A   1      31.609  34.685  27.135  1.00  0.00     0.163 HD
BRANCH   6   8
ATOM      8  C   UNL A   1      34.221  34.306  29.163  1.00  0.00     0.039 A 
ATOM      9  C   UNL A   1      34.141  33.393  30.215  1.00  0.00     0.014 A 
ATOM     10  C   UNL A   1      35.469  34.672  28.648  1.00  0.00     0.014 A 
ATOM     11  C   UNL A   1      35.300  32.967  30.848  1.00  0.00     0.010 A 
ATOM     12  C   UNL A   1      36.637  34.153  29.216  1.00  0.00     0.010 A 
ATOM     13  C   UNL A   1      36.562  33.311  30.335  1.00  0.00    -0.014 A 
BRANCH  13  14
ATOM     14  C   UNL A   1      37.764  32.683  30.938  1.00  0.00     0.031 A 
ATOM     15  C   UNL A   1      38.314  33.133  32.261  1.00  0.00     0.074 A 
ATOM     16  C   UNL A   1      38.320  31.639  30.289  1.00  0.00     0.049 A 
ATOM     17  N   UNL A   1      39.313  32.633  32.945  1.00  0.00    -0.248 NA
ATOM     18  C   UNL A   1      37.673  34.295  32.896  1.00  0.00     0.031 C 
ATOM     19  C   UNL A   1      37.885  31.133  28.983  1.00  0.00     0.029 A 
ATOM     20  N   UNL A   1      39.342  30.798  30.644  1.00  0.00    -0.354 N 
ATOM     21  C   UNL A   1      39.424  33.417  34.086  1.00  0.00     0.074 A 
ATOM     22  C   UNL A   1      38.413  34.449  33.987  1.00  0.00     0.031 C 
ATOM     23  C   UNL A   1      38.588  30.035  28.679  1.00  0.00     0.029 A 
ATOM     24  C   UNL A   1      39.571  29.800  29.727  1.00  0.00     0.049 A 
ATOM     25  H   UNL A   1      39.861  30.899  31.474  1.00  0.00     0.167 HD
ATOM     26  C   UNL A   1      40.284  33.277  35.124  1.00  0.00     0.037 A 
ATOM     27  C   UNL A   1      40.483  28.812  29.721  1.00  0.00     0.037 A 
ATOM     28  C   UNL A   1      41.287  32.246  35.215  1.00  0.00     0.049 A 
ATOM     29  C   UNL A   1      41.431  28.698  30.877  1.00  0.00     0.074 A 
ATOM     30  C   UNL A   1      42.200  32.017  36.231  1.00  0.00     0.029 A 
ATOM     31  N   UNL A   1      41.511  31.272  34.252  1.00  0.00    -0.354 N 
ATOM     32  N   UNL A   1      41.503  29.430  31.962  1.00  0.00    -0.248 NA
ATOM     33  C   UNL A   1      42.426  27.620  30.809  1.00  0.00     0.031 C 
ATOM     34  C   UNL A   1      43.002  30.929  35.864  1.00  0.00     0.029 A 
ATOM     35  C   UNL A   1      42.557  30.450  34.644  1.00  0.00     0.049 A 
ATOM     36  H   UNL A   1      41.002  31.178  33.415  1.00  0.00     0.167 HD
ATOM     37  C   UNL A   1      42.545  28.900  32.708  1.00  0.00     0.074 A 
ATOM     38  C   UNL A   1      43.048  27.759  31.970  1.00  0.00     0.031 C 
ATOM     39  C   UNL A   1      43.049  29.325  33.892  1.00  0.00     0.037 A 
BRANCH  26  40
ATOM     40  C   UNL A   1      40.186  34.266  36.253  1.00  0.00     0.057 A 
ATOM     41  C   UNL A   1      40.880  35.482  36.229  1.00  0.00     0.134 A 
ATOM     42  C   UNL A   1      39.334  34.030  37.340  1.00  0.00     0.134 A 
ATOM     43  F   UNL A   1      41.719  35.766  35.221  1.00  0.00    -0.206 F 
ATOM     44  C   UNL A   1      40.738  36.425  37.249  1.00  0.00     0.040 A 
ATOM     45  C   UNL A   1      39.166  34.975  38.354  1.00  0.00     0.040 A 
ATOM     46  F   UNL A   1      38.633  32.890  37.422  1.00  0.00    -0.206 F 
ATOM     47  C   UNL A   1      39.871  36.176  38.312  1.00  0.00     0.006 A 
ENDBRANCH  26  40
BRANCH  27  48
ATOM     48  C   UNL A   1      40.557  27.876  28.572  1.00  0.00     0.057 A 
ATOM     49  C   UNL A   1      41.296  28.184  27.424  1.00  0.00     0.134 A 
ATOM     50  C   UNL A   1      39.877  26.651  28.590  1.00  0.00     0.134 A 
ATOM     51  F   UNL A   1      41.957  29.347  27.338  1.00  0.00    -0.206 F 
ATOM     52  C   UNL A   1      41.337  27.320  26.328  1.00  0.00     0.040 A 
ATOM     53  C   UNL A   1      39.936  25.764  27.517  1.00  0.00     0.040 A 
ATOM     54  F   UNL A   1      39.159  26.292  29.665  1.00  0.00    -0.206 F 
ATOM     55  C   UNL A   1      40.659  26.103  26.375  1.00  0.00     0.006 A 
ENDBRANCH  27  48
BRANCH  39  56
ATOM     56  C   UNL A   1      44.191  28.532  34.458  1.00  0.00     0.057 A 
ATOM     57  C   UNL A   1      43.979  27.423  35.288  1.00  0.00     0.134 A 
ATOM     58  C   UNL A   1      45.516  28.887  34.177  1.00  0.00     0.134 A 
ATOM     59  F   UNL A   1      42.733  27.043  35.610  1.00  0.00    -0.206 F 
ATOM     60  C   UNL A   1      45.044  26.718  35.849  1.00  0.00     0.040 A 
ATOM     61  C   UNL A   1      46.590  28.170  34.707  1.00  0.00     0.040 A 
ATOM     62  F   UNL A   1      45.788  29.933  33.383  1.00  0.00    -0.206 F 
ATOM     63  C   UNL A   1      46.355  27.090  35.554  1.00  0.00     0.006 A 
ENDBRANCH  39  56
ENDBRANCH  13  14
ENDBRANCH   6   8
ENDBRANCH   3   4
ENDBRANCH   2   3
ENDBRANCH   1   2
BRANCH   1  64
ATOM     64  C   UNL A   1      31.964  29.733  26.943  1.00  0.00     0.002 C 
BRANCH  64  65
ATOM     65  C   UNL A   1      33.463  29.442  26.853  1.00  0.00     0.021 C 
BRANCH  65  66
ATOM     66  C   UNL A   1      33.826  28.284  25.940  1.00  0.00     0.116 C 
BRANCH  66  67
ATOM     67  N   UNL A   1      34.092  28.622  24.568  1.00  0.00    -0.354 N 
ATOM     68  C   UNL A   1      33.198  28.544  23.541  1.00  0.00     0.243 C 
ATOM     69  H   UNL A   1      34.998  28.938  24.352  1.00  0.00     0.163 HD
ATOM     70  O   UNL A   1      33.310  29.407  22.662  1.00  0.00    -0.273 OA
BRANCH  68  71
ATOM     71  C   UNL A   1      32.083  27.462  23.441  1.00  0.00     0.185 C 
BRANCH  71  72
ATOM     72  C   UNL A   1      30.947  27.693  22.398  1.00  0.00     0.071 C 
BRANCH  72  73
ATOM     73  C   UNL A   1      29.747  28.545  22.727  1.00  0.00    -0.045 A 
ATOM     74  C   UNL A   1      29.845  29.944  22.723  1.00  0.00     0.004 A 
ATOM     75  C   UNL A   1      28.520  27.966  23.071  1.00  0.00     0.004 A 
ATOM     76  C   UNL A   1      28.716  30.739  22.941  1.00  0.00     0.000 A 
ATOM     77  C   UNL A   1      27.385  28.758  23.254  1.00  0.00     0.000 A 
ATOM     78  C   UNL A   1      27.479  30.144  23.172  1.00  0.00     0.000 A 
ENDBRANCH  72  73
ENDBRANCH  71  72
BRANCH  71  79
ATOM     79  N   UNL A   1      32.355  26.055  23.863  1.00  0.00    -0.280 N 
ATOM     80  C   UNL A   1      33.265  25.297  23.115  1.00  0.00     0.266 C 
ATOM     81  C   UNL A   1      31.837  25.355  24.936  1.00  0.00     0.149 C 
ATOM     82  O   UNL A   1      33.819  25.607  22.077  1.00  0.00    -0.268 OA
ATOM     83  C   UNL A   1      33.454  23.968  23.767  1.00  0.00     0.081 C 
ATOM     84  S   UNL A   1      32.979  24.112  25.406  1.00  0.00    -0.054 SA
ATOM     85  S   UNL A   1      30.372  25.373  25.703  1.00  0.00    -0.052 S 
ATOM     86  C   UNL A   1      33.733  22.819  23.135  1.00  0.00     0.029 C 
BRANCH  86  87
ATOM     87  C   UNL A   1      33.595  21.534  23.835  1.00  0.00    -0.021 A 
ATOM     88  C   UNL A   1      34.691  21.005  24.528  1.00  0.00     0.028 A 
ATOM     89  C   UNL A   1      32.456  20.751  23.670  1.00  0.00     0.028 A 
ATOM     90  C   UNL A   1      34.607  19.707  25.003  1.00  0.00     0.111 A 
ATOM     91  C   UNL A   1      32.467  19.468  24.195  1.00  0.00     0.111 A 
ATOM     92  N   UNL A   1      33.516  18.928  24.855  1.00  0.00    -0.265 NA
ENDBRANCH  86  87
ENDBRANCH  71  79
ENDBRANCH  68  71
ENDBRANCH  66  67
ENDBRANCH  65  66
ENDBRANCH  64  65
ENDBRANCH   1  64
TORSDOF 17
ENDMDL
MODEL 3
REMARK VINA RESULT:     -12.6      3.240      8.381
REMARK SMILES O=C(NCCCCCCNC(=O)[C@@H](Cc1ccccc1)N1C(=O)/C(=C/c2ccncc2)SC1=S)c1ccc(-c2c3nc(c(-c4c(F)cccc4F)c4ccc([nH]4)c(-c4c(F)cccc4F)c4nc(c(-c5c(F)cccc5F)c5ccc2[nH]5)C=C4)C=C3)cc1
REMARK SMILES IDX 6 1 5 2 4 3 3 4 1 5 2 6 35 8 36 9 88 10 37 11 87 12 38 13
REMARK SMILES IDX 39 14 40 15 81 16 41 17 86 18 80 19 82 20 42 21 85 22 79 23
REMARK SMILES IDX 78 24 43 26 69 27 52 28 68 29 53 30 56 31 67 32 83 33 54 34
REMARK SMILES IDX 55 35 66 37 84 38 57 39 44 40 45 41 50 42 46 43 47 44 49 45
REMARK SMILES IDX 51 46 48 47 70 48 71 49 76 50 72 51 73 52 75 53 77 54 74 55
REMARK SMILES IDX 58 56 59 57 64 58 60 59 61 60 63 61 65 62 62 63 7 64 8 65
REMARK SMILES IDX 9 66 10 67 11 68 12 70 13 71 14 72 15 73 16 74 20 75 17 76
REMARK SMILES IDX 19 77 18 78 21 79 22 80 33 81 23 82 24 83 32 84 34 85 25 86
REMARK SMILES IDX 26 87 27 88 31 89 28 90 30 91 29 92
REMARK H PARENT 3 7 82 25 56 36 10 69
REMARK Flexibility Score: inf
ROOT
ATOM      1  C   UNL A   1      34.832  22.525  25.640  1.00  0.00     0.002 C 
ENDROOT
BRANCH   1   2
ATOM      2  C   UNL A   1      35.889  23.527  26.101  1.00  0.00     0.021 C 
BRANCH   2   3
ATOM      3  C   UNL A   1      37.090  23.682  25.181  1.00  0.00     0.116 C 
BRANCH   3   4
ATOM      4  N   UNL A   1      38.153  22.738  25.483  1.00  0.00    -0.352 N 
ATOM      5  O   UNL A   1      40.192  22.042  26.143  1.00  0.00    -0.269 OA
ATOM      6  C   UNL A   1      39.345  22.931  26.135  1.00  0.00     0.251 C 
ATOM      7  H   UNL A   1      37.993  21.819  25.171  1.00  0.00     0.163 HD
BRANCH   6   8
ATOM      8  C   UNL A   1      39.615  24.212  26.820  1.00  0.00     0.039 A 
ATOM      9  C   UNL A   1      39.203  24.411  28.138  1.00  0.00     0.014 A 
ATOM     10  C   UNL A   1      40.316  25.217  26.147  1.00  0.00     0.014 A 
ATOM     11  C   UNL A   1      39.354  25.658  28.727  1.00  0.00     0.010 A 
ATOM     12  C   UNL A   1      40.567  26.438  26.782  1.00  0.00     0.010 A 
ATOM     13  C   UNL A   1      40.069  26.676  28.071  1.00  0.00    -0.014 A 
BRANCH  13  14
ATOM     14  C   UNL A   1      40.359  27.927  28.816  1.00  0.00     0.031 A 
ATOM     15  C   UNL A   1      39.350  29.033  28.927  1.00  0.00     0.074 A 
ATOM     16  C   UNL A   1      41.544  28.019  29.453  1.00  0.00     0.049 A 
ATOM     17  N   UNL A   1      39.435  30.153  29.602  1.00  0.00    -0.248 NA
ATOM     18  C   UNL A   1      38.092  28.875  28.183  1.00  0.00     0.031 C 
ATOM     19  C   UNL A   1      42.612  27.015  29.391  1.00  0.00     0.029 A 
ATOM     20  N   UNL A   1      42.042  28.976  30.297  1.00  0.00    -0.354 N 
ATOM     21  C   UNL A   1      38.247  30.832  29.364  1.00  0.00     0.074 A 
ATOM     22  C   UNL A   1      37.472  30.017  28.454  1.00  0.00     0.031 C 
ATOM     23  C   UNL A   1      43.606  27.377  30.213  1.00  0.00     0.029 A 
ATOM     24  C   UNL A   1      43.283  28.669  30.801  1.00  0.00     0.049 A 
ATOM     25  H   UNL A   1      41.558  29.804  30.521  1.00  0.00     0.167 HD
ATOM     26  C   UNL A   1      37.840  32.022  29.871  1.00  0.00     0.037 A 
ATOM     27  C   UNL A   1      44.082  29.357  31.635  1.00  0.00     0.037 A 
ATOM     28  C   UNL A   1      38.619  32.828  30.777  1.00  0.00     0.049 A 
ATOM     29  C   UNL A   1      43.609  30.678  32.162  1.00  0.00     0.074 A 
ATOM     30  C   UNL A   1      38.289  34.043  31.353  1.00  0.00     0.029 A 
ATOM     31  N   UNL A   1      39.885  32.499  31.242  1.00  0.00    -0.354 N 
ATOM     32  N   UNL A   1      42.470  31.293  31.950  1.00  0.00    -0.248 NA
ATOM     33  C   UNL A   1      44.530  31.404  33.046  1.00  0.00     0.031 C 
ATOM     34  C   UNL A   1      39.372  34.469  32.132  1.00  0.00     0.029 A 
ATOM     35  C   UNL A   1      40.355  33.495  32.083  1.00  0.00     0.049 A 
ATOM     36  H   UNL A   1      40.377  31.678  31.009  1.00  0.00     0.167 HD
ATOM     37  C   UNL A   1      42.535  32.472  32.675  1.00  0.00     0.074 A 
ATOM     38  C   UNL A   1      43.808  32.467  33.367  1.00  0.00     0.031 C 
ATOM     39  C   UNL A   1      41.629  33.477  32.755  1.00  0.00     0.037 A 
BRANCH  26  40
ATOM     40  C   UNL A   1      36.490  32.535  29.455  1.00  0.00     0.057 A 
ATOM     41  C   UNL A   1      35.325  32.193  30.154  1.00  0.00     0.134 A 
ATOM     42  C   UNL A   1      36.362  33.436  28.391  1.00  0.00     0.134 A 
ATOM     43  F   UNL A   1      35.377  31.328  31.178  1.00  0.00    -0.206 F 
ATOM     44  C   UNL A   1      34.081  32.720  29.803  1.00  0.00     0.040 A 
ATOM     45  C   UNL A   1      35.127  33.989  28.045  1.00  0.00     0.040 A 
ATOM     46  F   UNL A   1      37.438  33.813  27.684  1.00  0.00    -0.206 F 
ATOM     47  C   UNL A   1      33.981  33.629  28.751  1.00  0.00     0.006 A 
ENDBRANCH  26  40
BRANCH  27  48
ATOM     48  C   UNL A   1      45.418  28.820  31.996  1.00  0.00     0.057 A 
ATOM     49  C   UNL A   1      45.605  28.037  33.140  1.00  0.00     0.134 A 
ATOM     50  C   UNL A   1      46.544  29.087  31.207  1.00  0.00     0.134 A 
ATOM     51  F   UNL A   1      44.570  27.758  33.945  1.00  0.00    -0.206 F 
ATOM     52  C   UNL A   1      46.868  27.561  33.501  1.00  0.00     0.040 A 
ATOM     53  C   UNL A   1      47.804  28.590  31.536  1.00  0.00     0.040 A 
ATOM     54  F   UNL A   1      46.430  29.822  30.091  1.00  0.00    -0.206 F 
ATOM     55  C   UNL A   1      47.971  27.834  32.694  1.00  0.00     0.006 A 
ENDBRANCH  27  48
BRANCH  39  56
ATOM     56  C   UNL A   1      41.988  34.637  33.636  1.00  0.00     0.057 A 
ATOM     57  C   UNL A   1      41.619  34.679  34.988  1.00  0.00     0.134 A 
ATOM     58  C   UNL A   1      42.704  35.727  33.127  1.00  0.00     0.134 A 
ATOM     59  F   UNL A   1      40.917  33.673  35.532  1.00  0.00    -0.206 F 
ATOM     60  C   UNL A   1      41.916  35.780  35.791  1.00  0.00     0.040 A 
ATOM     61  C   UNL A   1      43.033  36.821  33.928  1.00  0.00     0.040 A 
ATOM     62  F   UNL A   1      43.094  35.747  31.844  1.00  0.00    -0.206 F 
ATOM     63  C   UNL A   1      42.629  36.854  35.261  1.00  0.00     0.006 A 
ENDBRANCH  39  56
ENDBRANCH  13  14
ENDBRANCH   6   8
ENDBRANCH   3   4
ENDBRANCH   2   3
ENDBRANCH   1   2
BRANCH   1  64
ATOM     64  C   UNL A   1      34.526  22.488  24.135  1.00  0.00     0.002 C 
BRANCH  64  65
ATOM     65  C   UNL A   1      33.256  21.748  23.709  1.00  0.00     0.021 C 
BRANCH  65  66
ATOM     66  C   UNL A   1      32.050  22.644  23.485  1.00  0.00     0.116 C 
BRANCH  66  67
ATOM     67  N   UNL A   1      32.156  23.583  22.402  1.00  0.00    -0.354 N 
ATOM     68  C   UNL A   1      32.423  24.915  22.526  1.00  0.00     0.243 C 
ATOM     69  H   UNL A   1      32.024  23.235  21.491  1.00  0.00     0.163 HD
ATOM     70  O   UNL A   1      33.094  25.418  21.617  1.00  0.00    -0.273 OA
BRANCH  68  71
ATOM     71  C   UNL A   1      31.944  25.788  23.723  1.00  0.00     0.185 C 
BRANCH  71  72
ATOM     72  C   UNL A   1      32.683  25.610  25.085  1.00  0.00     0.071 C 
BRANCH  72  73
ATOM     73  C   UNL A   1      32.831  26.760  26.048  1.00  0.00    -0.045 A 
ATOM     74  C   UNL A   1      34.052  27.440  26.163  1.00  0.00     0.004 A 
ATOM     75  C   UNL A   1      31.770  27.158  26.869  1.00  0.00     0.004 A 
ATOM     76  C   UNL A   1      34.170  28.561  26.990  1.00  0.00     0.000 A 
ATOM     77  C   UNL A   1      31.876  28.298  27.668  1.00  0.00     0.000 A 
ATOM     78  C   UNL A   1      33.070  29.010  27.715  1.00  0.00     0.000 A 
ENDBRANCH  72  73
ENDBRANCH  71  72
BRANCH  71  79
ATOM     79  N   UNL A   1      31.252  27.090  23.480  1.00  0.00    -0.280 N 
ATOM     80  C   UNL A   1      29.851  27.108  23.463  1.00  0.00     0.266 C 
ATOM     81  C   UNL A   1      31.802  28.340  23.275  1.00  0.00     0.149 C 
ATOM     82  O   UNL A   1      29.091  26.160  23.533  1.00  0.00    -0.268 OA
ATOM     83  C   UNL A   1      29.377  28.514  23.302  1.00  0.00     0.081 C 
ATOM     84  S   UNL A   1      30.648  29.557  23.784  1.00  0.00    -0.054 SA
ATOM     85  S   UNL A   1      33.188  28.865  22.542  1.00  0.00    -0.052 S 
ATOM     86  C   UNL A   1      28.249  28.894  22.686  1.00  0.00     0.029 C 
BRANCH  86  87
ATOM     87  C   UNL A   1      28.040  30.303  22.323  1.00  0.00    -0.021 A 
ATOM     88  C   UNL A   1      28.064  30.679  20.974  1.00  0.00     0.028 A 
ATOM     89  C   UNL A   1      27.999  31.293  23.300  1.00  0.00     0.028 A 
ATOM     90  C   UNL A   1      28.072  32.028  20.665  1.00  0.00     0.111 A 
ATOM     91  C   UNL A   1      27.997  32.617  22.887  1.00  0.00     0.111 A 
ATOM     92  N   UNL A   1      28.035  33.006  21.594  1.00  0.00    -0.265 NA
ENDBRANCH  86  87
ENDBRANCH  71  79
ENDBRANCH  68  71
ENDBRANCH  66  67
ENDBRANCH  65  66
ENDBRANCH  64  65
ENDBRANCH   1  64
TORSDOF 17
ENDMDL
