MODEL 1
REMARK VINA RESULT:     -11.3      0.000      0.000
REMARK SMILES O=C(NCCCCCCNC(=O)[C@H]1CS[C@H](c2cc(F)ccc2F)[NH2+]1)c1ccc(-c2c3nc(c(-c4c(F)cccc4F)c4ccc([nH]4)c(-c4c(F)cccc4F)c4nc(c(-c5c(F)cccc5F)c5ccc2[nH]5)C=C4)C=C3)cc1
REMARK SMILES IDX 6 1 5 2 4 3 3 4 1 5 2 6 26 8 27 9 79 10 28 11 78 12 29 13
REMARK SMILES IDX 30 14 31 15 72 16 32 17 77 18 71 19 73 20 33 21 76 22 70 23
REMARK SMILES IDX 69 24 34 26 60 27 43 28 59 29 44 30 47 31 58 32 74 33 45 34
REMARK SMILES IDX 46 35 57 37 75 38 48 39 35 40 36 41 41 42 37 43 38 44 40 45
REMARK SMILES IDX 42 46 39 47 61 48 62 49 67 50 63 51 64 52 66 53 68 54 65 55
REMARK SMILES IDX 49 56 50 57 55 58 51 59 52 60 54 61 56 62 53 63 7 64 8 65
REMARK SMILES IDX 9 66 10 67 11 68 12 70 13 71 14 72 25 73 15 74 16 75 17 78
REMARK SMILES IDX 18 79 23 80 19 81 22 82 24 83 20 84 21 85
REMARK H PARENT 3 7 73 25 47 36 10 69 25 76 25 77
REMARK Flexibility Score: inf
ROOT
ATOM      1  C   UNL A   1      34.575  33.864  29.042  1.00  0.00     0.002 C 
ENDROOT
BRANCH   1   2
ATOM      2  C   UNL A   1      33.278  34.675  29.011  1.00  0.00     0.021 C 
BRANCH   2   3
ATOM      3  C   UNL A   1      33.383  36.093  29.550  1.00  0.00     0.116 C 
BRANCH   3   4
ATOM      4  N   UNL A   1      32.468  36.351  30.647  1.00  0.00    -0.352 N 
ATOM      5  O   UNL A   1      31.597  36.109  32.717  1.00  0.00    -0.269 OA
ATOM      6  C   UNL A   1      32.529  35.904  31.945  1.00  0.00     0.251 C 
ATOM      7  H   UNL A   1      31.698  36.926  30.432  1.00  0.00     0.163 HD
BRANCH   6   8
ATOM      8  C   UNL A   1      33.715  35.147  32.404  1.00  0.00     0.039 A 
ATOM      9  C   UNL A   1      34.984  35.728  32.381  1.00  0.00     0.014 A 
ATOM     10  C   UNL A   1      33.553  33.835  32.862  1.00  0.00     0.014 A 
ATOM     11  C   UNL A   1      36.101  34.959  32.682  1.00  0.00     0.010 A 
ATOM     12  C   UNL A   1      34.670  33.090  33.251  1.00  0.00     0.010 A 
ATOM     13  C   UNL A   1      35.956  33.637  33.139  1.00  0.00    -0.014 A 
BRANCH  13  14
ATOM     14  C   UNL A   1      37.168  32.889  33.559  1.00  0.00     0.031 A 
ATOM     15  C   UNL A   1      37.826  31.887  32.655  1.00  0.00     0.074 A 
ATOM     16  C   UNL A   1      37.701  33.166  34.766  1.00  0.00     0.049 A 
ATOM     17  N   UNL A   1      38.920  31.194  32.854  1.00  0.00    -0.248 NA
ATOM     18  C   UNL A   1      37.176  31.619  31.363  1.00  0.00     0.031 C 
ATOM     19  C   UNL A   1      37.134  34.102  35.739  1.00  0.00     0.029 A 
ATOM     20  N   UNL A   1      38.845  32.713  35.368  1.00  0.00    -0.354 N 
ATOM     21  C   UNL A   1      39.086  30.406  31.722  1.00  0.00     0.074 A 
ATOM     22  C   UNL A   1      37.963  30.682  30.850  1.00  0.00     0.031 C 
ATOM     23  C   UNL A   1      37.958  34.195  36.792  1.00  0.00     0.029 A 
ATOM     24  C   UNL A   1      39.080  33.286  36.593  1.00  0.00     0.049 A 
ATOM     25  H   UNL A   1      39.441  32.042  34.962  1.00  0.00     0.167 HD
ATOM     26  C   UNL A   1      40.087  29.540  31.435  1.00  0.00     0.037 A 
ATOM     27  C   UNL A   1      40.084  33.096  37.469  1.00  0.00     0.037 A 
ATOM     28  C   UNL A   1      41.204  29.270  32.305  1.00  0.00     0.049 A 
ATOM     29  C   UNL A   1      41.178  32.131  37.123  1.00  0.00     0.074 A 
ATOM     30  C   UNL A   1      42.271  28.411  32.101  1.00  0.00     0.029 A 
ATOM     31  N   UNL A   1      41.400  29.859  33.546  1.00  0.00    -0.354 N 
ATOM     32  N   UNL A   1      41.328  31.410  36.039  1.00  0.00    -0.248 NA
ATOM     33  C   UNL A   1      42.242  31.955  38.120  1.00  0.00     0.031 C 
ATOM     34  C   UNL A   1      43.096  28.458  33.231  1.00  0.00     0.029 A 
ATOM     35  C   UNL A   1      42.564  29.375  34.122  1.00  0.00     0.049 A 
ATOM     36  H   UNL A   1      40.800  30.522  33.957  1.00  0.00     0.167 HD
ATOM     37  C   UNL A   1      42.505  30.696  36.221  1.00  0.00     0.074 A 
ATOM     38  C   UNL A   1      43.044  31.099  37.504  1.00  0.00     0.031 C 
ATOM     39  C   UNL A   1      43.081  29.783  35.403  1.00  0.00     0.037 A 
BRANCH  26  40
ATOM     40  C   UNL A   1      40.024  28.813  30.123  1.00  0.00     0.057 A 
ATOM     41  C   UNL A   1      39.304  27.621  29.977  1.00  0.00     0.134 A 
ATOM     42  C   UNL A   1      40.641  29.339  28.981  1.00  0.00     0.134 A 
ATOM     43  F   UNL A   1      38.700  27.058  31.034  1.00  0.00    -0.206 F 
ATOM     44  C   UNL A   1      39.212  26.970  28.745  1.00  0.00     0.040 A 
ATOM     45  C   UNL A   1      40.538  28.709  27.738  1.00  0.00     0.040 A 
ATOM     46  F   UNL A   1      41.341  30.481  29.049  1.00  0.00    -0.206 F 
ATOM     47  C   UNL A   1      39.824  27.518  27.619  1.00  0.00     0.006 A 
ENDBRANCH  26  40
BRANCH  27  48
ATOM     48  C   UNL A   1      40.089  33.834  38.755  1.00  0.00     0.057 A 
ATOM     49  C   UNL A   1      39.349  33.385  39.854  1.00  0.00     0.134 A 
ATOM     50  C   UNL A   1      40.845  35.002  38.917  1.00  0.00     0.134 A 
ATOM     51  F   UNL A   1      38.595  32.281  39.755  1.00  0.00    -0.206 F 
ATOM     52  C   UNL A   1      39.348  34.080  41.065  1.00  0.00     0.040 A 
ATOM     53  C   UNL A   1      40.875  35.692  40.129  1.00  0.00     0.040 A 
ATOM     54  F   UNL A   1      41.582  35.477  37.902  1.00  0.00    -0.206 F 
ATOM     55  C   UNL A   1      40.118  35.233  41.205  1.00  0.00     0.006 A 
ENDBRANCH  27  48
BRANCH  39  56
ATOM     56  C   UNL A   1      44.366  29.172  35.876  1.00  0.00     0.057 A 
ATOM     57  C   UNL A   1      45.609  29.730  35.550  1.00  0.00     0.134 A 
ATOM     58  C   UNL A   1      44.359  28.019  36.669  1.00  0.00     0.134 A 
ATOM     59  F   UNL A   1      45.680  30.826  34.780  1.00  0.00    -0.206 F 
ATOM     60  C   UNL A   1      46.802  29.145  35.972  1.00  0.00     0.040 A 
ATOM     61  C   UNL A   1      45.546  27.437  37.117  1.00  0.00     0.040 A 
ATOM     62  F   UNL A   1      43.201  27.439  37.019  1.00  0.00    -0.206 F 
ATOM     63  C   UNL A   1      46.772  27.996  36.762  1.00  0.00     0.006 A 
ENDBRANCH  39  56
ENDBRANCH  13  14
ENDBRANCH   6   8
ENDBRANCH   3   4
ENDBRANCH   2   3
ENDBRANCH   1   2
BRANCH   1  64
ATOM     64  C   UNL A   1      34.415  32.345  29.156  1.00  0.00     0.002 C 
BRANCH  64  65
ATOM     65  C   UNL A   1      34.763  31.538  27.902  1.00  0.00     0.021 C 
BRANCH  65  66
ATOM     66  C   UNL A   1      33.588  30.830  27.238  1.00  0.00     0.116 C 
BRANCH  66  67
ATOM     67  N   UNL A   1      33.930  29.508  26.754  1.00  0.00    -0.351 N 
ATOM     68  C   UNL A   1      33.550  28.816  25.642  1.00  0.00     0.279 C 
ATOM     69  H   UNL A   1      34.554  29.018  27.336  1.00  0.00     0.163 HD
ATOM     70  O   UNL A   1      34.006  27.675  25.516  1.00  0.00    -0.268 OA
BRANCH  68  71
ATOM     71  C   UNL A   1      32.550  29.378  24.614  1.00  0.00     0.283 C 
ATOM     72  C   UNL A   1      32.845  28.835  23.220  1.00  0.00     0.151 C 
ATOM     73  N   UNL A   1      31.142  29.200  25.043  1.00  0.00    -0.320 N 
ATOM     74  S   UNL A   1      31.339  28.004  22.691  1.00  0.00    -0.087 SA
ATOM     75  C   UNL A   1      30.299  28.889  23.893  1.00  0.00     0.277 C 
ATOM     76  H   UNL A   1      30.813  30.060  25.481  1.00  0.00     0.348 HD
ATOM     77  H   UNL A   1      31.094  28.429  25.709  1.00  0.00     0.348 HD
BRANCH  75  78
ATOM     78  C   UNL A   1      29.575  30.062  23.260  1.00  0.00     0.059 A 
ATOM     79  C   UNL A   1      28.927  29.872  22.019  1.00  0.00     0.053 A 
ATOM     80  C   UNL A   1      29.452  31.327  23.854  1.00  0.00     0.133 A 
ATOM     81  C   UNL A   1      28.237  30.910  21.402  1.00  0.00     0.123 A 
ATOM     82  C   UNL A   1      28.751  32.365  23.233  1.00  0.00     0.043 A 
ATOM     83  F   UNL A   1      29.997  31.595  25.048  1.00  0.00    -0.206 F 
ATOM     84  F   UNL A   1      27.651  30.697  20.217  1.00  0.00    -0.207 F 
ATOM     85  C   UNL A   1      28.146  32.159  21.998  1.00  0.00     0.042 A 
ENDBRANCH  75  78
ENDBRANCH  68  71
ENDBRANCH  66  67
ENDBRANCH  65  66
ENDBRANCH  64  65
ENDBRANCH   1  64
TORSDOF 14
ENDMDL
MODEL 2
REMARK VINA RESULT:     -11.2      5.749     10.376
REMARK SMILES O=C(NCCCCCCNC(=O)[C@H]1CS[C@H](c2cc(F)ccc2F)[NH2+]1)c1ccc(-c2c3nc(c(-c4c(F)cccc4F)c4ccc([nH]4)c(-c4c(F)cccc4F)c4nc(c(-c5c(F)cccc5F)c5ccc2[nH]5)C=C4)C=C3)cc1
REMARK SMILES IDX 6 1 5 2 4 3 3 4 1 5 2 6 26 8 27 9 79 10 28 11 78 12 29 13
REMARK SMILES IDX 30 14 31 15 72 16 32 17 77 18 71 19 73 20 33 21 76 22 70 23
REMARK SMILES IDX 69 24 34 26 60 27 43 28 59 29 44 30 47 31 58 32 74 33 45 34
REMARK SMILES IDX 46 35 57 37 75 38 48 39 35 40 36 41 41 42 37 43 38 44 40 45
REMARK SMILES IDX 42 46 39 47 61 48 62 49 67 50 63 51 64 52 66 53 68 54 65 55
REMARK SMILES IDX 49 56 50 57 55 58 51 59 52 60 54 61 56 62 53 63 7 64 8 65
REMARK SMILES IDX 9 66 10 67 11 68 12 70 13 71 14 72 25 73 15 74 16 75 17 78
REMARK SMILES IDX 18 79 23 80 19 81 22 82 24 83 20 84 21 85
REMARK H PARENT 3 7 73 25 47 36 10 69 25 76 25 77
REMARK Flexibility Score: inf
ROOT
ATOM      1  C   UNL A   1      36.664  20.686  24.637  1.00  0.00     0.002 C 
ENDROOT
BRANCH   1   2
ATOM      2  C   UNL A   1      37.729  19.647  24.989  1.00  0.00     0.021 C 
BRANCH   2   3
ATOM      3  C   UNL A   1      38.923  20.177  25.769  1.00  0.00     0.116 C 
BRANCH   3   4
ATOM      4  N   UNL A   1      40.047  19.258  25.777  1.00  0.00    -0.352 N 
ATOM      5  O   UNL A   1      42.214  18.641  25.932  1.00  0.00    -0.269 OA
ATOM      6  C   UNL A   1      41.358  19.503  26.107  1.00  0.00     0.251 C 
ATOM      7  H   UNL A   1      39.843  18.334  25.508  1.00  0.00     0.163 HD
BRANCH   6   8
ATOM      8  C   UNL A   1      41.742  20.824  26.653  1.00  0.00     0.039 A 
ATOM      9  C   UNL A   1      41.685  21.072  28.025  1.00  0.00     0.014 A 
ATOM     10  C   UNL A   1      42.164  21.829  25.775  1.00  0.00     0.014 A 
ATOM     11  C   UNL A   1      41.914  22.356  28.504  1.00  0.00     0.010 A 
ATOM     12  C   UNL A   1      42.481  23.097  26.270  1.00  0.00     0.010 A 
ATOM     13  C   UNL A   1      42.333  23.379  27.636  1.00  0.00    -0.014 A 
BRANCH  13  14
ATOM     14  C   UNL A   1      42.677  24.705  28.206  1.00  0.00     0.031 A 
ATOM     15  C   UNL A   1      44.096  25.079  28.529  1.00  0.00     0.074 A 
ATOM     16  C   UNL A   1      41.684  25.599  28.385  1.00  0.00     0.049 A 
ATOM     17  N   UNL A   1      44.565  26.216  28.979  1.00  0.00    -0.248 NA
ATOM     18  C   UNL A   1      45.124  24.045  28.331  1.00  0.00     0.031 C 
ATOM     19  C   UNL A   1      40.265  25.339  28.129  1.00  0.00     0.029 A 
ATOM     20  N   UNL A   1      41.714  26.906  28.794  1.00  0.00    -0.354 N 
ATOM     21  C   UNL A   1      45.934  26.036  29.123  1.00  0.00     0.074 A 
ATOM     22  C   UNL A   1      46.220  24.669  28.743  1.00  0.00     0.031 C 
ATOM     23  C   UNL A   1      39.568  26.465  28.335  1.00  0.00     0.029 A 
ATOM     24  C   UNL A   1      40.480  27.508  28.789  1.00  0.00     0.049 A 
ATOM     25  H   UNL A   1      42.540  27.369  29.065  1.00  0.00     0.167 HD
ATOM     26  C   UNL A   1      46.866  26.933  29.528  1.00  0.00     0.037 A 
ATOM     27  C   UNL A   1      40.117  28.760  29.123  1.00  0.00     0.037 A 
ATOM     28  C   UNL A   1      46.577  28.294  29.903  1.00  0.00     0.049 A 
ATOM     29  C   UNL A   1      41.171  29.730  29.565  1.00  0.00     0.074 A 
ATOM     30  C   UNL A   1      47.454  29.279  30.324  1.00  0.00     0.029 A 
ATOM     31  N   UNL A   1      45.311  28.863  29.901  1.00  0.00    -0.354 N 
ATOM     32  N   UNL A   1      42.464  29.547  29.677  1.00  0.00    -0.248 NA
ATOM     33  C   UNL A   1      40.717  31.078  29.928  1.00  0.00     0.031 C 
ATOM     34  C   UNL A   1      46.716  30.435  30.604  1.00  0.00     0.029 A 
ATOM     35  C   UNL A   1      45.384  30.181  30.320  1.00  0.00     0.049 A 
ATOM     36  H   UNL A   1      44.484  28.398  29.639  1.00  0.00     0.167 HD
ATOM     37  C   UNL A   1      42.979  30.757  30.119  1.00  0.00     0.074 A 
ATOM     38  C   UNL A   1      41.863  31.675  30.221  1.00  0.00     0.031 C 
ATOM     39  C   UNL A   1      44.261  31.077  30.421  1.00  0.00     0.037 A 
BRANCH  26  40
ATOM     40  C   UNL A   1      48.293  26.472  29.589  1.00  0.00     0.057 A 
ATOM     41  C   UNL A   1      49.181  26.682  28.527  1.00  0.00     0.134 A 
ATOM     42  C   UNL A   1      48.802  25.862  30.744  1.00  0.00     0.134 A 
ATOM     43  F   UNL A   1      48.755  27.250  27.388  1.00  0.00    -0.206 F 
ATOM     44  C   UNL A   1      50.519  26.291  28.604  1.00  0.00     0.040 A 
ATOM     45  C   UNL A   1      50.143  25.486  30.842  1.00  0.00     0.040 A 
ATOM     46  F   UNL A   1      48.007  25.637  31.801  1.00  0.00    -0.206 F 
ATOM     47  C   UNL A   1      51.005  25.698  29.768  1.00  0.00     0.006 A 
ENDBRANCH  26  40
BRANCH  27  48
ATOM     48  C   UNL A   1      38.690  29.156  29.052  1.00  0.00     0.057 A 
ATOM     49  C   UNL A   1      38.121  29.618  27.860  1.00  0.00     0.134 A 
ATOM     50  C   UNL A   1      37.857  29.070  30.176  1.00  0.00     0.134 A 
ATOM     51  F   UNL A   1      38.871  29.735  26.755  1.00  0.00    -0.206 F 
ATOM     52  C   UNL A   1      36.779  29.996  27.791  1.00  0.00     0.040 A 
ATOM     53  C   UNL A   1      36.508  29.419  30.114  1.00  0.00     0.040 A 
ATOM     54  F   UNL A   1      38.342  28.626  31.345  1.00  0.00    -0.206 F 
ATOM     55  C   UNL A   1      35.968  29.890  28.920  1.00  0.00     0.006 A 
ENDBRANCH  27  48
BRANCH  39  56
ATOM     56  C   UNL A   1      44.512  32.482  30.880  1.00  0.00     0.057 A 
ATOM     57  C   UNL A   1      44.750  33.521  29.969  1.00  0.00     0.134 A 
ATOM     58  C   UNL A   1      44.514  32.800  32.242  1.00  0.00     0.134 A 
ATOM     59  F   UNL A   1      44.778  33.275  28.651  1.00  0.00    -0.206 F 
ATOM     60  C   UNL A   1      45.008  34.821  30.401  1.00  0.00     0.040 A 
ATOM     61  C   UNL A   1      44.748  34.103  32.686  1.00  0.00     0.040 A 
ATOM     62  F   UNL A   1      44.287  31.852  33.164  1.00  0.00    -0.206 F 
ATOM     63  C   UNL A   1      45.003  35.116  31.764  1.00  0.00     0.006 A 
ENDBRANCH  39  56
ENDBRANCH  13  14
ENDBRANCH   6   8
ENDBRANCH   3   4
ENDBRANCH   2   3
ENDBRANCH   1   2
BRANCH   1  64
ATOM     64  C   UNL A   1      35.218  20.308  24.974  1.00  0.00     0.002 C 
BRANCH  64  65
ATOM     65  C   UNL A   1      34.211  21.461  25.001  1.00  0.00     0.021 C 
BRANCH  65  66
ATOM     66  C   UNL A   1      33.674  21.824  26.380  1.00  0.00     0.116 C 
BRANCH  66  67
ATOM     67  N   UNL A   1      32.227  21.778  26.449  1.00  0.00    -0.351 N 
ATOM     68  C   UNL A   1      31.272  22.722  26.214  1.00  0.00     0.279 C 
ATOM     69  H   UNL A   1      31.867  20.901  26.713  1.00  0.00     0.163 HD
ATOM     70  O   UNL A   1      30.098  22.376  26.382  1.00  0.00    -0.268 OA
BRANCH  68  71
ATOM     71  C   UNL A   1      31.613  24.173  25.826  1.00  0.00     0.283 C 
ATOM     72  C   UNL A   1      31.448  24.385  24.326  1.00  0.00     0.151 C 
ATOM     73  N   UNL A   1      30.886  25.163  26.657  1.00  0.00    -0.320 N 
ATOM     74  S   UNL A   1      30.245  25.711  24.149  1.00  0.00    -0.087 SA
ATOM     75  C   UNL A   1      30.498  26.313  25.847  1.00  0.00     0.277 C 
ATOM     76  H   UNL A   1      31.492  25.473  27.417  1.00  0.00     0.348 HD
ATOM     77  H   UNL A   1      30.047  24.725  27.037  1.00  0.00     0.348 HD
BRANCH  75  78
ATOM     78  C   UNL A   1      31.433  27.506  25.892  1.00  0.00     0.059 A 
ATOM     79  C   UNL A   1      32.089  27.900  24.704  1.00  0.00     0.053 A 
ATOM     80  C   UNL A   1      31.654  28.294  27.030  1.00  0.00     0.133 A 
ATOM     81  C   UNL A   1      32.946  28.996  24.685  1.00  0.00     0.123 A 
ATOM     82  C   UNL A   1      32.510  29.399  27.005  1.00  0.00     0.043 A 
ATOM     83  F   UNL A   1      31.047  28.026  28.194  1.00  0.00    -0.206 F 
ATOM     84  F   UNL A   1      33.565  29.328  23.545  1.00  0.00    -0.207 F 
ATOM     85  C   UNL A   1      33.166  29.749  25.829  1.00  0.00     0.042 A 
ENDBRANCH  75  78
ENDBRANCH  68  71
ENDBRANCH  66  67
ENDBRANCH  65  66
ENDBRANCH  64  65
ENDBRANCH   1  64
TORSDOF 14
ENDMDL
MODEL 3
REMARK VINA RESULT:     -11.2      0.435      6.187
REMARK SMILES O=C(NCCCCCCNC(=O)[C@H]1CS[C@H](c2cc(F)ccc2F)[NH2+]1)c1ccc(-c2c3nc(c(-c4c(F)cccc4F)c4ccc([nH]4)c(-c4c(F)cccc4F)c4nc(c(-c5c(F)cccc5F)c5ccc2[nH]5)C=C4)C=C3)cc1
REMARK SMILES IDX 6 1 5 2 4 3 3 4 1 5 2 6 26 8 27 9 79 10 28 11 78 12 29 13
REMARK SMILES IDX 30 14 31 15 72 16 32 17 77 18 71 19 73 20 33 21 76 22 70 23
REMARK SMILES IDX 69 24 34 26 60 27 43 28 59 29 44 30 47 31 58 32 74 33 45 34
REMARK SMILES IDX 46 35 57 37 75 38 48 39 35 40 36 41 41 42 37 43 38 44 40 45
REMARK SMILES IDX 42 46 39 47 61 48 62 49 67 50 63 51 64 52 66 53 68 54 65 55
REMARK SMILES IDX 49 56 50 57 55 58 51 59 52 60 54 61 56 62 53 63 7 64 8 65
REMARK SMILES IDX 9 66 10 67 11 68 12 70 13 71 14 72 25 73 15 74 16 75 17 78
REMARK SMILES IDX 18 79 23 80 19 81 22 82 24 83 20 84 21 85
REMARK H PARENT 3 7 73 25 47 36 10 69 25 76 25 77
REMARK Flexibility Score: inf
ROOT
ATOM      1  C   UNL A   1      34.590  33.827  29.035  1.00  0.00     0.002 C 
ENDROOT
BRANCH   1   2
ATOM      2  C   UNL A   1      33.286  34.622  28.954  1.00  0.00     0.021 C 
BRANCH   2   3
ATOM      3  C   UNL A   1      33.328  36.007  29.581  1.00  0.00     0.116 C 
BRANCH   3   4
ATOM      4  N   UNL A   1      32.429  36.144  30.713  1.00  0.00    -0.352 N 
ATOM      5  O   UNL A   1      31.642  35.741  32.791  1.00  0.00    -0.269 OA
ATOM      6  C   UNL A   1      32.563  35.644  31.986  1.00  0.00     0.251 C 
ATOM      7  H   UNL A   1      31.611  36.666  30.546  1.00  0.00     0.163 HD
BRANCH   6   8
ATOM      8  C   UNL A   1      33.816  34.960  32.377  1.00  0.00     0.039 A 
ATOM      9  C   UNL A   1      35.039  35.632  32.327  1.00  0.00     0.014 A 
ATOM     10  C   UNL A   1      33.765  33.628  32.798  1.00  0.00     0.014 A 
ATOM     11  C   UNL A   1      36.219  34.937  32.562  1.00  0.00     0.010 A 
ATOM     12  C   UNL A   1      34.947  32.954  33.121  1.00  0.00     0.010 A 
ATOM     13  C   UNL A   1      36.186  33.596  32.981  1.00  0.00    -0.014 A 
BRANCH  13  14
ATOM     14  C   UNL A   1      37.462  32.924  33.332  1.00  0.00     0.031 A 
ATOM     15  C   UNL A   1      38.164  33.200  34.631  1.00  0.00     0.074 A 
ATOM     16  C   UNL A   1      37.960  32.013  32.473  1.00  0.00     0.049 A 
ATOM     17  N   UNL A   1      39.255  32.653  35.108  1.00  0.00    -0.248 NA
ATOM     18  C   UNL A   1      37.575  34.223  35.509  1.00  0.00     0.031 C 
ATOM     19  C   UNL A   1      37.378  31.681  31.170  1.00  0.00     0.029 A 
ATOM     20  N   UNL A   1      39.046  31.183  32.572  1.00  0.00    -0.354 N 
ATOM     21  C   UNL A   1      39.487  33.266  36.332  1.00  0.00     0.074 A 
ATOM     22  C   UNL A   1      38.441  34.250  36.514  1.00  0.00     0.031 C 
ATOM     23  C   UNL A   1      38.079  30.682  30.617  1.00  0.00     0.029 A 
ATOM     24  C   UNL A   1      39.190  30.342  31.497  1.00  0.00     0.049 A 
ATOM     25  H   UNL A   1      39.662  31.189  33.340  1.00  0.00     0.167 HD
ATOM     26  C   UNL A   1      40.478  33.023  37.224  1.00  0.00     0.037 A 
ATOM     27  C   UNL A   1      40.120  29.404  31.239  1.00  0.00     0.037 A 
ATOM     28  C   UNL A   1      41.516  32.041  37.040  1.00  0.00     0.049 A 
ATOM     29  C   UNL A   1      41.203  29.158  32.246  1.00  0.00     0.074 A 
ATOM     30  C   UNL A   1      42.562  31.719  37.889  1.00  0.00     0.029 A 
ATOM     31  N   UNL A   1      41.638  31.219  35.929  1.00  0.00    -0.354 N 
ATOM     32  N   UNL A   1      41.395  29.734  33.407  1.00  0.00    -0.248 NA
ATOM     33  C   UNL A   1      42.197  28.131  31.908  1.00  0.00     0.031 C 
ATOM     34  C   UNL A   1      43.333  30.723  37.279  1.00  0.00     0.029 A 
ATOM     35  C   UNL A   1      42.745  30.397  36.067  1.00  0.00     0.049 A 
ATOM     36  H   UNL A   1      41.028  31.219  35.157  1.00  0.00     0.167 HD
ATOM     37  C   UNL A   1      42.529  29.138  33.941  1.00  0.00     0.074 A 
ATOM     38  C   UNL A   1      42.960  28.133  32.991  1.00  0.00     0.031 C 
ATOM     39  C   UNL A   1      43.162  29.407  35.109  1.00  0.00     0.037 A 
BRANCH  26  40
ATOM     40  C   UNL A   1      40.491  33.836  38.487  1.00  0.00     0.057 A 
ATOM     41  C   UNL A   1      39.731  33.471  39.605  1.00  0.00     0.134 A 
ATOM     42  C   UNL A   1      41.316  34.963  38.606  1.00  0.00     0.134 A 
ATOM     43  F   UNL A   1      38.912  32.410  39.552  1.00  0.00    -0.206 F 
ATOM     44  C   UNL A   1      39.779  34.205  40.792  1.00  0.00     0.040 A 
ATOM     45  C   UNL A   1      41.389  35.692  39.795  1.00  0.00     0.040 A 
ATOM     46  F   UNL A   1      42.075  35.363  37.575  1.00  0.00    -0.206 F 
ATOM     47  C   UNL A   1      40.616  35.315  40.891  1.00  0.00     0.006 A 
ENDBRANCH  26  40
BRANCH  27  48
ATOM     48  C   UNL A   1      40.062  28.639  29.970  1.00  0.00     0.057 A 
ATOM     49  C   UNL A   1      39.318  27.459  29.865  1.00  0.00     0.134 A 
ATOM     50  C   UNL A   1      40.743  29.079  28.827  1.00  0.00     0.134 A 
ATOM     51  F   UNL A   1      38.657  26.982  30.929  1.00  0.00    -0.206 F 
ATOM     52  C   UNL A   1      39.264  26.734  28.673  1.00  0.00     0.040 A 
ATOM     53  C   UNL A   1      40.676  28.379  27.622  1.00  0.00     0.040 A 
ATOM     54  F   UNL A   1      41.466  30.208  28.862  1.00  0.00    -0.206 F 
ATOM     55  C   UNL A   1      39.940  27.198  27.547  1.00  0.00     0.006 A 
ENDBRANCH  27  48
BRANCH  39  56
ATOM     56  C   UNL A   1      44.379  28.587  35.417  1.00  0.00     0.057 A 
ATOM     57  C   UNL A   1      45.658  28.992  35.013  1.00  0.00     0.134 A 
ATOM     58  C   UNL A   1      44.271  27.387  36.127  1.00  0.00     0.134 A 
ATOM     59  F   UNL A   1      45.823  30.124  34.314  1.00  0.00    -0.206 F 
ATOM     60  C   UNL A   1      46.785  28.214  35.280  1.00  0.00     0.040 A 
ATOM     61  C   UNL A   1      45.394  26.612  36.421  1.00  0.00     0.040 A 
ATOM     62  F   UNL A   1      43.075  26.948  36.547  1.00  0.00    -0.206 F 
ATOM     63  C   UNL A   1      46.654  27.021  35.990  1.00  0.00     0.006 A 
ENDBRANCH  39  56
ENDBRANCH  13  14
ENDBRANCH   6   8
ENDBRANCH   3   4
ENDBRANCH   2   3
ENDBRANCH   1   2
BRANCH   1  64
ATOM     64  C   UNL A   1      34.449  32.302  29.039  1.00  0.00     0.002 C 
BRANCH  64  65
ATOM     65  C   UNL A   1      34.625  31.607  27.687  1.00  0.00     0.021 C 
BRANCH  65  66
ATOM     66  C   UNL A   1      33.445  30.756  27.234  1.00  0.00     0.116 C 
BRANCH  66  67
ATOM     67  N   UNL A   1      33.851  29.474  26.694  1.00  0.00    -0.351 N 
ATOM     68  C   UNL A   1      33.519  28.821  25.544  1.00  0.00     0.279 C 
ATOM     69  H   UNL A   1      34.487  28.984  27.263  1.00  0.00     0.163 HD
ATOM     70  O   UNL A   1      34.025  27.708  25.373  1.00  0.00    -0.268 OA
BRANCH  68  71
ATOM     71  C   UNL A   1      32.512  29.389  24.526  1.00  0.00     0.283 C 
ATOM     72  C   UNL A   1      32.766  28.816  23.136  1.00  0.00     0.151 C 
ATOM     73  N   UNL A   1      31.109  29.251  24.986  1.00  0.00    -0.320 N 
ATOM     74  S   UNL A   1      31.232  28.011  22.651  1.00  0.00    -0.087 SA
ATOM     75  C   UNL A   1      30.236  28.940  23.858  1.00  0.00     0.277 C 
ATOM     76  H   UNL A   1      30.808  30.125  25.415  1.00  0.00     0.348 HD
ATOM     77  H   UNL A   1      31.056  28.492  25.666  1.00  0.00     0.348 HD
BRANCH  75  78
ATOM     78  C   UNL A   1      29.527  30.119  23.219  1.00  0.00     0.059 A 
ATOM     79  C   UNL A   1      28.891  29.935  21.971  1.00  0.00     0.053 A 
ATOM     80  C   UNL A   1      29.406  31.384  23.814  1.00  0.00     0.133 A 
ATOM     81  C   UNL A   1      28.214  30.979  21.348  1.00  0.00     0.123 A 
ATOM     82  C   UNL A   1      28.719  32.427  23.187  1.00  0.00     0.043 A 
ATOM     83  F   UNL A   1      29.940  31.646  25.014  1.00  0.00    -0.206 F 
ATOM     84  F   UNL A   1      27.640  30.772  20.157  1.00  0.00    -0.207 F 
ATOM     85  C   UNL A   1      28.125  32.228  21.945  1.00  0.00     0.042 A 
ENDBRANCH  75  78
ENDBRANCH  68  71
ENDBRANCH  66  67
ENDBRANCH  65  66
ENDBRANCH  64  65
ENDBRANCH   1  64
TORSDOF 14
ENDMDL
