MODEL 1
REMARK VINA RESULT:     -12.1      0.000      0.000
REMARK SMILES Cc1ccc(Nc2c(F)cccc2I)c(CC(=O)NCCCCCCNC(=O)c2ccc(-c3c4nc(c(-c5c(F)cccc5F)c5ccc([nH]5)c(-c5c(F)cccc5F)c5nc(c(-c6c(F)cccc6F)c6ccc3[nH]6)C=C5)C=C4)cc2)c1
REMARK SMILES IDX 22 1 21 2 20 3 19 4 17 5 18 6 16 8 15 9 1 10 2 11 3 12 83 13
REMARK SMILES IDX 4 14 5 15 6 16 7 18 8 19 13 20 9 21 10 22 12 23 14 24 11 25
REMARK SMILES IDX 23 26 24 27 25 28 26 29 27 30 28 32 29 33 30 34 82 35 31 36
REMARK SMILES IDX 81 37 32 38 33 39 34 40 75 41 35 42 80 43 74 44 76 45 36 46
REMARK SMILES IDX 79 47 73 48 72 49 37 51 63 52 46 53 62 54 47 55 50 56 61 57
REMARK SMILES IDX 77 58 48 59 49 60 60 62 78 63 51 64 38 65 39 66 44 67 40 68
REMARK SMILES IDX 41 69 43 70 45 71 42 72 64 73 65 74 70 75 66 76 67 77 69 78
REMARK SMILES IDX 71 79 68 80 52 81 53 82 58 83 54 84 55 85 57 86 59 87 56 88
REMARK H PARENT 19 7 6 17 26 31 76 50 50 61
REMARK Flexibility Score: inf
ROOT
ATOM      1  C   UNL A   1      32.047  29.501  26.950  1.00  0.00     0.002 C 
ENDROOT
BRANCH   1   2
ATOM      2  C   UNL A   1      31.397  28.179  26.511  1.00  0.00     0.021 C 
BRANCH   2   3
ATOM      3  C   UNL A   1      32.285  26.938  26.646  1.00  0.00     0.116 C 
BRANCH   3   4
ATOM      4  N   UNL A   1      31.537  25.776  27.075  1.00  0.00    -0.356 N 
ATOM      5  C   UNL A   1      31.785  24.461  26.826  1.00  0.00     0.224 C 
ATOM      6  O   UNL A   1      30.956  23.627  27.199  1.00  0.00    -0.275 OA
ATOM      7  H   UNL A   1      30.739  25.963  27.619  1.00  0.00     0.163 HD
BRANCH   5   8
ATOM      8  C   UNL A   1      33.042  24.026  26.100  1.00  0.00     0.137 C 
BRANCH   8   9
ATOM      9  C   UNL A   1      32.794  23.265  24.815  1.00  0.00    -0.015 A 
ATOM     10  C   UNL A   1      32.539  19.566  23.858  1.00  0.00     0.044 C 
ATOM     11  C   UNL A   1      32.548  21.062  23.765  1.00  0.00    -0.051 A 
ATOM     12  C   UNL A   1      32.393  21.691  22.532  1.00  0.00     0.005 A 
ATOM     13  C   UNL A   1      32.713  21.856  24.901  1.00  0.00     0.009 A 
ATOM     14  C   UNL A   1      32.428  23.086  22.440  1.00  0.00     0.026 A 
ATOM     15  C   UNL A   1      32.646  23.900  23.563  1.00  0.00     0.042 A 
BRANCH  15  16
ATOM     16  N   UNL A   1      32.689  25.305  23.444  1.00  0.00    -0.352 N 
ATOM     17  H   UNL A   1      33.594  25.690  23.400  1.00  0.00     0.167 HD
BRANCH  16  18
ATOM     18  C   UNL A   1      31.638  26.248  23.378  1.00  0.00     0.088 A 
ATOM     19  C   UNL A   1      30.303  25.884  23.618  1.00  0.00     0.147 A 
ATOM     20  C   UNL A   1      31.885  27.585  23.012  1.00  0.00     0.040 A 
ATOM     21  F   UNL A   1      29.997  24.630  23.987  1.00  0.00    -0.205 F 
ATOM     22  C   UNL A   1      29.258  26.804  23.517  1.00  0.00     0.041 A 
ATOM     23  C   UNL A   1      30.839  28.513  22.903  1.00  0.00     0.017 A 
ATOM     24  I   UNL A   1      33.817  28.270  22.540  1.00  0.00    -0.042 I 
ATOM     25  C   UNL A   1      29.526  28.121  23.157  1.00  0.00     0.004 A 
ENDBRANCH  16  18
ENDBRANCH  15  16
ENDBRANCH   8   9
ENDBRANCH   5   8
ENDBRANCH   3   4
ENDBRANCH   2   3
ENDBRANCH   1   2
BRANCH   1  26
ATOM     26  C   UNL A   1      33.510  29.719  26.536  1.00  0.00     0.002 C 
BRANCH  26  27
ATOM     27  C   UNL A   1      34.482  30.064  27.666  1.00  0.00     0.021 C 
BRANCH  27  28
ATOM     28  C   UNL A   1      34.995  31.496  27.642  1.00  0.00     0.116 C 
BRANCH  28  29
ATOM     29  N   UNL A   1      35.544  31.944  28.914  1.00  0.00    -0.352 N 
ATOM     30  C   UNL A   1      36.461  31.340  29.760  1.00  0.00     0.251 C 
ATOM     31  H   UNL A   1      35.208  32.815  29.224  1.00  0.00     0.163 HD
ATOM     32  O   UNL A   1      36.729  31.865  30.827  1.00  0.00    -0.269 OA
BRANCH  30  33
ATOM     33  C   UNL A   1      37.239  30.157  29.300  1.00  0.00     0.039 A 
ATOM     34  C   UNL A   1      37.255  29.041  30.147  1.00  0.00     0.014 A 
ATOM     35  C   UNL A   1      38.111  30.215  28.219  1.00  0.00     0.014 A 
ATOM     36  C   UNL A   1      38.327  28.156  30.093  1.00  0.00     0.010 A 
ATOM     37  C   UNL A   1      39.224  29.400  28.222  1.00  0.00     0.010 A 
ATOM     38  C   UNL A   1      39.373  28.436  29.222  1.00  0.00    -0.014 A 
BRANCH  38  39
ATOM     39  C   UNL A   1      40.726  27.924  29.402  1.00  0.00     0.031 A 
ATOM     40  C   UNL A   1      41.112  26.602  28.880  1.00  0.00     0.074 A 
ATOM     41  C   UNL A   1      41.661  28.761  29.910  1.00  0.00     0.049 A 
ATOM     42  N   UNL A   1      42.241  26.035  29.134  1.00  0.00    -0.248 NA
ATOM     43  C   UNL A   1      40.221  25.768  28.077  1.00  0.00     0.031 C 
ATOM     44  C   UNL A   1      43.114  28.633  29.841  1.00  0.00     0.029 A 
ATOM     45  N   UNL A   1      41.451  29.811  30.818  1.00  0.00    -0.354 N 
ATOM     46  C   UNL A   1      42.352  24.942  28.313  1.00  0.00     0.074 A 
ATOM     47  C   UNL A   1      41.026  24.740  27.787  1.00  0.00     0.031 C 
ATOM     48  C   UNL A   1      43.657  29.327  30.853  1.00  0.00     0.029 A 
ATOM     49  C   UNL A   1      42.562  29.781  31.694  1.00  0.00     0.049 A 
ATOM     50  H   UNL A   1      40.692  30.438  30.840  1.00  0.00     0.167 HD
ATOM     51  C   UNL A   1      43.590  24.426  28.085  1.00  0.00     0.037 A 
ATOM     52  C   UNL A   1      42.397  29.445  33.007  1.00  0.00     0.037 A 
ATOM     53  C   UNL A   1      44.546  24.900  29.089  1.00  0.00     0.049 A 
ATOM     54  C   UNL A   1      43.111  28.177  33.436  1.00  0.00     0.074 A 
ATOM     55  C   UNL A   1      45.601  25.796  29.109  1.00  0.00     0.029 A 
ATOM     56  N   UNL A   1      44.293  24.582  30.413  1.00  0.00    -0.354 N 
ATOM     57  N   UNL A   1      43.796  27.407  32.637  1.00  0.00    -0.248 NA
ATOM     58  C   UNL A   1      43.026  27.632  34.793  1.00  0.00     0.031 C 
ATOM     59  C   UNL A   1      45.904  26.081  30.479  1.00  0.00     0.029 A 
ATOM     60  C   UNL A   1      45.061  25.331  31.280  1.00  0.00     0.049 A 
ATOM     61  H   UNL A   1      43.641  23.902  30.702  1.00  0.00     0.167 HD
ATOM     62  C   UNL A   1      44.164  26.272  33.307  1.00  0.00     0.074 A 
ATOM     63  C   UNL A   1      43.676  26.464  34.660  1.00  0.00     0.031 C 
ATOM     64  C   UNL A   1      44.800  25.226  32.706  1.00  0.00     0.037 A 
BRANCH  51  65
ATOM     65  C   UNL A   1      43.980  23.587  26.888  1.00  0.00     0.057 A 
ATOM     66  C   UNL A   1      44.720  24.161  25.834  1.00  0.00     0.134 A 
ATOM     67  C   UNL A   1      43.559  22.264  26.639  1.00  0.00     0.134 A 
ATOM     68  F   UNL A   1      45.177  25.420  25.906  1.00  0.00    -0.206 F 
ATOM     69  C   UNL A   1      45.006  23.481  24.641  1.00  0.00     0.040 A 
ATOM     70  C   UNL A   1      43.882  21.557  25.473  1.00  0.00     0.040 A 
ATOM     71  F   UNL A   1      42.756  21.593  27.471  1.00  0.00    -0.206 F 
ATOM     72  C   UNL A   1      44.598  22.169  24.460  1.00  0.00     0.006 A 
ENDBRANCH  51  65
BRANCH  52  73
ATOM     73  C   UNL A   1      41.102  29.923  33.562  1.00  0.00     0.057 A 
ATOM     74  C   UNL A   1      40.996  31.267  33.963  1.00  0.00     0.134 A 
ATOM     75  C   UNL A   1      39.910  29.223  33.360  1.00  0.00     0.134 A 
ATOM     76  F   UNL A   1      42.104  31.996  34.177  1.00  0.00    -0.206 F 
ATOM     77  C   UNL A   1      39.765  31.920  34.041  1.00  0.00     0.040 A 
ATOM     78  C   UNL A   1      38.667  29.862  33.455  1.00  0.00     0.040 A 
ATOM     79  F   UNL A   1      39.927  27.946  32.953  1.00  0.00    -0.206 F 
ATOM     80  C   UNL A   1      38.595  31.222  33.753  1.00  0.00     0.006 A 
ENDBRANCH  52  73
BRANCH  64  81
ATOM     81  C   UNL A   1      45.200  23.996  33.460  1.00  0.00     0.057 A 
ATOM     82  C   UNL A   1      44.299  22.952  33.702  1.00  0.00     0.134 A 
ATOM     83  C   UNL A   1      46.464  23.878  34.064  1.00  0.00     0.134 A 
ATOM     84  F   UNL A   1      43.059  22.982  33.189  1.00  0.00    -0.206 F 
ATOM     85  C   UNL A   1      44.637  21.848  34.491  1.00  0.00     0.040 A 
ATOM     86  C   UNL A   1      46.800  22.803  34.890  1.00  0.00     0.040 A 
ATOM     87  F   UNL A   1      47.425  24.792  33.858  1.00  0.00    -0.206 F 
ATOM     88  C   UNL A   1      45.886  21.780  35.102  1.00  0.00     0.006 A 
ENDBRANCH  64  81
ENDBRANCH  38  39
ENDBRANCH  30  33
ENDBRANCH  28  29
ENDBRANCH  27  28
ENDBRANCH  26  27
ENDBRANCH   1  26
TORSDOF 16
ENDMDL
MODEL 2
REMARK VINA RESULT:     -12.0      1.505      3.117
REMARK SMILES Cc1ccc(Nc2c(F)cccc2I)c(CC(=O)NCCCCCCNC(=O)c2ccc(-c3c4nc(c(-c5c(F)cccc5F)c5ccc([nH]5)c(-c5c(F)cccc5F)c5nc(c(-c6c(F)cccc6F)c6ccc3[nH]6)C=C5)C=C4)cc2)c1
REMARK SMILES IDX 22 1 21 2 20 3 19 4 17 5 18 6 16 8 15 9 1 10 2 11 3 12 83 13
REMARK SMILES IDX 4 14 5 15 6 16 7 18 8 19 13 20 9 21 10 22 12 23 14 24 11 25
REMARK SMILES IDX 23 26 24 27 25 28 26 29 27 30 28 32 29 33 30 34 82 35 31 36
REMARK SMILES IDX 81 37 32 38 33 39 34 40 75 41 35 42 80 43 74 44 76 45 36 46
REMARK SMILES IDX 79 47 73 48 72 49 37 51 63 52 46 53 62 54 47 55 50 56 61 57
REMARK SMILES IDX 77 58 48 59 49 60 60 62 78 63 51 64 38 65 39 66 44 67 40 68
REMARK SMILES IDX 41 69 43 70 45 71 42 72 64 73 65 74 70 75 66 76 67 77 69 78
REMARK SMILES IDX 71 79 68 80 52 81 53 82 58 83 54 84 55 85 57 86 59 87 56 88
REMARK H PARENT 19 7 6 17 26 31 76 50 50 61
REMARK Flexibility Score: inf
ROOT
ATOM      1  C   UNL A   1      33.658  28.601  25.816  1.00  0.00     0.002 C 
ENDROOT
BRANCH   1   2
ATOM      2  C   UNL A   1      33.131  28.017  24.496  1.00  0.00     0.021 C 
BRANCH   2   3
ATOM      3  C   UNL A   1      34.066  27.021  23.803  1.00  0.00     0.116 C 
BRANCH   3   4
ATOM      4  N   UNL A   1      33.688  26.785  22.427  1.00  0.00    -0.356 N 
ATOM      5  C   UNL A   1      33.123  25.676  21.875  1.00  0.00     0.224 C 
ATOM      6  O   UNL A   1      32.976  25.640  20.650  1.00  0.00    -0.275 OA
ATOM      7  H   UNL A   1      33.864  27.526  21.805  1.00  0.00     0.163 HD
BRANCH   5   8
ATOM      8  C   UNL A   1      32.692  24.506  22.736  1.00  0.00     0.137 C 
BRANCH   8   9
ATOM      9  C   UNL A   1      31.687  24.855  23.813  1.00  0.00    -0.015 A 
ATOM     10  C   UNL A   1      28.406  26.827  23.924  1.00  0.00     0.044 C 
ATOM     11  C   UNL A   1      29.583  25.999  24.344  1.00  0.00    -0.051 A 
ATOM     12  C   UNL A   1      29.747  25.636  25.678  1.00  0.00     0.005 A 
ATOM     13  C   UNL A   1      30.537  25.576  23.417  1.00  0.00     0.009 A 
ATOM     14  C   UNL A   1      30.858  24.885  26.076  1.00  0.00     0.026 A 
ATOM     15  C   UNL A   1      31.856  24.497  25.168  1.00  0.00     0.042 A 
BRANCH  15  16
ATOM     16  N   UNL A   1      32.974  23.750  25.593  1.00  0.00    -0.352 N 
ATOM     17  H   UNL A   1      33.603  24.238  26.173  1.00  0.00     0.167 HD
BRANCH  16  18
ATOM     18  C   UNL A   1      33.336  22.411  25.321  1.00  0.00     0.088 A 
ATOM     19  C   UNL A   1      32.384  21.379  25.302  1.00  0.00     0.147 A 
ATOM     20  C   UNL A   1      34.681  22.050  25.110  1.00  0.00     0.040 A 
ATOM     21  F   UNL A   1      31.082  21.652  25.478  1.00  0.00    -0.205 F 
ATOM     22  C   UNL A   1      32.742  20.050  25.070  1.00  0.00     0.041 A 
ATOM     23  C   UNL A   1      35.048  20.716  24.881  1.00  0.00     0.017 A 
ATOM     24  I   UNL A   1      36.236  23.465  25.187  1.00  0.00    -0.042 I 
ATOM     25  C   UNL A   1      34.076  19.717  24.860  1.00  0.00     0.004 A 
ENDBRANCH  16  18
ENDBRANCH  15  16
ENDBRANCH   8   9
ENDBRANCH   5   8
ENDBRANCH   3   4
ENDBRANCH   2   3
ENDBRANCH   1   2
BRANCH   1  26
ATOM     26  C   UNL A   1      32.604  29.090  26.821  1.00  0.00     0.002 C 
BRANCH  26  27
ATOM     27  C   UNL A   1      32.881  30.444  27.478  1.00  0.00     0.021 C 
BRANCH  27  28
ATOM     28  C   UNL A   1      34.275  30.998  27.218  1.00  0.00     0.116 C 
BRANCH  28  29
ATOM     29  N   UNL A   1      34.842  31.711  28.354  1.00  0.00    -0.352 N 
ATOM     30  C   UNL A   1      35.784  31.310  29.288  1.00  0.00     0.251 C 
ATOM     31  H   UNL A   1      34.502  32.626  28.478  1.00  0.00     0.163 HD
ATOM     32  O   UNL A   1      36.066  32.053  30.212  1.00  0.00    -0.269 OA
BRANCH  30  33
ATOM     33  C   UNL A   1      36.568  30.063  29.074  1.00  0.00     0.039 A 
ATOM     34  C   UNL A   1      36.797  29.257  30.198  1.00  0.00     0.014 A 
ATOM     35  C   UNL A   1      37.257  29.811  27.893  1.00  0.00     0.014 A 
ATOM     36  C   UNL A   1      37.912  28.425  30.228  1.00  0.00     0.010 A 
ATOM     37  C   UNL A   1      38.415  29.063  27.948  1.00  0.00     0.010 A 
ATOM     38  C   UNL A   1      38.788  28.453  29.150  1.00  0.00    -0.014 A 
BRANCH  38  39
ATOM     39  C   UNL A   1      40.186  28.053  29.241  1.00  0.00     0.031 A 
ATOM     40  C   UNL A   1      40.636  26.743  28.740  1.00  0.00     0.074 A 
ATOM     41  C   UNL A   1      41.088  28.980  29.643  1.00  0.00     0.049 A 
ATOM     42  N   UNL A   1      41.822  26.275  28.926  1.00  0.00    -0.248 NA
ATOM     43  C   UNL A   1      39.754  25.810  28.042  1.00  0.00     0.031 C 
ATOM     44  C   UNL A   1      42.537  28.960  29.464  1.00  0.00     0.029 A 
ATOM     45  N   UNL A   1      40.865  30.050  30.524  1.00  0.00    -0.354 N 
ATOM     46  C   UNL A   1      41.956  25.159  28.141  1.00  0.00     0.074 A 
ATOM     47  C   UNL A   1      40.614  24.834  27.729  1.00  0.00     0.031 C 
ATOM     48  C   UNL A   1      43.098  29.736  30.404  1.00  0.00     0.029 A 
ATOM     49  C   UNL A   1      42.038  30.142  31.310  1.00  0.00     0.049 A 
ATOM     50  H   UNL A   1      40.062  30.618  30.582  1.00  0.00     0.167 HD
ATOM     51  C   UNL A   1      43.210  24.729  27.835  1.00  0.00     0.037 A 
ATOM     52  C   UNL A   1      41.999  29.852  32.644  1.00  0.00     0.037 A 
ATOM     53  C   UNL A   1      44.199  25.318  28.743  1.00  0.00     0.049 A 
ATOM     54  C   UNL A   1      42.841  28.662  33.063  1.00  0.00     0.074 A 
ATOM     55  C   UNL A   1      45.178  26.291  28.646  1.00  0.00     0.029 A 
ATOM     56  N   UNL A   1      44.072  25.039  30.094  1.00  0.00    -0.354 N 
ATOM     57  N   UNL A   1      43.523  27.912  32.242  1.00  0.00    -0.248 NA
ATOM     58  C   UNL A   1      42.902  28.171  34.442  1.00  0.00     0.031 C 
ATOM     59  C   UNL A   1      45.560  26.657  29.976  1.00  0.00     0.029 A 
ATOM     60  C   UNL A   1      44.842  25.881  30.869  1.00  0.00     0.049 A 
ATOM     61  H   UNL A   1      43.500  24.325  30.458  1.00  0.00     0.167 HD
ATOM     62  C   UNL A   1      44.029  26.839  32.924  1.00  0.00     0.074 A 
ATOM     63  C   UNL A   1      43.631  27.051  34.302  1.00  0.00     0.031 C 
ATOM     64  C   UNL A   1      44.699  25.819  32.314  1.00  0.00     0.037 A 
BRANCH  51  65
ATOM     65  C   UNL A   1      43.574  23.871  26.643  1.00  0.00     0.057 A 
ATOM     66  C   UNL A   1      43.392  22.473  26.697  1.00  0.00     0.134 A 
ATOM     67  C   UNL A   1      44.220  24.321  25.473  1.00  0.00     0.134 A 
ATOM     68  F   UNL A   1      42.812  21.884  27.752  1.00  0.00    -0.206 F 
ATOM     69  C   UNL A   1      43.824  21.607  25.681  1.00  0.00     0.040 A 
ATOM     70  C   UNL A   1      44.609  23.471  24.430  1.00  0.00     0.040 A 
ATOM     71  F   UNL A   1      44.577  25.596  25.290  1.00  0.00    -0.206 F 
ATOM     72  C   UNL A   1      44.425  22.104  24.535  1.00  0.00     0.006 A 
ENDBRANCH  51  65
BRANCH  52  73
ATOM     73  C   UNL A   1      40.716  30.254  33.281  1.00  0.00     0.057 A 
ATOM     74  C   UNL A   1      40.500  31.616  33.561  1.00  0.00     0.134 A 
ATOM     75  C   UNL A   1      39.594  29.422  33.270  1.00  0.00     0.134 A 
ATOM     76  F   UNL A   1      41.536  32.470  33.590  1.00  0.00    -0.206 F 
ATOM     77  C   UNL A   1      39.218  32.146  33.702  1.00  0.00     0.040 A 
ATOM     78  C   UNL A   1      38.303  29.939  33.430  1.00  0.00     0.040 A 
ATOM     79  F   UNL A   1      39.714  28.116  32.987  1.00  0.00    -0.206 F 
ATOM     80  C   UNL A   1      38.110  31.309  33.604  1.00  0.00     0.006 A 
ENDBRANCH  52  73
BRANCH  64  81
ATOM     81  C   UNL A   1      45.250  24.657  33.079  1.00  0.00     0.057 A 
ATOM     82  C   UNL A   1      44.498  23.498  33.307  1.00  0.00     0.134 A 
ATOM     83  C   UNL A   1      46.506  24.716  33.709  1.00  0.00     0.134 A 
ATOM     84  F   UNL A   1      43.277  23.355  32.770  1.00  0.00    -0.206 F 
ATOM     85  C   UNL A   1      44.971  22.452  34.107  1.00  0.00     0.040 A 
ATOM     86  C   UNL A   1      46.971  23.697  34.544  1.00  0.00     0.040 A 
ATOM     87  F   UNL A   1      47.335  25.754  33.519  1.00  0.00    -0.206 F 
ATOM     88  C   UNL A   1      46.204  22.558  34.742  1.00  0.00     0.006 A 
ENDBRANCH  64  81
ENDBRANCH  38  39
ENDBRANCH  30  33
ENDBRANCH  28  29
ENDBRANCH  27  28
ENDBRANCH  26  27
ENDBRANCH   1  26
TORSDOF 16
ENDMDL
MODEL 3
REMARK VINA RESULT:     -12.0      1.856      3.329
REMARK SMILES Cc1ccc(Nc2c(F)cccc2I)c(CC(=O)NCCCCCCNC(=O)c2ccc(-c3c4nc(c(-c5c(F)cccc5F)c5ccc([nH]5)c(-c5c(F)cccc5F)c5nc(c(-c6c(F)cccc6F)c6ccc3[nH]6)C=C5)C=C4)cc2)c1
REMARK SMILES IDX 22 1 21 2 20 3 19 4 17 5 18 6 16 8 15 9 1 10 2 11 3 12 83 13
REMARK SMILES IDX 4 14 5 15 6 16 7 18 8 19 13 20 9 21 10 22 12 23 14 24 11 25
REMARK SMILES IDX 23 26 24 27 25 28 26 29 27 30 28 32 29 33 30 34 82 35 31 36
REMARK SMILES IDX 81 37 32 38 33 39 34 40 75 41 35 42 80 43 74 44 76 45 36 46
REMARK SMILES IDX 79 47 73 48 72 49 37 51 63 52 46 53 62 54 47 55 50 56 61 57
REMARK SMILES IDX 77 58 48 59 49 60 60 62 78 63 51 64 38 65 39 66 44 67 40 68
REMARK SMILES IDX 41 69 43 70 45 71 42 72 64 73 65 74 70 75 66 76 67 77 69 78
REMARK SMILES IDX 71 79 68 80 52 81 53 82 58 83 54 84 55 85 57 86 59 87 56 88
REMARK H PARENT 19 7 6 17 26 31 76 50 50 61
REMARK Flexibility Score: inf
ROOT
ATOM      1  C   UNL A   1      33.215  28.711  25.417  1.00  0.00     0.002 C 
ENDROOT
BRANCH   1   2
ATOM      2  C   UNL A   1      31.764  28.341  25.762  1.00  0.00     0.021 C 
BRANCH   2   3
ATOM      3  C   UNL A   1      31.580  27.563  27.068  1.00  0.00     0.116 C 
BRANCH   3   4
ATOM      4  N   UNL A   1      30.889  26.309  26.864  1.00  0.00    -0.356 N 
ATOM      5  C   UNL A   1      31.354  25.160  26.299  1.00  0.00     0.224 C 
ATOM      6  O   UNL A   1      30.561  24.231  26.124  1.00  0.00    -0.275 OA
ATOM      7  H   UNL A   1      29.956  26.283  27.175  1.00  0.00     0.163 HD
BRANCH   5   8
ATOM      8  C   UNL A   1      32.805  25.024  25.884  1.00  0.00     0.137 C 
BRANCH   8   9
ATOM      9  C   UNL A   1      33.009  24.592  24.447  1.00  0.00    -0.015 A 
ATOM     10  C   UNL A   1      32.027  26.001  21.025  1.00  0.00     0.044 C 
ATOM     11  C   UNL A   1      32.610  25.115  22.084  1.00  0.00    -0.051 A 
ATOM     12  C   UNL A   1      33.248  23.928  21.735  1.00  0.00     0.005 A 
ATOM     13  C   UNL A   1      32.525  25.453  23.436  1.00  0.00     0.009 A 
ATOM     14  C   UNL A   1      33.769  23.087  22.725  1.00  0.00     0.026 A 
ATOM     15  C   UNL A   1      33.647  23.384  24.092  1.00  0.00     0.042 A 
BRANCH  15  16
ATOM     16  N   UNL A   1      34.170  22.515  25.072  1.00  0.00    -0.352 N 
ATOM     17  H   UNL A   1      33.650  22.472  25.907  1.00  0.00     0.167 HD
BRANCH  16  18
ATOM     18  C   UNL A   1      35.322  21.697  25.046  1.00  0.00     0.088 A 
ATOM     19  C   UNL A   1      36.616  22.240  25.093  1.00  0.00     0.147 A 
ATOM     20  C   UNL A   1      35.216  20.298  24.917  1.00  0.00     0.040 A 
ATOM     21  F   UNL A   1      36.792  23.564  25.233  1.00  0.00    -0.205 F 
ATOM     22  C   UNL A   1      37.756  21.438  25.030  1.00  0.00     0.041 A 
ATOM     23  C   UNL A   1      36.358  19.487  24.847  1.00  0.00     0.017 A 
ATOM     24  I   UNL A   1      33.353  19.335  24.752  1.00  0.00    -0.042 I 
ATOM     25  C   UNL A   1      37.627  20.059  24.905  1.00  0.00     0.004 A 
ENDBRANCH  16  18
ENDBRANCH  15  16
ENDBRANCH   8   9
ENDBRANCH   5   8
ENDBRANCH   3   4
ENDBRANCH   2   3
ENDBRANCH   1   2
BRANCH   1  26
ATOM     26  C   UNL A   1      34.180  28.881  26.600  1.00  0.00     0.002 C 
BRANCH  26  27
ATOM     27  C   UNL A   1      33.796  29.945  27.630  1.00  0.00     0.021 C 
BRANCH  27  28
ATOM     28  C   UNL A   1      34.408  31.316  27.380  1.00  0.00     0.116 C 
BRANCH  28  29
ATOM     29  N   UNL A   1      34.996  31.921  28.566  1.00  0.00    -0.352 N 
ATOM     30  C   UNL A   1      35.956  31.437  29.440  1.00  0.00     0.251 C 
ATOM     31  H   UNL A   1      34.657  32.819  28.783  1.00  0.00     0.163 HD
ATOM     32  O   UNL A   1      36.255  32.089  30.425  1.00  0.00    -0.269 OA
BRANCH  30  33
ATOM     33  C   UNL A   1      36.738  30.218  29.094  1.00  0.00     0.039 A 
ATOM     34  C   UNL A   1      36.853  29.235  30.088  1.00  0.00     0.014 A 
ATOM     35  C   UNL A   1      37.527  30.139  27.953  1.00  0.00     0.014 A 
ATOM     36  C   UNL A   1      37.947  28.376  30.078  1.00  0.00     0.010 A 
ATOM     37  C   UNL A   1      38.664  29.359  27.986  1.00  0.00     0.010 A 
ATOM     38  C   UNL A   1      38.917  28.551  29.099  1.00  0.00    -0.014 A 
BRANCH  38  39
ATOM     39  C   UNL A   1      40.295  28.102  29.245  1.00  0.00     0.031 A 
ATOM     40  C   UNL A   1      40.717  26.777  28.757  1.00  0.00     0.074 A 
ATOM     41  C   UNL A   1      41.213  28.994  29.685  1.00  0.00     0.049 A 
ATOM     42  N   UNL A   1      41.877  26.266  28.989  1.00  0.00    -0.248 NA
ATOM     43  C   UNL A   1      39.832  25.878  28.021  1.00  0.00     0.031 C 
ATOM     44  C   UNL A   1      42.667  28.922  29.565  1.00  0.00     0.029 A 
ATOM     45  N   UNL A   1      40.993  30.070  30.561  1.00  0.00    -0.354 N 
ATOM     46  C   UNL A   1      42.003  25.148  28.206  1.00  0.00     0.074 A 
ATOM     47  C   UNL A   1      40.667  24.872  27.739  1.00  0.00     0.031 C 
ATOM     48  C   UNL A   1      43.217  29.675  30.530  1.00  0.00     0.029 A 
ATOM     49  C   UNL A   1      42.136  30.117  31.394  1.00  0.00     0.049 A 
ATOM     50  H   UNL A   1      40.210  30.666  30.589  1.00  0.00     0.167 HD
ATOM     51  C   UNL A   1      43.252  24.673  27.949  1.00  0.00     0.037 A 
ATOM     52  C   UNL A   1      42.034  29.826  32.724  1.00  0.00     0.037 A 
ATOM     53  C   UNL A   1      44.223  25.223  28.898  1.00  0.00     0.049 A 
ATOM     54  C   UNL A   1      42.815  28.605  33.173  1.00  0.00     0.074 A 
ATOM     55  C   UNL A   1      45.240  26.161  28.844  1.00  0.00     0.029 A 
ATOM     56  N   UNL A   1      44.033  24.947  30.242  1.00  0.00    -0.354 N 
ATOM     57  N   UNL A   1      43.502  27.832  32.377  1.00  0.00    -0.248 NA
ATOM     58  C   UNL A   1      42.803  28.110  34.551  1.00  0.00     0.031 C 
ATOM     59  C   UNL A   1      45.582  26.510  30.190  1.00  0.00     0.029 A 
ATOM     60  C   UNL A   1      44.801  25.758  31.049  1.00  0.00     0.049 A 
ATOM     61  H   UNL A   1      43.421  24.253  30.580  1.00  0.00     0.167 HD
ATOM     62  C   UNL A   1      43.941  26.741  33.074  1.00  0.00     0.074 A 
ATOM     63  C   UNL A   1      43.495  26.964  34.436  1.00  0.00     0.031 C 
ATOM     64  C   UNL A   1      44.597  25.698  32.488  1.00  0.00     0.037 A 
BRANCH  51  65
ATOM     65  C   UNL A   1      43.632  23.805  26.770  1.00  0.00     0.057 A 
ATOM     66  C   UNL A   1      43.374  22.419  26.800  1.00  0.00     0.134 A 
ATOM     67  C   UNL A   1      44.362  24.228  25.639  1.00  0.00     0.134 A 
ATOM     68  F   UNL A   1      42.707  21.854  27.817  1.00  0.00    -0.206 F 
ATOM     69  C   UNL A   1      43.812  21.538  25.800  1.00  0.00     0.040 A 
ATOM     70  C   UNL A   1      44.760  23.366  24.610  1.00  0.00     0.040 A 
ATOM     71  F   UNL A   1      44.795  25.484  25.488  1.00  0.00    -0.206 F 
ATOM     72  C   UNL A   1      44.498  22.010  24.692  1.00  0.00     0.006 A 
ENDBRANCH  51  65
BRANCH  52  73
ATOM     73  C   UNL A   1      40.742  30.273  33.311  1.00  0.00     0.057 A 
ATOM     74  C   UNL A   1      40.577  31.636  33.618  1.00  0.00     0.134 A 
ATOM     75  C   UNL A   1      39.584  29.496  33.223  1.00  0.00     0.134 A 
ATOM     76  F   UNL A   1      41.649  32.439  33.720  1.00  0.00    -0.206 F 
ATOM     77  C   UNL A   1      39.315  32.224  33.713  1.00  0.00     0.040 A 
ATOM     78  C   UNL A   1      38.312  30.071  33.336  1.00  0.00     0.040 A 
ATOM     79  F   UNL A   1      39.656  28.194  32.910  1.00  0.00    -0.206 F 
ATOM     80  C   UNL A   1      38.175  31.443  33.539  1.00  0.00     0.006 A 
ENDBRANCH  52  73
BRANCH  64  81
ATOM     81  C   UNL A   1      45.075  24.515  33.270  1.00  0.00     0.057 A 
ATOM     82  C   UNL A   1      46.340  24.489  33.871  1.00  0.00     0.134 A 
ATOM     83  C   UNL A   1      44.329  23.326  33.342  1.00  0.00     0.134 A 
ATOM     84  F   UNL A   1      47.139  25.566  33.836  1.00  0.00    -0.206 F 
ATOM     85  C   UNL A   1      46.831  23.349  34.516  1.00  0.00     0.040 A 
ATOM     86  C   UNL A   1      44.825  22.168  33.945  1.00  0.00     0.040 A 
ATOM     87  F   UNL A   1      43.083  23.252  32.848  1.00  0.00    -0.206 F 
ATOM     88  C   UNL A   1      46.079  22.178  34.539  1.00  0.00     0.006 A 
ENDBRANCH  64  81
ENDBRANCH  38  39
ENDBRANCH  30  33
ENDBRANCH  28  29
ENDBRANCH  27  28
ENDBRANCH  26  27
ENDBRANCH   1  26
TORSDOF 16
ENDMDL
