MODEL 1
REMARK VINA RESULT:     -11.7      0.000      0.000
REMARK SMILES C[C@H]1[C@H](C(=O)NCCCCCCNC(=O)c2ccc(-c3c4nc(c(-c5c(F)cccc5F)c5ccc([nH]5)c(-c5c(F)cccc5F)c5nc(c(-c6c(F)cccc6F)c6ccc3[nH]6)C=C5)C=C4)cc2)CC[N@@H+]1CC(=O)N1CCCC1
REMARK SMILES IDX 9 1 8 2 7 3 6 4 4 5 5 6 3 8 1 9 2 10 72 11 70 12 71 13 73 15
REMARK SMILES IDX 74 16 75 17 76 18 77 19 80 20 78 21 79 22 10 23 11 24 12 25
REMARK SMILES IDX 13 26 14 27 15 29 16 30 17 31 69 32 18 33 68 34 19 35 20 36
REMARK SMILES IDX 21 37 62 38 22 39 67 40 61 41 63 42 23 43 66 44 60 45 59 46
REMARK SMILES IDX 24 48 50 49 33 50 49 51 34 52 37 53 48 54 64 55 35 56 36 57
REMARK SMILES IDX 47 59 65 60 38 61 25 62 26 63 31 64 27 65 28 66 30 67 32 68
REMARK SMILES IDX 29 69 51 70 52 71 57 72 53 73 54 74 56 75 58 76 55 77 39 78
REMARK SMILES IDX 40 79 45 80 41 81 42 82 44 83 46 84 43 85
REMARK H PARENT 6 7 72 14 13 28 63 47 37 58
REMARK Flexibility Score: inf
ROOT
ATOM      1  C   UNL A   1      32.242  29.539  27.187  1.00  0.00     0.002 C 
ENDROOT
BRANCH   1   2
ATOM      2  C   UNL A   1      31.661  28.138  27.417  1.00  0.00     0.021 C 
BRANCH   2   3
ATOM      3  C   UNL A   1      31.686  27.024  26.341  1.00  0.00     0.116 C 
BRANCH   3   4
ATOM      4  N   UNL A   1      31.308  25.669  26.756  1.00  0.00    -0.356 N 
ATOM      5  C   UNL A   1      31.854  24.420  26.730  1.00  0.00     0.229 C 
ATOM      6  O   UNL A   1      31.205  23.586  27.389  1.00  0.00    -0.275 OA
ATOM      7  H   UNL A   1      30.414  25.659  27.166  1.00  0.00     0.163 HD
BRANCH   5   8
ATOM      8  C   UNL A   1      33.074  23.873  25.948  1.00  0.00     0.142 C 
ATOM      9  C   UNL A   1      33.184  21.800  24.323  1.00  0.00     0.076 C 
ATOM     10  C   UNL A   1      32.688  23.221  24.615  1.00  0.00     0.194 C 
ATOM     11  N   UNL A   1      33.268  24.037  23.556  1.00  0.00    -0.324 N 
ATOM     12  C   UNL A   1      34.218  24.805  25.627  1.00  0.00     0.081 C 
ATOM     13  C   UNL A   1      34.157  25.043  24.122  1.00  0.00     0.263 C 
ATOM     14  H   UNL A   1      33.874  23.447  22.987  1.00  0.00     0.348 HD
BRANCH  11  15
ATOM     15  C   UNL A   1      32.327  24.453  22.501  1.00  0.00     0.364 C 
BRANCH  15  16
ATOM     16  C   UNL A   1      32.573  25.883  22.007  1.00  0.00     0.277 C 
ATOM     17  O   UNL A   1      33.445  26.039  21.153  1.00  0.00    -0.268 OA
ATOM     18  N   UNL A   1      31.834  26.918  22.574  1.00  0.00    -0.338 N 
ATOM     19  C   UNL A   1      30.448  26.831  22.986  1.00  0.00     0.119 C 
ATOM     20  C   UNL A   1      32.306  28.262  22.862  1.00  0.00     0.119 C 
ATOM     21  C   UNL A   1      29.946  28.281  23.017  1.00  0.00     0.023 C 
ATOM     22  C   UNL A   1      31.124  29.151  22.597  1.00  0.00     0.023 C 
ENDBRANCH  15  16
ENDBRANCH  11  15
ENDBRANCH   5   8
ENDBRANCH   3   4
ENDBRANCH   2   3
ENDBRANCH   1   2
BRANCH   1  23
ATOM     23  C   UNL A   1      31.485  30.407  26.182  1.00  0.00     0.002 C 
BRANCH  23  24
ATOM     24  C   UNL A   1      31.458  31.913  26.483  1.00  0.00     0.021 C 
BRANCH  24  25
ATOM     25  C   UNL A   1      32.658  32.444  27.267  1.00  0.00     0.116 C 
BRANCH  25  26
ATOM     26  N   UNL A   1      32.475  33.842  27.635  1.00  0.00    -0.352 N 
ATOM     27  C   UNL A   1      33.141  34.549  28.604  1.00  0.00     0.251 C 
ATOM     28  H   UNL A   1      31.792  34.338  27.128  1.00  0.00     0.163 HD
ATOM     29  O   UNL A   1      32.703  35.615  29.038  1.00  0.00    -0.269 OA
BRANCH  27  30
ATOM     30  C   UNL A   1      34.409  34.003  29.116  1.00  0.00     0.039 A 
ATOM     31  C   UNL A   1      34.419  33.226  30.273  1.00  0.00     0.014 A 
ATOM     32  C   UNL A   1      35.584  34.231  28.391  1.00  0.00     0.014 A 
ATOM     33  C   UNL A   1      35.612  32.629  30.680  1.00  0.00     0.010 A 
ATOM     34  C   UNL A   1      36.750  33.573  28.755  1.00  0.00     0.010 A 
ATOM     35  C   UNL A   1      36.779  32.776  29.909  1.00  0.00    -0.014 A 
BRANCH  35  36
ATOM     36  C   UNL A   1      38.051  32.128  30.310  1.00  0.00     0.031 A 
ATOM     37  C   UNL A   1      38.950  32.804  31.308  1.00  0.00     0.074 A 
ATOM     38  C   UNL A   1      38.417  30.964  29.740  1.00  0.00     0.049 A 
ATOM     39  N   UNL A   1      40.117  32.426  31.761  1.00  0.00    -0.248 NA
ATOM     40  C   UNL A   1      38.489  34.096  31.843  1.00  0.00     0.031 C 
ATOM     41  C   UNL A   1      37.652  30.243  28.721  1.00  0.00     0.029 A 
ATOM     42  N   UNL A   1      39.530  30.185  29.933  1.00  0.00    -0.354 N 
ATOM     43  C   UNL A   1      40.530  33.434  32.623  1.00  0.00     0.074 A 
ATOM     44  C   UNL A   1      39.526  34.472  32.575  1.00  0.00     0.031 C 
ATOM     45  C   UNL A   1      38.302  29.111  28.403  1.00  0.00     0.029 A 
ATOM     46  C   UNL A   1      39.544  29.045  29.165  1.00  0.00     0.049 A 
ATOM     47  H   UNL A   1      40.250  30.420  30.562  1.00  0.00     0.167 HD
ATOM     48  C   UNL A   1      41.632  33.476  33.407  1.00  0.00     0.037 A 
ATOM     49  C   UNL A   1      40.460  28.062  29.087  1.00  0.00     0.037 A 
ATOM     50  C   UNL A   1      42.618  32.430  33.460  1.00  0.00     0.049 A 
ATOM     51  C   UNL A   1      41.685  28.138  29.957  1.00  0.00     0.074 A 
ATOM     52  C   UNL A   1      43.743  32.343  34.259  1.00  0.00     0.029 A 
ATOM     53  N   UNL A   1      42.595  31.287  32.672  1.00  0.00    -0.354 N 
ATOM     54  N   UNL A   1      42.026  29.058  30.828  1.00  0.00    -0.248 NA
ATOM     55  C   UNL A   1      42.651  27.037  29.839  1.00  0.00     0.031 C 
ATOM     56  C   UNL A   1      44.431  31.176  33.915  1.00  0.00     0.029 A 
ATOM     57  C   UNL A   1      43.704  30.504  32.946  1.00  0.00     0.049 A 
ATOM     58  H   UNL A   1      41.895  31.067  32.015  1.00  0.00     0.167 HD
ATOM     59  C   UNL A   1      43.228  28.636  31.380  1.00  0.00     0.074 A 
ATOM     60  C   UNL A   1      43.547  27.367  30.759  1.00  0.00     0.031 C 
ATOM     61  C   UNL A   1      44.000  29.241  32.317  1.00  0.00     0.037 A 
BRANCH  48  62
ATOM     62  C   UNL A   1      41.822  34.693  34.268  1.00  0.00     0.057 A 
ATOM     63  C   UNL A   1      42.461  35.847  33.790  1.00  0.00     0.134 A 
ATOM     64  C   UNL A   1      41.347  34.720  35.585  1.00  0.00     0.134 A 
ATOM     65  F   UNL A   1      42.952  35.885  32.543  1.00  0.00    -0.206 F 
ATOM     66  C   UNL A   1      42.652  36.966  34.602  1.00  0.00     0.040 A 
ATOM     67  C   UNL A   1      41.503  35.846  36.395  1.00  0.00     0.040 A 
ATOM     68  F   UNL A   1      40.721  33.655  36.106  1.00  0.00    -0.206 F 
ATOM     69  C   UNL A   1      42.164  36.971  35.906  1.00  0.00     0.006 A 
ENDBRANCH  48  62
BRANCH  49  70
ATOM     70  C   UNL A   1      40.244  26.909  28.174  1.00  0.00     0.057 A 
ATOM     71  C   UNL A   1      40.818  26.881  26.897  1.00  0.00     0.134 A 
ATOM     72  C   UNL A   1      39.457  25.814  28.548  1.00  0.00     0.134 A 
ATOM     73  F   UNL A   1      41.570  27.908  26.472  1.00  0.00    -0.206 F 
ATOM     74  C   UNL A   1      40.600  25.819  26.018  1.00  0.00     0.040 A 
ATOM     75  C   UNL A   1      39.253  24.732  27.690  1.00  0.00     0.040 A 
ATOM     76  F   UNL A   1      38.885  25.773  29.760  1.00  0.00    -0.206 F 
ATOM     77  C   UNL A   1      39.818  24.736  26.417  1.00  0.00     0.006 A 
ENDBRANCH  49  70
BRANCH  61  78
ATOM     78  C   UNL A   1      45.246  28.524  32.747  1.00  0.00     0.057 A 
ATOM     79  C   UNL A   1      46.487  28.766  32.145  1.00  0.00     0.134 A 
ATOM     80  C   UNL A   1      45.209  27.608  33.807  1.00  0.00     0.134 A 
ATOM     81  F   UNL A   1      46.589  29.621  31.117  1.00  0.00    -0.206 F 
ATOM     82  C   UNL A   1      47.643  28.106  32.566  1.00  0.00     0.040 A 
ATOM     83  C   UNL A   1      46.363  26.967  34.258  1.00  0.00     0.040 A 
ATOM     84  F   UNL A   1      44.055  27.338  34.435  1.00  0.00    -0.206 F 
ATOM     85  C   UNL A   1      47.583  27.209  33.631  1.00  0.00     0.006 A 
ENDBRANCH  61  78
ENDBRANCH  35  36
ENDBRANCH  27  30
ENDBRANCH  25  26
ENDBRANCH  24  25
ENDBRANCH  23  24
ENDBRANCH   1  23
TORSDOF 15
ENDMDL
MODEL 2
REMARK VINA RESULT:     -11.7      0.964      1.917
REMARK SMILES C[C@H]1[C@H](C(=O)NCCCCCCNC(=O)c2ccc(-c3c4nc(c(-c5c(F)cccc5F)c5ccc([nH]5)c(-c5c(F)cccc5F)c5nc(c(-c6c(F)cccc6F)c6ccc3[nH]6)C=C5)C=C4)cc2)CC[N@@H+]1CC(=O)N1CCCC1
REMARK SMILES IDX 9 1 8 2 7 3 6 4 4 5 5 6 3 8 1 9 2 10 72 11 70 12 71 13 73 15
REMARK SMILES IDX 74 16 75 17 76 18 77 19 80 20 78 21 79 22 10 23 11 24 12 25
REMARK SMILES IDX 13 26 14 27 15 29 16 30 17 31 69 32 18 33 68 34 19 35 20 36
REMARK SMILES IDX 21 37 62 38 22 39 67 40 61 41 63 42 23 43 66 44 60 45 59 46
REMARK SMILES IDX 24 48 50 49 33 50 49 51 34 52 37 53 48 54 64 55 35 56 36 57
REMARK SMILES IDX 47 59 65 60 38 61 25 62 26 63 31 64 27 65 28 66 30 67 32 68
REMARK SMILES IDX 29 69 51 70 52 71 57 72 53 73 54 74 56 75 58 76 55 77 39 78
REMARK SMILES IDX 40 79 45 80 41 81 42 82 44 83 46 84 43 85
REMARK H PARENT 6 7 72 14 13 28 63 47 37 58
REMARK Flexibility Score: inf
ROOT
ATOM      1  C   UNL A   1      32.195  29.795  27.108  1.00  0.00     0.002 C 
ENDROOT
BRANCH   1   2
ATOM      2  C   UNL A   1      31.612  28.385  27.263  1.00  0.00     0.021 C 
BRANCH   2   3
ATOM      3  C   UNL A   1      32.150  27.158  26.486  1.00  0.00     0.116 C 
BRANCH   3   4
ATOM      4  N   UNL A   1      31.533  25.856  26.761  1.00  0.00    -0.356 N 
ATOM      5  C   UNL A   1      31.884  24.540  26.685  1.00  0.00     0.229 C 
ATOM      6  O   UNL A   1      31.057  23.778  27.220  1.00  0.00    -0.275 OA
ATOM      7  H   UNL A   1      30.613  25.960  27.093  1.00  0.00     0.163 HD
BRANCH   5   8
ATOM      8  C   UNL A   1      33.077  23.859  25.968  1.00  0.00     0.142 C 
ATOM      9  C   UNL A   1      33.067  21.687  24.474  1.00  0.00     0.076 C 
ATOM     10  C   UNL A   1      32.671  23.155  24.667  1.00  0.00     0.194 C 
ATOM     11  N   UNL A   1      33.332  23.860  23.577  1.00  0.00    -0.324 N 
ATOM     12  C   UNL A   1      34.293  24.684  25.622  1.00  0.00     0.081 C 
ATOM     13  C   UNL A   1      34.282  24.831  24.104  1.00  0.00     0.263 C 
ATOM     14  H   UNL A   1      33.905  23.194  23.060  1.00  0.00     0.348 HD
BRANCH  11  15
ATOM     15  C   UNL A   1      32.448  24.278  22.475  1.00  0.00     0.364 C 
BRANCH  15  16
ATOM     16  C   UNL A   1      32.638  25.746  22.074  1.00  0.00     0.277 C 
ATOM     17  O   UNL A   1      33.469  25.984  21.200  1.00  0.00    -0.268 OA
ATOM     18  N   UNL A   1      31.900  26.718  22.743  1.00  0.00    -0.338 N 
ATOM     19  C   UNL A   1      30.534  26.565  23.204  1.00  0.00     0.119 C 
ATOM     20  C   UNL A   1      32.351  28.050  23.107  1.00  0.00     0.119 C 
ATOM     21  C   UNL A   1      29.999  27.995  23.358  1.00  0.00     0.023 C 
ATOM     22  C   UNL A   1      31.137  28.923  22.954  1.00  0.00     0.023 C 
ENDBRANCH  15  16
ENDBRANCH  11  15
ENDBRANCH   5   8
ENDBRANCH   3   4
ENDBRANCH   2   3
ENDBRANCH   1   2
BRANCH   1  23
ATOM     23  C   UNL A   1      31.456  30.708  26.129  1.00  0.00     0.002 C 
BRANCH  23  24
ATOM     24  C   UNL A   1      31.362  32.187  26.531  1.00  0.00     0.021 C 
BRANCH  24  25
ATOM     25  C   UNL A   1      32.570  32.735  27.293  1.00  0.00     0.116 C 
BRANCH  25  26
ATOM     26  N   UNL A   1      32.410  34.153  27.590  1.00  0.00    -0.352 N 
ATOM     27  C   UNL A   1      33.021  34.875  28.584  1.00  0.00     0.251 C 
ATOM     28  H   UNL A   1      31.790  34.651  27.010  1.00  0.00     0.163 HD
ATOM     29  O   UNL A   1      32.590  35.972  28.939  1.00  0.00    -0.269 OA
BRANCH  27  30
ATOM     30  C   UNL A   1      34.222  34.307  29.220  1.00  0.00     0.039 A 
ATOM     31  C   UNL A   1      34.100  33.522  30.366  1.00  0.00     0.014 A 
ATOM     32  C   UNL A   1      35.468  34.523  28.623  1.00  0.00     0.014 A 
ATOM     33  C   UNL A   1      35.236  32.904  30.890  1.00  0.00     0.010 A 
ATOM     34  C   UNL A   1      36.581  33.844  29.100  1.00  0.00     0.010 A 
ATOM     35  C   UNL A   1      36.478  33.040  30.245  1.00  0.00    -0.014 A 
BRANCH  35  36
ATOM     36  C   UNL A   1      37.693  32.369  30.770  1.00  0.00     0.031 A 
ATOM     37  C   UNL A   1      38.367  32.908  32.002  1.00  0.00     0.074 A 
ATOM     38  C   UNL A   1      38.213  31.317  30.112  1.00  0.00     0.049 A 
ATOM     39  N   UNL A   1      39.455  32.494  32.598  1.00  0.00    -0.248 NA
ATOM     40  C   UNL A   1      37.753  34.091  32.628  1.00  0.00     0.031 C 
ATOM     41  C   UNL A   1      37.677  30.742  28.876  1.00  0.00     0.029 A 
ATOM     42  N   UNL A   1      39.314  30.546  30.387  1.00  0.00    -0.354 N 
ATOM     43  C   UNL A   1      39.657  33.368  33.659  1.00  0.00     0.074 A 
ATOM     44  C   UNL A   1      38.624  34.375  33.582  1.00  0.00     0.031 C 
ATOM     45  C   UNL A   1      38.431  29.689  28.519  1.00  0.00     0.029 A 
ATOM     46  C   UNL A   1      39.523  29.538  29.475  1.00  0.00     0.049 A 
ATOM     47  H   UNL A   1      39.900  30.699  31.163  1.00  0.00     0.167 HD
ATOM     48  C   UNL A   1      40.601  33.317  34.628  1.00  0.00     0.037 A 
ATOM     49  C   UNL A   1      40.488  28.601  29.422  1.00  0.00     0.037 A 
ATOM     50  C   UNL A   1      41.616  32.300  34.704  1.00  0.00     0.049 A 
ATOM     51  C   UNL A   1      41.536  28.574  30.501  1.00  0.00     0.074 A 
ATOM     52  C   UNL A   1      42.586  32.120  35.672  1.00  0.00     0.029 A 
ATOM     53  N   UNL A   1      41.791  31.292  33.767  1.00  0.00    -0.354 N 
ATOM     54  N   UNL A   1      41.671  29.359  31.544  1.00  0.00    -0.248 NA
ATOM     55  C   UNL A   1      42.564  27.530  30.399  1.00  0.00     0.031 C 
ATOM     56  C   UNL A   1      43.384  31.037  35.291  1.00  0.00     0.029 A 
ATOM     57  C   UNL A   1      42.874  30.504  34.119  1.00  0.00     0.049 A 
ATOM     58  H   UNL A   1      41.229  31.157  32.969  1.00  0.00     0.167 HD
ATOM     59  C   UNL A   1      42.778  28.887  32.237  1.00  0.00     0.074 A 
ATOM     60  C   UNL A   1      43.267  27.736  31.505  1.00  0.00     0.031 C 
ATOM     61  C   UNL A   1      43.341  29.361  33.376  1.00  0.00     0.037 A 
BRANCH  48  62
ATOM     62  C   UNL A   1      40.573  34.391  35.677  1.00  0.00     0.057 A 
ATOM     63  C   UNL A   1      39.833  34.253  36.861  1.00  0.00     0.134 A 
ATOM     64  C   UNL A   1      41.308  35.573  35.514  1.00  0.00     0.134 A 
ATOM     65  F   UNL A   1      39.096  33.153  37.077  1.00  0.00    -0.206 F 
ATOM     66  C   UNL A   1      39.796  35.264  37.823  1.00  0.00     0.040 A 
ATOM     67  C   UNL A   1      41.305  36.576  36.484  1.00  0.00     0.040 A 
ATOM     68  F   UNL A   1      42.043  35.771  34.409  1.00  0.00    -0.206 F 
ATOM     69  C   UNL A   1      40.540  36.427  37.639  1.00  0.00     0.006 A 
ENDBRANCH  48  62
BRANCH  49  70
ATOM     70  C   UNL A   1      40.496  27.598  28.325  1.00  0.00     0.057 A 
ATOM     71  C   UNL A   1      39.802  26.388  28.448  1.00  0.00     0.134 A 
ATOM     72  C   UNL A   1      41.199  27.817  27.136  1.00  0.00     0.134 A 
ATOM     73  F   UNL A   1      39.122  26.110  29.570  1.00  0.00    -0.206 F 
ATOM     74  C   UNL A   1      39.825  25.423  27.438  1.00  0.00     0.040 A 
ATOM     75  C   UNL A   1      41.209  26.874  26.105  1.00  0.00     0.040 A 
ATOM     76  F   UNL A   1      41.878  28.959  26.949  1.00  0.00    -0.206 F 
ATOM     77  C   UNL A   1      40.527  25.669  26.259  1.00  0.00     0.006 A 
ENDBRANCH  49  70
BRANCH  61  78
ATOM     78  C   UNL A   1      44.529  28.617  33.914  1.00  0.00     0.057 A 
ATOM     79  C   UNL A   1      44.391  27.521  34.773  1.00  0.00     0.134 A 
ATOM     80  C   UNL A   1      45.828  28.981  33.533  1.00  0.00     0.134 A 
ATOM     81  F   UNL A   1      43.176  27.129  35.187  1.00  0.00    -0.206 F 
ATOM     82  C   UNL A   1      45.502  26.826  35.253  1.00  0.00     0.040 A 
ATOM     83  C   UNL A   1      46.944  28.274  33.980  1.00  0.00     0.040 A 
ATOM     84  F   UNL A   1      46.031  30.015  32.704  1.00  0.00    -0.206 F 
ATOM     85  C   UNL A   1      46.783  27.198  34.850  1.00  0.00     0.006 A 
ENDBRANCH  61  78
ENDBRANCH  35  36
ENDBRANCH  27  30
ENDBRANCH  25  26
ENDBRANCH  24  25
ENDBRANCH  23  24
ENDBRANCH   1  23
TORSDOF 15
ENDMDL
MODEL 3
REMARK VINA RESULT:     -11.6      2.094      6.993
REMARK SMILES C[C@H]1[C@H](C(=O)NCCCCCCNC(=O)c2ccc(-c3c4nc(c(-c5c(F)cccc5F)c5ccc([nH]5)c(-c5c(F)cccc5F)c5nc(c(-c6c(F)cccc6F)c6ccc3[nH]6)C=C5)C=C4)cc2)CC[N@@H+]1CC(=O)N1CCCC1
REMARK SMILES IDX 9 1 8 2 7 3 6 4 4 5 5 6 3 8 1 9 2 10 72 11 70 12 71 13 73 15
REMARK SMILES IDX 74 16 75 17 76 18 77 19 80 20 78 21 79 22 10 23 11 24 12 25
REMARK SMILES IDX 13 26 14 27 15 29 16 30 17 31 69 32 18 33 68 34 19 35 20 36
REMARK SMILES IDX 21 37 62 38 22 39 67 40 61 41 63 42 23 43 66 44 60 45 59 46
REMARK SMILES IDX 24 48 50 49 33 50 49 51 34 52 37 53 48 54 64 55 35 56 36 57
REMARK SMILES IDX 47 59 65 60 38 61 25 62 26 63 31 64 27 65 28 66 30 67 32 68
REMARK SMILES IDX 29 69 51 70 52 71 57 72 53 73 54 74 56 75 58 76 55 77 39 78
REMARK SMILES IDX 40 79 45 80 41 81 42 82 44 83 46 84 43 85
REMARK H PARENT 6 7 72 14 13 28 63 47 37 58
REMARK Flexibility Score: inf
ROOT
ATOM      1  C   UNL A   1      32.374  29.644  27.007  1.00  0.00     0.002 C 
ENDROOT
BRANCH   1   2
ATOM      2  C   UNL A   1      31.630  28.324  27.242  1.00  0.00     0.021 C 
BRANCH   2   3
ATOM      3  C   UNL A   1      31.372  27.286  26.122  1.00  0.00     0.116 C 
BRANCH   3   4
ATOM      4  N   UNL A   1      30.938  25.944  26.525  1.00  0.00    -0.356 N 
ATOM      5  C   UNL A   1      31.495  24.708  26.670  1.00  0.00     0.229 C 
ATOM      6  O   UNL A   1      30.742  23.892  27.232  1.00  0.00    -0.275 OA
ATOM      7  H   UNL A   1      29.982  25.933  26.755  1.00  0.00     0.163 HD
BRANCH   5   8
ATOM      8  C   UNL A   1      32.852  24.153  26.168  1.00  0.00     0.142 C 
ATOM      9  C   UNL A   1      34.272  22.162  27.152  1.00  0.00     0.076 C 
ATOM     10  C   UNL A   1      33.015  22.650  26.423  1.00  0.00     0.194 C 
ATOM     11  N   UNL A   1      33.071  21.999  25.121  1.00  0.00    -0.324 N 
ATOM     12  C   UNL A   1      33.244  24.366  24.725  1.00  0.00     0.081 C 
ATOM     13  C   UNL A   1      33.155  22.995  24.060  1.00  0.00     0.263 C 
ATOM     14  H   UNL A   1      33.944  21.478  25.055  1.00  0.00     0.348 HD
BRANCH  11  15
ATOM     15  C   UNL A   1      32.139  20.872  24.945  1.00  0.00     0.364 C 
BRANCH  15  16
ATOM     16  C   UNL A   1      32.428  20.042  23.688  1.00  0.00     0.277 C 
ATOM     17  O   UNL A   1      32.087  20.523  22.609  1.00  0.00    -0.268 OA
ATOM     18  N   UNL A   1      33.015  18.789  23.840  1.00  0.00    -0.338 N 
ATOM     19  C   UNL A   1      34.017  18.447  24.830  1.00  0.00     0.119 C 
ATOM     20  C   UNL A   1      32.736  17.601  23.053  1.00  0.00     0.119 C 
ATOM     21  C   UNL A   1      34.722  17.202  24.274  1.00  0.00     0.023 C 
ATOM     22  C   UNL A   1      34.058  16.895  22.938  1.00  0.00     0.023 C 
ENDBRANCH  15  16
ENDBRANCH  11  15
ENDBRANCH   5   8
ENDBRANCH   3   4
ENDBRANCH   2   3
ENDBRANCH   1   2
BRANCH   1  23
ATOM     23  C   UNL A   1      31.645  30.661  26.128  1.00  0.00     0.002 C 
BRANCH  23  24
ATOM     24  C   UNL A   1      31.419  32.046  26.752  1.00  0.00     0.021 C 
BRANCH  24  25
ATOM     25  C   UNL A   1      32.666  32.712  27.336  1.00  0.00     0.116 C 
BRANCH  25  26
ATOM     26  N   UNL A   1      32.466  34.144  27.517  1.00  0.00    -0.352 N 
ATOM     27  C   UNL A   1      32.985  34.945  28.503  1.00  0.00     0.251 C 
ATOM     28  H   UNL A   1      31.890  34.589  26.855  1.00  0.00     0.163 HD
ATOM     29  O   UNL A   1      32.514  36.056  28.744  1.00  0.00    -0.269 OA
BRANCH  27  30
ATOM     30  C   UNL A   1      34.137  34.444  29.272  1.00  0.00     0.039 A 
ATOM     31  C   UNL A   1      33.937  33.824  30.506  1.00  0.00     0.014 A 
ATOM     32  C   UNL A   1      35.416  34.550  28.719  1.00  0.00     0.014 A 
ATOM     33  C   UNL A   1      35.027  33.260  31.167  1.00  0.00     0.010 A 
ATOM     34  C   UNL A   1      36.485  33.920  29.341  1.00  0.00     0.010 A 
ATOM     35  C   UNL A   1      36.304  33.280  30.577  1.00  0.00    -0.014 A 
BRANCH  35  36
ATOM     36  C   UNL A   1      37.471  32.663  31.251  1.00  0.00     0.031 A 
ATOM     37  C   UNL A   1      38.159  31.484  30.620  1.00  0.00     0.074 A 
ATOM     38  C   UNL A   1      37.875  33.128  32.448  1.00  0.00     0.049 A 
ATOM     39  N   UNL A   1      39.167  30.778  31.062  1.00  0.00    -0.248 NA
ATOM     40  C   UNL A   1      37.618  31.015  29.332  1.00  0.00     0.031 C 
ATOM     41  C   UNL A   1      37.251  34.230  33.183  1.00  0.00     0.029 A 
ATOM     42  N   UNL A   1      38.904  32.727  33.262  1.00  0.00    -0.354 N 
ATOM     43  C   UNL A   1      39.373  29.783  30.116  1.00  0.00     0.074 A 
ATOM     44  C   UNL A   1      38.343  29.930  29.113  1.00  0.00     0.031 C 
ATOM     45  C   UNL A   1      37.931  34.439  34.322  1.00  0.00     0.029 A 
ATOM     46  C   UNL A   1      39.012  33.464  34.417  1.00  0.00     0.049 A 
ATOM     47  H   UNL A   1      39.509  31.982  33.040  1.00  0.00     0.167 HD
ATOM     48  C   UNL A   1      40.353  28.849  30.070  1.00  0.00     0.037 A 
ATOM     49  C   UNL A   1      39.886  33.360  35.436  1.00  0.00     0.037 A 
ATOM     50  C   UNL A   1      41.384  28.722  31.065  1.00  0.00     0.049 A 
ATOM     51  C   UNL A   1      40.956  32.304  35.371  1.00  0.00     0.074 A 
ATOM     52  C   UNL A   1      42.456  27.850  31.091  1.00  0.00     0.029 A 
ATOM     53  N   UNL A   1      41.464  29.491  32.218  1.00  0.00    -0.354 N 
ATOM     54  N   UNL A   1      41.189  31.419  34.432  1.00  0.00    -0.248 NA
ATOM     55  C   UNL A   1      41.888  32.235  36.505  1.00  0.00     0.031 C 
ATOM     56  C   UNL A   1      43.153  28.052  32.285  1.00  0.00     0.029 A 
ATOM     57  C   UNL A   1      42.552  29.092  32.976  1.00  0.00     0.049 A 
ATOM     58  H   UNL A   1      40.839  30.212  32.461  1.00  0.00     0.167 HD
ATOM     59  C   UNL A   1      42.308  30.708  34.846  1.00  0.00     0.074 A 
ATOM     60  C   UNL A   1      42.717  31.278  36.113  1.00  0.00     0.031 C 
ATOM     61  C   UNL A   1      42.942  29.676  34.235  1.00  0.00     0.037 A 
BRANCH  48  62
ATOM     62  C   UNL A   1      40.349  27.900  28.906  1.00  0.00     0.057 A 
ATOM     63  C   UNL A   1      41.071  28.163  27.732  1.00  0.00     0.134 A 
ATOM     64  C   UNL A   1      39.631  26.699  28.962  1.00  0.00     0.134 A 
ATOM     65  F   UNL A   1      41.771  29.300  27.606  1.00  0.00    -0.206 F 
ATOM     66  C   UNL A   1      41.048  27.286  26.647  1.00  0.00     0.040 A 
ATOM     67  C   UNL A   1      39.627  25.799  27.896  1.00  0.00     0.040 A 
ATOM     68  F   UNL A   1      38.922  26.379  30.055  1.00  0.00    -0.206 F 
ATOM     69  C   UNL A   1      40.330  26.095  26.730  1.00  0.00     0.006 A 
ENDBRANCH  48  62
BRANCH  49  70
ATOM     70  C   UNL A   1      39.804  34.293  36.590  1.00  0.00     0.057 A 
ATOM     71  C   UNL A   1      40.422  35.549  36.549  1.00  0.00     0.134 A 
ATOM     72  C   UNL A   1      39.116  33.954  37.760  1.00  0.00     0.134 A 
ATOM     73  F   UNL A   1      41.111  35.928  35.463  1.00  0.00    -0.206 F 
ATOM     74  C   UNL A   1      40.378  36.423  37.637  1.00  0.00     0.040 A 
ATOM     75  C   UNL A   1      39.039  34.829  38.846  1.00  0.00     0.040 A 
ATOM     76  F   UNL A   1      38.494  32.770  37.862  1.00  0.00    -0.206 F 
ATOM     77  C   UNL A   1      39.679  36.065  38.789  1.00  0.00     0.006 A 
ENDBRANCH  49  70
BRANCH  61  78
ATOM     78  C   UNL A   1      44.160  29.120  34.914  1.00  0.00     0.057 A 
ATOM     79  C   UNL A   1      44.083  28.052  35.815  1.00  0.00     0.134 A 
ATOM     80  C   UNL A   1      45.431  29.635  34.627  1.00  0.00     0.134 A 
ATOM     81  F   UNL A   1      42.895  27.521  36.142  1.00  0.00    -0.206 F 
ATOM     82  C   UNL A   1      45.224  27.531  36.427  1.00  0.00     0.040 A 
ATOM     83  C   UNL A   1      46.582  29.102  35.207  1.00  0.00     0.040 A 
ATOM     84  F   UNL A   1      45.577  30.652  33.764  1.00  0.00    -0.206 F 
ATOM     85  C   UNL A   1      46.479  28.052  36.116  1.00  0.00     0.006 A 
ENDBRANCH  61  78
ENDBRANCH  35  36
ENDBRANCH  27  30
ENDBRANCH  25  26
ENDBRANCH  24  25
ENDBRANCH  23  24
ENDBRANCH   1  23
TORSDOF 15
ENDMDL
