MODEL 1
REMARK VINA RESULT:     -11.6      0.000      0.000
REMARK SMILES COc1ccc(C(F)(F)F)cc1-c1cc(N)cc(C(=O)NCCCCCCNC(=O)c2ccc(-c3c4nc(c(-c5c(F)cccc5F)c5ccc([nH]5)c(-c5c(F)cccc5F)c5nc(c(-c6c(F)cccc6F)c6ccc3[nH]6)C=C5)C=C4)cc2)c1
REMARK SMILES IDX 24 1 23 2 22 3 21 4 19 5 20 6 18 8 13 9 14 10 85 11 15 12
REMARK SMILES IDX 17 13 12 14 3 15 4 16 5 17 11 18 6 19 2 20 1 21 7 22 8 23
REMARK SMILES IDX 9 24 10 25 16 26 25 29 26 30 27 31 28 32 29 33 30 35 31 36
REMARK SMILES IDX 32 37 84 38 33 39 83 40 34 41 35 42 36 43 77 44 37 45 82 46
REMARK SMILES IDX 76 47 78 48 38 49 81 50 75 51 74 52 39 54 65 55 48 56 64 57
REMARK SMILES IDX 49 58 52 59 63 60 79 61 50 62 51 63 62 65 80 66 53 67 40 68
REMARK SMILES IDX 41 69 46 70 42 71 43 72 45 73 47 74 44 75 66 76 67 77 72 78
REMARK SMILES IDX 68 79 69 80 71 81 73 82 70 83 54 84 55 85 60 86 56 87 57 88
REMARK SMILES IDX 59 89 61 90 58 91
REMARK H PARENT 21 7 16 27 16 28 28 34 78 53 52 64
REMARK Flexibility Score: inf
ROOT
ATOM      1  C   UNL A   1      34.736  32.688  29.050  1.00  0.00     0.002 C 
ENDROOT
BRANCH   1   2
ATOM      2  C   UNL A   1      35.606  31.978  28.003  1.00  0.00     0.021 C 
BRANCH   2   3
ATOM      3  C   UNL A   1      35.098  30.575  27.658  1.00  0.00     0.116 C 
BRANCH   3   4
ATOM      4  N   UNL A   1      33.646  30.553  27.664  1.00  0.00    -0.352 N 
ATOM      5  C   UNL A   1      32.709  29.869  26.933  1.00  0.00     0.251 C 
ATOM      6  O   UNL A   1      31.525  30.105  27.183  1.00  0.00    -0.269 OA
ATOM      7  H   UNL A   1      33.251  31.157  28.334  1.00  0.00     0.163 HD
BRANCH   5   8
ATOM      8  C   UNL A   1      33.035  28.830  25.914  1.00  0.00     0.042 A 
ATOM      9  C   UNL A   1      33.602  26.564  25.225  1.00  0.00    -0.012 A 
ATOM     10  C   UNL A   1      33.380  26.923  23.889  1.00  0.00     0.034 A 
ATOM     11  C   UNL A   1      33.516  27.559  26.208  1.00  0.00     0.022 A 
ATOM     12  C   UNL A   1      33.064  28.239  23.543  1.00  0.00     0.033 A 
ATOM     13  C   UNL A   1      32.828  29.161  24.566  1.00  0.00     0.039 A 
BRANCH   9  14
ATOM     14  C   UNL A   1      33.893  25.179  25.630  1.00  0.00     0.024 A 
ATOM     15  C   UNL A   1      32.985  24.397  26.379  1.00  0.00     0.126 A 
ATOM     16  C   UNL A   1      33.353  23.139  26.865  1.00  0.00     0.047 A 
ATOM     17  C   UNL A   1      34.625  22.631  26.606  1.00  0.00     0.017 A 
ATOM     18  C   UNL A   1      35.163  24.636  25.362  1.00  0.00     0.025 A 
ATOM     19  C   UNL A   1      35.547  23.379  25.859  1.00  0.00     0.056 A 
BRANCH  15  20
ATOM     20  O   UNL A   1      31.756  24.847  26.798  1.00  0.00    -0.496 OA
ATOM     21  C   UNL A   1      30.677  24.335  26.014  1.00  0.00     0.278 C 
ENDBRANCH  15  20
BRANCH  19  22
ATOM     22  C   UNL A   1      36.947  22.856  25.650  1.00  0.00     0.416 C 
ATOM     23  F   UNL A   1      37.864  23.520  26.407  1.00  0.00    -0.166 F 
ATOM     24  F   UNL A   1      37.069  21.542  25.978  1.00  0.00    -0.166 F 
ATOM     25  F   UNL A   1      37.380  22.964  24.363  1.00  0.00    -0.166 F 
ENDBRANCH  19  22
ENDBRANCH   9  14
BRANCH  12  26
ATOM     26  N   UNL A   1      32.826  28.586  22.221  1.00  0.00    -0.399 N 
ATOM     27  H   UNL A   1      32.274  28.004  21.651  1.00  0.00     0.156 HD
ATOM     28  H   UNL A   1      33.209  29.414  21.853  1.00  0.00     0.156 HD
ENDBRANCH  12  26
ENDBRANCH   5   8
ENDBRANCH   3   4
ENDBRANCH   2   3
ENDBRANCH   1   2
BRANCH   1  29
ATOM     29  C   UNL A   1      34.716  34.218  28.934  1.00  0.00     0.002 C 
BRANCH  29  30
ATOM     30  C   UNL A   1      33.340  34.860  29.125  1.00  0.00     0.021 C 
BRANCH  30  31
ATOM     31  C   UNL A   1      33.384  36.267  29.711  1.00  0.00     0.116 C 
BRANCH  31  32
ATOM     32  N   UNL A   1      32.484  36.403  30.846  1.00  0.00    -0.352 N 
ATOM     33  C   UNL A   1      32.522  35.778  32.067  1.00  0.00     0.251 C 
ATOM     34  H   UNL A   1      31.740  37.035  30.720  1.00  0.00     0.163 HD
ATOM     35  O   UNL A   1      31.554  35.825  32.817  1.00  0.00    -0.269 OA
BRANCH  33  36
ATOM     36  C   UNL A   1      33.735  35.039  32.474  1.00  0.00     0.039 A 
ATOM     37  C   UNL A   1      33.611  33.714  32.898  1.00  0.00     0.014 A 
ATOM     38  C   UNL A   1      34.987  35.660  32.458  1.00  0.00     0.014 A 
ATOM     39  C   UNL A   1      34.752  32.995  33.257  1.00  0.00     0.010 A 
ATOM     40  C   UNL A   1      36.130  34.921  32.748  1.00  0.00     0.010 A 
ATOM     41  C   UNL A   1      36.023  33.584  33.156  1.00  0.00    -0.014 A 
BRANCH  41  42
ATOM     42  C   UNL A   1      37.253  32.820  33.484  1.00  0.00     0.031 A 
ATOM     43  C   UNL A   1      37.998  33.106  34.758  1.00  0.00     0.074 A 
ATOM     44  C   UNL A   1      37.724  31.909  32.612  1.00  0.00     0.049 A 
ATOM     45  N   UNL A   1      39.127  32.601  35.187  1.00  0.00    -0.248 NA
ATOM     46  C   UNL A   1      37.408  34.107  35.661  1.00  0.00     0.031 C 
ATOM     47  C   UNL A   1      37.108  31.565  31.328  1.00  0.00     0.029 A 
ATOM     48  N   UNL A   1      38.838  31.109  32.669  1.00  0.00    -0.354 N 
ATOM     49  C   UNL A   1      39.381  33.224  36.403  1.00  0.00     0.074 A 
ATOM     50  C   UNL A   1      38.323  34.186  36.615  1.00  0.00     0.031 C 
ATOM     51  C   UNL A   1      37.838  30.608  30.733  1.00  0.00     0.029 A 
ATOM     52  C   UNL A   1      38.993  30.300  31.570  1.00  0.00     0.049 A 
ATOM     53  H   UNL A   1      39.466  31.114  33.427  1.00  0.00     0.167 HD
ATOM     54  C   UNL A   1      40.390  32.993  37.277  1.00  0.00     0.037 A 
ATOM     55  C   UNL A   1      39.962  29.416  31.269  1.00  0.00     0.037 A 
ATOM     56  C   UNL A   1      41.435  32.025  37.069  1.00  0.00     0.049 A 
ATOM     57  C   UNL A   1      41.092  29.210  32.240  1.00  0.00     0.074 A 
ATOM     58  C   UNL A   1      42.489  31.701  37.906  1.00  0.00     0.029 A 
ATOM     59  N   UNL A   1      41.555  31.224  35.945  1.00  0.00    -0.354 N 
ATOM     60  N   UNL A   1      41.294  29.772  33.407  1.00  0.00    -0.248 NA
ATOM     61  C   UNL A   1      42.129  28.243  31.853  1.00  0.00     0.031 C 
ATOM     62  C   UNL A   1      43.268  30.728  37.270  1.00  0.00     0.029 A 
ATOM     63  C   UNL A   1      42.673  30.415  36.059  1.00  0.00     0.049 A 
ATOM     64  H   UNL A   1      40.936  31.229  35.178  1.00  0.00     0.167 HD
ATOM     65  C   UNL A   1      42.457  29.200  33.908  1.00  0.00     0.074 A 
ATOM     66  C   UNL A   1      42.909  28.239  32.924  1.00  0.00     0.031 C 
ATOM     67  C   UNL A   1      43.094  29.447  35.078  1.00  0.00     0.037 A 
BRANCH  54  68
ATOM     68  C   UNL A   1      40.400  33.791  38.548  1.00  0.00     0.057 A 
ATOM     69  C   UNL A   1      41.171  34.954  38.678  1.00  0.00     0.134 A 
ATOM     70  C   UNL A   1      39.603  33.421  39.638  1.00  0.00     0.134 A 
ATOM     71  F   UNL A   1      41.966  35.358  37.675  1.00  0.00    -0.206 F 
ATOM     72  C   UNL A   1      41.165  35.708  39.852  1.00  0.00     0.040 A 
ATOM     73  C   UNL A   1      39.568  34.181  40.809  1.00  0.00     0.040 A 
ATOM     74  F   UNL A   1      38.836  32.321  39.581  1.00  0.00    -0.206 F 
ATOM     75  C   UNL A   1      40.356  35.326  40.919  1.00  0.00     0.006 A 
ENDBRANCH  54  68
BRANCH  55  76
ATOM     76  C   UNL A   1      39.909  28.641  30.002  1.00  0.00     0.057 A 
ATOM     77  C   UNL A   1      39.236  27.415  29.937  1.00  0.00     0.134 A 
ATOM     78  C   UNL A   1      40.558  29.081  28.844  1.00  0.00     0.134 A 
ATOM     79  F   UNL A   1      38.610  26.930  31.019  1.00  0.00    -0.206 F 
ATOM     80  C   UNL A   1      39.236  26.640  28.775  1.00  0.00     0.040 A 
ATOM     81  C   UNL A   1      40.544  28.330  27.667  1.00  0.00     0.040 A 
ATOM     82  F   UNL A   1      41.215  30.251  28.837  1.00  0.00    -0.206 F 
ATOM     83  C   UNL A   1      39.891  27.100  27.635  1.00  0.00     0.006 A 
ENDBRANCH  55  76
BRANCH  67  84
ATOM     84  C   UNL A   1      44.318  28.632  35.379  1.00  0.00     0.057 A 
ATOM     85  C   UNL A   1      45.600  29.054  35.010  1.00  0.00     0.134 A 
ATOM     86  C   UNL A   1      44.209  27.424  36.080  1.00  0.00     0.134 A 
ATOM     87  F   UNL A   1      45.770  30.195  34.325  1.00  0.00    -0.206 F 
ATOM     88  C   UNL A   1      46.731  28.291  35.304  1.00  0.00     0.040 A 
ATOM     89  C   UNL A   1      45.334  26.666  36.404  1.00  0.00     0.040 A 
ATOM     90  F   UNL A   1      43.010  26.967  36.471  1.00  0.00    -0.206 F 
ATOM     91  C   UNL A   1      46.600  27.095  36.011  1.00  0.00     0.006 A 
ENDBRANCH  67  84
ENDBRANCH  41  42
ENDBRANCH  33  36
ENDBRANCH  31  32
ENDBRANCH  30  31
ENDBRANCH  29  30
ENDBRANCH   1  29
TORSDOF 17
ENDMDL
MODEL 2
REMARK VINA RESULT:     -11.5      5.340     10.379
REMARK SMILES COc1ccc(C(F)(F)F)cc1-c1cc(N)cc(C(=O)NCCCCCCNC(=O)c2ccc(-c3c4nc(c(-c5c(F)cccc5F)c5ccc([nH]5)c(-c5c(F)cccc5F)c5nc(c(-c6c(F)cccc6F)c6ccc3[nH]6)C=C5)C=C4)cc2)c1
REMARK SMILES IDX 24 1 23 2 22 3 21 4 19 5 20 6 18 8 13 9 14 10 85 11 15 12
REMARK SMILES IDX 17 13 12 14 3 15 4 16 5 17 11 18 6 19 2 20 1 21 7 22 8 23
REMARK SMILES IDX 9 24 10 25 16 26 25 29 26 30 27 31 28 32 29 33 30 35 31 36
REMARK SMILES IDX 32 37 84 38 33 39 83 40 34 41 35 42 36 43 77 44 37 45 82 46
REMARK SMILES IDX 76 47 78 48 38 49 81 50 75 51 74 52 39 54 65 55 48 56 64 57
REMARK SMILES IDX 49 58 52 59 63 60 79 61 50 62 51 63 62 65 80 66 53 67 40 68
REMARK SMILES IDX 41 69 46 70 42 71 43 72 45 73 47 74 44 75 66 76 67 77 72 78
REMARK SMILES IDX 68 79 69 80 71 81 73 82 70 83 54 84 55 85 60 86 56 87 57 88
REMARK SMILES IDX 59 89 61 90 58 91
REMARK H PARENT 21 7 16 27 16 28 28 34 78 53 52 64
REMARK Flexibility Score: inf
ROOT
ATOM      1  C   UNL A   1      37.163  21.793  24.671  1.00  0.00     0.002 C 
ENDROOT
BRANCH   1   2
ATOM      2  C   UNL A   1      36.263  22.662  23.781  1.00  0.00     0.021 C 
BRANCH   2   3
ATOM      3  C   UNL A   1      35.293  23.533  24.585  1.00  0.00     0.116 C 
BRANCH   3   4
ATOM      4  N   UNL A   1      35.197  23.047  25.949  1.00  0.00    -0.352 N 
ATOM      5  C   UNL A   1      34.213  23.101  26.903  1.00  0.00     0.251 C 
ATOM      6  O   UNL A   1      34.467  22.594  27.997  1.00  0.00    -0.269 OA
ATOM      7  H   UNL A   1      36.008  22.580  26.254  1.00  0.00     0.163 HD
BRANCH   5   8
ATOM      8  C   UNL A   1      32.855  23.675  26.675  1.00  0.00     0.042 A 
ATOM      9  C   UNL A   1      31.328  25.388  25.858  1.00  0.00    -0.012 A 
ATOM     10  C   UNL A   1      30.250  24.520  26.078  1.00  0.00     0.034 A 
ATOM     11  C   UNL A   1      32.609  24.977  26.254  1.00  0.00     0.022 A 
ATOM     12  C   UNL A   1      30.446  23.267  26.663  1.00  0.00     0.033 A 
ATOM     13  C   UNL A   1      31.754  22.832  26.891  1.00  0.00     0.039 A 
BRANCH   9  14
ATOM     14  C   UNL A   1      31.165  26.697  25.204  1.00  0.00     0.024 A 
ATOM     15  C   UNL A   1      30.844  26.829  23.834  1.00  0.00     0.126 A 
ATOM     16  C   UNL A   1      30.837  28.083  23.218  1.00  0.00     0.047 A 
ATOM     17  C   UNL A   1      31.138  29.229  23.953  1.00  0.00     0.017 A 
ATOM     18  C   UNL A   1      31.443  27.868  25.931  1.00  0.00     0.025 A 
ATOM     19  C   UNL A   1      31.454  29.132  25.315  1.00  0.00     0.056 A 
BRANCH  15  20
ATOM     20  O   UNL A   1      30.655  25.763  22.989  1.00  0.00    -0.496 OA
ATOM     21  C   UNL A   1      31.762  25.541  22.114  1.00  0.00     0.278 C 
ENDBRANCH  15  20
BRANCH  19  22
ATOM     22  C   UNL A   1      31.855  30.366  26.085  1.00  0.00     0.416 C 
ATOM     23  F   UNL A   1      33.191  30.614  26.004  1.00  0.00    -0.166 F 
ATOM     24  F   UNL A   1      31.236  31.490  25.632  1.00  0.00    -0.166 F 
ATOM     25  F   UNL A   1      31.571  30.293  27.415  1.00  0.00    -0.166 F 
ENDBRANCH  19  22
ENDBRANCH   9  14
BRANCH  12  26
ATOM     26  N   UNL A   1      29.377  22.404  26.860  1.00  0.00    -0.399 N 
ATOM     27  H   UNL A   1      28.675  22.631  27.511  1.00  0.00     0.156 HD
ATOM     28  H   UNL A   1      29.322  21.564  26.350  1.00  0.00     0.156 HD
ENDBRANCH  12  26
ENDBRANCH   5   8
ENDBRANCH   3   4
ENDBRANCH   2   3
ENDBRANCH   1   2
BRANCH   1  29
ATOM     29  C   UNL A   1      36.818  20.298  24.664  1.00  0.00     0.002 C 
BRANCH  29  30
ATOM     30  C   UNL A   1      37.993  19.364  24.963  1.00  0.00     0.021 C 
BRANCH  30  31
ATOM     31  C   UNL A   1      39.143  20.029  25.711  1.00  0.00     0.116 C 
BRANCH  31  32
ATOM     32  N   UNL A   1      40.304  19.155  25.796  1.00  0.00    -0.352 N 
ATOM     33  C   UNL A   1      41.614  19.470  26.055  1.00  0.00     0.251 C 
ATOM     34  H   UNL A   1      40.123  18.199  25.644  1.00  0.00     0.163 HD
ATOM     35  O   UNL A   1      42.500  18.648  25.851  1.00  0.00    -0.269 OA
BRANCH  33  36
ATOM     36  C   UNL A   1      41.956  20.810  26.575  1.00  0.00     0.039 A 
ATOM     37  C   UNL A   1      42.374  21.797  25.681  1.00  0.00     0.014 A 
ATOM     38  C   UNL A   1      41.885  21.082  27.944  1.00  0.00     0.014 A 
ATOM     39  C   UNL A   1      42.672  23.076  26.155  1.00  0.00     0.010 A 
ATOM     40  C   UNL A   1      42.114  22.374  28.406  1.00  0.00     0.010 A 
ATOM     41  C   UNL A   1      42.515  23.382  27.517  1.00  0.00    -0.014 A 
BRANCH  41  42
ATOM     42  C   UNL A   1      42.778  24.749  28.033  1.00  0.00     0.031 A 
ATOM     43  C   UNL A   1      44.170  25.145  28.438  1.00  0.00     0.074 A 
ATOM     44  C   UNL A   1      41.755  25.611  28.185  1.00  0.00     0.049 A 
ATOM     45  N   UNL A   1      44.588  26.262  28.978  1.00  0.00    -0.248 NA
ATOM     46  C   UNL A   1      45.231  24.148  28.228  1.00  0.00     0.031 C 
ATOM     47  C   UNL A   1      40.355  25.333  27.858  1.00  0.00     0.029 A 
ATOM     48  N   UNL A   1      41.735  26.898  28.662  1.00  0.00    -0.354 N 
ATOM     49  C   UNL A   1      45.954  26.099  29.174  1.00  0.00     0.074 A 
ATOM     50  C   UNL A   1      46.285  24.756  28.751  1.00  0.00     0.031 C 
ATOM     51  C   UNL A   1      39.617  26.425  28.120  1.00  0.00     0.029 A 
ATOM     52  C   UNL A   1      40.482  27.463  28.672  1.00  0.00     0.049 A 
ATOM     53  H   UNL A   1      42.541  27.372  28.969  1.00  0.00     0.167 HD
ATOM     54  C   UNL A   1      46.856  26.997  29.635  1.00  0.00     0.037 A 
ATOM     55  C   UNL A   1      40.077  28.677  29.086  1.00  0.00     0.037 A 
ATOM     56  C   UNL A   1      46.526  28.338  30.043  1.00  0.00     0.049 A 
ATOM     57  C   UNL A   1      41.096  29.641  29.633  1.00  0.00     0.074 A 
ATOM     58  C   UNL A   1      47.372  29.331  30.503  1.00  0.00     0.029 A 
ATOM     59  N   UNL A   1      45.247  28.872  30.034  1.00  0.00    -0.354 N 
ATOM     60  N   UNL A   1      42.391  29.489  29.768  1.00  0.00    -0.248 NA
ATOM     61  C   UNL A   1      40.594  30.947  30.084  1.00  0.00     0.031 C 
ATOM     62  C   UNL A   1      46.599  30.457  30.809  1.00  0.00     0.029 A 
ATOM     63  C   UNL A   1      45.279  30.178  30.494  1.00  0.00     0.049 A 
ATOM     64  H   UNL A   1      44.437  28.394  29.744  1.00  0.00     0.167 HD
ATOM     65  C   UNL A   1      42.862  30.690  30.281  1.00  0.00     0.074 A 
ATOM     66  C   UNL A   1      41.717  31.565  30.422  1.00  0.00     0.031 C 
ATOM     67  C   UNL A   1      44.131  31.041  30.607  1.00  0.00     0.037 A 
BRANCH  54  68
ATOM     68  C   UNL A   1      48.291  26.563  29.707  1.00  0.00     0.057 A 
ATOM     69  C   UNL A   1      48.813  25.943  30.851  1.00  0.00     0.134 A 
ATOM     70  C   UNL A   1      49.149  26.727  28.614  1.00  0.00     0.134 A 
ATOM     71  F   UNL A   1      48.046  25.766  31.938  1.00  0.00    -0.206 F 
ATOM     72  C   UNL A   1      50.141  25.520  30.911  1.00  0.00     0.040 A 
ATOM     73  C   UNL A   1      50.474  26.284  28.652  1.00  0.00     0.040 A 
ATOM     74  F   UNL A   1      48.715  27.308  27.485  1.00  0.00    -0.206 F 
ATOM     75  C   UNL A   1      50.974  25.683  29.806  1.00  0.00     0.006 A 
ENDBRANCH  54  68
BRANCH  55  76
ATOM     76  C   UNL A   1      38.648  29.069  28.989  1.00  0.00     0.057 A 
ATOM     77  C   UNL A   1      38.117  29.567  27.793  1.00  0.00     0.134 A 
ATOM     78  C   UNL A   1      37.790  28.996  30.092  1.00  0.00     0.134 A 
ATOM     79  F   UNL A   1      38.894  29.679  26.705  1.00  0.00    -0.206 F 
ATOM     80  C   UNL A   1      36.795  30.007  27.704  1.00  0.00     0.040 A 
ATOM     81  C   UNL A   1      36.458  29.406  30.011  1.00  0.00     0.040 A 
ATOM     82  F   UNL A   1      38.232  28.522  31.267  1.00  0.00    -0.206 F 
ATOM     83  C   UNL A   1      35.961  29.924  28.817  1.00  0.00     0.006 A 
ENDBRANCH  55  76
BRANCH  67  84
ATOM     84  C   UNL A   1      44.351  32.441  31.098  1.00  0.00     0.057 A 
ATOM     85  C   UNL A   1      44.328  32.761  32.461  1.00  0.00     0.134 A 
ATOM     86  C   UNL A   1      44.626  33.475  30.194  1.00  0.00     0.134 A 
ATOM     87  F   UNL A   1      44.057  31.820  33.377  1.00  0.00    -0.206 F 
ATOM     88  C   UNL A   1      44.544  34.067  32.906  1.00  0.00     0.040 A 
ATOM     89  C   UNL A   1      44.872  34.777  30.628  1.00  0.00     0.040 A 
ATOM     90  F   UNL A   1      44.673  33.233  28.876  1.00  0.00    -0.206 F 
ATOM     91  C   UNL A   1      44.825  35.078  31.987  1.00  0.00     0.006 A 
ENDBRANCH  67  84
ENDBRANCH  41  42
ENDBRANCH  33  36
ENDBRANCH  31  32
ENDBRANCH  30  31
ENDBRANCH  29  30
ENDBRANCH   1  29
TORSDOF 17
ENDMDL
MODEL 3
REMARK VINA RESULT:     -11.4      2.432      6.863
REMARK SMILES COc1ccc(C(F)(F)F)cc1-c1cc(N)cc(C(=O)NCCCCCCNC(=O)c2ccc(-c3c4nc(c(-c5c(F)cccc5F)c5ccc([nH]5)c(-c5c(F)cccc5F)c5nc(c(-c6c(F)cccc6F)c6ccc3[nH]6)C=C5)C=C4)cc2)c1
REMARK SMILES IDX 24 1 23 2 22 3 21 4 19 5 20 6 18 8 13 9 14 10 85 11 15 12
REMARK SMILES IDX 17 13 12 14 3 15 4 16 5 17 11 18 6 19 2 20 1 21 7 22 8 23
REMARK SMILES IDX 9 24 10 25 16 26 25 29 26 30 27 31 28 32 29 33 30 35 31 36
REMARK SMILES IDX 32 37 84 38 33 39 83 40 34 41 35 42 36 43 77 44 37 45 82 46
REMARK SMILES IDX 76 47 78 48 38 49 81 50 75 51 74 52 39 54 65 55 48 56 64 57
REMARK SMILES IDX 49 58 52 59 63 60 79 61 50 62 51 63 62 65 80 66 53 67 40 68
REMARK SMILES IDX 41 69 46 70 42 71 43 72 45 73 47 74 44 75 66 76 67 77 72 78
REMARK SMILES IDX 68 79 69 80 71 81 73 82 70 83 54 84 55 85 60 86 56 87 57 88
REMARK SMILES IDX 59 89 61 90 58 91
REMARK H PARENT 21 7 16 27 16 28 28 34 78 53 52 64
REMARK Flexibility Score: inf
ROOT
ATOM      1  C   UNL A   1      32.488  29.971  26.837  1.00  0.00     0.002 C 
ENDROOT
BRANCH   1   2
ATOM      2  C   UNL A   1      31.869  28.713  27.462  1.00  0.00     0.021 C 
BRANCH   2   3
ATOM      3  C   UNL A   1      32.111  27.452  26.628  1.00  0.00     0.116 C 
BRANCH   3   4
ATOM      4  N   UNL A   1      30.999  26.531  26.779  1.00  0.00    -0.352 N 
ATOM      5  C   UNL A   1      30.636  25.376  26.134  1.00  0.00     0.251 C 
ATOM      6  O   UNL A   1      29.592  24.835  26.504  1.00  0.00    -0.269 OA
ATOM      7  H   UNL A   1      30.374  26.790  27.494  1.00  0.00     0.163 HD
BRANCH   5   8
ATOM      8  C   UNL A   1      31.449  24.717  25.072  1.00  0.00     0.042 A 
ATOM      9  C   UNL A   1      32.833  22.912  24.200  1.00  0.00    -0.012 A 
ATOM     10  C   UNL A   1      32.731  23.466  22.916  1.00  0.00     0.034 A 
ATOM     11  C   UNL A   1      32.264  23.608  25.275  1.00  0.00     0.022 A 
ATOM     12  C   UNL A   1      32.063  24.675  22.707  1.00  0.00     0.033 A 
ATOM     13  C   UNL A   1      31.371  25.250  23.776  1.00  0.00     0.039 A 
BRANCH   9  14
ATOM     14  C   UNL A   1      33.490  21.619  24.449  1.00  0.00     0.024 A 
ATOM     15  C   UNL A   1      34.822  21.518  24.912  1.00  0.00     0.126 A 
ATOM     16  C   UNL A   1      35.457  20.276  25.001  1.00  0.00     0.047 A 
ATOM     17  C   UNL A   1      34.778  19.113  24.645  1.00  0.00     0.017 A 
ATOM     18  C   UNL A   1      32.817  20.430  24.117  1.00  0.00     0.025 A 
ATOM     19  C   UNL A   1      33.453  19.179  24.190  1.00  0.00     0.056 A 
BRANCH  15  20
ATOM     20  O   UNL A   1      35.625  22.603  25.169  1.00  0.00    -0.496 OA
ATOM     21  C   UNL A   1      37.001  22.363  24.869  1.00  0.00     0.278 C 
ENDBRANCH  15  20
BRANCH  19  22
ATOM     22  C   UNL A   1      32.751  17.924  23.732  1.00  0.00     0.416 C 
ATOM     23  F   UNL A   1      31.779  17.530  24.601  1.00  0.00    -0.166 F 
ATOM     24  F   UNL A   1      32.138  18.077  22.527  1.00  0.00    -0.166 F 
ATOM     25  F   UNL A   1      33.583  16.854  23.596  1.00  0.00    -0.166 F 
ENDBRANCH  19  22
ENDBRANCH   9  14
BRANCH  12  26
ATOM     26  N   UNL A   1      31.948  25.209  21.431  1.00  0.00    -0.399 N 
ATOM     27  H   UNL A   1      31.985  26.183  21.300  1.00  0.00     0.156 HD
ATOM     28  H   UNL A   1      31.828  24.613  20.658  1.00  0.00     0.156 HD
ENDBRANCH  12  26
ENDBRANCH   5   8
ENDBRANCH   3   4
ENDBRANCH   2   3
ENDBRANCH   1   2
BRANCH   1  29
ATOM     29  C   UNL A   1      31.512  30.824  26.016  1.00  0.00     0.002 C 
BRANCH  29  30
ATOM     30  C   UNL A   1      31.343  32.264  26.510  1.00  0.00     0.021 C 
BRANCH  30  31
ATOM     31  C   UNL A   1      32.554  32.814  27.254  1.00  0.00     0.116 C 
BRANCH  31  32
ATOM     32  N   UNL A   1      32.367  34.209  27.625  1.00  0.00    -0.352 N 
ATOM     33  C   UNL A   1      32.976  34.935  28.617  1.00  0.00     0.251 C 
ATOM     34  H   UNL A   1      31.707  34.703  27.086  1.00  0.00     0.163 HD
ATOM     35  O   UNL A   1      32.528  36.027  28.949  1.00  0.00    -0.269 OA
BRANCH  33  36
ATOM     36  C   UNL A   1      34.173  34.392  29.292  1.00  0.00     0.039 A 
ATOM     37  C   UNL A   1      34.021  33.723  30.508  1.00  0.00     0.014 A 
ATOM     38  C   UNL A   1      35.444  34.565  28.736  1.00  0.00     0.014 A 
ATOM     39  C   UNL A   1      35.139  33.180  31.142  1.00  0.00     0.010 A 
ATOM     40  C   UNL A   1      36.548  33.963  29.332  1.00  0.00     0.010 A 
ATOM     41  C   UNL A   1      36.407  33.270  30.543  1.00  0.00    -0.014 A 
BRANCH  41  42
ATOM     42  C   UNL A   1      37.601  32.655  31.176  1.00  0.00     0.031 A 
ATOM     43  C   UNL A   1      38.251  31.454  30.546  1.00  0.00     0.074 A 
ATOM     44  C   UNL A   1      38.066  33.146  32.340  1.00  0.00     0.049 A 
ATOM     45  N   UNL A   1      39.252  30.732  30.982  1.00  0.00    -0.248 NA
ATOM     46  C   UNL A   1      37.688  30.989  29.268  1.00  0.00     0.031 C 
ATOM     47  C   UNL A   1      37.502  34.287  33.065  1.00  0.00     0.029 A 
ATOM     48  N   UNL A   1      39.117  32.742  33.124  1.00  0.00    -0.354 N 
ATOM     49  C   UNL A   1      39.435  29.731  30.036  1.00  0.00     0.074 A 
ATOM     50  C   UNL A   1      38.405  29.901  29.035  1.00  0.00     0.031 C 
ATOM     51  C   UNL A   1      38.229  34.506  34.173  1.00  0.00     0.029 A 
ATOM     52  C   UNL A   1      39.281  33.499  34.260  1.00  0.00     0.049 A 
ATOM     53  H   UNL A   1      39.699  31.982  32.895  1.00  0.00     0.167 HD
ATOM     54  C   UNL A   1      40.394  28.776  29.990  1.00  0.00     0.037 A 
ATOM     55  C   UNL A   1      40.174  33.386  35.260  1.00  0.00     0.037 A 
ATOM     56  C   UNL A   1      41.426  28.617  30.981  1.00  0.00     0.049 A 
ATOM     57  C   UNL A   1      41.202  32.289  35.203  1.00  0.00     0.074 A 
ATOM     58  C   UNL A   1      42.456  27.694  31.012  1.00  0.00     0.029 A 
ATOM     59  N   UNL A   1      41.559  29.405  32.113  1.00  0.00    -0.354 N 
ATOM     60  N   UNL A   1      41.392  31.378  34.279  1.00  0.00    -0.248 NA
ATOM     61  C   UNL A   1      42.143  32.205  36.329  1.00  0.00     0.031 C 
ATOM     62  C   UNL A   1      43.192  27.900  32.184  1.00  0.00     0.029 A 
ATOM     63  C   UNL A   1      42.647  28.981  32.857  1.00  0.00     0.049 A 
ATOM     64  H   UNL A   1      40.968  30.155  32.353  1.00  0.00     0.167 HD
ATOM     65  C   UNL A   1      42.494  30.641  34.693  1.00  0.00     0.074 A 
ATOM     66  C   UNL A   1      42.938  31.217  35.944  1.00  0.00     0.031 C 
ATOM     67  C   UNL A   1      43.087  29.581  34.091  1.00  0.00     0.037 A 
BRANCH  54  68
ATOM     68  C   UNL A   1      40.379  27.836  28.819  1.00  0.00     0.057 A 
ATOM     69  C   UNL A   1      41.128  28.094  27.663  1.00  0.00     0.134 A 
ATOM     70  C   UNL A   1      39.645  26.645  28.860  1.00  0.00     0.134 A 
ATOM     71  F   UNL A   1      41.844  29.224  27.555  1.00  0.00    -0.206 F 
ATOM     72  C   UNL A   1      41.132  27.211  26.583  1.00  0.00     0.040 A 
ATOM     73  C   UNL A   1      39.661  25.741  27.796  1.00  0.00     0.040 A 
ATOM     74  F   UNL A   1      38.909  26.332  29.938  1.00  0.00    -0.206 F 
ATOM     75  C   UNL A   1      40.403  26.026  26.650  1.00  0.00     0.006 A 
ENDBRANCH  54  68
BRANCH  55  76
ATOM     76  C   UNL A   1      40.158  34.342  36.396  1.00  0.00     0.057 A 
ATOM     77  C   UNL A   1      39.364  34.105  37.525  1.00  0.00     0.134 A 
ATOM     78  C   UNL A   1      40.897  35.529  36.369  1.00  0.00     0.134 A 
ATOM     79  F   UNL A   1      38.616  32.994  37.603  1.00  0.00    -0.206 F 
ATOM     80  C   UNL A   1      39.281  35.027  38.570  1.00  0.00     0.040 A 
ATOM     81  C   UNL A   1      40.847  36.448  37.419  1.00  0.00     0.040 A 
ATOM     82  F   UNL A   1      41.684  35.815  35.320  1.00  0.00    -0.206 F 
ATOM     83  C   UNL A   1      40.027  36.202  38.518  1.00  0.00     0.006 A 
ENDBRANCH  55  76
BRANCH  67  84
ATOM     84  C   UNL A   1      44.307  29.011  34.752  1.00  0.00     0.057 A 
ATOM     85  C   UNL A   1      44.230  27.951  35.664  1.00  0.00     0.134 A 
ATOM     86  C   UNL A   1      45.579  29.509  34.442  1.00  0.00     0.134 A 
ATOM     87  F   UNL A   1      43.040  27.439  36.013  1.00  0.00    -0.206 F 
ATOM     88  C   UNL A   1      45.374  27.423  36.265  1.00  0.00     0.040 A 
ATOM     89  C   UNL A   1      46.732  28.971  35.015  1.00  0.00     0.040 A 
ATOM     90  F   UNL A   1      45.723  30.517  33.570  1.00  0.00    -0.206 F 
ATOM     91  C   UNL A   1      46.631  27.929  35.934  1.00  0.00     0.006 A 
ENDBRANCH  67  84
ENDBRANCH  41  42
ENDBRANCH  33  36
ENDBRANCH  31  32
ENDBRANCH  30  31
ENDBRANCH  29  30
ENDBRANCH   1  29
TORSDOF 17
ENDMDL
