MODEL 1
REMARK VINA RESULT:     -10.8      0.000      0.000
REMARK SMILES C[C@H](O)[C@H](NC(=O)N1CC[N@@H+]2CCC[C@@H]2C1)C(=O)NCCCCCCNC(=O)c1ccc(-c2c3nc(c(-c4c(F)cccc4F)c4ccc([nH]4)c(-c4c(F)cccc4F)c4nc(c(-c5c(F)cccc5F)c5ccc2[nH]5)C=C4)C=C3)cc1
REMARK SMILES IDX 22 1 21 2 20 3 19 4 17 5 18 6 4 8 2 9 1 10 3 11 5 13 6 14
REMARK SMILES IDX 7 16 8 17 9 18 16 19 10 20 15 21 11 22 14 23 12 24 13 26
REMARK SMILES IDX 23 27 24 28 25 29 26 30 27 31 28 33 29 34 30 35 82 36 31 37
REMARK SMILES IDX 81 38 32 39 33 40 34 41 75 42 35 43 80 44 74 45 76 46 36 47
REMARK SMILES IDX 79 48 73 49 72 50 37 52 63 53 46 54 62 55 47 56 50 57 61 58
REMARK SMILES IDX 77 59 48 60 49 61 60 63 78 64 51 65 38 66 39 67 44 68 40 69
REMARK SMILES IDX 41 70 43 71 45 72 42 73 64 74 65 75 70 76 66 77 67 78 69 79
REMARK SMILES IDX 71 80 68 81 52 82 53 83 58 84 54 85 55 86 57 87 59 88 56 89
REMARK H PARENT 19 7 3 12 5 15 11 25 26 32 76 51 50 62
REMARK Flexibility Score: inf
ROOT
ATOM      1  C   UNL A   1      36.829  21.876  24.561  1.00  0.00     0.002 C 
ENDROOT
BRANCH   1   2
ATOM      2  C   UNL A   1      36.675  22.861  25.727  1.00  0.00     0.021 C 
BRANCH   2   3
ATOM      3  C   UNL A   1      35.865  24.098  25.348  1.00  0.00     0.116 C 
BRANCH   3   4
ATOM      4  N   UNL A   1      34.542  24.000  25.916  1.00  0.00    -0.354 N 
ATOM      5  C   UNL A   1      33.331  23.912  25.307  1.00  0.00     0.245 C 
ATOM      6  O   UNL A   1      32.330  24.039  26.023  1.00  0.00    -0.273 OA
ATOM      7  H   UNL A   1      34.512  23.999  26.900  1.00  0.00     0.163 HD
BRANCH   5   8
ATOM      8  C   UNL A   1      33.179  23.646  23.789  1.00  0.00     0.201 C 
BRANCH   8   9
ATOM      9  C   UNL A   1      33.303  22.129  23.471  1.00  0.00     0.143 C 
ATOM     10  C   UNL A   1      32.155  21.641  22.572  1.00  0.00     0.041 C 
BRANCH   9  11
ATOM     11  O   UNL A   1      33.227  21.321  24.657  1.00  0.00    -0.391 OA
ATOM     12  H   UNL A   1      34.121  21.052  24.923  1.00  0.00     0.211 HD
ENDBRANCH   9  11
ENDBRANCH   8   9
BRANCH   8  13
ATOM     13  N   UNL A   1      33.857  24.670  22.944  1.00  0.00    -0.324 N 
ATOM     14  C   UNL A   1      33.354  25.788  22.361  1.00  0.00     0.318 C 
ATOM     15  H   UNL A   1      34.816  24.512  22.786  1.00  0.00     0.166 HD
ATOM     16  O   UNL A   1      33.329  25.837  21.132  1.00  0.00    -0.249 OA
BRANCH  14  17
ATOM     17  N   UNL A   1      32.899  26.807  23.153  1.00  0.00    -0.313 N 
ATOM     18  C   UNL A   1      31.496  27.185  23.206  1.00  0.00     0.183 C 
ATOM     19  C   UNL A   1      33.791  27.407  24.137  1.00  0.00     0.186 C 
ATOM     20  C   UNL A   1      31.046  28.122  24.341  1.00  0.00     0.284 C 
ATOM     21  C   UNL A   1      33.166  27.582  25.530  1.00  0.00     0.204 C 
ATOM     22  N   UNL A   1      31.801  28.129  25.586  1.00  0.00    -0.330 N 
ATOM     23  C   UNL A   1      34.012  28.521  26.402  1.00  0.00     0.073 C 
ATOM     24  C   UNL A   1      31.851  29.455  26.205  1.00  0.00     0.262 C 
ATOM     25  H   UNL A   1      31.260  27.483  26.161  1.00  0.00     0.348 HD
ATOM     26  C   UNL A   1      32.995  29.331  27.187  1.00  0.00     0.068 C 
ENDBRANCH  14  17
ENDBRANCH   8  13
ENDBRANCH   5   8
ENDBRANCH   3   4
ENDBRANCH   2   3
ENDBRANCH   1   2
BRANCH   1  27
ATOM     27  C   UNL A   1      36.650  20.405  24.952  1.00  0.00     0.002 C 
BRANCH  27  28
ATOM     28  C   UNL A   1      37.930  19.569  24.890  1.00  0.00     0.021 C 
BRANCH  28  29
ATOM     29  C   UNL A   1      39.074  20.108  25.744  1.00  0.00     0.116 C 
BRANCH  29  30
ATOM     30  N   UNL A   1      40.187  19.175  25.805  1.00  0.00    -0.352 N 
ATOM     31  C   UNL A   1      41.511  19.407  26.071  1.00  0.00     0.251 C 
ATOM     32  H   UNL A   1      39.955  18.235  25.631  1.00  0.00     0.163 HD
ATOM     33  O   UNL A   1      42.340  18.527  25.868  1.00  0.00    -0.269 OA
BRANCH  31  34
ATOM     34  C   UNL A   1      41.945  20.725  26.581  1.00  0.00     0.039 A 
ATOM     35  C   UNL A   1      42.379  21.684  25.663  1.00  0.00     0.014 A 
ATOM     36  C   UNL A   1      41.949  21.009  27.950  1.00  0.00     0.014 A 
ATOM     37  C   UNL A   1      42.768  22.945  26.115  1.00  0.00     0.010 A 
ATOM     38  C   UNL A   1      42.266  22.291  28.392  1.00  0.00     0.010 A 
ATOM     39  C   UNL A   1      42.684  23.270  27.480  1.00  0.00    -0.014 A 
BRANCH  39  40
ATOM     40  C   UNL A   1      43.007  24.642  27.944  1.00  0.00     0.031 A 
ATOM     41  C   UNL A   1      44.434  25.069  28.152  1.00  0.00     0.074 A 
ATOM     42  C   UNL A   1      42.002  25.498  28.207  1.00  0.00     0.049 A 
ATOM     43  N   UNL A   1      44.899  26.235  28.526  1.00  0.00    -0.248 NA
ATOM     44  C   UNL A   1      45.472  24.051  27.934  1.00  0.00     0.031 C 
ATOM     45  C   UNL A   1      40.575  25.182  28.105  1.00  0.00     0.029 A 
ATOM     46  N   UNL A   1      42.023  26.810  28.609  1.00  0.00    -0.354 N 
ATOM     47  C   UNL A   1      46.278  26.090  28.591  1.00  0.00     0.074 A 
ATOM     48  C   UNL A   1      46.572  24.708  28.274  1.00  0.00     0.031 C 
ATOM     49  C   UNL A   1      39.859  26.279  28.398  1.00  0.00     0.029 A 
ATOM     50  C   UNL A   1      40.772  27.363  28.742  1.00  0.00     0.049 A 
ATOM     51  H   UNL A   1      42.853  27.306  28.786  1.00  0.00     0.167 HD
ATOM     52  C   UNL A   1      47.217  27.027  28.867  1.00  0.00     0.037 A 
ATOM     53  C   UNL A   1      40.403  28.608  29.098  1.00  0.00     0.037 A 
ATOM     54  C   UNL A   1      46.921  28.404  29.171  1.00  0.00     0.049 A 
ATOM     55  C   UNL A   1      41.464  29.631  29.391  1.00  0.00     0.074 A 
ATOM     56  C   UNL A   1      47.803  29.444  29.403  1.00  0.00     0.029 A 
ATOM     57  N   UNL A   1      45.644  28.930  29.291  1.00  0.00    -0.354 N 
ATOM     58  N   UNL A   1      42.769  29.500  29.366  1.00  0.00    -0.248 NA
ATOM     59  C   UNL A   1      41.001  30.977  29.751  1.00  0.00     0.031 C 
ATOM     60  C   UNL A   1      47.060  30.588  29.716  1.00  0.00     0.029 A 
ATOM     61  C   UNL A   1      45.714  30.275  29.622  1.00  0.00     0.049 A 
ATOM     62  H   UNL A   1      44.809  28.423  29.161  1.00  0.00     0.167 HD
ATOM     63  C   UNL A   1      43.281  30.750  29.685  1.00  0.00     0.074 A 
ATOM     64  C   UNL A   1      42.146  31.631  29.872  1.00  0.00     0.031 C 
ATOM     65  C   UNL A   1      44.575  31.136  29.816  1.00  0.00     0.037 A 
BRANCH  52  66
ATOM     66  C   UNL A   1      48.655  26.595  28.849  1.00  0.00     0.057 A 
ATOM     67  C   UNL A   1      49.309  26.146  30.005  1.00  0.00     0.134 A 
ATOM     68  C   UNL A   1      49.386  26.588  27.654  1.00  0.00     0.134 A 
ATOM     69  F   UNL A   1      48.671  26.135  31.186  1.00  0.00    -0.206 F 
ATOM     70  C   UNL A   1      50.641  25.731  29.979  1.00  0.00     0.040 A 
ATOM     71  C   UNL A   1      50.710  26.149  27.609  1.00  0.00     0.040 A 
ATOM     72  F   UNL A   1      48.822  26.999  26.508  1.00  0.00    -0.206 F 
ATOM     73  C   UNL A   1      51.344  25.725  28.776  1.00  0.00     0.006 A 
ENDBRANCH  52  66
BRANCH  53  74
ATOM     74  C   UNL A   1      38.963  28.964  29.170  1.00  0.00     0.057 A 
ATOM     75  C   UNL A   1      38.293  29.497  28.062  1.00  0.00     0.134 A 
ATOM     76  C   UNL A   1      38.226  28.790  30.346  1.00  0.00     0.134 A 
ATOM     77  F   UNL A   1      38.950  29.703  26.910  1.00  0.00    -0.206 F 
ATOM     78  C   UNL A   1      36.949  29.867  28.128  1.00  0.00     0.040 A 
ATOM     79  C   UNL A   1      36.874  29.130  30.419  1.00  0.00     0.040 A 
ATOM     80  F   UNL A   1      38.806  28.274  31.440  1.00  0.00    -0.206 F 
ATOM     81  C   UNL A   1      36.235  29.679  29.309  1.00  0.00     0.006 A 
ENDBRANCH  53  74
BRANCH  65  82
ATOM     82  C   UNL A   1      44.822  32.577  30.160  1.00  0.00     0.057 A 
ATOM     83  C   UNL A   1      44.929  33.566  29.174  1.00  0.00     0.134 A 
ATOM     84  C   UNL A   1      44.953  32.981  31.495  1.00  0.00     0.134 A 
ATOM     85  F   UNL A   1      44.826  33.245  27.874  1.00  0.00    -0.206 F 
ATOM     86  C   UNL A   1      45.198  34.897  29.500  1.00  0.00     0.040 A 
ATOM     87  C   UNL A   1      45.190  34.314  31.835  1.00  0.00     0.040 A 
ATOM     88  F   UNL A   1      44.851  32.088  32.491  1.00  0.00    -0.206 F 
ATOM     89  C   UNL A   1      45.325  35.274  30.834  1.00  0.00     0.006 A 
ENDBRANCH  65  82
ENDBRANCH  39  40
ENDBRANCH  31  34
ENDBRANCH  29  30
ENDBRANCH  28  29
ENDBRANCH  27  28
ENDBRANCH   1  27
TORSDOF 17
ENDMDL
MODEL 2
REMARK VINA RESULT:     -10.7      1.249      2.156
REMARK SMILES C[C@H](O)[C@H](NC(=O)N1CC[N@@H+]2CCC[C@@H]2C1)C(=O)NCCCCCCNC(=O)c1ccc(-c2c3nc(c(-c4c(F)cccc4F)c4ccc([nH]4)c(-c4c(F)cccc4F)c4nc(c(-c5c(F)cccc5F)c5ccc2[nH]5)C=C4)C=C3)cc1
REMARK SMILES IDX 22 1 21 2 20 3 19 4 17 5 18 6 4 8 2 9 1 10 3 11 5 13 6 14
REMARK SMILES IDX 7 16 8 17 9 18 16 19 10 20 15 21 11 22 14 23 12 24 13 26
REMARK SMILES IDX 23 27 24 28 25 29 26 30 27 31 28 33 29 34 30 35 82 36 31 37
REMARK SMILES IDX 81 38 32 39 33 40 34 41 75 42 35 43 80 44 74 45 76 46 36 47
REMARK SMILES IDX 79 48 73 49 72 50 37 52 63 53 46 54 62 55 47 56 50 57 61 58
REMARK SMILES IDX 77 59 48 60 49 61 60 63 78 64 51 65 38 66 39 67 44 68 40 69
REMARK SMILES IDX 41 70 43 71 45 72 42 73 64 74 65 75 70 76 66 77 67 78 69 79
REMARK SMILES IDX 71 80 68 81 52 82 53 83 58 84 54 85 55 86 57 87 59 88 56 89
REMARK H PARENT 19 7 3 12 5 15 11 25 26 32 76 51 50 62
REMARK Flexibility Score: inf
ROOT
ATOM      1  C   UNL A   1      37.047  21.871  25.568  1.00  0.00     0.002 C 
ENDROOT
BRANCH   1   2
ATOM      2  C   UNL A   1      36.768  23.094  24.684  1.00  0.00     0.021 C 
BRANCH   2   3
ATOM      3  C   UNL A   1      35.411  23.729  24.973  1.00  0.00     0.116 C 
BRANCH   3   4
ATOM      4  N   UNL A   1      34.466  23.332  23.957  1.00  0.00    -0.354 N 
ATOM      5  C   UNL A   1      33.437  22.447  24.014  1.00  0.00     0.245 C 
ATOM      6  O   UNL A   1      32.899  22.140  22.943  1.00  0.00    -0.273 OA
ATOM      7  H   UNL A   1      34.587  23.771  23.084  1.00  0.00     0.163 HD
BRANCH   5   8
ATOM      8  C   UNL A   1      32.927  21.848  25.347  1.00  0.00     0.201 C 
BRANCH   8   9
ATOM      9  C   UNL A   1      33.387  20.372  25.511  1.00  0.00     0.143 C 
ATOM     10  C   UNL A   1      32.502  19.408  24.704  1.00  0.00     0.041 C 
BRANCH   9  11
ATOM     11  O   UNL A   1      33.291  19.926  26.874  1.00  0.00    -0.391 OA
ATOM     12  H   UNL A   1      32.832  19.071  26.902  1.00  0.00     0.211 HD
ENDBRANCH   9  11
ENDBRANCH   8   9
BRANCH   8  13
ATOM     13  N   UNL A   1      31.535  22.265  25.683  1.00  0.00    -0.324 N 
ATOM     14  C   UNL A   1      31.084  23.415  26.245  1.00  0.00     0.318 C 
ATOM     15  H   UNL A   1      30.839  21.606  25.462  1.00  0.00     0.166 HD
ATOM     16  O   UNL A   1      30.561  23.348  27.357  1.00  0.00    -0.249 OA
BRANCH  14  17
ATOM     17  N   UNL A   1      31.224  24.592  25.561  1.00  0.00    -0.313 N 
ATOM     18  C   UNL A   1      30.589  24.826  24.275  1.00  0.00     0.183 C 
ATOM     19  C   UNL A   1      31.850  25.734  26.216  1.00  0.00     0.186 C 
ATOM     20  C   UNL A   1      30.554  26.270  23.743  1.00  0.00     0.284 C 
ATOM     21  C   UNL A   1      31.086  27.056  26.045  1.00  0.00     0.204 C 
ATOM     22  N   UNL A   1      30.590  27.371  24.696  1.00  0.00    -0.330 N 
ATOM     23  C   UNL A   1      31.957  28.256  26.442  1.00  0.00     0.073 C 
ATOM     24  C   UNL A   1      31.320  28.532  24.185  1.00  0.00     0.262 C 
ATOM     25  H   UNL A   1      29.598  27.586  24.801  1.00  0.00     0.348 HD
ATOM     26  C   UNL A   1      31.603  29.335  25.435  1.00  0.00     0.068 C 
ENDBRANCH  14  17
ENDBRANCH   8  13
ENDBRANCH   5   8
ENDBRANCH   3   4
ENDBRANCH   2   3
ENDBRANCH   1   2
BRANCH   1  27
ATOM     27  C   UNL A   1      36.830  20.526  24.866  1.00  0.00     0.002 C 
BRANCH  27  28
ATOM     28  C   UNL A   1      38.032  19.581  24.916  1.00  0.00     0.021 C 
BRANCH  28  29
ATOM     29  C   UNL A   1      39.137  20.020  25.871  1.00  0.00     0.116 C 
BRANCH  29  30
ATOM     30  N   UNL A   1      40.240  19.073  25.893  1.00  0.00    -0.352 N 
ATOM     31  C   UNL A   1      41.581  19.294  26.066  1.00  0.00     0.251 C 
ATOM     32  H   UNL A   1      39.984  18.132  25.766  1.00  0.00     0.163 HD
ATOM     33  O   UNL A   1      42.384  18.395  25.841  1.00  0.00    -0.269 OA
BRANCH  31  34
ATOM     34  C   UNL A   1      42.064  20.620  26.502  1.00  0.00     0.039 A 
ATOM     35  C   UNL A   1      42.429  21.550  25.526  1.00  0.00     0.014 A 
ATOM     36  C   UNL A   1      42.182  20.942  27.858  1.00  0.00     0.014 A 
ATOM     37  C   UNL A   1      42.862  22.819  25.909  1.00  0.00     0.010 A 
ATOM     38  C   UNL A   1      42.542  22.233  28.237  1.00  0.00     0.010 A 
ATOM     39  C   UNL A   1      42.891  23.183  27.266  1.00  0.00    -0.014 A 
BRANCH  39  40
ATOM     40  C   UNL A   1      43.261  24.564  27.664  1.00  0.00     0.031 A 
ATOM     41  C   UNL A   1      44.696  25.012  27.648  1.00  0.00     0.074 A 
ATOM     42  C   UNL A   1      42.294  25.409  28.069  1.00  0.00     0.049 A 
ATOM     43  N   UNL A   1      45.195  26.188  27.938  1.00  0.00    -0.248 NA
ATOM     44  C   UNL A   1      45.704  24.006  27.284  1.00  0.00     0.031 C 
ATOM     45  C   UNL A   1      40.873  25.073  28.188  1.00  0.00     0.029 A 
ATOM     46  N   UNL A   1      42.356  26.725  28.452  1.00  0.00    -0.354 N 
ATOM     47  C   UNL A   1      46.570  26.062  27.793  1.00  0.00     0.074 A 
ATOM     48  C   UNL A   1      46.833  24.681  27.447  1.00  0.00     0.031 C 
ATOM     49  C   UNL A   1      40.194  26.163  28.578  1.00  0.00     0.029 A 
ATOM     50  C   UNL A   1      41.133  27.263  28.769  1.00  0.00     0.049 A 
ATOM     51  H   UNL A   1      43.197  27.234  28.497  1.00  0.00     0.167 HD
ATOM     52  C   UNL A   1      47.526  27.015  27.915  1.00  0.00     0.037 A 
ATOM     53  C   UNL A   1      40.803  28.507  29.166  1.00  0.00     0.037 A 
ATOM     54  C   UNL A   1      47.259  28.391  28.248  1.00  0.00     0.049 A 
ATOM     55  C   UNL A   1      41.882  29.547  29.286  1.00  0.00     0.074 A 
ATOM     56  C   UNL A   1      48.151  29.446  28.335  1.00  0.00     0.029 A 
ATOM     57  N   UNL A   1      46.007  28.902  28.557  1.00  0.00    -0.354 N 
ATOM     58  N   UNL A   1      43.169  29.434  29.063  1.00  0.00    -0.248 NA
ATOM     59  C   UNL A   1      41.458  30.890  29.701  1.00  0.00     0.031 C 
ATOM     60  C   UNL A   1      47.447  30.583  28.747  1.00  0.00     0.029 A 
ATOM     61  C   UNL A   1      46.107  30.251  28.862  1.00  0.00     0.049 A 
ATOM     62  H   UNL A   1      45.170  28.382  28.560  1.00  0.00     0.167 HD
ATOM     63  C   UNL A   1      43.705  30.694  29.291  1.00  0.00     0.074 A 
ATOM     64  C   UNL A   1      42.599  31.561  29.640  1.00  0.00     0.031 C 
ATOM     65  C   UNL A   1      44.998  31.098  29.220  1.00  0.00     0.037 A 
BRANCH  52  66
ATOM     66  C   UNL A   1      48.951  26.602  27.683  1.00  0.00     0.057 A 
ATOM     67  C   UNL A   1      49.780  26.177  28.730  1.00  0.00     0.134 A 
ATOM     68  C   UNL A   1      49.491  26.590  26.390  1.00  0.00     0.134 A 
ATOM     69  F   UNL A   1      49.330  26.174  29.994  1.00  0.00    -0.206 F 
ATOM     70  C   UNL A   1      51.099  25.781  28.504  1.00  0.00     0.040 A 
ATOM     71  C   UNL A   1      50.800  26.168  26.148  1.00  0.00     0.040 A 
ATOM     72  F   UNL A   1      48.753  26.977  25.339  1.00  0.00    -0.206 F 
ATOM     73  C   UNL A   1      51.611  25.768  27.209  1.00  0.00     0.006 A 
ENDBRANCH  52  66
BRANCH  53  74
ATOM     74  C   UNL A   1      39.386  28.844  29.453  1.00  0.00     0.057 A 
ATOM     75  C   UNL A   1      38.841  28.657  30.730  1.00  0.00     0.134 A 
ATOM     76  C   UNL A   1      38.541  29.350  28.460  1.00  0.00     0.134 A 
ATOM     77  F   UNL A   1      39.597  28.159  31.720  1.00  0.00    -0.206 F 
ATOM     78  C   UNL A   1      37.502  28.938  31.001  1.00  0.00     0.040 A 
ATOM     79  C   UNL A   1      37.206  29.662  28.724  1.00  0.00     0.040 A 
ATOM     80  F   UNL A   1      39.003  29.563  27.219  1.00  0.00    -0.206 F 
ATOM     81  C   UNL A   1      36.681  29.447  29.997  1.00  0.00     0.006 A 
ENDBRANCH  53  74
BRANCH  65  82
ATOM     82  C   UNL A   1      45.273  32.546  29.510  1.00  0.00     0.057 A 
ATOM     83  C   UNL A   1      45.542  33.004  30.806  1.00  0.00     0.134 A 
ATOM     84  C   UNL A   1      45.269  33.494  28.480  1.00  0.00     0.134 A 
ATOM     85  F   UNL A   1      45.547  32.149  31.842  1.00  0.00    -0.206 F 
ATOM     86  C   UNL A   1      45.757  34.357  31.073  1.00  0.00     0.040 A 
ATOM     87  C   UNL A   1      45.515  34.846  28.729  1.00  0.00     0.040 A 
ATOM     88  F   UNL A   1      45.029  33.125  27.212  1.00  0.00    -0.206 F 
ATOM     89  C   UNL A   1      45.748  35.281  30.031  1.00  0.00     0.006 A 
ENDBRANCH  65  82
ENDBRANCH  39  40
ENDBRANCH  31  34
ENDBRANCH  29  30
ENDBRANCH  28  29
ENDBRANCH  27  28
ENDBRANCH   1  27
TORSDOF 17
ENDMDL
MODEL 3
REMARK VINA RESULT:     -10.7      1.274      1.974
REMARK SMILES C[C@H](O)[C@H](NC(=O)N1CC[N@@H+]2CCC[C@@H]2C1)C(=O)NCCCCCCNC(=O)c1ccc(-c2c3nc(c(-c4c(F)cccc4F)c4ccc([nH]4)c(-c4c(F)cccc4F)c4nc(c(-c5c(F)cccc5F)c5ccc2[nH]5)C=C4)C=C3)cc1
REMARK SMILES IDX 22 1 21 2 20 3 19 4 17 5 18 6 4 8 2 9 1 10 3 11 5 13 6 14
REMARK SMILES IDX 7 16 8 17 9 18 16 19 10 20 15 21 11 22 14 23 12 24 13 26
REMARK SMILES IDX 23 27 24 28 25 29 26 30 27 31 28 33 29 34 30 35 82 36 31 37
REMARK SMILES IDX 81 38 32 39 33 40 34 41 75 42 35 43 80 44 74 45 76 46 36 47
REMARK SMILES IDX 79 48 73 49 72 50 37 52 63 53 46 54 62 55 47 56 50 57 61 58
REMARK SMILES IDX 77 59 48 60 49 61 60 63 78 64 51 65 38 66 39 67 44 68 40 69
REMARK SMILES IDX 41 70 43 71 45 72 42 73 64 74 65 75 70 76 66 77 67 78 69 79
REMARK SMILES IDX 71 80 68 81 52 82 53 83 58 84 54 85 55 86 57 87 59 88 56 89
REMARK H PARENT 19 7 3 12 5 15 11 25 26 32 76 51 50 62
REMARK Flexibility Score: inf
ROOT
ATOM      1  C   UNL A   1      37.589  23.422  25.425  1.00  0.00     0.002 C 
ENDROOT
BRANCH   1   2
ATOM      2  C   UNL A   1      36.598  22.697  24.505  1.00  0.00     0.021 C 
BRANCH   2   3
ATOM      3  C   UNL A   1      35.420  23.579  24.100  1.00  0.00     0.116 C 
BRANCH   3   4
ATOM      4  N   UNL A   1      34.406  22.771  23.468  1.00  0.00    -0.354 N 
ATOM      5  C   UNL A   1      33.352  22.104  24.009  1.00  0.00     0.245 C 
ATOM      6  O   UNL A   1      32.744  21.319  23.272  1.00  0.00    -0.273 OA
ATOM      7  H   UNL A   1      34.491  22.687  22.491  1.00  0.00     0.163 HD
BRANCH   5   8
ATOM      8  C   UNL A   1      32.901  22.312  25.475  1.00  0.00     0.201 C 
BRANCH   8   9
ATOM      9  C   UNL A   1      33.459  21.191  26.398  1.00  0.00     0.143 C 
ATOM     10  C   UNL A   1      34.329  21.767  27.528  1.00  0.00     0.041 C 
BRANCH   9  11
ATOM     11  O   UNL A   1      34.315  20.283  25.685  1.00  0.00    -0.391 OA
ATOM     12  H   UNL A   1      34.207  20.420  24.730  1.00  0.00     0.211 HD
ENDBRANCH   9  11
ENDBRANCH   8   9
BRANCH   8  13
ATOM     13  N   UNL A   1      31.489  22.777  25.594  1.00  0.00    -0.324 N 
ATOM     14  C   UNL A   1      30.987  23.888  26.190  1.00  0.00     0.318 C 
ATOM     15  H   UNL A   1      30.820  22.189  25.175  1.00  0.00     0.166 HD
ATOM     16  O   UNL A   1      30.260  23.738  27.172  1.00  0.00    -0.249 OA
BRANCH  14  17
ATOM     17  N   UNL A   1      31.304  25.119  25.683  1.00  0.00    -0.313 N 
ATOM     18  C   UNL A   1      30.379  25.884  24.862  1.00  0.00     0.183 C 
ATOM     19  C   UNL A   1      32.512  25.795  26.136  1.00  0.00     0.186 C 
ATOM     20  C   UNL A   1      30.705  27.365  24.602  1.00  0.00     0.284 C 
ATOM     21  C   UNL A   1      32.308  27.272  26.505  1.00  0.00     0.204 C 
ATOM     22  N   UNL A   1      31.509  28.089  25.577  1.00  0.00    -0.330 N 
ATOM     23  C   UNL A   1      33.652  28.004  26.629  1.00  0.00     0.073 C 
ATOM     24  C   UNL A   1      32.383  29.085  24.956  1.00  0.00     0.262 C 
ATOM     25  H   UNL A   1      30.792  28.541  26.144  1.00  0.00     0.348 HD
ATOM     26  C   UNL A   1      33.392  29.381  26.044  1.00  0.00     0.068 C 
ENDBRANCH  14  17
ENDBRANCH   8  13
ENDBRANCH   5   8
ENDBRANCH   3   4
ENDBRANCH   2   3
ENDBRANCH   1   2
BRANCH   1  27
ATOM     27  C   UNL A   1      38.602  22.498  26.109  1.00  0.00     0.002 C 
BRANCH  27  28
ATOM     28  C   UNL A   1      38.898  21.203  25.349  1.00  0.00     0.021 C 
BRANCH  28  29
ATOM     29  C   UNL A   1      39.144  19.992  26.244  1.00  0.00     0.116 C 
BRANCH  29  30
ATOM     30  N   UNL A   1      40.350  19.275  25.862  1.00  0.00    -0.352 N 
ATOM     31  C   UNL A   1      41.652  19.702  25.834  1.00  0.00     0.251 C 
ATOM     32  H   UNL A   1      40.210  18.343  25.582  1.00  0.00     0.163 HD
ATOM     33  O   UNL A   1      42.508  19.023  25.280  1.00  0.00    -0.269 OA
BRANCH  31  34
ATOM     34  C   UNL A   1      42.022  20.992  26.454  1.00  0.00     0.039 A 
ATOM     35  C   UNL A   1      42.432  22.036  25.622  1.00  0.00     0.014 A 
ATOM     36  C   UNL A   1      41.991  21.168  27.841  1.00  0.00     0.014 A 
ATOM     37  C   UNL A   1      42.761  23.272  26.178  1.00  0.00     0.010 A 
ATOM     38  C   UNL A   1      42.247  22.423  28.388  1.00  0.00     0.010 A 
ATOM     39  C   UNL A   1      42.640  23.486  27.562  1.00  0.00    -0.014 A 
BRANCH  39  40
ATOM     40  C   UNL A   1      42.899  24.830  28.138  1.00  0.00     0.031 A 
ATOM     41  C   UNL A   1      44.285  25.235  28.556  1.00  0.00     0.074 A 
ATOM     42  C   UNL A   1      41.867  25.678  28.310  1.00  0.00     0.049 A 
ATOM     43  N   UNL A   1      44.696  26.376  29.051  1.00  0.00    -0.248 NA
ATOM     44  C   UNL A   1      45.343  24.222  28.424  1.00  0.00     0.031 C 
ATOM     45  C   UNL A   1      40.466  25.378  28.002  1.00  0.00     0.029 A 
ATOM     46  N   UNL A   1      41.834  26.966  28.781  1.00  0.00    -0.354 N 
ATOM     47  C   UNL A   1      46.055  26.218  29.291  1.00  0.00     0.074 A 
ATOM     48  C   UNL A   1      46.388  24.853  28.942  1.00  0.00     0.031 C 
ATOM     49  C   UNL A   1      39.718  26.463  28.256  1.00  0.00     0.029 A 
ATOM     50  C   UNL A   1      40.577  27.520  28.776  1.00  0.00     0.049 A 
ATOM     51  H   UNL A   1      42.634  27.446  29.093  1.00  0.00     0.167 HD
ATOM     52  C   UNL A   1      46.948  27.132  29.738  1.00  0.00     0.037 A 
ATOM     53  C   UNL A   1      40.164  28.747  29.145  1.00  0.00     0.037 A 
ATOM     54  C   UNL A   1      46.614  28.493  30.073  1.00  0.00     0.049 A 
ATOM     55  C   UNL A   1      41.177  29.746  29.631  1.00  0.00     0.074 A 
ATOM     56  C   UNL A   1      47.458  29.514  30.476  1.00  0.00     0.029 A 
ATOM     57  N   UNL A   1      45.333  29.022  30.050  1.00  0.00    -0.354 N 
ATOM     58  N   UNL A   1      42.474  29.607  29.773  1.00  0.00    -0.248 NA
ATOM     59  C   UNL A   1      40.669  31.074  29.998  1.00  0.00     0.031 C 
ATOM     60  C   UNL A   1      46.680  30.645  30.747  1.00  0.00     0.029 A 
ATOM     61  C   UNL A   1      45.358  30.347  30.459  1.00  0.00     0.049 A 
ATOM     62  H   UNL A   1      44.523  28.528  29.784  1.00  0.00     0.167 HD
ATOM     63  C   UNL A   1      42.938  30.835  30.224  1.00  0.00     0.074 A 
ATOM     64  C   UNL A   1      41.789  31.713  30.305  1.00  0.00     0.031 C 
ATOM     65  C   UNL A   1      44.203  31.204  30.546  1.00  0.00     0.037 A 
BRANCH  52  66
ATOM     66  C   UNL A   1      48.376  26.691  29.889  1.00  0.00     0.057 A 
ATOM     67  C   UNL A   1      49.316  26.859  28.863  1.00  0.00     0.134 A 
ATOM     68  C   UNL A   1      48.828  26.128  31.089  1.00  0.00     0.134 A 
ATOM     69  F   UNL A   1      48.948  27.383  27.683  1.00  0.00    -0.206 F 
ATOM     70  C   UNL A   1      50.645  26.461  29.016  1.00  0.00     0.040 A 
ATOM     71  C   UNL A   1      50.161  25.752  31.264  1.00  0.00     0.040 A 
ATOM     72  F   UNL A   1      47.985  25.943  32.116  1.00  0.00    -0.206 F 
ATOM     73  C   UNL A   1      51.073  25.912  30.222  1.00  0.00     0.006 A 
ENDBRANCH  52  66
BRANCH  53  74
ATOM     74  C   UNL A   1      38.727  29.109  29.044  1.00  0.00     0.057 A 
ATOM     75  C   UNL A   1      38.181  29.572  27.841  1.00  0.00     0.134 A 
ATOM     76  C   UNL A   1      37.871  29.011  30.146  1.00  0.00     0.134 A 
ATOM     77  F   UNL A   1      38.955  29.704  26.754  1.00  0.00    -0.206 F 
ATOM     78  C   UNL A   1      36.840  29.948  27.744  1.00  0.00     0.040 A 
ATOM     79  C   UNL A   1      36.521  29.357  30.055  1.00  0.00     0.040 A 
ATOM     80  F   UNL A   1      38.329  28.564  31.324  1.00  0.00    -0.206 F 
ATOM     81  C   UNL A   1      36.005  29.836  28.853  1.00  0.00     0.006 A 
ENDBRANCH  53  74
BRANCH  65  82
ATOM     82  C   UNL A   1      44.402  32.623  30.996  1.00  0.00     0.057 A 
ATOM     83  C   UNL A   1      44.659  33.659  30.088  1.00  0.00     0.134 A 
ATOM     84  C   UNL A   1      44.335  32.958  32.354  1.00  0.00     0.134 A 
ATOM     85  F   UNL A   1      44.750  33.404  28.773  1.00  0.00    -0.206 F 
ATOM     86  C   UNL A   1      44.883  34.968  30.518  1.00  0.00     0.040 A 
ATOM     87  C   UNL A   1      44.524  34.270  32.794  1.00  0.00     0.040 A 
ATOM     88  F   UNL A   1      44.082  32.018  33.277  1.00  0.00    -0.206 F 
ATOM     89  C   UNL A   1      44.811  35.277  31.874  1.00  0.00     0.006 A 
ENDBRANCH  65  82
ENDBRANCH  39  40
ENDBRANCH  31  34
ENDBRANCH  29  30
ENDBRANCH  28  29
ENDBRANCH  27  28
ENDBRANCH   1  27
TORSDOF 17
ENDMDL
