MODEL 1
REMARK VINA RESULT:     -13.2      0.000      0.000
REMARK SMILES Cc1c(Cl)cccc1NC(=O)C[C@](C)(C(=O)NCCCCCCNC(=O)c1ccc(-c2c3nc(c(-c4c(F)cccc4F)c4ccc([nH]4)c(-c4c(F)cccc4F)c4nc(c(-c5c(F)cccc5F)c5ccc2[nH]5)C=C4)C=C3)cc1)c1ccccc1
REMARK SMILES IDX 20 1 19 2 18 3 17 4 15 5 16 6 13 8 14 9 12 10 10 11 9 12
REMARK SMILES IDX 11 14 8 15 1 16 2 17 3 18 4 19 5 20 7 21 6 22 81 23 82 24
REMARK SMILES IDX 86 25 83 26 85 27 84 28 21 29 22 30 23 31 24 32 25 33 26 35
REMARK SMILES IDX 27 36 28 37 80 38 29 39 79 40 30 41 31 42 32 43 73 44 33 45
REMARK SMILES IDX 78 46 72 47 74 48 34 49 77 50 71 51 70 52 35 54 61 55 44 56
REMARK SMILES IDX 60 57 45 58 48 59 59 60 75 61 46 62 47 63 58 65 76 66 49 67
REMARK SMILES IDX 36 68 37 69 42 70 38 71 39 72 41 73 43 74 40 75 62 76 63 77
REMARK SMILES IDX 68 78 64 79 65 80 67 81 69 82 66 83 50 84 51 85 56 86 52 87
REMARK SMILES IDX 53 88 55 89 57 90 54 91
REMARK H PARENT 17 7 9 13 24 34 74 53 48 64
REMARK Flexibility Score: inf
ROOT
ATOM      1  C   UNL A   1      33.114  30.232  27.326  1.00  0.00     0.002 C 
ENDROOT
BRANCH   1   2
ATOM      2  C   UNL A   1      33.233  28.712  27.479  1.00  0.00     0.021 C 
BRANCH   2   3
ATOM      3  C   UNL A   1      34.256  28.001  26.325  1.00  0.00     0.116 C 
BRANCH   3   4
ATOM      4  N   UNL A   1      33.965  27.503  24.315  1.00  0.00    -0.355 N 
ATOM      5  C   UNL A   1      33.193  27.072  23.199  1.00  0.00     0.230 C 
ATOM      6  O   UNL A   1      33.928  27.080  22.194  1.00  0.00    -0.274 OA
ATOM      7  H   UNL A   1      34.856  27.647  23.922  1.00  0.00     0.163 HD
BRANCH   5   8
ATOM      8  C   UNL A   1      31.667  26.554  23.078  1.00  0.00     0.080 C 
ATOM      9  C   UNL A   1      31.430  26.126  21.580  1.00  0.00     0.027 C 
BRANCH   8  10
ATOM     10  C   UNL A   1      31.227  25.437  24.089  1.00  0.00     0.121 C 
BRANCH  10  11
ATOM     11  C   UNL A   1      31.611  25.546  25.551  1.00  0.00     0.225 C 
ATOM     12  N   UNL A   1      32.475  24.655  26.115  1.00  0.00    -0.326 N 
ATOM     13  H   UNL A   1      32.420  24.496  27.085  1.00  0.00     0.169 HD
ATOM     14  O   UNL A   1      31.117  26.411  26.278  1.00  0.00    -0.275 OA
BRANCH  12  15
ATOM     15  C   UNL A   1      33.431  23.957  25.383  1.00  0.00     0.045 A 
ATOM     16  C   UNL A   1      31.610  21.774  24.930  1.00  0.00     0.048 C 
ATOM     17  C   UNL A   1      33.033  22.201  25.162  1.00  0.00    -0.009 A 
ATOM     18  C   UNL A   1      34.356  21.032  24.819  1.00  0.00     0.046 A 
ATOM     19  Cl  UNL A   1      34.007  19.356  24.624  1.00  0.00    -0.084 Cl
ATOM     20  C   UNL A   1      36.078  21.568  24.816  1.00  0.00     0.021 A 
ATOM     21  C   UNL A   1      35.161  24.549  25.258  1.00  0.00     0.026 A 
ATOM     22  C   UNL A   1      36.487  23.330  24.981  1.00  0.00     0.004 A 
ENDBRANCH  12  15
ENDBRANCH  10  11
ENDBRANCH   8  10
BRANCH   8  23
ATOM     23  C   UNL A   1      30.557  27.671  23.247  1.00  0.00    -0.032 A 
ATOM     24  C   UNL A   1      29.192  27.276  23.172  1.00  0.00     0.005 A 
ATOM     25  C   UNL A   1      30.805  29.033  23.435  1.00  0.00     0.005 A 
ATOM     26  C   UNL A   1      28.151  28.197  23.126  1.00  0.00     0.000 A 
ATOM     27  C   UNL A   1      29.756  29.961  23.400  1.00  0.00     0.000 A 
ATOM     28  C   UNL A   1      28.437  29.548  23.219  1.00  0.00     0.000 A 
ENDBRANCH   8  23
ENDBRANCH   5   8
ENDBRANCH   3   4
ENDBRANCH   2   3
ENDBRANCH   1   2
BRANCH   1  29
ATOM     29  C   UNL A   1      31.792  30.691  26.687  1.00  0.00     0.002 C 
BRANCH  29  30
ATOM     30  C   UNL A   1      31.640  32.212  26.696  1.00  0.00     0.021 C 
BRANCH  30  31
ATOM     31  C   UNL A   1      32.836  32.867  27.362  1.00  0.00     0.116 C 
BRANCH  31  32
ATOM     32  N   UNL A   1      32.538  34.266  27.687  1.00  0.00    -0.352 N 
ATOM     33  C   UNL A   1      33.019  35.016  28.712  1.00  0.00     0.251 C 
ATOM     34  H   UNL A   1      31.906  34.721  27.083  1.00  0.00     0.163 HD
ATOM     35  O   UNL A   1      32.527  36.085  29.038  1.00  0.00    -0.269 OA
BRANCH  33  36
ATOM     36  C   UNL A   1      34.184  34.456  29.378  1.00  0.00     0.039 A 
ATOM     37  C   UNL A   1      33.997  33.598  30.453  1.00  0.00     0.014 A 
ATOM     38  C   UNL A   1      35.421  34.639  28.751  1.00  0.00     0.014 A 
ATOM     39  C   UNL A   1      35.101  32.910  30.923  1.00  0.00     0.010 A 
ATOM     40  C   UNL A   1      36.473  33.840  29.126  1.00  0.00     0.010 A 
ATOM     41  C   UNL A   1      36.333  33.022  30.253  1.00  0.00    -0.014 A 
BRANCH  41  42
ATOM     42  C   UNL A   1      37.530  32.362  30.789  1.00  0.00     0.031 A 
ATOM     43  C   UNL A   1      38.086  32.841  32.098  1.00  0.00     0.074 A 
ATOM     44  C   UNL A   1      38.090  31.359  30.096  1.00  0.00     0.049 A 
ATOM     45  N   UNL A   1      39.115  32.393  32.764  1.00  0.00    -0.248 NA
ATOM     46  C   UNL A   1      37.426  34.003  32.724  1.00  0.00     0.031 C 
ATOM     47  C   UNL A   1      37.639  30.871  28.789  1.00  0.00     0.029 A 
ATOM     48  N   UNL A   1      39.148  30.553  30.409  1.00  0.00    -0.354 N 
ATOM     49  C   UNL A   1      39.221  33.220  33.874  1.00  0.00     0.074 A 
ATOM     50  C   UNL A   1      38.228  34.256  33.743  1.00  0.00     0.031 C 
ATOM     51  C   UNL A   1      38.379  29.807  28.442  1.00  0.00     0.029 A 
ATOM     52  C   UNL A   1      39.380  29.573  29.478  1.00  0.00     0.049 A 
ATOM     53  H   UNL A   1      39.691  30.665  31.222  1.00  0.00     0.167 HD
ATOM     54  C   UNL A   1      40.046  33.093  34.936  1.00  0.00     0.037 A 
ATOM     55  C   UNL A   1      40.298  28.593  29.479  1.00  0.00     0.037 A 
ATOM     56  C   UNL A   1      41.013  32.039  35.052  1.00  0.00     0.049 A 
ATOM     57  C   UNL A   1      41.224  28.489  30.659  1.00  0.00     0.074 A 
ATOM     58  C   UNL A   1      41.883  31.779  36.092  1.00  0.00     0.029 A 
ATOM     59  N   UNL A   1      41.235  31.070  34.083  1.00  0.00    -0.354 N 
ATOM     60  N   UNL A   1      41.277  29.233  31.740  1.00  0.00    -0.248 NA
ATOM     61  C   UNL A   1      42.210  27.405  30.624  1.00  0.00     0.031 C 
ATOM     62  C   UNL A   1      42.681  30.692  35.722  1.00  0.00     0.029 A 
ATOM     63  C   UNL A   1      42.252  30.226  34.487  1.00  0.00     0.049 A 
ATOM     64  H   UNL A   1      40.741  30.994  33.235  1.00  0.00     0.167 HD
ATOM     65  C   UNL A   1      42.278  28.686  32.531  1.00  0.00     0.074 A 
ATOM     66  C   UNL A   1      42.791  27.538  31.808  1.00  0.00     0.031 C 
ATOM     67  C   UNL A   1      42.735  29.089  33.742  1.00  0.00     0.037 A 
BRANCH  54  68
ATOM     68  C   UNL A   1      39.931  34.120  36.023  1.00  0.00     0.057 A 
ATOM     69  C   UNL A   1      39.103  33.935  37.142  1.00  0.00     0.134 A 
ATOM     70  C   UNL A   1      40.648  35.320  35.947  1.00  0.00     0.134 A 
ATOM     71  F   UNL A   1      38.367  32.821  37.267  1.00  0.00    -0.206 F 
ATOM     72  C   UNL A   1      38.967  34.920  38.122  1.00  0.00     0.040 A 
ATOM     73  C   UNL A   1      40.550  36.295  36.940  1.00  0.00     0.040 A 
ATOM     74  F   UNL A   1      41.453  35.567  34.903  1.00  0.00    -0.206 F 
ATOM     75  C   UNL A   1      39.699  36.101  38.027  1.00  0.00     0.006 A 
ENDBRANCH  54  68
BRANCH  55  76
ATOM     76  C   UNL A   1      40.362  27.629  28.352  1.00  0.00     0.057 A 
ATOM     77  C   UNL A   1      41.112  27.904  27.203  1.00  0.00     0.134 A 
ATOM     78  C   UNL A   1      39.675  26.410  28.397  1.00  0.00     0.134 A 
ATOM     79  F   UNL A   1      41.789  29.057  27.098  1.00  0.00    -0.206 F 
ATOM     80  C   UNL A   1      41.152  27.017  26.127  1.00  0.00     0.040 A 
ATOM     81  C   UNL A   1      39.731  25.500  27.341  1.00  0.00     0.040 A 
ATOM     82  F   UNL A   1      38.953  26.078  29.477  1.00  0.00    -0.206 F 
ATOM     83  C   UNL A   1      40.463  25.808  26.196  1.00  0.00     0.006 A 
ENDBRANCH  55  76
BRANCH  67  84
ATOM     84  C   UNL A   1      43.807  28.253  34.379  1.00  0.00     0.057 A 
ATOM     85  C   UNL A   1      45.169  28.544  34.224  1.00  0.00     0.134 A 
ATOM     86  C   UNL A   1      43.465  27.161  35.187  1.00  0.00     0.134 A 
ATOM     87  F   UNL A   1      45.564  29.571  33.456  1.00  0.00    -0.206 F 
ATOM     88  C   UNL A   1      46.152  27.753  34.820  1.00  0.00     0.040 A 
ATOM     89  C   UNL A   1      44.438  26.389  35.819  1.00  0.00     0.040 A 
ATOM     90  F   UNL A   1      42.179  26.839  35.389  1.00  0.00    -0.206 F 
ATOM     91  C   UNL A   1      45.786  26.677  35.626  1.00  0.00     0.006 A 
ENDBRANCH  67  84
ENDBRANCH  41  42
ENDBRANCH  33  36
ENDBRANCH  31  32
ENDBRANCH  30  31
ENDBRANCH  29  30
ENDBRANCH   1  29
TORSDOF 17
ENDMDL
MODEL 2
REMARK VINA RESULT:     -12.8      5.689      9.996
REMARK SMILES Cc1c(Cl)cccc1NC(=O)C[C@](C)(C(=O)NCCCCCCNC(=O)c1ccc(-c2c3nc(c(-c4c(F)cccc4F)c4ccc([nH]4)c(-c4c(F)cccc4F)c4nc(c(-c5c(F)cccc5F)c5ccc2[nH]5)C=C4)C=C3)cc1)c1ccccc1
REMARK SMILES IDX 20 1 19 2 18 3 17 4 15 5 16 6 13 8 14 9 12 10 10 11 9 12
REMARK SMILES IDX 11 14 8 15 1 16 2 17 3 18 4 19 5 20 7 21 6 22 81 23 82 24
REMARK SMILES IDX 86 25 83 26 85 27 84 28 21 29 22 30 23 31 24 32 25 33 26 35
REMARK SMILES IDX 27 36 28 37 80 38 29 39 79 40 30 41 31 42 32 43 73 44 33 45
REMARK SMILES IDX 78 46 72 47 74 48 34 49 77 50 71 51 70 52 35 54 61 55 44 56
REMARK SMILES IDX 60 57 45 58 48 59 59 60 75 61 46 62 47 63 58 65 76 66 49 67
REMARK SMILES IDX 36 68 37 69 42 70 38 71 39 72 41 73 43 74 40 75 62 76 63 77
REMARK SMILES IDX 68 78 64 79 65 80 67 81 69 82 66 83 50 84 51 85 56 86 52 87
REMARK SMILES IDX 53 88 55 89 57 90 54 91
REMARK H PARENT 17 7 9 13 24 34 74 53 48 64
REMARK Flexibility Score: inf
ROOT
ATOM      1  C   UNL A   1      39.597  22.502  26.550  1.00  0.00     0.002 C 
ENDROOT
BRANCH   1   2
ATOM      2  C   UNL A   1      38.882  23.820  26.867  1.00  0.00     0.021 C 
BRANCH   2   3
ATOM      3  C   UNL A   1      37.462  24.045  25.963  1.00  0.00     0.116 C 
BRANCH   3   4
ATOM      4  N   UNL A   1      35.848  22.780  25.555  1.00  0.00    -0.355 N 
ATOM      5  C   UNL A   1      34.491  22.495  25.236  1.00  0.00     0.230 C 
ATOM      6  O   UNL A   1      34.367  21.260  25.137  1.00  0.00    -0.274 OA
ATOM      7  H   UNL A   1      36.250  21.884  25.619  1.00  0.00     0.163 HD
BRANCH   5   8
ATOM      8  C   UNL A   1      33.197  23.450  25.073  1.00  0.00     0.080 C 
ATOM      9  C   UNL A   1      32.038  22.576  24.458  1.00  0.00     0.027 C 
BRANCH   8  10
ATOM     10  C   UNL A   1      32.735  24.226  26.357  1.00  0.00     0.121 C 
BRANCH  10  11
ATOM     11  C   UNL A   1      31.272  24.226  26.755  1.00  0.00     0.225 C 
ATOM     12  N   UNL A   1      30.492  25.325  26.550  1.00  0.00    -0.326 N 
ATOM     13  H   UNL A   1      29.706  25.458  27.128  1.00  0.00     0.169 HD
ATOM     14  O   UNL A   1      30.765  23.254  27.320  1.00  0.00    -0.275 OA
BRANCH  12  15
ATOM     15  C   UNL A   1      30.756  26.268  25.561  1.00  0.00     0.045 A 
ATOM     16  C   UNL A   1      32.381  27.820  27.360  1.00  0.00     0.048 C 
ATOM     17  C   UNL A   1      31.414  27.830  26.209  1.00  0.00    -0.009 A 
ATOM     18  C   UNL A   1      31.237  29.334  25.238  1.00  0.00     0.046 A 
ATOM     19  Cl  UNL A   1      31.837  30.832  25.839  1.00  0.00    -0.084 Cl
ATOM     20  C   UNL A   1      30.306  29.326  23.694  1.00  0.00     0.021 A 
ATOM     21  C   UNL A   1      29.917  26.208  23.933  1.00  0.00     0.026 A 
ATOM     22  C   UNL A   1      29.689  27.761  23.007  1.00  0.00     0.004 A 
ENDBRANCH  12  15
ENDBRANCH  10  11
ENDBRANCH   8  10
BRANCH   8  23
ATOM     23  C   UNL A   1      33.327  24.585  23.976  1.00  0.00    -0.032 A 
ATOM     24  C   UNL A   1      33.882  25.836  24.368  1.00  0.00     0.005 A 
ATOM     25  C   UNL A   1      32.910  24.475  22.647  1.00  0.00     0.005 A 
ATOM     26  C   UNL A   1      33.873  26.950  23.535  1.00  0.00     0.000 A 
ATOM     27  C   UNL A   1      32.911  25.593  21.803  1.00  0.00     0.000 A 
ATOM     28  C   UNL A   1      33.365  26.833  22.253  1.00  0.00     0.000 A 
ENDBRANCH   8  23
ENDBRANCH   5   8
ENDBRANCH   3   4
ENDBRANCH   2   3
ENDBRANCH   1   2
BRANCH   1  29
ATOM     29  C   UNL A   1      40.615  22.075  27.622  1.00  0.00     0.002 C 
BRANCH  29  30
ATOM     30  C   UNL A   1      41.186  20.682  27.357  1.00  0.00     0.021 C 
BRANCH  30  31
ATOM     31  C   UNL A   1      41.239  20.397  25.867  1.00  0.00     0.116 C 
BRANCH  31  32
ATOM     32  N   UNL A   1      42.307  19.438  25.568  1.00  0.00    -0.352 N 
ATOM     33  C   UNL A   1      43.583  19.690  25.174  1.00  0.00     0.251 C 
ATOM     34  H   UNL A   1      42.069  18.487  25.665  1.00  0.00     0.163 HD
ATOM     35  O   UNL A   1      44.317  18.829  24.717  1.00  0.00    -0.269 OA
BRANCH  33  36
ATOM     36  C   UNL A   1      44.014  21.066  25.364  1.00  0.00     0.039 A 
ATOM     37  C   UNL A   1      43.667  22.017  24.415  1.00  0.00     0.014 A 
ATOM     38  C   UNL A   1      44.563  21.392  26.609  1.00  0.00     0.014 A 
ATOM     39  C   UNL A   1      43.895  23.345  24.725  1.00  0.00     0.010 A 
ATOM     40  C   UNL A   1      44.642  22.716  26.966  1.00  0.00     0.010 A 
ATOM     41  C   UNL A   1      44.370  23.694  26.003  1.00  0.00    -0.014 A 
BRANCH  41  42
ATOM     42  C   UNL A   1      44.693  25.091  26.317  1.00  0.00     0.031 A 
ATOM     43  C   UNL A   1      43.612  25.967  26.878  1.00  0.00     0.074 A 
ATOM     44  C   UNL A   1      45.937  25.543  26.092  1.00  0.00     0.049 A 
ATOM     45  N   UNL A   1      43.677  27.217  27.247  1.00  0.00    -0.248 NA
ATOM     46  C   UNL A   1      42.266  25.374  27.007  1.00  0.00     0.031 C 
ATOM     47  C   UNL A   1      47.029  24.767  25.498  1.00  0.00     0.029 A 
ATOM     48  N   UNL A   1      46.495  26.760  26.360  1.00  0.00    -0.354 N 
ATOM     49  C   UNL A   1      42.389  27.552  27.641  1.00  0.00     0.074 A 
ATOM     50  C   UNL A   1      41.542  26.418  27.370  1.00  0.00     0.031 C 
ATOM     51  C   UNL A   1      48.146  25.511  25.506  1.00  0.00     0.029 A 
ATOM     52  C   UNL A   1      47.832  26.824  26.059  1.00  0.00     0.049 A 
ATOM     53  H   UNL A   1      45.988  27.518  26.731  1.00  0.00     0.167 HD
ATOM     54  C   UNL A   1      41.963  28.693  28.224  1.00  0.00     0.037 A 
ATOM     55  C   UNL A   1      48.699  27.836  26.226  1.00  0.00     0.037 A 
ATOM     56  C   UNL A   1      42.832  29.800  28.501  1.00  0.00     0.049 A 
ATOM     57  C   UNL A   1      48.194  29.106  26.853  1.00  0.00     0.074 A 
ATOM     58  C   UNL A   1      42.532  30.998  29.120  1.00  0.00     0.029 A 
ATOM     59  N   UNL A   1      44.180  29.840  28.169  1.00  0.00    -0.354 N 
ATOM     60  N   UNL A   1      46.989  29.396  27.287  1.00  0.00    -0.248 NA
ATOM     61  C   UNL A   1      49.171  30.187  27.022  1.00  0.00     0.031 C 
ATOM     62  C   UNL A   1      43.683  31.791  29.100  1.00  0.00     0.029 A 
ATOM     63  C   UNL A   1      44.719  31.057  28.542  1.00  0.00     0.049 A 
ATOM     64  H   UNL A   1      44.677  29.111  27.733  1.00  0.00     0.167 HD
ATOM     65  C   UNL A   1      47.070  30.678  27.812  1.00  0.00     0.074 A 
ATOM     66  C   UNL A   1      48.448  31.099  27.656  1.00  0.00     0.031 C 
ATOM     67  C   UNL A   1      46.099  31.441  28.374  1.00  0.00     0.037 A 
BRANCH  54  68
ATOM     68  C   UNL A   1      40.508  28.782  28.578  1.00  0.00     0.057 A 
ATOM     69  C   UNL A   1      39.531  29.158  27.642  1.00  0.00     0.134 A 
ATOM     70  C   UNL A   1      40.075  28.502  29.880  1.00  0.00     0.134 A 
ATOM     71  F   UNL A   1      39.879  29.467  26.384  1.00  0.00    -0.206 F 
ATOM     72  C   UNL A   1      38.188  29.286  27.997  1.00  0.00     0.040 A 
ATOM     73  C   UNL A   1      38.729  28.588  30.237  1.00  0.00     0.040 A 
ATOM     74  F   UNL A   1      40.953  28.143  30.827  1.00  0.00    -0.206 F 
ATOM     75  C   UNL A   1      37.782  28.992  29.296  1.00  0.00     0.006 A 
ENDBRANCH  54  68
BRANCH  55  76
ATOM     76  C   UNL A   1      50.119  27.676  25.828  1.00  0.00     0.057 A 
ATOM     77  C   UNL A   1      51.109  27.387  26.774  1.00  0.00     0.134 A 
ATOM     78  C   UNL A   1      50.521  27.807  24.494  1.00  0.00     0.134 A 
ATOM     79  F   UNL A   1      50.788  27.254  28.070  1.00  0.00    -0.206 F 
ATOM     80  C   UNL A   1      52.452  27.265  26.413  1.00  0.00     0.040 A 
ATOM     81  C   UNL A   1      51.855  27.657  24.114  1.00  0.00     0.040 A 
ATOM     82  F   UNL A   1      49.619  28.064  23.536  1.00  0.00    -0.206 F 
ATOM     83  C   UNL A   1      52.827  27.397  25.078  1.00  0.00     0.006 A 
ENDBRANCH  55  76
BRANCH  67  84
ATOM     84  C   UNL A   1      46.510  32.785  28.902  1.00  0.00     0.057 A 
ATOM     85  C   UNL A   1      46.974  32.960  30.212  1.00  0.00     0.134 A 
ATOM     86  C   UNL A   1      46.472  33.912  28.071  1.00  0.00     0.134 A 
ATOM     87  F   UNL A   1      47.027  31.923  31.061  1.00  0.00    -0.206 F 
ATOM     88  C   UNL A   1      47.347  34.218  30.688  1.00  0.00     0.040 A 
ATOM     89  C   UNL A   1      46.881  35.165  28.523  1.00  0.00     0.040 A 
ATOM     90  F   UNL A   1      46.054  33.810  26.801  1.00  0.00    -0.206 F 
ATOM     91  C   UNL A   1      47.308  35.323  29.839  1.00  0.00     0.006 A 
ENDBRANCH  67  84
ENDBRANCH  41  42
ENDBRANCH  33  36
ENDBRANCH  31  32
ENDBRANCH  30  31
ENDBRANCH  29  30
ENDBRANCH   1  29
TORSDOF 17
ENDMDL
MODEL 3
REMARK VINA RESULT:     -12.6      6.114     11.245
REMARK SMILES Cc1c(Cl)cccc1NC(=O)C[C@](C)(C(=O)NCCCCCCNC(=O)c1ccc(-c2c3nc(c(-c4c(F)cccc4F)c4ccc([nH]4)c(-c4c(F)cccc4F)c4nc(c(-c5c(F)cccc5F)c5ccc2[nH]5)C=C4)C=C3)cc1)c1ccccc1
REMARK SMILES IDX 20 1 19 2 18 3 17 4 15 5 16 6 13 8 14 9 12 10 10 11 9 12
REMARK SMILES IDX 11 14 8 15 1 16 2 17 3 18 4 19 5 20 7 21 6 22 81 23 82 24
REMARK SMILES IDX 86 25 83 26 85 27 84 28 21 29 22 30 23 31 24 32 25 33 26 35
REMARK SMILES IDX 27 36 28 37 80 38 29 39 79 40 30 41 31 42 32 43 73 44 33 45
REMARK SMILES IDX 78 46 72 47 74 48 34 49 77 50 71 51 70 52 35 54 61 55 44 56
REMARK SMILES IDX 60 57 45 58 48 59 59 60 75 61 46 62 47 63 58 65 76 66 49 67
REMARK SMILES IDX 36 68 37 69 42 70 38 71 39 72 41 73 43 74 40 75 62 76 63 77
REMARK SMILES IDX 68 78 64 79 65 80 67 81 69 82 66 83 50 84 51 85 56 86 52 87
REMARK SMILES IDX 53 88 55 89 57 90 54 91
REMARK H PARENT 17 7 9 13 24 34 74 53 48 64
REMARK Flexibility Score: inf
ROOT
ATOM      1  C   UNL A   1      40.027  20.005  26.105  1.00  0.00     0.002 C 
ENDROOT
BRANCH   1   2
ATOM      2  C   UNL A   1      39.302  21.354  26.138  1.00  0.00     0.021 C 
BRANCH   2   3
ATOM      3  C   UNL A   1      37.778  21.314  25.389  1.00  0.00     0.116 C 
BRANCH   3   4
ATOM      4  N   UNL A   1      35.871  21.835  26.070  1.00  0.00    -0.355 N 
ATOM      5  C   UNL A   1      34.453  21.914  25.977  1.00  0.00     0.230 C 
ATOM      6  O   UNL A   1      34.026  22.452  27.015  1.00  0.00    -0.274 OA
ATOM      7  H   UNL A   1      36.057  22.265  26.936  1.00  0.00     0.163 HD
BRANCH   5   8
ATOM      8  C   UNL A   1      33.425  21.510  24.797  1.00  0.00     0.080 C 
ATOM      9  C   UNL A   1      31.976  21.493  25.416  1.00  0.00     0.027 C 
BRANCH   8  10
ATOM     10  C   UNL A   1      33.497  22.368  23.484  1.00  0.00     0.121 C 
BRANCH  10  11
ATOM     11  C   UNL A   1      34.633  23.352  23.285  1.00  0.00     0.225 C 
ATOM     12  N   UNL A   1      34.404  24.696  23.304  1.00  0.00    -0.326 N 
ATOM     13  H   UNL A   1      35.023  25.285  22.815  1.00  0.00     0.169 HD
ATOM     14  O   UNL A   1      35.780  22.964  23.053  1.00  0.00    -0.275 OA
BRANCH  12  15
ATOM     15  C   UNL A   1      33.335  25.274  23.983  1.00  0.00     0.045 A 
ATOM     16  C   UNL A   1      31.907  25.715  21.522  1.00  0.00     0.048 C 
ATOM     17  C   UNL A   1      32.220  26.216  22.905  1.00  0.00    -0.009 A 
ATOM     18  C   UNL A   1      31.187  27.506  23.615  1.00  0.00     0.046 A 
ATOM     19  Cl  UNL A   1      30.133  28.427  22.611  1.00  0.00    -0.084 Cl
ATOM     20  C   UNL A   1      31.340  27.952  25.356  1.00  0.00     0.021 A 
ATOM     21  C   UNL A   1      33.417  25.621  25.780  1.00  0.00     0.026 A 
ATOM     22  C   UNL A   1      32.411  26.982  26.457  1.00  0.00     0.004 A 
ENDBRANCH  12  15
ENDBRANCH  10  11
ENDBRANCH   8  10
BRANCH   8  23
ATOM     23  C   UNL A   1      33.543  20.019  24.277  1.00  0.00    -0.032 A 
ATOM     24  C   UNL A   1      32.532  19.532  23.402  1.00  0.00     0.005 A 
ATOM     25  C   UNL A   1      34.551  19.118  24.631  1.00  0.00     0.005 A 
ATOM     26  C   UNL A   1      32.444  18.192  23.035  1.00  0.00     0.000 A 
ATOM     27  C   UNL A   1      34.470  17.771  24.253  1.00  0.00     0.000 A 
ATOM     28  C   UNL A   1      33.407  17.304  23.482  1.00  0.00     0.000 A 
ENDBRANCH   8  23
ENDBRANCH   5   8
ENDBRANCH   3   4
ENDBRANCH   2   3
ENDBRANCH   1   2
BRANCH   1  29
ATOM     29  C   UNL A   1      41.031  19.811  27.255  1.00  0.00     0.002 C 
BRANCH  29  30
ATOM     30  C   UNL A   1      42.408  19.371  26.756  1.00  0.00     0.021 C 
BRANCH  30  31
ATOM     31  C   UNL A   1      42.661  19.892  25.353  1.00  0.00     0.116 C 
BRANCH  31  32
ATOM     32  N   UNL A   1      43.788  19.181  24.741  1.00  0.00    -0.352 N 
ATOM     33  C   UNL A   1      44.946  19.696  24.250  1.00  0.00     0.251 C 
ATOM     34  H   UNL A   1      43.695  18.202  24.677  1.00  0.00     0.163 HD
ATOM     35  O   UNL A   1      45.709  19.056  23.544  1.00  0.00    -0.269 OA
BRANCH  33  36
ATOM     36  C   UNL A   1      45.216  21.067  24.651  1.00  0.00     0.039 A 
ATOM     37  C   UNL A   1      44.875  22.101  23.790  1.00  0.00     0.014 A 
ATOM     38  C   UNL A   1      45.600  21.274  25.981  1.00  0.00     0.014 A 
ATOM     39  C   UNL A   1      44.937  23.391  24.282  1.00  0.00     0.010 A 
ATOM     40  C   UNL A   1      45.511  22.542  26.501  1.00  0.00     0.010 A 
ATOM     41  C   UNL A   1      45.242  23.610  25.638  1.00  0.00    -0.014 A 
BRANCH  41  42
ATOM     42  C   UNL A   1      45.391  24.977  26.153  1.00  0.00     0.031 A 
ATOM     43  C   UNL A   1      46.744  25.622  26.091  1.00  0.00     0.074 A 
ATOM     44  C   UNL A   1      44.319  25.605  26.663  1.00  0.00     0.049 A 
ATOM     45  N   UNL A   1      47.098  26.821  26.465  1.00  0.00    -0.248 NA
ATOM     46  C   UNL A   1      47.858  24.801  25.579  1.00  0.00     0.031 C 
ATOM     47  C   UNL A   1      42.981  25.024  26.806  1.00  0.00     0.029 A 
ATOM     48  N   UNL A   1      44.185  26.880  27.133  1.00  0.00    -0.354 N 
ATOM     49  C   UNL A   1      48.466  26.888  26.237  1.00  0.00     0.074 A 
ATOM     50  C   UNL A   1      48.898  25.586  25.796  1.00  0.00     0.031 C 
ATOM     51  C   UNL A   1      42.146  25.965  27.272  1.00  0.00     0.029 A 
ATOM     52  C   UNL A   1      42.901  27.191  27.501  1.00  0.00     0.049 A 
ATOM     53  H   UNL A   1      44.936  27.513  27.201  1.00  0.00     0.167 HD
ATOM     54  C   UNL A   1      49.280  27.960  26.341  1.00  0.00     0.037 A 
ATOM     55  C   UNL A   1      42.402  28.349  27.964  1.00  0.00     0.037 A 
ATOM     56  C   UNL A   1      48.820  29.252  26.763  1.00  0.00     0.049 A 
ATOM     57  C   UNL A   1      43.334  29.522  28.097  1.00  0.00     0.074 A 
ATOM     58  C   UNL A   1      49.536  30.427  26.877  1.00  0.00     0.029 A 
ATOM     59  N   UNL A   1      47.515  29.532  27.146  1.00  0.00    -0.354 N 
ATOM     60  N   UNL A   1      44.614  29.599  27.817  1.00  0.00    -0.248 NA
ATOM     61  C   UNL A   1      42.751  30.768  28.602  1.00  0.00     0.031 C 
ATOM     62  C   UNL A   1      48.679  31.403  27.394  1.00  0.00     0.029 A 
ATOM     63  C   UNL A   1      47.411  30.857  27.527  1.00  0.00     0.049 A 
ATOM     64  H   UNL A   1      46.774  28.884  27.146  1.00  0.00     0.167 HD
ATOM     65  C   UNL A   1      44.983  30.912  28.077  1.00  0.00     0.074 A 
ATOM     66  C   UNL A   1      43.783  31.595  28.521  1.00  0.00     0.031 C 
ATOM     67  C   UNL A   1      46.198  31.504  27.961  1.00  0.00     0.037 A 
BRANCH  54  68
ATOM     68  C   UNL A   1      50.728  27.760  26.004  1.00  0.00     0.057 A 
ATOM     69  C   UNL A   1      51.688  27.452  26.980  1.00  0.00     0.134 A 
ATOM     70  C   UNL A   1      51.175  27.889  24.683  1.00  0.00     0.134 A 
ATOM     71  F   UNL A   1      51.335  27.339  28.270  1.00  0.00    -0.206 F 
ATOM     72  C   UNL A   1      53.040  27.318  26.661  1.00  0.00     0.040 A 
ATOM     73  C   UNL A   1      52.518  27.719  24.346  1.00  0.00     0.040 A 
ATOM     74  F   UNL A   1      50.313  28.188  23.699  1.00  0.00    -0.206 F 
ATOM     75  C   UNL A   1      53.457  27.442  25.338  1.00  0.00     0.006 A 
ENDBRANCH  54  68
BRANCH  55  76
ATOM     76  C   UNL A   1      40.960  28.460  28.297  1.00  0.00     0.057 A 
ATOM     77  C   UNL A   1      40.477  28.094  29.559  1.00  0.00     0.134 A 
ATOM     78  C   UNL A   1      40.030  28.933  27.364  1.00  0.00     0.134 A 
ATOM     79  F   UNL A   1      41.317  27.628  30.495  1.00  0.00    -0.206 F 
ATOM     80  C   UNL A   1      39.119  28.165  29.871  1.00  0.00     0.040 A 
ATOM     81  C   UNL A   1      38.674  29.039  27.672  1.00  0.00     0.040 A 
ATOM     82  F   UNL A   1      40.431  29.318  26.144  1.00  0.00    -0.206 F 
ATOM     83  C   UNL A   1      38.213  28.643  28.926  1.00  0.00     0.006 A 
ENDBRANCH  55  76
BRANCH  67  84
ATOM     84  C   UNL A   1      46.273  32.971  28.272  1.00  0.00     0.057 A 
ATOM     85  C   UNL A   1      46.609  33.446  29.547  1.00  0.00     0.134 A 
ATOM     86  C   UNL A   1      46.039  33.919  27.268  1.00  0.00     0.134 A 
ATOM     87  F   UNL A   1      46.837  32.590  30.555  1.00  0.00    -0.206 F 
ATOM     88  C   UNL A   1      46.669  34.813  29.819  1.00  0.00     0.040 A 
ATOM     89  C   UNL A   1      46.136  35.286  27.519  1.00  0.00     0.040 A 
ATOM     90  F   UNL A   1      45.729  33.531  26.022  1.00  0.00    -0.206 F 
ATOM     91  C   UNL A   1      46.440  35.736  28.801  1.00  0.00     0.006 A 
ENDBRANCH  67  84
ENDBRANCH  41  42
ENDBRANCH  33  36
ENDBRANCH  31  32
ENDBRANCH  30  31
ENDBRANCH  29  30
ENDBRANCH   1  29
TORSDOF 17
ENDMDL
