MODEL 1
REMARK VINA RESULT:     -12.4      0.000      0.000
REMARK SMILES C[C@H](C(=O)NCCCCCCNC(=O)c1ccc(-c2c3nc(c(-c4c(F)cccc4F)c4ccc([nH]4)c(-c4c(F)cccc4F)c4nc(c(-c5c(F)cccc5F)c5ccc2[nH]5)C=C4)C=C3)cc1)c1ccc2c3cc(Cl)ccc3n(C(=O)c3cocn3)c2c1
REMARK SMILES IDX 8 1 7 2 6 3 5 4 3 5 4 6 2 8 1 9 69 10 70 11 89 12 71 13
REMARK SMILES IDX 88 14 72 15 80 16 73 17 79 18 74 19 78 20 75 21 77 22 76 23
REMARK SMILES IDX 81 24 82 25 83 26 84 27 87 28 85 29 86 30 9 31 10 32 11 33
REMARK SMILES IDX 12 34 13 35 14 37 15 38 16 39 68 40 17 41 67 42 18 43 19 44
REMARK SMILES IDX 20 45 61 46 21 47 66 48 60 49 62 50 22 51 65 52 59 53 58 54
REMARK SMILES IDX 23 56 49 57 32 58 48 59 33 60 36 61 47 62 63 63 34 64 35 65
REMARK SMILES IDX 46 67 64 68 37 69 24 70 25 71 30 72 26 73 27 74 29 75 31 76
REMARK SMILES IDX 28 77 50 78 51 79 56 80 52 81 53 82 55 83 57 84 54 85 38 86
REMARK SMILES IDX 39 87 44 88 40 89 41 90 43 91 45 92 42 93
REMARK H PARENT 5 7 12 36 62 55 36 66
REMARK Flexibility Score: inf
ROOT
ATOM      1  C   UNL A   1      31.536  30.435  26.176  1.00  0.00     0.002 C 
ENDROOT
BRANCH   1   2
ATOM      2  C   UNL A   1      31.876  29.805  24.821  1.00  0.00     0.021 C 
BRANCH   2   3
ATOM      3  C   UNL A   1      30.715  29.651  23.840  1.00  0.00     0.116 C 
BRANCH   3   4
ATOM      4  N   UNL A   1      30.991  28.711  22.770  1.00  0.00    -0.356 N 
ATOM      5  C   UNL A   1      30.911  27.352  22.740  1.00  0.00     0.227 C 
ATOM      6  O   UNL A   1      31.003  26.811  21.632  1.00  0.00    -0.274 OA
ATOM      7  H   UNL A   1      31.285  29.124  21.926  1.00  0.00     0.163 HD
BRANCH   5   8
ATOM      8  C   UNL A   1      30.791  26.508  24.009  1.00  0.00     0.105 C 
ATOM      9  C   UNL A   1      29.552  25.609  23.864  1.00  0.00     0.023 C 
BRANCH   8  10
ATOM     10  C   UNL A   1      32.054  25.782  24.475  1.00  0.00    -0.034 A 
ATOM     11  C   UNL A   1      33.043  26.412  25.239  1.00  0.00     0.005 A 
ATOM     12  C   UNL A   1      32.215  24.418  24.173  1.00  0.00     0.032 A 
ATOM     13  C   UNL A   1      34.220  25.744  25.598  1.00  0.00     0.011 A 
ATOM     14  C   UNL A   1      33.407  23.748  24.521  1.00  0.00     0.058 A 
ATOM     15  C   UNL A   1      34.415  24.400  25.221  1.00  0.00     0.008 A 
ATOM     16  N   UNL A   1      33.798  22.418  24.319  1.00  0.00    -0.274 N 
ATOM     17  C   UNL A   1      35.497  23.485  25.364  1.00  0.00     0.009 A 
ATOM     18  C   UNL A   1      35.123  22.278  24.760  1.00  0.00     0.057 A 
ATOM     19  C   UNL A   1      36.790  23.615  25.915  1.00  0.00     0.031 A 
ATOM     20  C   UNL A   1      36.051  21.225  24.625  1.00  0.00     0.029 A 
ATOM     21  C   UNL A   1      37.693  22.558  25.808  1.00  0.00     0.041 A 
ATOM     22  C   UNL A   1      37.332  21.382  25.164  1.00  0.00     0.023 A 
ATOM     23  Cl  UNL A   1      39.282  22.732  26.446  1.00  0.00    -0.084 Cl
BRANCH  16  24
ATOM     24  C   UNL A   1      32.986  21.423  23.718  1.00  0.00     0.284 C 
ATOM     25  O   UNL A   1      32.396  21.766  22.681  1.00  0.00    -0.266 OA
BRANCH  24  26
ATOM     26  C   UNL A   1      32.767  20.087  24.258  1.00  0.00     0.167 A 
ATOM     27  C   UNL A   1      32.609  19.697  25.573  1.00  0.00     0.231 A 
ATOM     28  N   UNL A   1      32.558  18.977  23.448  1.00  0.00    -0.211 NA
ATOM     29  O   UNL A   1      32.326  18.363  25.600  1.00  0.00    -0.451 OA
ATOM     30  C   UNL A   1      32.296  18.005  24.288  1.00  0.00     0.308 A 
ENDBRANCH  24  26
ENDBRANCH  16  24
ENDBRANCH   8  10
ENDBRANCH   5   8
ENDBRANCH   3   4
ENDBRANCH   2   3
ENDBRANCH   1   2
BRANCH   1  31
ATOM     31  C   UNL A   1      32.630  30.380  27.246  1.00  0.00     0.002 C 
BRANCH  31  32
ATOM     32  C   UNL A   1      33.517  29.135  27.233  1.00  0.00     0.021 C 
BRANCH  32  33
ATOM     33  C   UNL A   1      34.934  29.329  27.762  1.00  0.00     0.116 C 
BRANCH  33  34
ATOM     34  N   UNL A   1      35.036  30.374  28.769  1.00  0.00    -0.352 N 
ATOM     35  C   UNL A   1      36.123  30.749  29.524  1.00  0.00     0.251 C 
ATOM     36  H   UNL A   1      34.209  30.884  28.933  1.00  0.00     0.163 HD
ATOM     37  O   UNL A   1      36.007  31.590  30.409  1.00  0.00    -0.269 OA
BRANCH  35  38
ATOM     38  C   UNL A   1      37.433  30.104  29.288  1.00  0.00     0.039 A 
ATOM     39  C   UNL A   1      37.949  30.074  27.988  1.00  0.00     0.014 A 
ATOM     40  C   UNL A   1      38.158  29.553  30.346  1.00  0.00     0.014 A 
ATOM     41  C   UNL A   1      39.229  29.563  27.761  1.00  0.00     0.010 A 
ATOM     42  C   UNL A   1      39.457  29.105  30.129  1.00  0.00     0.010 A 
ATOM     43  C   UNL A   1      40.008  29.111  28.838  1.00  0.00    -0.014 A 
BRANCH  43  44
ATOM     44  C   UNL A   1      41.404  28.642  28.655  1.00  0.00     0.031 A 
ATOM     45  C   UNL A   1      42.531  29.633  28.663  1.00  0.00     0.074 A 
ATOM     46  C   UNL A   1      41.645  27.349  28.361  1.00  0.00     0.049 A 
ATOM     47  N   UNL A   1      43.789  29.461  28.346  1.00  0.00    -0.248 NA
ATOM     48  C   UNL A   1      42.187  31.011  29.045  1.00  0.00     0.031 C 
ATOM     49  C   UNL A   1      40.632  26.297  28.279  1.00  0.00     0.029 A 
ATOM     50  N   UNL A   1      42.817  26.711  28.039  1.00  0.00    -0.354 N 
ATOM     51  C   UNL A   1      44.378  30.713  28.454  1.00  0.00     0.074 A 
ATOM     52  C   UNL A   1      43.332  31.642  28.832  1.00  0.00     0.031 C 
ATOM     53  C   UNL A   1      41.224  25.145  27.923  1.00  0.00     0.029 A 
ATOM     54  C   UNL A   1      42.649  25.388  27.712  1.00  0.00     0.049 A 
ATOM     55  H   UNL A   1      43.694  27.158  28.043  1.00  0.00     0.167 HD
ATOM     56  C   UNL A   1      45.675  31.057  28.270  1.00  0.00     0.037 A 
ATOM     57  C   UNL A   1      43.535  24.477  27.266  1.00  0.00     0.037 A 
ATOM     58  C   UNL A   1      46.716  30.125  27.928  1.00  0.00     0.049 A 
ATOM     59  C   UNL A   1      44.973  24.872  27.081  1.00  0.00     0.074 A 
ATOM     60  C   UNL A   1      48.074  30.360  27.799  1.00  0.00     0.029 A 
ATOM     61  N   UNL A   1      46.514  28.780  27.658  1.00  0.00    -0.354 N 
ATOM     62  N   UNL A   1      45.532  26.046  27.251  1.00  0.00    -0.248 NA
ATOM     63  C   UNL A   1      45.903  23.820  26.647  1.00  0.00     0.031 C 
ATOM     64  C   UNL A   1      48.689  29.164  27.411  1.00  0.00     0.029 A 
ATOM     65  C   UNL A   1      47.719  28.176  27.342  1.00  0.00     0.049 A 
ATOM     66  H   UNL A   1      45.643  28.323  27.688  1.00  0.00     0.167 HD
ATOM     67  C   UNL A   1      46.880  25.870  26.971  1.00  0.00     0.074 A 
ATOM     68  C   UNL A   1      47.057  24.476  26.621  1.00  0.00     0.031 C 
ATOM     69  C   UNL A   1      47.881  26.783  27.005  1.00  0.00     0.037 A 
BRANCH  56  70
ATOM     70  C   UNL A   1      46.029  32.507  28.422  1.00  0.00     0.057 A 
ATOM     71  C   UNL A   1      46.011  33.393  27.336  1.00  0.00     0.134 A 
ATOM     72  C   UNL A   1      46.392  33.025  29.671  1.00  0.00     0.134 A 
ATOM     73  F   UNL A   1      45.683  32.957  26.110  1.00  0.00    -0.206 F 
ATOM     74  C   UNL A   1      46.378  34.731  27.480  1.00  0.00     0.040 A 
ATOM     75  C   UNL A   1      46.734  34.369  29.833  1.00  0.00     0.040 A 
ATOM     76  F   UNL A   1      46.423  32.234  30.755  1.00  0.00    -0.206 F 
ATOM     77  C   UNL A   1      46.737  35.224  28.732  1.00  0.00     0.006 A 
ENDBRANCH  56  70
BRANCH  57  78
ATOM     78  C   UNL A   1      43.077  23.097  26.972  1.00  0.00     0.057 A 
ATOM     79  C   UNL A   1      42.749  22.210  28.004  1.00  0.00     0.134 A 
ATOM     80  C   UNL A   1      42.917  22.646  25.656  1.00  0.00     0.134 A 
ATOM     81  F   UNL A   1      42.897  22.582  29.285  1.00  0.00    -0.206 F 
ATOM     82  C   UNL A   1      42.283  20.921  27.739  1.00  0.00     0.040 A 
ATOM     83  C   UNL A   1      42.434  21.367  25.376  1.00  0.00     0.040 A 
ATOM     84  F   UNL A   1      43.205  23.452  24.625  1.00  0.00    -0.206 F 
ATOM     85  C   UNL A   1      42.117  20.500  26.420  1.00  0.00     0.006 A 
ENDBRANCH  57  78
BRANCH  69  86
ATOM     86  C   UNL A   1      49.267  26.306  26.692  1.00  0.00     0.057 A 
ATOM     87  C   UNL A   1      49.777  26.326  25.389  1.00  0.00     0.134 A 
ATOM     88  C   UNL A   1      50.126  25.898  27.721  1.00  0.00     0.134 A 
ATOM     89  F   UNL A   1      49.000  26.695  24.360  1.00  0.00    -0.206 F 
ATOM     90  C   UNL A   1      51.095  25.951  25.119  1.00  0.00     0.040 A 
ATOM     91  C   UNL A   1      51.451  25.541  27.465  1.00  0.00     0.040 A 
ATOM     92  F   UNL A   1      49.699  25.864  28.992  1.00  0.00    -0.206 F 
ATOM     93  C   UNL A   1      51.939  25.567  26.160  1.00  0.00     0.006 A 
ENDBRANCH  69  86
ENDBRANCH  43  44
ENDBRANCH  35  38
ENDBRANCH  33  34
ENDBRANCH  32  33
ENDBRANCH  31  32
ENDBRANCH   1  31
TORSDOF 16
ENDMDL
MODEL 2
REMARK VINA RESULT:     -12.3      4.798      8.439
REMARK SMILES C[C@H](C(=O)NCCCCCCNC(=O)c1ccc(-c2c3nc(c(-c4c(F)cccc4F)c4ccc([nH]4)c(-c4c(F)cccc4F)c4nc(c(-c5c(F)cccc5F)c5ccc2[nH]5)C=C4)C=C3)cc1)c1ccc2c3cc(Cl)ccc3n(C(=O)c3cocn3)c2c1
REMARK SMILES IDX 8 1 7 2 6 3 5 4 3 5 4 6 2 8 1 9 69 10 70 11 89 12 71 13
REMARK SMILES IDX 88 14 72 15 80 16 73 17 79 18 74 19 78 20 75 21 77 22 76 23
REMARK SMILES IDX 81 24 82 25 83 26 84 27 87 28 85 29 86 30 9 31 10 32 11 33
REMARK SMILES IDX 12 34 13 35 14 37 15 38 16 39 68 40 17 41 67 42 18 43 19 44
REMARK SMILES IDX 20 45 61 46 21 47 66 48 60 49 62 50 22 51 65 52 59 53 58 54
REMARK SMILES IDX 23 56 49 57 32 58 48 59 33 60 36 61 47 62 63 63 34 64 35 65
REMARK SMILES IDX 46 67 64 68 37 69 24 70 25 71 30 72 26 73 27 74 29 75 31 76
REMARK SMILES IDX 28 77 50 78 51 79 56 80 52 81 53 82 55 83 57 84 54 85 38 86
REMARK SMILES IDX 39 87 44 88 40 89 41 90 43 91 45 92 42 93
REMARK H PARENT 5 7 12 36 62 55 36 66
REMARK Flexibility Score: inf
ROOT
ATOM      1  C   UNL A   1      33.969  30.554  27.200  1.00  0.00     0.002 C 
ENDROOT
BRANCH   1   2
ATOM      2  C   UNL A   1      34.682  29.201  27.292  1.00  0.00     0.021 C 
BRANCH   2   3
ATOM      3  C   UNL A   1      34.032  28.045  26.533  1.00  0.00     0.116 C 
BRANCH   3   4
ATOM      4  N   UNL A   1      33.930  28.283  25.105  1.00  0.00    -0.356 N 
ATOM      5  C   UNL A   1      32.931  27.994  24.226  1.00  0.00     0.227 C 
ATOM      6  O   UNL A   1      33.016  28.495  23.099  1.00  0.00    -0.274 OA
ATOM      7  H   UNL A   1      34.715  28.725  24.705  1.00  0.00     0.163 HD
BRANCH   5   8
ATOM      8  C   UNL A   1      31.788  27.037  24.566  1.00  0.00     0.105 C 
ATOM      9  C   UNL A   1      30.479  27.663  24.057  1.00  0.00     0.023 C 
BRANCH   8  10
ATOM     10  C   UNL A   1      31.984  25.569  24.187  1.00  0.00    -0.034 A 
ATOM     11  C   UNL A   1      31.299  24.972  23.123  1.00  0.00     0.005 A 
ATOM     12  C   UNL A   1      32.920  24.794  24.894  1.00  0.00     0.032 A 
ATOM     13  C   UNL A   1      31.448  23.609  22.836  1.00  0.00     0.011 A 
ATOM     14  C   UNL A   1      33.060  23.417  24.617  1.00  0.00     0.058 A 
ATOM     15  C   UNL A   1      32.325  22.816  23.603  1.00  0.00     0.008 A 
ATOM     16  N   UNL A   1      33.901  22.453  25.187  1.00  0.00    -0.274 N 
ATOM     17  C   UNL A   1      32.641  21.427  23.613  1.00  0.00     0.009 A 
ATOM     18  C   UNL A   1      33.581  21.206  24.628  1.00  0.00     0.057 A 
ATOM     19  C   UNL A   1      32.153  20.332  22.868  1.00  0.00     0.031 A 
ATOM     20  C   UNL A   1      33.978  19.897  24.967  1.00  0.00     0.029 A 
ATOM     21  C   UNL A   1      32.576  19.041  23.185  1.00  0.00     0.041 A 
ATOM     22  C   UNL A   1      33.469  18.825  24.225  1.00  0.00     0.023 A 
ATOM     23  Cl  UNL A   1      31.950  17.703  22.301  1.00  0.00    -0.084 Cl
BRANCH  16  24
ATOM     24  C   UNL A   1      34.864  22.719  26.194  1.00  0.00     0.284 C 
ATOM     25  O   UNL A   1      34.407  23.050  27.299  1.00  0.00    -0.266 OA
BRANCH  24  26
ATOM     26  C   UNL A   1      36.307  22.683  25.997  1.00  0.00     0.167 A 
ATOM     27  C   UNL A   1      37.228  23.705  26.126  1.00  0.00     0.231 A 
ATOM     28  N   UNL A   1      37.001  21.504  25.753  1.00  0.00    -0.211 NA
ATOM     29  O   UNL A   1      38.477  23.190  25.947  1.00  0.00    -0.451 OA
ATOM     30  C   UNL A   1      38.262  21.862  25.743  1.00  0.00     0.308 A 
ENDBRANCH  24  26
ENDBRANCH  16  24
ENDBRANCH   8  10
ENDBRANCH   5   8
ENDBRANCH   3   4
ENDBRANCH   2   3
ENDBRANCH   1   2
BRANCH   1  31
ATOM     31  C   UNL A   1      32.440  30.523  27.251  1.00  0.00     0.002 C 
BRANCH  31  32
ATOM     32  C   UNL A   1      31.736  31.870  27.086  1.00  0.00     0.021 C 
BRANCH  32  33
ATOM     33  C   UNL A   1      32.648  33.060  26.807  1.00  0.00     0.116 C 
BRANCH  33  34
ATOM     34  N   UNL A   1      32.346  34.223  27.626  1.00  0.00    -0.352 N 
ATOM     35  C   UNL A   1      32.976  34.671  28.765  1.00  0.00     0.251 C 
ATOM     36  H   UNL A   1      31.582  34.766  27.323  1.00  0.00     0.163 HD
ATOM     37  O   UNL A   1      32.523  35.620  29.395  1.00  0.00    -0.269 OA
BRANCH  35  38
ATOM     38  C   UNL A   1      34.188  33.977  29.249  1.00  0.00     0.039 A 
ATOM     39  C   UNL A   1      35.444  34.457  28.862  1.00  0.00     0.014 A 
ATOM     40  C   UNL A   1      34.088  32.873  30.098  1.00  0.00     0.014 A 
ATOM     41  C   UNL A   1      36.601  33.880  29.391  1.00  0.00     0.010 A 
ATOM     42  C   UNL A   1      35.238  32.342  30.674  1.00  0.00     0.010 A 
ATOM     43  C   UNL A   1      36.504  32.843  30.332  1.00  0.00    -0.014 A 
BRANCH  43  44
ATOM     44  C   UNL A   1      37.703  32.260  30.985  1.00  0.00     0.031 A 
ATOM     45  C   UNL A   1      38.474  31.174  30.293  1.00  0.00     0.074 A 
ATOM     46  C   UNL A   1      38.023  32.618  32.243  1.00  0.00     0.049 A 
ATOM     47  N   UNL A   1      39.431  30.412  30.758  1.00  0.00    -0.248 NA
ATOM     48  C   UNL A   1      38.090  30.883  28.904  1.00  0.00     0.031 C 
ATOM     49  C   UNL A   1      37.326  33.628  33.040  1.00  0.00     0.029 A 
ATOM     50  N   UNL A   1      38.997  32.142  33.086  1.00  0.00    -0.354 N 
ATOM     51  C   UNL A   1      39.738  29.529  29.732  1.00  0.00     0.074 A 
ATOM     52  C   UNL A   1      38.843  29.826  28.634  1.00  0.00     0.031 C 
ATOM     53  C   UNL A   1      37.890  33.692  34.257  1.00  0.00     0.029 A 
ATOM     54  C   UNL A   1      38.958  32.700  34.340  1.00  0.00     0.049 A 
ATOM     55  H   UNL A   1      39.660  31.466  32.817  1.00  0.00     0.167 HD
ATOM     56  C   UNL A   1      40.691  28.566  29.701  1.00  0.00     0.037 A 
ATOM     57  C   UNL A   1      39.681  32.427  35.442  1.00  0.00     0.037 A 
ATOM     58  C   UNL A   1      41.601  28.296  30.782  1.00  0.00     0.049 A 
ATOM     59  C   UNL A   1      40.743  31.365  35.387  1.00  0.00     0.074 A 
ATOM     60  C   UNL A   1      42.654  27.398  30.819  1.00  0.00     0.029 A 
ATOM     61  N   UNL A   1      41.565  28.923  32.019  1.00  0.00    -0.354 N 
ATOM     62  N   UNL A   1      41.071  30.581  34.388  1.00  0.00    -0.248 NA
ATOM     63  C   UNL A   1      41.539  31.152  36.604  1.00  0.00     0.031 C 
ATOM     64  C   UNL A   1      43.229  27.452  32.093  1.00  0.00     0.029 A 
ATOM     65  C   UNL A   1      42.563  28.415  32.835  1.00  0.00     0.049 A 
ATOM     66  H   UNL A   1      40.925  29.625  32.278  1.00  0.00     0.167 HD
ATOM     67  C   UNL A   1      42.123  29.800  34.846  1.00  0.00     0.074 A 
ATOM     68  C   UNL A   1      42.383  30.206  36.212  1.00  0.00     0.031 C 
ATOM     69  C   UNL A   1      42.815  28.837  34.190  1.00  0.00     0.037 A 
BRANCH  56  70
ATOM     70  C   UNL A   1      40.780  27.727  28.461  1.00  0.00     0.057 A 
ATOM     71  C   UNL A   1      41.569  28.104  27.365  1.00  0.00     0.134 A 
ATOM     72  C   UNL A   1      40.068  26.525  28.360  1.00  0.00     0.134 A 
ATOM     73  F   UNL A   1      42.266  29.250  27.393  1.00  0.00    -0.206 F 
ATOM     74  C   UNL A   1      41.616  27.336  26.202  1.00  0.00     0.040 A 
ATOM     75  C   UNL A   1      40.130  25.734  27.212  1.00  0.00     0.040 A 
ATOM     76  F   UNL A   1      39.299  26.101  29.375  1.00  0.00    -0.206 F 
ATOM     77  C   UNL A   1      40.897  26.145  26.124  1.00  0.00     0.006 A 
ENDBRANCH  56  70
BRANCH  57  78
ATOM     78  C   UNL A   1      39.422  33.184  36.691  1.00  0.00     0.057 A 
ATOM     79  C   UNL A   1      38.492  32.726  37.632  1.00  0.00     0.134 A 
ATOM     80  C   UNL A   1      40.123  34.359  36.992  1.00  0.00     0.134 A 
ATOM     81  F   UNL A   1      37.779  31.616  37.391  1.00  0.00    -0.206 F 
ATOM     82  C   UNL A   1      38.265  33.412  38.827  1.00  0.00     0.040 A 
ATOM     83  C   UNL A   1      39.920  35.043  38.191  1.00  0.00     0.040 A 
ATOM     84  F   UNL A   1      41.032  34.842  36.134  1.00  0.00    -0.206 F 
ATOM     85  C   UNL A   1      38.987  34.570  39.112  1.00  0.00     0.006 A 
ENDBRANCH  57  78
BRANCH  69  86
ATOM     86  C   UNL A   1      43.944  28.173  34.920  1.00  0.00     0.057 A 
ATOM     87  C   UNL A   1      45.258  28.644  34.831  1.00  0.00     0.134 A 
ATOM     88  C   UNL A   1      43.695  27.098  35.784  1.00  0.00     0.134 A 
ATOM     89  F   UNL A   1      45.562  29.663  34.012  1.00  0.00    -0.206 F 
ATOM     90  C   UNL A   1      46.289  28.066  35.574  1.00  0.00     0.040 A 
ATOM     91  C   UNL A   1      44.714  26.526  36.546  1.00  0.00     0.040 A 
ATOM     92  F   UNL A   1      42.455  26.606  35.919  1.00  0.00    -0.206 F 
ATOM     93  C   UNL A   1      46.016  27.010  36.442  1.00  0.00     0.006 A 
ENDBRANCH  69  86
ENDBRANCH  43  44
ENDBRANCH  35  38
ENDBRANCH  33  34
ENDBRANCH  32  33
ENDBRANCH  31  32
ENDBRANCH   1  31
TORSDOF 16
ENDMDL
MODEL 3
REMARK VINA RESULT:     -12.2      4.649      8.269
REMARK SMILES C[C@H](C(=O)NCCCCCCNC(=O)c1ccc(-c2c3nc(c(-c4c(F)cccc4F)c4ccc([nH]4)c(-c4c(F)cccc4F)c4nc(c(-c5c(F)cccc5F)c5ccc2[nH]5)C=C4)C=C3)cc1)c1ccc2c3cc(Cl)ccc3n(C(=O)c3cocn3)c2c1
REMARK SMILES IDX 8 1 7 2 6 3 5 4 3 5 4 6 2 8 1 9 69 10 70 11 89 12 71 13
REMARK SMILES IDX 88 14 72 15 80 16 73 17 79 18 74 19 78 20 75 21 77 22 76 23
REMARK SMILES IDX 81 24 82 25 83 26 84 27 87 28 85 29 86 30 9 31 10 32 11 33
REMARK SMILES IDX 12 34 13 35 14 37 15 38 16 39 68 40 17 41 67 42 18 43 19 44
REMARK SMILES IDX 20 45 61 46 21 47 66 48 60 49 62 50 22 51 65 52 59 53 58 54
REMARK SMILES IDX 23 56 49 57 32 58 48 59 33 60 36 61 47 62 63 63 34 64 35 65
REMARK SMILES IDX 46 67 64 68 37 69 24 70 25 71 30 72 26 73 27 74 29 75 31 76
REMARK SMILES IDX 28 77 50 78 51 79 56 80 52 81 53 82 55 83 57 84 54 85 38 86
REMARK SMILES IDX 39 87 44 88 40 89 41 90 43 91 45 92 42 93
REMARK H PARENT 5 7 12 36 62 55 36 66
REMARK Flexibility Score: inf
ROOT
ATOM      1  C   UNL A   1      32.533  29.103  26.919  1.00  0.00     0.002 C 
ENDROOT
BRANCH   1   2
ATOM      2  C   UNL A   1      31.495  28.123  27.475  1.00  0.00     0.021 C 
BRANCH   2   3
ATOM      3  C   UNL A   1      31.413  26.764  26.782  1.00  0.00     0.116 C 
BRANCH   3   4
ATOM      4  N   UNL A   1      30.322  26.672  25.830  1.00  0.00    -0.356 N 
ATOM      5  C   UNL A   1      30.328  26.404  24.495  1.00  0.00     0.227 C 
ATOM      6  O   UNL A   1      29.235  26.180  23.963  1.00  0.00    -0.274 OA
ATOM      7  H   UNL A   1      29.428  26.830  26.213  1.00  0.00     0.163 HD
BRANCH   5   8
ATOM      8  C   UNL A   1      31.605  26.448  23.654  1.00  0.00     0.105 C 
ATOM      9  C   UNL A   1      31.920  27.922  23.349  1.00  0.00     0.023 C 
BRANCH   8  10
ATOM     10  C   UNL A   1      32.794  25.633  24.165  1.00  0.00    -0.034 A 
ATOM     11  C   UNL A   1      33.875  26.221  24.831  1.00  0.00     0.005 A 
ATOM     12  C   UNL A   1      32.788  24.235  24.010  1.00  0.00     0.032 A 
ATOM     13  C   UNL A   1      34.982  25.461  25.232  1.00  0.00     0.011 A 
ATOM     14  C   UNL A   1      33.908  23.471  24.399  1.00  0.00     0.058 A 
ATOM     15  C   UNL A   1      35.009  24.072  24.998  1.00  0.00     0.008 A 
ATOM     16  N   UNL A   1      34.138  22.091  24.333  1.00  0.00    -0.274 N 
ATOM     17  C   UNL A   1      35.985  23.057  25.213  1.00  0.00     0.009 A 
ATOM     18  C   UNL A   1      35.454  21.844  24.755  1.00  0.00     0.057 A 
ATOM     19  C   UNL A   1      37.304  23.093  25.715  1.00  0.00     0.031 A 
ATOM     20  C   UNL A   1      36.251  20.682  24.712  1.00  0.00     0.029 A 
ATOM     21  C   UNL A   1      38.076  21.931  25.701  1.00  0.00     0.041 A 
ATOM     22  C   UNL A   1      37.561  20.745  25.199  1.00  0.00     0.023 A 
ATOM     23  Cl  UNL A   1      39.697  21.985  26.277  1.00  0.00    -0.084 Cl
BRANCH  16  24
ATOM     24  C   UNL A   1      33.196  21.139  23.865  1.00  0.00     0.284 C 
ATOM     25  O   UNL A   1      32.494  21.506  22.909  1.00  0.00    -0.266 OA
BRANCH  24  26
ATOM     26  C   UNL A   1      32.973  19.826  24.455  1.00  0.00     0.167 A 
ATOM     27  C   UNL A   1      32.666  19.502  25.762  1.00  0.00     0.231 A 
ATOM     28  N   UNL A   1      32.923  18.662  23.697  1.00  0.00    -0.211 NA
ATOM     29  O   UNL A   1      32.446  18.158  25.836  1.00  0.00    -0.451 OA
ATOM     30  C   UNL A   1      32.603  17.726  24.556  1.00  0.00     0.308 A 
ENDBRANCH  24  26
ENDBRANCH  16  24
ENDBRANCH   8  10
ENDBRANCH   5   8
ENDBRANCH   3   4
ENDBRANCH   2   3
ENDBRANCH   1   2
BRANCH   1  31
ATOM     31  C   UNL A   1      31.990  30.279  26.103  1.00  0.00     0.002 C 
BRANCH  31  32
ATOM     32  C   UNL A   1      31.678  31.553  26.889  1.00  0.00     0.021 C 
BRANCH  32  33
ATOM     33  C   UNL A   1      32.869  32.463  27.170  1.00  0.00     0.116 C 
BRANCH  33  34
ATOM     34  N   UNL A   1      32.487  33.820  27.524  1.00  0.00    -0.352 N 
ATOM     35  C   UNL A   1      33.064  34.675  28.435  1.00  0.00     0.251 C 
ATOM     36  H   UNL A   1      31.705  34.178  27.044  1.00  0.00     0.163 HD
ATOM     37  O   UNL A   1      32.548  35.758  28.687  1.00  0.00    -0.269 OA
BRANCH  35  38
ATOM     38  C   UNL A   1      34.297  34.265  29.141  1.00  0.00     0.039 A 
ATOM     39  C   UNL A   1      34.187  33.544  30.335  1.00  0.00     0.014 A 
ATOM     40  C   UNL A   1      35.554  34.570  28.617  1.00  0.00     0.014 A 
ATOM     41  C   UNL A   1      35.338  33.059  30.961  1.00  0.00     0.010 A 
ATOM     42  C   UNL A   1      36.695  34.032  29.206  1.00  0.00     0.010 A 
ATOM     43  C   UNL A   1      36.598  33.267  30.379  1.00  0.00    -0.014 A 
BRANCH  43  44
ATOM     44  C   UNL A   1      37.837  32.696  30.963  1.00  0.00     0.031 A 
ATOM     45  C   UNL A   1      38.456  31.473  30.350  1.00  0.00     0.074 A 
ATOM     46  C   UNL A   1      38.333  33.200  32.109  1.00  0.00     0.049 A 
ATOM     47  N   UNL A   1      39.423  30.718  30.803  1.00  0.00    -0.248 NA
ATOM     48  C   UNL A   1      37.884  31.022  29.072  1.00  0.00     0.031 C 
ATOM     49  C   UNL A   1      37.798  34.356  32.827  1.00  0.00     0.029 A 
ATOM     50  N   UNL A   1      39.380  32.777  32.890  1.00  0.00    -0.354 N 
ATOM     51  C   UNL A   1      39.550  29.682  29.887  1.00  0.00     0.074 A 
ATOM     52  C   UNL A   1      38.539  29.888  28.871  1.00  0.00     0.031 C 
ATOM     53  C   UNL A   1      38.514  34.547  33.947  1.00  0.00     0.029 A 
ATOM     54  C   UNL A   1      39.530  33.503  34.046  1.00  0.00     0.049 A 
ATOM     55  H   UNL A   1      39.967  32.026  32.646  1.00  0.00     0.167 HD
ATOM     56  C   UNL A   1      40.439  28.660  29.884  1.00  0.00     0.037 A 
ATOM     57  C   UNL A   1      40.373  33.334  35.083  1.00  0.00     0.037 A 
ATOM     58  C   UNL A   1      41.464  28.479  30.877  1.00  0.00     0.049 A 
ATOM     59  C   UNL A   1      41.362  32.203  35.056  1.00  0.00     0.074 A 
ATOM     60  C   UNL A   1      42.464  27.523  30.918  1.00  0.00     0.029 A 
ATOM     61  N   UNL A   1      41.619  29.270  32.005  1.00  0.00    -0.354 N 
ATOM     62  N   UNL A   1      41.518  31.268  34.150  1.00  0.00    -0.248 NA
ATOM     63  C   UNL A   1      42.293  32.105  36.188  1.00  0.00     0.031 C 
ATOM     64  C   UNL A   1      43.199  27.711  32.094  1.00  0.00     0.029 A 
ATOM     65  C   UNL A   1      42.684  28.811  32.762  1.00  0.00     0.049 A 
ATOM     66  H   UNL A   1      41.055  30.044  32.234  1.00  0.00     0.167 HD
ATOM     67  C   UNL A   1      42.577  30.486  34.588  1.00  0.00     0.074 A 
ATOM     68  C   UNL A   1      43.030  31.056  35.841  1.00  0.00     0.031 C 
ATOM     69  C   UNL A   1      43.128  29.396  34.002  1.00  0.00     0.037 A 
BRANCH  56  70
ATOM     70  C   UNL A   1      40.325  27.655  28.776  1.00  0.00     0.057 A 
ATOM     71  C   UNL A   1      39.557  26.490  28.908  1.00  0.00     0.134 A 
ATOM     72  C   UNL A   1      40.991  27.854  27.560  1.00  0.00     0.134 A 
ATOM     73  F   UNL A   1      38.903  26.233  30.051  1.00  0.00    -0.206 F 
ATOM     74  C   UNL A   1      39.487  25.543  27.886  1.00  0.00     0.040 A 
ATOM     75  C   UNL A   1      40.906  26.927  26.520  1.00  0.00     0.040 A 
ATOM     76  F   UNL A   1      41.739  28.952  27.365  1.00  0.00    -0.206 F 
ATOM     77  C   UNL A   1      40.160  25.762  26.686  1.00  0.00     0.006 A 
ENDBRANCH  56  70
BRANCH  57  78
ATOM     78  C   UNL A   1      40.314  34.272  36.230  1.00  0.00     0.057 A 
ATOM     79  C   UNL A   1      41.006  35.489  36.204  1.00  0.00     0.134 A 
ATOM     80  C   UNL A   1      39.535  33.995  37.361  1.00  0.00     0.134 A 
ATOM     81  F   UNL A   1      41.781  35.801  35.154  1.00  0.00    -0.206 F 
ATOM     82  C   UNL A   1      40.930  36.395  37.263  1.00  0.00     0.040 A 
ATOM     83  C   UNL A   1      39.434  34.901  38.418  1.00  0.00     0.040 A 
ATOM     84  F   UNL A   1      38.842  32.850  37.440  1.00  0.00    -0.206 F 
ATOM     85  C   UNL A   1      40.135  36.104  38.371  1.00  0.00     0.006 A 
ENDBRANCH  57  78
BRANCH  69  86
ATOM     86  C   UNL A   1      44.304  28.761  34.681  1.00  0.00     0.057 A 
ATOM     87  C   UNL A   1      44.154  27.696  35.576  1.00  0.00     0.134 A 
ATOM     88  C   UNL A   1      45.608  29.172  34.372  1.00  0.00     0.134 A 
ATOM     89  F   UNL A   1      42.931  27.265  35.920  1.00  0.00    -0.206 F 
ATOM     90  C   UNL A   1      45.260  27.062  36.144  1.00  0.00     0.040 A 
ATOM     91  C   UNL A   1      46.722  28.532  34.919  1.00  0.00     0.040 A 
ATOM     92  F   UNL A   1      45.820  30.183  33.516  1.00  0.00    -0.206 F 
ATOM     93  C   UNL A   1      46.549  27.474  35.808  1.00  0.00     0.006 A 
ENDBRANCH  69  86
ENDBRANCH  43  44
ENDBRANCH  35  38
ENDBRANCH  33  34
ENDBRANCH  32  33
ENDBRANCH  31  32
ENDBRANCH   1  31
TORSDOF 16
ENDMDL
