MODEL 1
REMARK VINA RESULT:     -11.4      0.000      0.000
REMARK SMILES O=C(NCCCCCCNC(=O)[C@@H]1C=C[C@H](NC(=O)c2ccc(Br)cc2)C1)c1ccc(-c2c3nc(c(-c4c(F)cccc4F)c4ccc([nH]4)c(-c4c(F)cccc4F)c4nc(c(-c5c(F)cccc5F)c5ccc2[nH]5)C=C4)C=C3)cc1
REMARK SMILES IDX 6 1 5 2 4 3 3 4 1 5 2 6 28 8 29 9 81 10 30 11 80 12 31 13
REMARK SMILES IDX 32 14 33 15 74 16 34 17 79 18 73 19 75 20 35 21 78 22 72 23
REMARK SMILES IDX 71 24 36 26 62 27 45 28 61 29 46 30 49 31 60 32 76 33 47 34
REMARK SMILES IDX 48 35 59 37 77 38 50 39 37 40 38 41 43 42 39 43 40 44 42 45
REMARK SMILES IDX 44 46 41 47 63 48 64 49 69 50 65 51 66 52 68 53 70 54 67 55
REMARK SMILES IDX 51 56 52 57 57 58 53 59 54 60 56 61 58 62 55 63 7 64 8 65
REMARK SMILES IDX 9 66 10 67 11 68 12 70 13 71 14 72 27 73 15 74 16 75 17 76
REMARK SMILES IDX 18 77 19 79 20 80 21 81 26 82 22 83 25 84 23 85 24 86
REMARK H PARENT 3 7 75 25 49 36 10 69 17 78
REMARK Flexibility Score: inf
ROOT
ATOM      1  C   UNL A   1      36.880  20.659  24.924  1.00  0.00     0.002 C 
ENDROOT
BRANCH   1   2
ATOM      2  C   UNL A   1      38.020  19.650  24.983  1.00  0.00     0.021 C 
BRANCH   2   3
ATOM      3  C   UNL A   1      39.209  20.098  25.817  1.00  0.00     0.116 C 
BRANCH   3   4
ATOM      4  N   UNL A   1      40.322  19.161  25.766  1.00  0.00    -0.352 N 
ATOM      5  O   UNL A   1      42.517  18.583  25.816  1.00  0.00    -0.269 OA
ATOM      6  C   UNL A   1      41.649  19.423  26.019  1.00  0.00     0.251 C 
ATOM      7  H   UNL A   1      40.101  18.234  25.520  1.00  0.00     0.163 HD
BRANCH   6   8
ATOM      8  C   UNL A   1      42.010  20.762  26.523  1.00  0.00     0.039 A 
ATOM      9  C   UNL A   1      41.965  21.018  27.897  1.00  0.00     0.014 A 
ATOM     10  C   UNL A   1      42.327  21.777  25.618  1.00  0.00     0.014 A 
ATOM     11  C   UNL A   1      42.113  22.318  28.356  1.00  0.00     0.010 A 
ATOM     12  C   UNL A   1      42.560  23.071  26.091  1.00  0.00     0.010 A 
ATOM     13  C   UNL A   1      42.436  23.353  27.461  1.00  0.00    -0.014 A 
BRANCH  13  14
ATOM     14  C   UNL A   1      42.750  24.697  28.003  1.00  0.00     0.031 A 
ATOM     15  C   UNL A   1      41.679  25.719  28.251  1.00  0.00     0.074 A 
ATOM     16  C   UNL A   1      44.038  24.970  28.288  1.00  0.00     0.049 A 
ATOM     17  N   UNL A   1      41.802  26.936  28.718  1.00  0.00    -0.248 NA
ATOM     18  C   UNL A   1      40.295  25.337  27.930  1.00  0.00     0.031 C 
ATOM     19  C   UNL A   1      45.160  24.052  28.070  1.00  0.00     0.029 A 
ATOM     20  N   UNL A   1      44.621  26.083  28.833  1.00  0.00    -0.354 N 
ATOM     21  C   UNL A   1      40.522  27.474  28.726  1.00  0.00     0.074 A 
ATOM     22  C   UNL A   1      39.634  26.454  28.208  1.00  0.00     0.031 C 
ATOM     23  C   UNL A   1      46.288  24.620  28.513  1.00  0.00     0.029 A 
ATOM     24  C   UNL A   1      45.982  25.965  28.983  1.00  0.00     0.049 A 
ATOM     25  H   UNL A   1      44.117  26.887  29.090  1.00  0.00     0.167 HD
ATOM     26  C   UNL A   1      40.132  28.706  29.131  1.00  0.00     0.037 A 
ATOM     27  C   UNL A   1      46.891  26.853  29.425  1.00  0.00     0.037 A 
ATOM     28  C   UNL A   1      41.024  29.705  29.664  1.00  0.00     0.049 A 
ATOM     29  C   UNL A   1      46.426  28.210  29.853  1.00  0.00     0.074 A 
ATOM     30  C   UNL A   1      40.715  30.965  30.150  1.00  0.00     0.029 A 
ATOM     31  N   UNL A   1      42.398  29.560  29.778  1.00  0.00    -0.354 N 
ATOM     32  N   UNL A   1      45.206  28.690  29.889  1.00  0.00    -0.248 NA
ATOM     33  C   UNL A   1      47.462  29.155  30.291  1.00  0.00     0.031 C 
ATOM     34  C   UNL A   1      41.908  31.596  30.518  1.00  0.00     0.029 A 
ATOM     35  C   UNL A   1      42.955  30.716  30.302  1.00  0.00     0.049 A 
ATOM     36  H   UNL A   1      42.904  28.755  29.525  1.00  0.00     0.167 HD
ATOM     37  C   UNL A   1      45.326  29.989  30.359  1.00  0.00     0.074 A 
ATOM     38  C   UNL A   1      46.733  30.212  30.621  1.00  0.00     0.031 C 
ATOM     39  C   UNL A   1      44.358  30.919  30.547  1.00  0.00     0.037 A 
BRANCH  26  40
ATOM     40  C   UNL A   1      38.680  29.065  29.003  1.00  0.00     0.057 A 
ATOM     41  C   UNL A   1      37.801  28.996  30.091  1.00  0.00     0.134 A 
ATOM     42  C   UNL A   1      38.177  29.573  27.797  1.00  0.00     0.134 A 
ATOM     43  F   UNL A   1      38.218  28.512  31.271  1.00  0.00    -0.206 F 
ATOM     44  C   UNL A   1      36.473  29.415  29.984  1.00  0.00     0.040 A 
ATOM     45  C   UNL A   1      36.857  30.013  27.683  1.00  0.00     0.040 A 
ATOM     46  F   UNL A   1      38.968  29.673  26.719  1.00  0.00    -0.206 F 
ATOM     47  C   UNL A   1      36.001  29.934  28.779  1.00  0.00     0.006 A 
ENDBRANCH  26  40
BRANCH  27  48
ATOM     48  C   UNL A   1      48.327  26.485  29.453  1.00  0.00     0.057 A 
ATOM     49  C   UNL A   1      49.166  26.754  28.367  1.00  0.00     0.134 A 
ATOM     50  C   UNL A   1      48.895  25.864  30.572  1.00  0.00     0.134 A 
ATOM     51  F   UNL A   1      48.675  27.333  27.261  1.00  0.00    -0.206 F 
ATOM     52  C   UNL A   1      50.517  26.406  28.386  1.00  0.00     0.040 A 
ATOM     53  C   UNL A   1      50.250  25.536  30.616  1.00  0.00     0.040 A 
ATOM     54  F   UNL A   1      48.145  25.590  31.649  1.00  0.00    -0.206 F 
ATOM     55  C   UNL A   1      51.064  25.801  29.517  1.00  0.00     0.006 A 
ENDBRANCH  27  48
BRANCH  39  56
ATOM     56  C   UNL A   1      44.800  32.250  31.073  1.00  0.00     0.057 A 
ATOM     57  C   UNL A   1      44.871  32.507  32.448  1.00  0.00     0.134 A 
ATOM     58  C   UNL A   1      45.164  33.280  30.198  1.00  0.00     0.134 A 
ATOM     59  F   UNL A   1      44.517  31.565  33.335  1.00  0.00    -0.206 F 
ATOM     60  C   UNL A   1      45.267  33.753  32.935  1.00  0.00     0.040 A 
ATOM     61  C   UNL A   1      45.585  34.523  30.673  1.00  0.00     0.040 A 
ATOM     62  F   UNL A   1      45.121  33.093  28.871  1.00  0.00    -0.206 F 
ATOM     63  C   UNL A   1      45.631  34.763  32.045  1.00  0.00     0.006 A 
ENDBRANCH  39  56
ENDBRANCH  13  14
ENDBRANCH   6   8
ENDBRANCH   3   4
ENDBRANCH   2   3
ENDBRANCH   1   2
BRANCH   1  64
ATOM     64  C   UNL A   1      37.267  22.040  24.396  1.00  0.00     0.002 C 
BRANCH  64  65
ATOM     65  C   UNL A   1      37.273  23.187  25.415  1.00  0.00     0.021 C 
BRANCH  65  66
ATOM     66  C   UNL A   1      35.888  23.695  25.823  1.00  0.00     0.116 C 
BRANCH  66  67
ATOM     67  N   UNL A   1      35.273  24.494  24.785  1.00  0.00    -0.356 N 
ATOM     68  C   UNL A   1      34.364  24.188  23.821  1.00  0.00     0.227 C 
ATOM     69  H   UNL A   1      35.567  25.434  24.775  1.00  0.00     0.163 HD
ATOM     70  O   UNL A   1      33.949  25.136  23.148  1.00  0.00    -0.274 OA
BRANCH  68  71
ATOM     71  C   UNL A   1      33.784  22.771  23.673  1.00  0.00     0.103 C 
ATOM     72  C   UNL A   1      32.495  22.639  22.913  1.00  0.00    -0.016 C 
ATOM     73  C   UNL A   1      33.429  22.166  25.058  1.00  0.00     0.047 C 
ATOM     74  C   UNL A   1      31.530  22.038  23.615  1.00  0.00    -0.006 C 
ATOM     75  C   UNL A   1      31.989  21.652  24.969  1.00  0.00     0.106 C 
BRANCH  75  76
ATOM     76  N   UNL A   1      31.047  22.092  25.977  1.00  0.00    -0.346 N 
ATOM     77  C   UNL A   1      30.624  23.313  26.425  1.00  0.00     0.251 C 
ATOM     78  H   UNL A   1      30.614  21.343  26.445  1.00  0.00     0.164 HD
ATOM     79  O   UNL A   1      29.821  23.369  27.353  1.00  0.00    -0.269 OA
BRANCH  77  80
ATOM     80  C   UNL A   1      31.111  24.575  25.851  1.00  0.00     0.039 A 
ATOM     81  C   UNL A   1      30.476  25.157  24.752  1.00  0.00     0.015 A 
ATOM     82  C   UNL A   1      32.119  25.266  26.533  1.00  0.00     0.015 A 
ATOM     83  C   UNL A   1      30.888  26.415  24.305  1.00  0.00     0.016 A 
ATOM     84  C   UNL A   1      32.538  26.518  26.077  1.00  0.00     0.016 A 
ATOM     85  C   UNL A   1      31.925  27.083  24.960  1.00  0.00     0.018 A 
ATOM     86  Br  UNL A   1      32.496  28.780  24.347  1.00  0.00    -0.051 Br
ENDBRANCH  77  80
ENDBRANCH  75  76
ENDBRANCH  68  71
ENDBRANCH  66  67
ENDBRANCH  65  66
ENDBRANCH  64  65
ENDBRANCH   1  64
TORSDOF 15
ENDMDL
MODEL 2
REMARK VINA RESULT:     -11.4      4.188      8.909
REMARK SMILES O=C(NCCCCCCNC(=O)[C@@H]1C=C[C@H](NC(=O)c2ccc(Br)cc2)C1)c1ccc(-c2c3nc(c(-c4c(F)cccc4F)c4ccc([nH]4)c(-c4c(F)cccc4F)c4nc(c(-c5c(F)cccc5F)c5ccc2[nH]5)C=C4)C=C3)cc1
REMARK SMILES IDX 6 1 5 2 4 3 3 4 1 5 2 6 28 8 29 9 81 10 30 11 80 12 31 13
REMARK SMILES IDX 32 14 33 15 74 16 34 17 79 18 73 19 75 20 35 21 78 22 72 23
REMARK SMILES IDX 71 24 36 26 62 27 45 28 61 29 46 30 49 31 60 32 76 33 47 34
REMARK SMILES IDX 48 35 59 37 77 38 50 39 37 40 38 41 43 42 39 43 40 44 42 45
REMARK SMILES IDX 44 46 41 47 63 48 64 49 69 50 65 51 66 52 68 53 70 54 67 55
REMARK SMILES IDX 51 56 52 57 57 58 53 59 54 60 56 61 58 62 55 63 7 64 8 65
REMARK SMILES IDX 9 66 10 67 11 68 12 70 13 71 14 72 27 73 15 74 16 75 17 76
REMARK SMILES IDX 18 77 19 79 20 80 21 81 26 82 22 83 25 84 23 85 24 86
REMARK H PARENT 3 7 75 25 49 36 10 69 17 78
REMARK Flexibility Score: inf
ROOT
ATOM      1  C   UNL A   1      31.612  30.730  26.202  1.00  0.00     0.002 C 
ENDROOT
BRANCH   1   2
ATOM      2  C   UNL A   1      31.413  32.200  26.549  1.00  0.00     0.021 C 
BRANCH   2   3
ATOM      3  C   UNL A   1      32.600  32.846  27.246  1.00  0.00     0.116 C 
BRANCH   3   4
ATOM      4  N   UNL A   1      32.340  34.218  27.656  1.00  0.00    -0.352 N 
ATOM      5  O   UNL A   1      32.609  36.049  28.970  1.00  0.00    -0.269 OA
ATOM      6  C   UNL A   1      33.003  34.944  28.618  1.00  0.00     0.251 C 
ATOM      7  H   UNL A   1      31.603  34.678  27.193  1.00  0.00     0.163 HD
BRANCH   6   8
ATOM      8  C   UNL A   1      34.199  34.344  29.240  1.00  0.00     0.039 A 
ATOM      9  C   UNL A   1      35.457  34.565  28.672  1.00  0.00     0.014 A 
ATOM     10  C   UNL A   1      34.053  33.509  30.351  1.00  0.00     0.014 A 
ATOM     11  C   UNL A   1      36.551  33.850  29.136  1.00  0.00     0.010 A 
ATOM     12  C   UNL A   1      35.173  32.855  30.870  1.00  0.00     0.010 A 
ATOM     13  C   UNL A   1      36.426  33.008  30.254  1.00  0.00    -0.014 A 
BRANCH  13  14
ATOM     14  C   UNL A   1      37.646  32.388  30.825  1.00  0.00     0.031 A 
ATOM     15  C   UNL A   1      38.288  32.912  32.076  1.00  0.00     0.074 A 
ATOM     16  C   UNL A   1      38.158  31.316  30.189  1.00  0.00     0.049 A 
ATOM     17  N   UNL A   1      39.358  32.477  32.691  1.00  0.00    -0.248 NA
ATOM     18  C   UNL A   1      37.658  34.076  32.720  1.00  0.00     0.031 C 
ATOM     19  C   UNL A   1      37.621  30.736  28.955  1.00  0.00     0.029 A 
ATOM     20  N   UNL A   1      39.227  30.517  30.493  1.00  0.00    -0.354 N 
ATOM     21  C   UNL A   1      39.546  33.322  33.777  1.00  0.00     0.074 A 
ATOM     22  C   UNL A   1      38.483  34.304  33.734  1.00  0.00     0.031 C 
ATOM     23  C   UNL A   1      38.335  29.651  28.630  1.00  0.00     0.029 A 
ATOM     24  C   UNL A   1      39.420  29.499  29.591  1.00  0.00     0.049 A 
ATOM     25  H   UNL A   1      39.801  30.657  31.279  1.00  0.00     0.167 HD
ATOM     26  C   UNL A   1      40.518  33.275  34.719  1.00  0.00     0.037 A 
ATOM     27  C   UNL A   1      40.381  28.560  29.527  1.00  0.00     0.037 A 
ATOM     28  C   UNL A   1      41.560  32.278  34.761  1.00  0.00     0.049 A 
ATOM     29  C   UNL A   1      41.447  28.545  30.577  1.00  0.00     0.074 A 
ATOM     30  C   UNL A   1      42.560  32.117  35.705  1.00  0.00     0.029 A 
ATOM     31  N   UNL A   1      41.737  31.279  33.817  1.00  0.00    -0.354 N 
ATOM     32  N   UNL A   1      41.589  29.329  31.619  1.00  0.00    -0.248 NA
ATOM     33  C   UNL A   1      42.494  27.524  30.441  1.00  0.00     0.031 C 
ATOM     34  C   UNL A   1      43.366  31.045  35.310  1.00  0.00     0.029 A 
ATOM     35  C   UNL A   1      42.845  30.512  34.142  1.00  0.00     0.049 A 
ATOM     36  H   UNL A   1      41.161  31.133  33.032  1.00  0.00     0.167 HD
ATOM     37  C   UNL A   1      42.735  28.893  32.265  1.00  0.00     0.074 A 
ATOM     38  C   UNL A   1      43.234  27.759  31.515  1.00  0.00     0.031 C 
ATOM     39  C   UNL A   1      43.328  29.393  33.376  1.00  0.00     0.037 A 
BRANCH  26  40
ATOM     40  C   UNL A   1      40.526  34.336  35.780  1.00  0.00     0.057 A 
ATOM     41  C   UNL A   1      41.201  35.551  35.608  1.00  0.00     0.134 A 
ATOM     42  C   UNL A   1      39.773  34.174  36.952  1.00  0.00     0.134 A 
ATOM     43  F   UNL A   1      41.945  35.766  34.512  1.00  0.00    -0.206 F 
ATOM     44  C   UNL A   1      41.130  36.566  36.565  1.00  0.00     0.040 A 
ATOM     45  C   UNL A   1      39.680  35.189  37.906  1.00  0.00     0.040 A 
ATOM     46  F   UNL A   1      39.098  33.038  37.175  1.00  0.00    -0.206 F 
ATOM     47  C   UNL A   1      40.360  36.389  37.714  1.00  0.00     0.006 A 
ENDBRANCH  26  40
BRANCH  27  48
ATOM     48  C   UNL A   1      40.383  27.584  28.410  1.00  0.00     0.057 A 
ATOM     49  C   UNL A   1      41.076  27.842  27.223  1.00  0.00     0.134 A 
ATOM     50  C   UNL A   1      39.701  26.366  28.510  1.00  0.00     0.134 A 
ATOM     51  F   UNL A   1      41.735  28.999  27.064  1.00  0.00    -0.206 F 
ATOM     52  C   UNL A   1      41.078  26.929  26.168  1.00  0.00     0.040 A 
ATOM     53  C   UNL A   1      39.718  25.431  27.475  1.00  0.00     0.040 A 
ATOM     54  F   UNL A   1      39.027  26.056  29.628  1.00  0.00    -0.206 F 
ATOM     55  C   UNL A   1      40.402  25.716  26.296  1.00  0.00     0.006 A 
ENDBRANCH  27  48
BRANCH  39  56
ATOM     56  C   UNL A   1      44.573  28.701  33.843  1.00  0.00     0.057 A 
ATOM     57  C   UNL A   1      44.519  27.605  34.713  1.00  0.00     0.134 A 
ATOM     58  C   UNL A   1      45.834  29.129  33.411  1.00  0.00     0.134 A 
ATOM     59  F   UNL A   1      43.340  27.161  35.174  1.00  0.00    -0.206 F 
ATOM     60  C   UNL A   1      45.680  26.973  35.158  1.00  0.00     0.040 A 
ATOM     61  C   UNL A   1      47.001  28.490  33.830  1.00  0.00     0.040 A 
ATOM     62  F   UNL A   1      45.950  30.171  32.574  1.00  0.00    -0.206 F 
ATOM     63  C   UNL A   1      46.925  27.412  34.711  1.00  0.00     0.006 A 
ENDBRANCH  39  56
ENDBRANCH  13  14
ENDBRANCH   6   8
ENDBRANCH   3   4
ENDBRANCH   2   3
ENDBRANCH   1   2
BRANCH   1  64
ATOM     64  C   UNL A   1      32.412  29.928  27.228  1.00  0.00     0.002 C 
BRANCH  64  65
ATOM     65  C   UNL A   1      33.804  29.452  26.790  1.00  0.00     0.021 C 
BRANCH  65  66
ATOM     66  C   UNL A   1      33.804  28.263  25.825  1.00  0.00     0.116 C 
BRANCH  66  67
ATOM     67  N   UNL A   1      33.125  27.111  26.377  1.00  0.00    -0.356 N 
ATOM     68  C   UNL A   1      31.883  26.601  26.166  1.00  0.00     0.227 C 
ATOM     69  H   UNL A   1      33.662  26.603  27.027  1.00  0.00     0.163 HD
ATOM     70  O   UNL A   1      31.639  25.523  26.717  1.00  0.00    -0.274 OA
BRANCH  68  71
ATOM     71  C   UNL A   1      30.893  27.254  25.187  1.00  0.00     0.103 C 
ATOM     72  C   UNL A   1      29.848  26.363  24.578  1.00  0.00    -0.016 C 
ATOM     73  C   UNL A   1      31.629  27.817  23.941  1.00  0.00     0.047 C 
ATOM     74  C   UNL A   1      29.857  26.376  23.243  1.00  0.00    -0.006 C 
ATOM     75  C   UNL A   1      30.903  27.278  22.706  1.00  0.00     0.106 C 
BRANCH  75  76
ATOM     76  N   UNL A   1      31.690  26.608  21.693  1.00  0.00    -0.346 N 
ATOM     77  C   UNL A   1      32.587  25.576  21.705  1.00  0.00     0.251 C 
ATOM     78  H   UNL A   1      31.547  26.978  20.793  1.00  0.00     0.164 HD
ATOM     79  O   UNL A   1      33.143  25.249  20.659  1.00  0.00    -0.269 OA
BRANCH  77  80
ATOM     80  C   UNL A   1      32.935  24.847  22.933  1.00  0.00     0.039 A 
ATOM     81  C   UNL A   1      32.172  23.760  23.363  1.00  0.00     0.015 A 
ATOM     82  C   UNL A   1      34.143  25.160  23.568  1.00  0.00     0.015 A 
ATOM     83  C   UNL A   1      32.596  23.015  24.467  1.00  0.00     0.016 A 
ATOM     84  C   UNL A   1      34.558  24.421  24.679  1.00  0.00     0.016 A 
ATOM     85  C   UNL A   1      33.779  23.357  25.127  1.00  0.00     0.018 A 
ATOM     86  Br  UNL A   1      34.347  22.360  26.631  1.00  0.00    -0.051 Br
ENDBRANCH  77  80
ENDBRANCH  75  76
ENDBRANCH  68  71
ENDBRANCH  66  67
ENDBRANCH  65  66
ENDBRANCH  64  65
ENDBRANCH   1  64
TORSDOF 15
ENDMDL
MODEL 3
REMARK VINA RESULT:     -11.4      0.951      6.471
REMARK SMILES O=C(NCCCCCCNC(=O)[C@@H]1C=C[C@H](NC(=O)c2ccc(Br)cc2)C1)c1ccc(-c2c3nc(c(-c4c(F)cccc4F)c4ccc([nH]4)c(-c4c(F)cccc4F)c4nc(c(-c5c(F)cccc5F)c5ccc2[nH]5)C=C4)C=C3)cc1
REMARK SMILES IDX 6 1 5 2 4 3 3 4 1 5 2 6 28 8 29 9 81 10 30 11 80 12 31 13
REMARK SMILES IDX 32 14 33 15 74 16 34 17 79 18 73 19 75 20 35 21 78 22 72 23
REMARK SMILES IDX 71 24 36 26 62 27 45 28 61 29 46 30 49 31 60 32 76 33 47 34
REMARK SMILES IDX 48 35 59 37 77 38 50 39 37 40 38 41 43 42 39 43 40 44 42 45
REMARK SMILES IDX 44 46 41 47 63 48 64 49 69 50 65 51 66 52 68 53 70 54 67 55
REMARK SMILES IDX 51 56 52 57 57 58 53 59 54 60 56 61 58 62 55 63 7 64 8 65
REMARK SMILES IDX 9 66 10 67 11 68 12 70 13 71 14 72 27 73 15 74 16 75 17 76
REMARK SMILES IDX 18 77 19 79 20 80 21 81 26 82 22 83 25 84 23 85 24 86
REMARK H PARENT 3 7 75 25 49 36 10 69 17 78
REMARK Flexibility Score: inf
ROOT
ATOM      1  C   UNL A   1      36.624  20.934  24.880  1.00  0.00     0.002 C 
ENDROOT
BRANCH   1   2
ATOM      2  C   UNL A   1      37.743  19.902  24.916  1.00  0.00     0.021 C 
BRANCH   2   3
ATOM      3  C   UNL A   1      38.932  20.297  25.777  1.00  0.00     0.116 C 
BRANCH   3   4
ATOM      4  N   UNL A   1      39.995  19.303  25.767  1.00  0.00    -0.352 N 
ATOM      5  O   UNL A   1      42.153  18.610  25.895  1.00  0.00    -0.269 OA
ATOM      6  C   UNL A   1      41.324  19.496  26.066  1.00  0.00     0.251 C 
ATOM      7  H   UNL A   1      39.733  18.389  25.516  1.00  0.00     0.163 HD
BRANCH   6   8
ATOM      8  C   UNL A   1      41.737  20.816  26.579  1.00  0.00     0.039 A 
ATOM      9  C   UNL A   1      41.638  21.087  27.947  1.00  0.00     0.014 A 
ATOM     10  C   UNL A   1      42.160  21.802  25.684  1.00  0.00     0.014 A 
ATOM     11  C   UNL A   1      41.839  22.381  28.404  1.00  0.00     0.010 A 
ATOM     12  C   UNL A   1      42.444  23.085  26.160  1.00  0.00     0.010 A 
ATOM     13  C   UNL A   1      42.268  23.387  27.520  1.00  0.00    -0.014 A 
BRANCH  13  14
ATOM     14  C   UNL A   1      42.633  24.714  28.069  1.00  0.00     0.031 A 
ATOM     15  C   UNL A   1      44.049  25.063  28.420  1.00  0.00     0.074 A 
ATOM     16  C   UNL A   1      41.645  25.617  28.228  1.00  0.00     0.049 A 
ATOM     17  N   UNL A   1      44.519  26.181  28.912  1.00  0.00    -0.248 NA
ATOM     18  C   UNL A   1      45.072  24.028  28.201  1.00  0.00     0.031 C 
ATOM     19  C   UNL A   1      40.230  25.374  27.933  1.00  0.00     0.029 A 
ATOM     20  N   UNL A   1      41.676  26.916  28.660  1.00  0.00    -0.354 N 
ATOM     21  C   UNL A   1      45.883  25.981  29.084  1.00  0.00     0.074 A 
ATOM     22  C   UNL A   1      46.167  24.629  28.652  1.00  0.00     0.031 C 
ATOM     23  C   UNL A   1      39.535  26.498  28.151  1.00  0.00     0.029 A 
ATOM     24  C   UNL A   1      40.440  27.517  28.666  1.00  0.00     0.049 A 
ATOM     25  H   UNL A   1      42.500  27.374  28.938  1.00  0.00     0.167 HD
ATOM     26  C   UNL A   1      46.806  26.852  29.558  1.00  0.00     0.037 A 
ATOM     27  C   UNL A   1      40.070  28.746  29.068  1.00  0.00     0.037 A 
ATOM     28  C   UNL A   1      46.513  28.203  29.965  1.00  0.00     0.049 A 
ATOM     29  C   UNL A   1      41.114  29.678  29.598  1.00  0.00     0.074 A 
ATOM     30  C   UNL A   1      47.389  29.178  30.411  1.00  0.00     0.029 A 
ATOM     31  N   UNL A   1      45.247  28.768  29.981  1.00  0.00    -0.354 N 
ATOM     32  N   UNL A   1      42.405  29.486  29.719  1.00  0.00    -0.248 NA
ATOM     33  C   UNL A   1      40.652  30.993  30.059  1.00  0.00     0.031 C 
ATOM     34  C   UNL A   1      46.648  30.319  30.736  1.00  0.00     0.029 A 
ATOM     35  C   UNL A   1      45.315  30.070  30.453  1.00  0.00     0.049 A 
ATOM     36  H   UNL A   1      44.421  28.313  29.699  1.00  0.00     0.167 HD
ATOM     37  C   UNL A   1      42.912  30.656  30.263  1.00  0.00     0.074 A 
ATOM     38  C   UNL A   1      41.793  31.562  30.423  1.00  0.00     0.031 C 
ATOM     39  C   UNL A   1      44.188  30.951  30.610  1.00  0.00     0.037 A 
BRANCH  26  40
ATOM     40  C   UNL A   1      48.224  26.378  29.685  1.00  0.00     0.057 A 
ATOM     41  C   UNL A   1      49.170  26.594  28.675  1.00  0.00     0.134 A 
ATOM     42  C   UNL A   1      48.670  25.779  30.871  1.00  0.00     0.134 A 
ATOM     43  F   UNL A   1      48.806  27.157  27.512  1.00  0.00    -0.206 F 
ATOM     44  C   UNL A   1      50.508  26.227  28.838  1.00  0.00     0.040 A 
ATOM     45  C   UNL A   1      50.008  25.425  31.052  1.00  0.00     0.040 A 
ATOM     46  F   UNL A   1      47.818  25.550  31.880  1.00  0.00    -0.206 F 
ATOM     47  C   UNL A   1      50.932  25.649  30.034  1.00  0.00     0.006 A 
ENDBRANCH  26  40
BRANCH  27  48
ATOM     48  C   UNL A   1      38.642  29.142  29.006  1.00  0.00     0.057 A 
ATOM     49  C   UNL A   1      37.819  29.065  30.133  1.00  0.00     0.134 A 
ATOM     50  C   UNL A   1      38.071  29.615  27.818  1.00  0.00     0.134 A 
ATOM     51  F   UNL A   1      38.306  28.604  31.296  1.00  0.00    -0.206 F 
ATOM     52  C   UNL A   1      36.473  29.432  30.080  1.00  0.00     0.040 A 
ATOM     53  C   UNL A   1      36.736  30.013  27.757  1.00  0.00     0.040 A 
ATOM     54  F   UNL A   1      38.812  29.722  26.706  1.00  0.00    -0.206 F 
ATOM     55  C   UNL A   1      35.930  29.914  28.889  1.00  0.00     0.006 A 
ENDBRANCH  27  48
BRANCH  39  56
ATOM     56  C   UNL A   1      44.430  32.314  31.182  1.00  0.00     0.057 A 
ATOM     57  C   UNL A   1      44.394  32.547  32.563  1.00  0.00     0.134 A 
ATOM     58  C   UNL A   1      44.712  33.401  30.346  1.00  0.00     0.134 A 
ATOM     59  F   UNL A   1      44.112  31.548  33.413  1.00  0.00    -0.206 F 
ATOM     60  C   UNL A   1      44.605  33.820  33.091  1.00  0.00     0.040 A 
ATOM     61  C   UNL A   1      44.948  34.675  30.864  1.00  0.00     0.040 A 
ATOM     62  F   UNL A   1      44.765  33.241  29.015  1.00  0.00    -0.206 F 
ATOM     63  C   UNL A   1      44.888  34.888  32.240  1.00  0.00     0.006 A 
ENDBRANCH  39  56
ENDBRANCH  13  14
ENDBRANCH   6   8
ENDBRANCH   3   4
ENDBRANCH   2   3
ENDBRANCH   1   2
BRANCH   1  64
ATOM     64  C   UNL A   1      36.925  22.239  25.617  1.00  0.00     0.002 C 
BRANCH  64  65
ATOM     65  C   UNL A   1      35.713  23.068  26.066  1.00  0.00     0.021 C 
BRANCH  65  66
ATOM     66  C   UNL A   1      34.597  22.265  26.739  1.00  0.00     0.116 C 
BRANCH  66  67
ATOM     67  N   UNL A   1      33.483  23.101  27.131  1.00  0.00    -0.356 N 
ATOM     68  C   UNL A   1      32.215  23.210  26.652  1.00  0.00     0.227 C 
ATOM     69  H   UNL A   1      33.680  23.704  27.884  1.00  0.00     0.163 HD
ATOM     70  O   UNL A   1      31.458  23.951  27.285  1.00  0.00    -0.274 OA
BRANCH  68  71
ATOM     71  C   UNL A   1      31.716  22.354  25.476  1.00  0.00     0.103 C 
ATOM     72  C   UNL A   1      32.724  21.466  24.803  1.00  0.00    -0.016 C 
ATOM     73  C   UNL A   1      31.213  23.247  24.309  1.00  0.00     0.047 C 
ATOM     74  C   UNL A   1      32.824  21.686  23.489  1.00  0.00    -0.006 C 
ATOM     75  C   UNL A   1      31.904  22.753  23.035  1.00  0.00     0.106 C 
BRANCH  75  76
ATOM     76  N   UNL A   1      32.604  23.725  22.221  1.00  0.00    -0.346 N 
ATOM     77  C   UNL A   1      33.002  25.020  22.407  1.00  0.00     0.251 C 
ATOM     78  H   UNL A   1      32.849  23.374  21.336  1.00  0.00     0.164 HD
ATOM     79  O   UNL A   1      33.557  25.617  21.488  1.00  0.00    -0.269 OA
BRANCH  77  80
ATOM     80  C   UNL A   1      32.773  25.742  23.666  1.00  0.00     0.039 A 
ATOM     81  C   UNL A   1      33.767  25.817  24.642  1.00  0.00     0.015 A 
ATOM     82  C   UNL A   1      31.600  26.496  23.792  1.00  0.00     0.015 A 
ATOM     83  C   UNL A   1      33.563  26.610  25.775  1.00  0.00     0.016 A 
ATOM     84  C   UNL A   1      31.392  27.278  24.931  1.00  0.00     0.016 A 
ATOM     85  C   UNL A   1      32.372  27.326  25.920  1.00  0.00     0.018 A 
ATOM     86  Br  UNL A   1      32.085  28.388  27.459  1.00  0.00    -0.051 Br
ENDBRANCH  77  80
ENDBRANCH  75  76
ENDBRANCH  68  71
ENDBRANCH  66  67
ENDBRANCH  65  66
ENDBRANCH  64  65
ENDBRANCH   1  64
TORSDOF 15
ENDMDL
