MODEL 1
REMARK VINA RESULT:     -11.3      0.000      0.000
REMARK SMILES O=C(CCOc1cc(-c2ccncc2)nc(-c2ccc(C(F)(F)F)cc2)n1)NCCCCCCNC(=O)c1ccc(-c2c3nc(c(-c4c(F)cccc4F)c4ccc([nH]4)c(-c4c(F)cccc4F)c4nc(c(-c5c(F)cccc5F)c5ccc2[nH]5)C=C4)C=C3)cc1
REMARK SMILES IDX 30 1 29 2 28 3 1 4 2 5 3 7 4 8 5 9 6 10 7 11 27 12 8 13
REMARK SMILES IDX 16 14 15 15 9 16 10 17 14 18 11 19 13 20 12 21 17 22 18 23
REMARK SMILES IDX 26 24 19 25 25 26 20 27 21 28 22 29 23 30 24 31 31 32 32 33
REMARK SMILES IDX 33 34 34 35 35 36 36 37 37 39 38 40 39 41 91 42 40 43 90 44
REMARK SMILES IDX 41 45 42 46 43 47 84 48 44 49 89 50 83 51 85 52 45 53 88 54
REMARK SMILES IDX 82 55 81 56 46 58 72 59 55 60 71 61 56 62 59 63 70 64 86 65
REMARK SMILES IDX 57 66 58 67 69 69 87 70 60 71 47 72 48 73 53 74 49 75 50 76
REMARK SMILES IDX 52 77 54 78 51 79 73 80 74 81 79 82 75 83 76 84 78 85 80 86
REMARK SMILES IDX 77 87 61 88 62 89 67 90 63 91 64 92 66 93 68 94 65 95
REMARK H PARENT 28 6 35 38 85 57 59 68
REMARK Flexibility Score: inf
ROOT
ATOM      1  C   UNL A   1      36.446  22.935  23.259  1.00  0.00     0.021 C 
ENDROOT
BRANCH   1   2
ATOM      2  C   UNL A   1      34.937  23.182  23.149  1.00  0.00     0.116 C 
BRANCH   2   3
ATOM      3  N   UNL A   1      34.147  23.197  24.353  1.00  0.00    -0.356 N 
ATOM      4  O   UNL A   1      34.631  25.407  24.770  1.00  0.00    -0.275 OA
ATOM      5  C   UNL A   1      34.009  24.386  25.049  1.00  0.00     0.223 C 
ATOM      6  H   UNL A   1      33.713  22.375  24.677  1.00  0.00     0.163 HD
BRANCH   5   7
ATOM      7  C   UNL A   1      32.911  24.398  26.081  1.00  0.00     0.141 C 
BRANCH   7   8
ATOM      8  C   UNL A   1      31.670  25.032  25.457  1.00  0.00     0.241 C 
BRANCH   8   9
ATOM      9  O   UNL A   1      31.280  26.178  26.211  1.00  0.00    -0.477 OA
BRANCH   9  10
ATOM     10  C   UNL A   1      31.424  27.409  25.639  1.00  0.00     0.217 A 
ATOM     11  C   UNL A   1      30.590  27.929  24.672  1.00  0.00     0.097 A 
ATOM     12  N   UNL A   1      32.342  28.150  26.269  1.00  0.00    -0.193 NA
ATOM     13  C   UNL A   1      30.709  29.286  24.403  1.00  0.00     0.078 A 
ATOM     14  C   UNL A   1      32.413  29.447  25.935  1.00  0.00     0.163 A 
ATOM     15  N   UNL A   1      31.626  30.059  25.027  1.00  0.00    -0.228 NA
BRANCH  13  16
ATOM     16  C   UNL A   1      29.762  29.988  23.508  1.00  0.00     0.003 A 
ATOM     17  C   UNL A   1      29.151  31.193  23.887  1.00  0.00     0.030 A 
ATOM     18  C   UNL A   1      29.435  29.504  22.242  1.00  0.00     0.030 A 
ATOM     19  C   UNL A   1      28.257  31.834  23.047  1.00  0.00     0.111 A 
ATOM     20  C   UNL A   1      28.523  30.210  21.462  1.00  0.00     0.111 A 
ATOM     21  N   UNL A   1      27.922  31.360  21.840  1.00  0.00    -0.265 NA
ENDBRANCH  13  16
BRANCH  14  22
ATOM     22  C   UNL A   1      33.329  30.254  26.746  1.00  0.00     0.019 A 
ATOM     23  C   UNL A   1      32.910  31.466  27.317  1.00  0.00     0.012 A 
ATOM     24  C   UNL A   1      34.679  29.894  26.895  1.00  0.00     0.012 A 
ATOM     25  C   UNL A   1      33.803  32.275  28.030  1.00  0.00     0.014 A 
ATOM     26  C   UNL A   1      35.578  30.703  27.597  1.00  0.00     0.014 A 
ATOM     27  C   UNL A   1      35.147  31.900  28.179  1.00  0.00     0.056 A 
BRANCH  27  28
ATOM     28  C   UNL A   1      36.101  32.780  28.948  1.00  0.00     0.416 C 
ATOM     29  F   UNL A   1      35.849  32.780  30.287  1.00  0.00    -0.166 F 
ATOM     30  F   UNL A   1      37.397  32.381  28.813  1.00  0.00    -0.166 F 
ATOM     31  F   UNL A   1      36.074  34.087  28.565  1.00  0.00    -0.166 F 
ENDBRANCH  27  28
ENDBRANCH  14  22
ENDBRANCH   9  10
ENDBRANCH   8   9
ENDBRANCH   7   8
ENDBRANCH   5   7
ENDBRANCH   2   3
ENDBRANCH   1   2
BRANCH   1  32
ATOM     32  C   UNL A   1      37.068  22.351  24.533  1.00  0.00     0.002 C 
BRANCH  32  33
ATOM     33  C   UNL A   1      37.003  20.847  24.814  1.00  0.00     0.002 C 
BRANCH  33  34
ATOM     34  C   UNL A   1      38.283  20.010  24.781  1.00  0.00     0.021 C 
BRANCH  34  35
ATOM     35  C   UNL A   1      38.903  19.530  26.088  1.00  0.00     0.116 C 
BRANCH  35  36
ATOM     36  N   UNL A   1      40.175  18.848  25.942  1.00  0.00    -0.352 N 
ATOM     37  C   UNL A   1      41.478  19.276  26.058  1.00  0.00     0.251 C 
ATOM     38  H   UNL A   1      40.088  17.894  25.717  1.00  0.00     0.163 HD
ATOM     39  O   UNL A   1      42.366  18.451  25.841  1.00  0.00    -0.269 OA
BRANCH  37  40
ATOM     40  C   UNL A   1      41.869  20.675  26.400  1.00  0.00     0.039 A 
ATOM     41  C   UNL A   1      41.952  21.604  25.348  1.00  0.00     0.014 A 
ATOM     42  C   UNL A   1      42.217  21.099  27.682  1.00  0.00     0.014 A 
ATOM     43  C   UNL A   1      42.321  22.934  25.587  1.00  0.00     0.010 A 
ATOM     44  C   UNL A   1      42.501  22.447  27.937  1.00  0.00     0.010 A 
ATOM     45  C   UNL A   1      42.567  23.381  26.892  1.00  0.00    -0.014 A 
BRANCH  45  46
ATOM     46  C   UNL A   1      42.900  24.807  27.177  1.00  0.00     0.031 A 
ATOM     47  C   UNL A   1      44.212  25.397  26.727  1.00  0.00     0.074 A 
ATOM     48  C   UNL A   1      42.043  25.568  27.888  1.00  0.00     0.049 A 
ATOM     49  N   UNL A   1      44.695  26.600  26.925  1.00  0.00    -0.248 NA
ATOM     50  C   UNL A   1      45.113  24.509  25.978  1.00  0.00     0.031 C 
ATOM     51  C   UNL A   1      40.754  25.121  28.416  1.00  0.00     0.029 A 
ATOM     52  N   UNL A   1      42.131  26.878  28.293  1.00  0.00    -0.354 N 
ATOM     53  C   UNL A   1      45.959  26.604  26.347  1.00  0.00     0.074 A 
ATOM     54  C   UNL A   1      46.188  25.271  25.832  1.00  0.00     0.031 C 
ATOM     55  C   UNL A   1      40.158  26.145  29.047  1.00  0.00     0.029 A 
ATOM     56  C   UNL A   1      41.037  27.310  29.004  1.00  0.00     0.049 A 
ATOM     57  H   UNL A   1      42.905  27.453  28.093  1.00  0.00     0.167 HD
ATOM     58  C   UNL A   1      46.843  27.626  26.238  1.00  0.00     0.037 A 
ATOM     59  C   UNL A   1      40.770  28.507  29.563  1.00  0.00     0.037 A 
ATOM     60  C   UNL A   1      46.606  28.961  26.725  1.00  0.00     0.049 A 
ATOM     61  C   UNL A   1      41.773  29.621  29.441  1.00  0.00     0.074 A 
ATOM     62  C   UNL A   1      47.410  30.083  26.595  1.00  0.00     0.029 A 
ATOM     63  N   UNL A   1      45.488  29.356  27.444  1.00  0.00    -0.354 N 
ATOM     64  N   UNL A   1      42.931  29.630  28.829  1.00  0.00    -0.248 NA
ATOM     65  C   UNL A   1      41.426  30.894  30.090  1.00  0.00     0.031 C 
ATOM     66  C   UNL A   1      46.801  31.141  27.280  1.00  0.00     0.029 A 
ATOM     67  C   UNL A   1      45.594  30.694  27.791  1.00  0.00     0.049 A 
ATOM     68  H   UNL A   1      44.731  28.770  27.674  1.00  0.00     0.167 HD
ATOM     69  C   UNL A   1      43.436  30.914  28.989  1.00  0.00     0.074 A 
ATOM     70  C   UNL A   1      42.453  31.659  29.747  1.00  0.00     0.031 C 
ATOM     71  C   UNL A   1      44.609  31.429  28.544  1.00  0.00     0.037 A 
BRANCH  58  72
ATOM     72  C   UNL A   1      48.158  27.335  25.570  1.00  0.00     0.057 A 
ATOM     73  C   UNL A   1      49.290  26.940  26.296  1.00  0.00     0.134 A 
ATOM     74  C   UNL A   1      48.289  27.430  24.178  1.00  0.00     0.134 A 
ATOM     75  F   UNL A   1      49.238  26.835  27.633  1.00  0.00    -0.206 F 
ATOM     76  C   UNL A   1      50.512  26.690  25.668  1.00  0.00     0.040 A 
ATOM     77  C   UNL A   1      49.498  27.154  23.536  1.00  0.00     0.040 A 
ATOM     78  F   UNL A   1      47.244  27.791  23.418  1.00  0.00    -0.206 F 
ATOM     79  C   UNL A   1      50.617  26.793  24.283  1.00  0.00     0.006 A 
ENDBRANCH  58  72
BRANCH  59  80
ATOM     80  C   UNL A   1      39.477  28.730  30.257  1.00  0.00     0.057 A 
ATOM     81  C   UNL A   1      39.335  28.435  31.619  1.00  0.00     0.134 A 
ATOM     82  C   UNL A   1      38.357  29.235  29.586  1.00  0.00     0.134 A 
ATOM     83  F   UNL A   1      40.366  27.928  32.309  1.00  0.00    -0.206 F 
ATOM     84  C   UNL A   1      38.123  28.622  32.285  1.00  0.00     0.040 A 
ATOM     85  C   UNL A   1      37.146  29.450  30.247  1.00  0.00     0.040 A 
ATOM     86  F   UNL A   1      38.429  29.540  28.282  1.00  0.00    -0.206 F 
ATOM     87  C   UNL A   1      37.025  29.137  31.599  1.00  0.00     0.006 A 
ENDBRANCH  59  80
BRANCH  71  88
ATOM     88  C   UNL A   1      44.876  32.878  28.835  1.00  0.00     0.057 A 
ATOM     89  C   UNL A   1      44.490  33.896  27.953  1.00  0.00     0.134 A 
ATOM     90  C   UNL A   1      45.508  33.260  30.025  1.00  0.00     0.134 A 
ATOM     91  F   UNL A   1      43.893  33.596  26.789  1.00  0.00    -0.206 F 
ATOM     92  C   UNL A   1      44.747  35.239  28.232  1.00  0.00     0.040 A 
ATOM     93  C   UNL A   1      45.745  34.603  30.328  1.00  0.00     0.040 A 
ATOM     94  F   UNL A   1      45.897  32.338  30.918  1.00  0.00    -0.206 F 
ATOM     95  C   UNL A   1      45.371  35.596  29.426  1.00  0.00     0.006 A 
ENDBRANCH  71  88
ENDBRANCH  45  46
ENDBRANCH  37  40
ENDBRANCH  35  36
ENDBRANCH  34  35
ENDBRANCH  33  34
ENDBRANCH  32  33
ENDBRANCH   1  32
TORSDOF 19
ENDMDL
MODEL 2
REMARK VINA RESULT:     -11.1      3.655      8.187
REMARK SMILES O=C(CCOc1cc(-c2ccncc2)nc(-c2ccc(C(F)(F)F)cc2)n1)NCCCCCCNC(=O)c1ccc(-c2c3nc(c(-c4c(F)cccc4F)c4ccc([nH]4)c(-c4c(F)cccc4F)c4nc(c(-c5c(F)cccc5F)c5ccc2[nH]5)C=C4)C=C3)cc1
REMARK SMILES IDX 30 1 29 2 28 3 1 4 2 5 3 7 4 8 5 9 6 10 7 11 27 12 8 13
REMARK SMILES IDX 16 14 15 15 9 16 10 17 14 18 11 19 13 20 12 21 17 22 18 23
REMARK SMILES IDX 26 24 19 25 25 26 20 27 21 28 22 29 23 30 24 31 31 32 32 33
REMARK SMILES IDX 33 34 34 35 35 36 36 37 37 39 38 40 39 41 91 42 40 43 90 44
REMARK SMILES IDX 41 45 42 46 43 47 84 48 44 49 89 50 83 51 85 52 45 53 88 54
REMARK SMILES IDX 82 55 81 56 46 58 72 59 55 60 71 61 56 62 59 63 70 64 86 65
REMARK SMILES IDX 57 66 58 67 69 69 87 70 60 71 47 72 48 73 53 74 49 75 50 76
REMARK SMILES IDX 52 77 54 78 51 79 73 80 74 81 79 82 75 83 76 84 78 85 80 86
REMARK SMILES IDX 77 87 61 88 62 89 67 90 63 91 64 92 66 93 68 94 65 95
REMARK H PARENT 28 6 35 38 85 57 59 68
REMARK Flexibility Score: inf
ROOT
ATOM      1  C   UNL A   1      39.090  29.425  27.972  1.00  0.00     0.021 C 
ENDROOT
BRANCH   1   2
ATOM      2  C   UNL A   1      37.639  29.163  28.397  1.00  0.00     0.116 C 
BRANCH   2   3
ATOM      3  N   UNL A   1      36.595  29.982  27.839  1.00  0.00    -0.356 N 
ATOM      4  O   UNL A   1      36.057  30.880  29.888  1.00  0.00    -0.275 OA
ATOM      5  C   UNL A   1      35.912  30.855  28.669  1.00  0.00     0.223 C 
ATOM      6  H   UNL A   1      36.369  29.921  26.883  1.00  0.00     0.163 HD
BRANCH   5   7
ATOM      7  C   UNL A   1      35.092  31.901  27.959  1.00  0.00     0.141 C 
BRANCH   7   8
ATOM      8  C   UNL A   1      33.750  31.283  27.572  1.00  0.00     0.241 C 
BRANCH   8   9
ATOM      9  O   UNL A   1      33.956  30.222  26.641  1.00  0.00    -0.477 OA
BRANCH   9  10
ATOM     10  C   UNL A   1      32.860  29.575  26.146  1.00  0.00     0.217 A 
ATOM     11  C   UNL A   1      31.856  30.175  25.416  1.00  0.00     0.097 A 
ATOM     12  N   UNL A   1      32.968  28.247  26.262  1.00  0.00    -0.193 NA
ATOM     13  C   UNL A   1      30.970  29.334  24.756  1.00  0.00     0.078 A 
ATOM     14  C   UNL A   1      32.058  27.503  25.616  1.00  0.00     0.163 A 
ATOM     15  N   UNL A   1      31.057  27.988  24.854  1.00  0.00    -0.228 NA
BRANCH  13  16
ATOM     16  C   UNL A   1      29.955  29.857  23.814  1.00  0.00     0.003 A 
ATOM     17  C   UNL A   1      29.414  31.142  23.958  1.00  0.00     0.030 A 
ATOM     18  C   UNL A   1      29.494  29.113  22.728  1.00  0.00     0.030 A 
ATOM     19  C   UNL A   1      28.456  31.616  23.079  1.00  0.00     0.111 A 
ATOM     20  C   UNL A   1      28.526  29.664  21.894  1.00  0.00     0.111 A 
ATOM     21  N   UNL A   1      27.992  30.896  22.049  1.00  0.00    -0.265 NA
ENDBRANCH  13  16
BRANCH  14  22
ATOM     22  C   UNL A   1      32.294  26.057  25.650  1.00  0.00     0.019 A 
ATOM     23  C   UNL A   1      33.489  25.509  25.161  1.00  0.00     0.012 A 
ATOM     24  C   UNL A   1      31.294  25.166  26.077  1.00  0.00     0.012 A 
ATOM     25  C   UNL A   1      33.686  24.123  25.124  1.00  0.00     0.014 A 
ATOM     26  C   UNL A   1      31.481  23.781  26.033  1.00  0.00     0.014 A 
ATOM     27  C   UNL A   1      32.683  23.244  25.562  1.00  0.00     0.056 A 
BRANCH  27  28
ATOM     28  C   UNL A   1      32.906  21.753  25.516  1.00  0.00     0.416 C 
ATOM     29  F   UNL A   1      33.506  21.278  26.643  1.00  0.00    -0.166 F 
ATOM     30  F   UNL A   1      31.740  21.058  25.395  1.00  0.00    -0.166 F 
ATOM     31  F   UNL A   1      33.689  21.345  24.478  1.00  0.00    -0.166 F 
ENDBRANCH  27  28
ENDBRANCH  14  22
ENDBRANCH   9  10
ENDBRANCH   8   9
ENDBRANCH   7   8
ENDBRANCH   5   7
ENDBRANCH   2   3
ENDBRANCH   1   2
BRANCH   1  32
ATOM     32  C   UNL A   1      39.916  28.352  27.251  1.00  0.00     0.002 C 
BRANCH  32  33
ATOM     33  C   UNL A   1      40.417  27.118  28.005  1.00  0.00     0.002 C 
BRANCH  33  34
ATOM     34  C   UNL A   1      39.621  25.813  27.944  1.00  0.00     0.021 C 
BRANCH  34  35
ATOM     35  C   UNL A   1      39.509  25.061  26.624  1.00  0.00     0.116 C 
BRANCH  35  36
ATOM     36  N   UNL A   1      40.307  23.852  26.544  1.00  0.00    -0.352 N 
ATOM     37  C   UNL A   1      41.663  23.639  26.441  1.00  0.00     0.251 C 
ATOM     38  H   UNL A   1      39.775  23.024  26.567  1.00  0.00     0.163 HD
ATOM     39  O   UNL A   1      42.049  22.473  26.359  1.00  0.00    -0.269 OA
BRANCH  37  40
ATOM     40  C   UNL A   1      42.678  24.732  26.396  1.00  0.00     0.039 A 
ATOM     41  C   UNL A   1      43.347  25.050  27.590  1.00  0.00     0.014 A 
ATOM     42  C   UNL A   1      42.957  25.495  25.262  1.00  0.00     0.014 A 
ATOM     43  C   UNL A   1      44.308  26.069  27.631  1.00  0.00     0.010 A 
ATOM     44  C   UNL A   1      43.978  26.455  25.279  1.00  0.00     0.010 A 
ATOM     45  C   UNL A   1      44.660  26.762  26.465  1.00  0.00    -0.014 A 
BRANCH  45  46
ATOM     46  C   UNL A   1      45.724  27.807  26.473  1.00  0.00     0.031 A 
ATOM     47  C   UNL A   1      45.375  29.262  26.653  1.00  0.00     0.074 A 
ATOM     48  C   UNL A   1      47.010  27.459  26.265  1.00  0.00     0.049 A 
ATOM     49  N   UNL A   1      46.157  30.314  26.639  1.00  0.00    -0.248 NA
ATOM     50  C   UNL A   1      43.953  29.580  26.851  1.00  0.00     0.031 C 
ATOM     51  C   UNL A   1      47.491  26.095  26.041  1.00  0.00     0.029 A 
ATOM     52  N   UNL A   1      48.148  28.226  26.203  1.00  0.00    -0.354 N 
ATOM     53  C   UNL A   1      45.323  31.414  26.802  1.00  0.00     0.074 A 
ATOM     54  C   UNL A   1      43.969  30.905  26.866  1.00  0.00     0.031 C 
ATOM     55  C   UNL A   1      48.825  26.117  25.900  1.00  0.00     0.029 A 
ATOM     56  C   UNL A   1      49.293  27.497  25.981  1.00  0.00     0.049 A 
ATOM     57  H   UNL A   1      48.146  29.204  26.308  1.00  0.00     0.167 HD
ATOM     58  C   UNL A   1      45.650  32.725  26.906  1.00  0.00     0.037 A 
ATOM     59  C   UNL A   1      50.574  27.893  25.852  1.00  0.00     0.037 A 
ATOM     60  C   UNL A   1      46.999  33.231  26.870  1.00  0.00     0.049 A 
ATOM     61  C   UNL A   1      50.912  29.355  25.957  1.00  0.00     0.074 A 
ATOM     62  C   UNL A   1      47.437  34.535  27.043  1.00  0.00     0.029 A 
ATOM     63  N   UNL A   1      48.128  32.461  26.637  1.00  0.00    -0.354 N 
ATOM     64  N   UNL A   1      50.120  30.374  26.183  1.00  0.00    -0.248 NA
ATOM     65  C   UNL A   1      52.327  29.719  25.789  1.00  0.00     0.031 C 
ATOM     66  C   UNL A   1      48.825  34.559  26.863  1.00  0.00     0.029 A 
ATOM     67  C   UNL A   1      49.258  33.265  26.632  1.00  0.00     0.049 A 
ATOM     68  H   UNL A   1      48.127  31.487  26.497  1.00  0.00     0.167 HD
ATOM     69  C   UNL A   1      50.941  31.494  26.218  1.00  0.00     0.074 A 
ATOM     70  C   UNL A   1      52.294  31.027  26.000  1.00  0.00     0.031 C 
ATOM     71  C   UNL A   1      50.603  32.791  26.416  1.00  0.00     0.037 A 
BRANCH  58  72
ATOM     72  C   UNL A   1      44.524  33.710  27.060  1.00  0.00     0.057 A 
ATOM     73  C   UNL A   1      44.023  34.078  28.316  1.00  0.00     0.134 A 
ATOM     74  C   UNL A   1      43.946  34.314  25.935  1.00  0.00     0.134 A 
ATOM     75  F   UNL A   1      44.526  33.533  29.434  1.00  0.00    -0.206 F 
ATOM     76  C   UNL A   1      42.965  34.978  28.446  1.00  0.00     0.040 A 
ATOM     77  C   UNL A   1      42.906  35.239  26.054  1.00  0.00     0.040 A 
ATOM     78  F   UNL A   1      44.383  34.019  24.702  1.00  0.00    -0.206 F 
ATOM     79  C   UNL A   1      42.406  35.566  27.313  1.00  0.00     0.006 A 
ENDBRANCH  58  72
BRANCH  59  80
ATOM     80  C   UNL A   1      51.646  26.885  25.650  1.00  0.00     0.057 A 
ATOM     81  C   UNL A   1      52.230  26.231  26.742  1.00  0.00     0.134 A 
ATOM     82  C   UNL A   1      52.115  26.553  24.373  1.00  0.00     0.134 A 
ATOM     83  F   UNL A   1      51.838  26.524  27.990  1.00  0.00    -0.206 F 
ATOM     84  C   UNL A   1      53.250  25.294  26.573  1.00  0.00     0.040 A 
ATOM     85  C   UNL A   1      53.118  25.599  24.189  1.00  0.00     0.040 A 
ATOM     86  F   UNL A   1      51.594  27.142  23.286  1.00  0.00    -0.206 F 
ATOM     87  C   UNL A   1      53.693  24.972  25.292  1.00  0.00     0.006 A 
ENDBRANCH  59  80
BRANCH  71  88
ATOM     88  C   UNL A   1      51.720  33.795  26.443  1.00  0.00     0.057 A 
ATOM     89  C   UNL A   1      52.169  34.437  25.282  1.00  0.00     0.134 A 
ATOM     90  C   UNL A   1      52.337  34.139  27.653  1.00  0.00     0.134 A 
ATOM     91  F   UNL A   1      51.630  34.142  24.090  1.00  0.00    -0.206 F 
ATOM     92  C   UNL A   1      53.212  35.365  25.320  1.00  0.00     0.040 A 
ATOM     93  C   UNL A   1      53.362  35.087  27.706  1.00  0.00     0.040 A 
ATOM     94  F   UNL A   1      51.951  33.569  28.804  1.00  0.00    -0.206 F 
ATOM     95  C   UNL A   1      53.806  35.697  26.535  1.00  0.00     0.006 A 
ENDBRANCH  71  88
ENDBRANCH  45  46
ENDBRANCH  37  40
ENDBRANCH  35  36
ENDBRANCH  34  35
ENDBRANCH  33  34
ENDBRANCH  32  33
ENDBRANCH   1  32
TORSDOF 19
ENDMDL
MODEL 3
REMARK VINA RESULT:     -10.9      2.794      7.287
REMARK SMILES O=C(CCOc1cc(-c2ccncc2)nc(-c2ccc(C(F)(F)F)cc2)n1)NCCCCCCNC(=O)c1ccc(-c2c3nc(c(-c4c(F)cccc4F)c4ccc([nH]4)c(-c4c(F)cccc4F)c4nc(c(-c5c(F)cccc5F)c5ccc2[nH]5)C=C4)C=C3)cc1
REMARK SMILES IDX 30 1 29 2 28 3 1 4 2 5 3 7 4 8 5 9 6 10 7 11 27 12 8 13
REMARK SMILES IDX 16 14 15 15 9 16 10 17 14 18 11 19 13 20 12 21 17 22 18 23
REMARK SMILES IDX 26 24 19 25 25 26 20 27 21 28 22 29 23 30 24 31 31 32 32 33
REMARK SMILES IDX 33 34 34 35 35 36 36 37 37 39 38 40 39 41 91 42 40 43 90 44
REMARK SMILES IDX 41 45 42 46 43 47 84 48 44 49 89 50 83 51 85 52 45 53 88 54
REMARK SMILES IDX 82 55 81 56 46 58 72 59 55 60 71 61 56 62 59 63 70 64 86 65
REMARK SMILES IDX 57 66 58 67 69 69 87 70 60 71 47 72 48 73 53 74 49 75 50 76
REMARK SMILES IDX 52 77 54 78 51 79 73 80 74 81 79 82 75 83 76 84 78 85 80 86
REMARK SMILES IDX 77 87 61 88 62 89 67 90 63 91 64 92 66 93 68 94 65 95
REMARK H PARENT 28 6 35 38 85 57 59 68
REMARK Flexibility Score: inf
ROOT
ATOM      1  C   UNL A   1      33.516  25.199  22.381  1.00  0.00     0.021 C 
ENDROOT
BRANCH   1   2
ATOM      2  C   UNL A   1      32.040  24.784  22.389  1.00  0.00     0.116 C 
BRANCH   2   3
ATOM      3  N   UNL A   1      31.226  25.134  23.524  1.00  0.00    -0.356 N 
ATOM      4  O   UNL A   1      31.263  22.986  24.348  1.00  0.00    -0.275 OA
ATOM      5  C   UNL A   1      30.956  24.168  24.479  1.00  0.00     0.223 C 
ATOM      6  H   UNL A   1      30.868  26.045  23.620  1.00  0.00     0.163 HD
BRANCH   5   7
ATOM      7  C   UNL A   1      30.404  24.692  25.779  1.00  0.00     0.141 C 
BRANCH   7   8
ATOM      8  C   UNL A   1      31.573  25.125  26.661  1.00  0.00     0.241 C 
BRANCH   8   9
ATOM      9  O   UNL A   1      32.482  25.922  25.904  1.00  0.00    -0.477 OA
BRANCH   9  10
ATOM     10  C   UNL A   1      32.433  27.278  26.055  1.00  0.00     0.217 A 
ATOM     11  C   UNL A   1      33.323  28.018  26.805  1.00  0.00     0.097 A 
ATOM     12  N   UNL A   1      31.552  27.843  25.223  1.00  0.00    -0.193 NA
ATOM     13  C   UNL A   1      33.301  29.395  26.628  1.00  0.00     0.078 A 
ATOM     14  C   UNL A   1      31.576  29.180  25.126  1.00  0.00     0.163 A 
ATOM     15  N   UNL A   1      32.423  29.992  25.791  1.00  0.00    -0.228 NA
BRANCH  13  16
ATOM     16  C   UNL A   1      34.313  30.276  27.252  1.00  0.00     0.003 A 
ATOM     17  C   UNL A   1      33.985  31.560  27.711  1.00  0.00     0.030 A 
ATOM     18  C   UNL A   1      35.638  29.879  27.430  1.00  0.00     0.030 A 
ATOM     19  C   UNL A   1      34.943  32.380  28.281  1.00  0.00     0.111 A 
ATOM     20  C   UNL A   1      36.539  30.768  28.009  1.00  0.00     0.111 A 
ATOM     21  N   UNL A   1      36.222  32.011  28.432  1.00  0.00    -0.265 NA
ENDBRANCH  13  16
BRANCH  14  22
ATOM     22  C   UNL A   1      30.698  29.751  24.101  1.00  0.00     0.019 A 
ATOM     23  C   UNL A   1      30.751  29.301  22.773  1.00  0.00     0.012 A 
ATOM     24  C   UNL A   1      29.848  30.831  24.390  1.00  0.00     0.012 A 
ATOM     25  C   UNL A   1      29.966  29.894  21.777  1.00  0.00     0.014 A 
ATOM     26  C   UNL A   1      29.069  31.435  23.397  1.00  0.00     0.014 A 
ATOM     27  C   UNL A   1      29.114  30.967  22.080  1.00  0.00     0.056 A 
BRANCH  27  28
ATOM     28  C   UNL A   1      28.274  31.600  20.999  1.00  0.00     0.416 C 
ATOM     29  F   UNL A   1      27.381  30.728  20.452  1.00  0.00    -0.166 F 
ATOM     30  F   UNL A   1      27.535  32.647  21.463  1.00  0.00    -0.166 F 
ATOM     31  F   UNL A   1      28.999  32.092  19.956  1.00  0.00    -0.166 F 
ENDBRANCH  27  28
ENDBRANCH  14  22
ENDBRANCH   9  10
ENDBRANCH   8   9
ENDBRANCH   7   8
ENDBRANCH   5   7
ENDBRANCH   2   3
ENDBRANCH   1   2
BRANCH   1  32
ATOM     32  C   UNL A   1      34.435  24.899  23.573  1.00  0.00     0.002 C 
BRANCH  32  33
ATOM     33  C   UNL A   1      34.778  23.454  23.947  1.00  0.00     0.002 C 
BRANCH  33  34
ATOM     34  C   UNL A   1      34.512  22.952  25.367  1.00  0.00     0.021 C 
BRANCH  34  35
ATOM     35  C   UNL A   1      35.684  22.664  26.296  1.00  0.00     0.116 C 
BRANCH  35  36
ATOM     36  N   UNL A   1      36.586  21.626  25.833  1.00  0.00    -0.352 N 
ATOM     37  C   UNL A   1      37.959  21.530  25.808  1.00  0.00     0.251 C 
ATOM     38  H   UNL A   1      36.126  20.838  25.464  1.00  0.00     0.163 HD
ATOM     39  O   UNL A   1      38.447  20.514  25.312  1.00  0.00    -0.269 OA
BRANCH  37  40
ATOM     40  C   UNL A   1      38.878  22.589  26.318  1.00  0.00     0.039 A 
ATOM     41  C   UNL A   1      38.645  23.911  25.899  1.00  0.00     0.014 A 
ATOM     42  C   UNL A   1      39.986  22.341  27.128  1.00  0.00     0.014 A 
ATOM     43  C   UNL A   1      39.470  24.960  26.327  1.00  0.00     0.010 A 
ATOM     44  C   UNL A   1      40.759  23.398  27.627  1.00  0.00     0.010 A 
ATOM     45  C   UNL A   1      40.518  24.721  27.226  1.00  0.00    -0.014 A 
BRANCH  45  46
ATOM     46  C   UNL A   1      41.368  25.832  27.744  1.00  0.00     0.031 A 
ATOM     47  C   UNL A   1      40.812  26.836  28.720  1.00  0.00     0.074 A 
ATOM     48  C   UNL A   1      42.632  25.974  27.297  1.00  0.00     0.049 A 
ATOM     49  N   UNL A   1      41.385  27.894  29.241  1.00  0.00    -0.248 NA
ATOM     50  C   UNL A   1      39.420  26.640  29.149  1.00  0.00     0.031 C 
ATOM     51  C   UNL A   1      43.290  25.099  26.327  1.00  0.00     0.029 A 
ATOM     52  N   UNL A   1      43.589  26.913  27.599  1.00  0.00    -0.354 N 
ATOM     53  C   UNL A   1      40.419  28.499  30.037  1.00  0.00     0.074 A 
ATOM     54  C   UNL A   1      39.210  27.717  29.893  1.00  0.00     0.031 C 
ATOM     55  C   UNL A   1      44.550  25.520  26.138  1.00  0.00     0.029 A 
ATOM     56  C   UNL A   1      44.779  26.719  26.939  1.00  0.00     0.049 A 
ATOM     57  H   UNL A   1      43.437  27.655  28.228  1.00  0.00     0.167 HD
ATOM     58  C   UNL A   1      40.529  29.594  30.828  1.00  0.00     0.037 A 
ATOM     59  C   UNL A   1      45.926  27.425  26.971  1.00  0.00     0.037 A 
ATOM     60  C   UNL A   1      41.739  30.360  30.993  1.00  0.00     0.049 A 
ATOM     61  C   UNL A   1      46.020  28.645  27.845  1.00  0.00     0.074 A 
ATOM     62  C   UNL A   1      41.970  31.440  31.830  1.00  0.00     0.029 A 
ATOM     63  N   UNL A   1      42.920  30.133  30.303  1.00  0.00    -0.354 N 
ATOM     64  N   UNL A   1      45.120  29.162  28.646  1.00  0.00    -0.248 NA
ATOM     65  C   UNL A   1      47.293  29.380  27.819  1.00  0.00     0.031 C 
ATOM     66  C   UNL A   1      43.274  31.897  31.608  1.00  0.00     0.029 A 
ATOM     67  C   UNL A   1      43.873  31.070  30.672  1.00  0.00     0.049 A 
ATOM     68  H   UNL A   1      43.060  29.412  29.648  1.00  0.00     0.167 HD
ATOM     69  C   UNL A   1      45.728  30.259  29.244  1.00  0.00     0.074 A 
ATOM     70  C   UNL A   1      47.076  30.328  28.719  1.00  0.00     0.031 C 
ATOM     71  C   UNL A   1      45.214  31.129  30.147  1.00  0.00     0.037 A 
BRANCH  58  72
ATOM     72  C   UNL A   1      39.299  30.038  31.571  1.00  0.00     0.057 A 
ATOM     73  C   UNL A   1      38.842  29.374  32.717  1.00  0.00     0.134 A 
ATOM     74  C   UNL A   1      38.573  31.159  31.144  1.00  0.00     0.134 A 
ATOM     75  F   UNL A   1      39.485  28.290  33.177  1.00  0.00    -0.206 F 
ATOM     76  C   UNL A   1      37.688  29.783  33.388  1.00  0.00     0.040 A 
ATOM     77  C   UNL A   1      37.434  31.595  31.825  1.00  0.00     0.040 A 
ATOM     78  F   UNL A   1      38.959  31.850  30.062  1.00  0.00    -0.206 F 
ATOM     79  C   UNL A   1      36.982  30.900  32.945  1.00  0.00     0.006 A 
ENDBRANCH  58  72
BRANCH  59  80
ATOM     80  C   UNL A   1      47.098  26.975  26.178  1.00  0.00     0.057 A 
ATOM     81  C   UNL A   1      47.265  27.386  24.850  1.00  0.00     0.134 A 
ATOM     82  C   UNL A   1      48.072  26.127  26.718  1.00  0.00     0.134 A 
ATOM     83  F   UNL A   1      46.353  28.181  24.271  1.00  0.00    -0.206 F 
ATOM     84  C   UNL A   1      48.350  26.961  24.083  1.00  0.00     0.040 A 
ATOM     85  C   UNL A   1      49.176  25.713  25.970  1.00  0.00     0.040 A 
ATOM     86  F   UNL A   1      47.971  25.700  27.986  1.00  0.00    -0.206 F 
ATOM     87  C   UNL A   1      49.313  26.125  24.646  1.00  0.00     0.006 A 
ENDBRANCH  59  80
BRANCH  71  88
ATOM     88  C   UNL A   1      46.126  32.209  30.654  1.00  0.00     0.057 A 
ATOM     89  C   UNL A   1      46.943  32.025  31.777  1.00  0.00     0.134 A 
ATOM     90  C   UNL A   1      46.204  33.443  29.995  1.00  0.00     0.134 A 
ATOM     91  F   UNL A   1      46.906  30.872  32.462  1.00  0.00    -0.206 F 
ATOM     92  C   UNL A   1      47.783  33.038  32.242  1.00  0.00     0.040 A 
ATOM     93  C   UNL A   1      47.061  34.454  30.435  1.00  0.00     0.040 A 
ATOM     94  F   UNL A   1      45.455  33.685  28.908  1.00  0.00    -0.206 F 
ATOM     95  C   UNL A   1      47.849  34.255  31.566  1.00  0.00     0.006 A 
ENDBRANCH  71  88
ENDBRANCH  45  46
ENDBRANCH  37  40
ENDBRANCH  35  36
ENDBRANCH  34  35
ENDBRANCH  33  34
ENDBRANCH  32  33
ENDBRANCH   1  32
TORSDOF 19
ENDMDL
