MODEL 1
REMARK VINA RESULT:     -11.3      0.000      0.000
REMARK SMILES C[C@@H]1C[C@@H](C)CN(S(=O)(=O)N2CC[C@H](C(=O)NCCCCCCNC(=O)c3ccc(-c4c5nc(c(-c6c(F)cccc6F)c6ccc([nH]6)c(-c6c(F)cccc6F)c6nc(c(-c7c(F)cccc7F)c7ccc4[nH]7)C=C6)C=C5)cc3)[C@@H]2C)C1
REMARK SMILES IDX 20 1 19 2 18 3 17 4 15 5 16 6 14 8 11 9 12 10 81 11 13 12
REMARK SMILES IDX 82 13 8 14 9 15 10 16 7 17 1 18 2 19 3 20 83 21 4 22 6 23
REMARK SMILES IDX 5 24 21 25 22 26 23 27 24 28 25 29 26 31 27 32 28 33 80 34
REMARK SMILES IDX 29 35 79 36 30 37 31 38 32 39 73 40 33 41 78 42 72 43 74 44
REMARK SMILES IDX 34 45 77 46 71 47 70 48 35 50 61 51 44 52 60 53 45 54 48 55
REMARK SMILES IDX 59 56 75 57 46 58 47 59 58 61 76 62 49 63 36 64 37 65 42 66
REMARK SMILES IDX 38 67 39 68 41 69 43 70 40 71 62 72 63 73 68 74 64 75 65 76
REMARK SMILES IDX 67 77 69 78 66 79 50 80 51 81 56 82 52 83 53 84 55 85 57 86
REMARK SMILES IDX 54 87
REMARK H PARENT 17 7 24 30 74 49 48 60
REMARK Flexibility Score: inf
ROOT
ATOM      1  C   UNL A   1      33.252  30.309  26.749  1.00  0.00     0.002 C 
ENDROOT
BRANCH   1   2
ATOM      2  C   UNL A   1      33.549  28.851  26.391  1.00  0.00     0.021 C 
BRANCH   2   3
ATOM      3  C   UNL A   1      33.352  28.510  24.919  1.00  0.00     0.116 C 
BRANCH   3   4
ATOM      4  N   UNL A   1      31.945  28.464  24.558  1.00  0.00    -0.356 N 
ATOM      5  C   UNL A   1      31.155  27.384  24.288  1.00  0.00     0.224 C 
ATOM      6  O   UNL A   1      29.966  27.563  24.036  1.00  0.00    -0.275 OA
ATOM      7  H   UNL A   1      31.496  29.338  24.501  1.00  0.00     0.163 HD
BRANCH   5   8
ATOM      8  C   UNL A   1      31.794  26.016  24.287  1.00  0.00     0.098 C 
ATOM      9  N   UNL A   1      31.892  24.151  22.813  1.00  0.00    -0.185 NA
ATOM     10  C   UNL A   1      30.673  23.977  23.616  1.00  0.00     0.105 C 
ATOM     11  C   UNL A   1      32.302  25.568  22.899  1.00  0.00     0.083 C 
ATOM     12  C   UNL A   1      30.873  24.904  24.796  1.00  0.00     0.032 C 
ATOM     13  C   UNL A   1      31.763  26.318  21.684  1.00  0.00     0.026 C 
BRANCH   9  14
ATOM     14  S   UNL A   1      32.997  22.907  22.685  1.00  0.00     0.282 S 
ATOM     15  O   UNL A   1      34.014  23.291  21.739  1.00  0.00    -0.195 OA
ATOM     16  O   UNL A   1      32.244  21.681  22.517  1.00  0.00    -0.195 OA
BRANCH  14  17
ATOM     17  N   UNL A   1      33.739  22.846  24.236  1.00  0.00    -0.188 NA
ATOM     18  C   UNL A   1      33.245  22.285  27.311  1.00  0.00     0.009 C 
ATOM     19  C   UNL A   1      34.085  21.463  26.327  1.00  0.00     0.001 C 
ATOM     20  C   UNL A   1      35.558  21.899  26.343  1.00  0.00     0.009 C 
ATOM     21  C   UNL A   1      33.489  21.514  24.905  1.00  0.00     0.106 C 
ATOM     22  C   UNL A   1      35.726  23.249  25.654  1.00  0.00     0.001 C 
ATOM     23  C   UNL A   1      35.202  23.121  24.227  1.00  0.00     0.106 C 
ATOM     24  C   UNL A   1      37.181  23.713  25.646  1.00  0.00     0.009 C 
ENDBRANCH  14  17
ENDBRANCH   9  14
ENDBRANCH   5   8
ENDBRANCH   3   4
ENDBRANCH   2   3
ENDBRANCH   1   2
BRANCH   1  25
ATOM     25  C   UNL A   1      31.766  30.641  26.930  1.00  0.00     0.002 C 
BRANCH  25  26
ATOM     26  C   UNL A   1      31.433  32.133  26.913  1.00  0.00     0.021 C 
BRANCH  26  27
ATOM     27  C   UNL A   1      32.641  33.051  26.776  1.00  0.00     0.116 C 
BRANCH  27  28
ATOM     28  N   UNL A   1      32.500  34.267  27.561  1.00  0.00    -0.352 N 
ATOM     29  C   UNL A   1      33.157  34.639  28.708  1.00  0.00     0.251 C 
ATOM     30  H   UNL A   1      31.840  34.914  27.224  1.00  0.00     0.163 HD
ATOM     31  O   UNL A   1      32.781  35.616  29.347  1.00  0.00    -0.269 OA
BRANCH  29  32
ATOM     32  C   UNL A   1      34.310  33.844  29.181  1.00  0.00     0.039 A 
ATOM     33  C   UNL A   1      35.602  34.292  28.894  1.00  0.00     0.014 A 
ATOM     34  C   UNL A   1      34.118  32.663  29.901  1.00  0.00     0.014 A 
ATOM     35  C   UNL A   1      36.701  33.580  29.376  1.00  0.00     0.010 A 
ATOM     36  C   UNL A   1      35.210  32.003  30.451  1.00  0.00     0.010 A 
ATOM     37  C   UNL A   1      36.515  32.446  30.184  1.00  0.00    -0.014 A 
BRANCH  37  38
ATOM     38  C   UNL A   1      37.670  31.699  30.742  1.00  0.00     0.031 A 
ATOM     39  C   UNL A   1      38.137  31.972  32.145  1.00  0.00     0.074 A 
ATOM     40  C   UNL A   1      38.333  30.817  29.969  1.00  0.00     0.049 A 
ATOM     41  N   UNL A   1      39.161  31.473  32.789  1.00  0.00    -0.248 NA
ATOM     42  C   UNL A   1      37.367  32.959  32.920  1.00  0.00     0.031 C 
ATOM     43  C   UNL A   1      38.005  30.493  28.579  1.00  0.00     0.029 A 
ATOM     44  N   UNL A   1      39.428  30.035  30.242  1.00  0.00    -0.354 N 
ATOM     45  C   UNL A   1      39.164  32.091  34.033  1.00  0.00     0.074 A 
ATOM     46  C   UNL A   1      38.080  33.048  34.031  1.00  0.00     0.031 C 
ATOM     47  C   UNL A   1      38.863  29.563  28.131  1.00  0.00     0.029 A 
ATOM     48  C   UNL A   1      39.826  29.256  29.183  1.00  0.00     0.049 A 
ATOM     49  H   UNL A   1      39.885  30.033  31.114  1.00  0.00     0.167 HD
ATOM     50  C   UNL A   1      39.979  31.866  35.090  1.00  0.00     0.037 A 
ATOM     51  C   UNL A   1      40.857  28.397  29.071  1.00  0.00     0.037 A 
ATOM     52  C   UNL A   1      41.047  30.900  35.094  1.00  0.00     0.049 A 
ATOM     53  C   UNL A   1      41.762  28.178  30.253  1.00  0.00     0.074 A 
ATOM     54  C   UNL A   1      41.899  30.561  36.129  1.00  0.00     0.029 A 
ATOM     55  N   UNL A   1      41.412  30.122  34.005  1.00  0.00    -0.354 N 
ATOM     56  N   UNL A   1      41.714  28.724  31.444  1.00  0.00    -0.248 NA
ATOM     57  C   UNL A   1      42.860  27.217  30.077  1.00  0.00     0.031 C 
ATOM     58  C   UNL A   1      42.815  29.619  35.653  1.00  0.00     0.029 A 
ATOM     59  C   UNL A   1      42.492  29.321  34.338  1.00  0.00     0.049 A 
ATOM     60  H   UNL A   1      40.970  30.137  33.126  1.00  0.00     0.167 HD
ATOM     61  C   UNL A   1      42.749  28.145  32.170  1.00  0.00     0.074 A 
ATOM     62  C   UNL A   1      43.399  27.199  31.287  1.00  0.00     0.031 C 
ATOM     63  C   UNL A   1      43.123  28.374  33.454  1.00  0.00     0.037 A 
BRANCH  50  64
ATOM     64  C   UNL A   1      39.749  32.681  36.331  1.00  0.00     0.057 A 
ATOM     65  C   UNL A   1      40.494  33.835  36.611  1.00  0.00     0.134 A 
ATOM     66  C   UNL A   1      38.746  32.326  37.244  1.00  0.00     0.134 A 
ATOM     67  F   UNL A   1      41.477  34.226  35.786  1.00  0.00    -0.206 F 
ATOM     68  C   UNL A   1      40.274  34.586  37.767  1.00  0.00     0.040 A 
ATOM     69  C   UNL A   1      38.495  33.087  38.386  1.00  0.00     0.040 A 
ATOM     70  F   UNL A   1      37.990  31.238  37.036  1.00  0.00    -0.206 F 
ATOM     71  C   UNL A   1      39.266  34.216  38.655  1.00  0.00     0.006 A 
ENDBRANCH  50  64
BRANCH  51  72
ATOM     72  C   UNL A   1      41.080  27.660  27.799  1.00  0.00     0.057 A 
ATOM     73  C   UNL A   1      40.529  26.390  27.592  1.00  0.00     0.134 A 
ATOM     74  C   UNL A   1      41.860  28.199  26.770  1.00  0.00     0.134 A 
ATOM     75  F   UNL A   1      39.785  25.813  28.548  1.00  0.00    -0.206 F 
ATOM     76  C   UNL A   1      40.766  25.671  26.420  1.00  0.00     0.040 A 
ATOM     77  C   UNL A   1      42.082  27.503  25.579  1.00  0.00     0.040 A 
ATOM     78  F   UNL A   1      42.410  29.416  26.899  1.00  0.00    -0.206 F 
ATOM     79  C   UNL A   1      41.542  26.230  25.407  1.00  0.00     0.006 A 
ENDBRANCH  51  72
BRANCH  63  80
ATOM     80  C   UNL A   1      44.253  27.550  34.000  1.00  0.00     0.057 A 
ATOM     81  C   UNL A   1      45.584  27.984  33.955  1.00  0.00     0.134 A 
ATOM     82  C   UNL A   1      43.997  26.318  34.617  1.00  0.00     0.134 A 
ATOM     83  F   UNL A   1      45.900  29.148  33.368  1.00  0.00    -0.206 F 
ATOM     84  C   UNL A   1      46.621  27.210  34.478  1.00  0.00     0.040 A 
ATOM     85  C   UNL A   1      45.022  25.550  35.171  1.00  0.00     0.040 A 
ATOM     86  F   UNL A   1      42.744  25.847  34.703  1.00  0.00    -0.206 F 
ATOM     87  C   UNL A   1      46.340  25.992  35.095  1.00  0.00     0.006 A 
ENDBRANCH  63  80
ENDBRANCH  37  38
ENDBRANCH  29  32
ENDBRANCH  27  28
ENDBRANCH  26  27
ENDBRANCH  25  26
ENDBRANCH   1  25
TORSDOF 15
ENDMDL
MODEL 2
REMARK VINA RESULT:     -11.3      2.057      3.188
REMARK SMILES C[C@@H]1C[C@@H](C)CN(S(=O)(=O)N2CC[C@H](C(=O)NCCCCCCNC(=O)c3ccc(-c4c5nc(c(-c6c(F)cccc6F)c6ccc([nH]6)c(-c6c(F)cccc6F)c6nc(c(-c7c(F)cccc7F)c7ccc4[nH]7)C=C6)C=C5)cc3)[C@@H]2C)C1
REMARK SMILES IDX 20 1 19 2 18 3 17 4 15 5 16 6 14 8 11 9 12 10 81 11 13 12
REMARK SMILES IDX 82 13 8 14 9 15 10 16 7 17 1 18 2 19 3 20 83 21 4 22 6 23
REMARK SMILES IDX 5 24 21 25 22 26 23 27 24 28 25 29 26 31 27 32 28 33 80 34
REMARK SMILES IDX 29 35 79 36 30 37 31 38 32 39 73 40 33 41 78 42 72 43 74 44
REMARK SMILES IDX 34 45 77 46 71 47 70 48 35 50 61 51 44 52 60 53 45 54 48 55
REMARK SMILES IDX 59 56 75 57 46 58 47 59 58 61 76 62 49 63 36 64 37 65 42 66
REMARK SMILES IDX 38 67 39 68 41 69 43 70 40 71 62 72 63 73 68 74 64 75 65 76
REMARK SMILES IDX 67 77 69 78 66 79 50 80 51 81 56 82 52 83 53 84 55 85 57 86
REMARK SMILES IDX 54 87
REMARK H PARENT 17 7 24 30 74 49 48 60
REMARK Flexibility Score: inf
ROOT
ATOM      1  C   UNL A   1      34.618  32.337  28.996  1.00  0.00     0.002 C 
ENDROOT
BRANCH   1   2
ATOM      2  C   UNL A   1      35.400  31.682  27.855  1.00  0.00     0.021 C 
BRANCH   2   3
ATOM      3  C   UNL A   1      34.809  30.367  27.359  1.00  0.00     0.116 C 
BRANCH   3   4
ATOM      4  N   UNL A   1      33.411  30.229  27.729  1.00  0.00    -0.356 N 
ATOM      5  C   UNL A   1      32.477  29.346  27.271  1.00  0.00     0.224 C 
ATOM      6  O   UNL A   1      31.345  29.374  27.749  1.00  0.00    -0.275 OA
ATOM      7  H   UNL A   1      33.091  30.863  28.411  1.00  0.00     0.163 HD
BRANCH   5   8
ATOM      8  C   UNL A   1      32.878  28.390  26.174  1.00  0.00     0.098 C 
ATOM      9  N   UNL A   1      31.880  27.489  24.210  1.00  0.00    -0.185 NA
ATOM     10  C   UNL A   1      31.472  26.613  25.319  1.00  0.00     0.105 C 
ATOM     11  C   UNL A   1      32.331  28.775  24.782  1.00  0.00     0.083 C 
ATOM     12  C   UNL A   1      32.447  26.942  26.428  1.00  0.00     0.032 C 
ATOM     13  C   UNL A   1      31.176  29.773  24.739  1.00  0.00     0.026 C 
BRANCH   9  14
ATOM     14  S   UNL A   1      32.558  26.837  22.832  1.00  0.00     0.282 S 
ATOM     15  O   UNL A   1      33.770  27.558  22.532  1.00  0.00    -0.195 OA
ATOM     16  O   UNL A   1      31.499  26.712  21.852  1.00  0.00    -0.195 OA
BRANCH  14  17
ATOM     17  N   UNL A   1      33.015  25.246  23.303  1.00  0.00    -0.188 NA
ATOM     18  C   UNL A   1      32.177  22.196  23.228  1.00  0.00     0.009 C 
ATOM     19  C   UNL A   1      33.363  22.863  22.524  1.00  0.00     0.001 C 
ATOM     20  C   UNL A   1      34.636  22.795  23.380  1.00  0.00     0.009 C 
ATOM     21  C   UNL A   1      33.026  24.313  22.114  1.00  0.00     0.106 C 
ATOM     22  C   UNL A   1      34.545  23.761  24.556  1.00  0.00     0.001 C 
ATOM     23  C   UNL A   1      34.327  25.166  24.000  1.00  0.00     0.106 C 
ATOM     24  C   UNL A   1      35.799  23.725  25.428  1.00  0.00     0.009 C 
ENDBRANCH  14  17
ENDBRANCH   9  14
ENDBRANCH   5   8
ENDBRANCH   3   4
ENDBRANCH   2   3
ENDBRANCH   1   2
BRANCH   1  25
ATOM     25  C   UNL A   1      34.669  33.868  29.020  1.00  0.00     0.002 C 
BRANCH  25  26
ATOM     26  C   UNL A   1      33.308  34.557  29.118  1.00  0.00     0.021 C 
BRANCH  26  27
ATOM     27  C   UNL A   1      33.361  35.999  29.607  1.00  0.00     0.116 C 
BRANCH  27  28
ATOM     28  N   UNL A   1      32.482  36.226  30.744  1.00  0.00    -0.352 N 
ATOM     29  C   UNL A   1      32.572  35.733  32.022  1.00  0.00     0.251 C 
ATOM     30  H   UNL A   1      31.714  36.816  30.572  1.00  0.00     0.163 HD
ATOM     31  O   UNL A   1      31.641  35.874  32.806  1.00  0.00    -0.269 OA
BRANCH  29  32
ATOM     32  C   UNL A   1      33.792  35.013  32.443  1.00  0.00     0.039 A 
ATOM     33  C   UNL A   1      33.676  33.698  32.900  1.00  0.00     0.014 A 
ATOM     34  C   UNL A   1      35.044  35.632  32.388  1.00  0.00     0.014 A 
ATOM     35  C   UNL A   1      34.824  32.988  33.254  1.00  0.00     0.010 A 
ATOM     36  C   UNL A   1      36.191  34.896  32.660  1.00  0.00     0.010 A 
ATOM     37  C   UNL A   1      36.093  33.570  33.108  1.00  0.00    -0.014 A 
BRANCH  37  38
ATOM     38  C   UNL A   1      37.329  32.816  33.439  1.00  0.00     0.031 A 
ATOM     39  C   UNL A   1      38.082  33.123  34.705  1.00  0.00     0.074 A 
ATOM     40  C   UNL A   1      37.805  31.898  32.576  1.00  0.00     0.049 A 
ATOM     41  N   UNL A   1      39.211  32.622  35.138  1.00  0.00    -0.248 NA
ATOM     42  C   UNL A   1      37.504  34.148  35.588  1.00  0.00     0.031 C 
ATOM     43  C   UNL A   1      37.190  31.538  31.297  1.00  0.00     0.029 A 
ATOM     44  N   UNL A   1      38.922  31.102  32.642  1.00  0.00    -0.354 N 
ATOM     45  C   UNL A   1      39.481  33.278  36.332  1.00  0.00     0.074 A 
ATOM     46  C   UNL A   1      38.434  34.257  36.523  1.00  0.00     0.031 C 
ATOM     47  C   UNL A   1      37.923  30.577  30.711  1.00  0.00     0.029 A 
ATOM     48  C   UNL A   1      39.080  30.283  31.550  1.00  0.00     0.049 A 
ATOM     49  H   UNL A   1      39.550  31.118  33.399  1.00  0.00     0.167 HD
ATOM     50  C   UNL A   1      40.496  33.069  37.205  1.00  0.00     0.037 A 
ATOM     51  C   UNL A   1      40.053  29.400  31.257  1.00  0.00     0.037 A 
ATOM     52  C   UNL A   1      41.527  32.082  37.019  1.00  0.00     0.049 A 
ATOM     53  C   UNL A   1      41.181  29.199  32.231  1.00  0.00     0.074 A 
ATOM     54  C   UNL A   1      42.571  31.757  37.866  1.00  0.00     0.029 A 
ATOM     55  N   UNL A   1      41.647  31.263  35.906  1.00  0.00    -0.354 N 
ATOM     56  N   UNL A   1      41.390  29.782  33.387  1.00  0.00    -0.248 NA
ATOM     57  C   UNL A   1      42.205  28.211  31.864  1.00  0.00     0.031 C 
ATOM     58  C   UNL A   1      43.355  30.782  37.242  1.00  0.00     0.029 A 
ATOM     59  C   UNL A   1      42.762  30.451  36.034  1.00  0.00     0.049 A 
ATOM     60  H   UNL A   1      41.031  31.260  35.138  1.00  0.00     0.167 HD
ATOM     61  C   UNL A   1      42.545  29.204  33.902  1.00  0.00     0.074 A 
ATOM     62  C   UNL A   1      42.984  28.219  32.936  1.00  0.00     0.031 C 
ATOM     63  C   UNL A   1      43.181  29.464  35.071  1.00  0.00     0.037 A 
BRANCH  50  64
ATOM     64  C   UNL A   1      40.539  33.926  38.438  1.00  0.00     0.057 A 
ATOM     65  C   UNL A   1      41.288  35.110  38.493  1.00  0.00     0.134 A 
ATOM     66  C   UNL A   1      39.798  33.581  39.575  1.00  0.00     0.134 A 
ATOM     67  F   UNL A   1      42.030  35.494  37.443  1.00  0.00    -0.206 F 
ATOM     68  C   UNL A   1      41.325  35.900  39.643  1.00  0.00     0.040 A 
ATOM     69  C   UNL A   1      39.801  34.379  40.720  1.00  0.00     0.040 A 
ATOM     70  F   UNL A   1      39.054  32.465  39.591  1.00  0.00    -0.206 F 
ATOM     71  C   UNL A   1      40.573  35.539  40.759  1.00  0.00     0.006 A 
ENDBRANCH  50  64
BRANCH  51  72
ATOM     72  C   UNL A   1      39.996  28.620  29.992  1.00  0.00     0.057 A 
ATOM     73  C   UNL A   1      39.288  27.415  29.916  1.00  0.00     0.134 A 
ATOM     74  C   UNL A   1      40.660  29.051  28.837  1.00  0.00     0.134 A 
ATOM     75  F   UNL A   1      38.645  26.941  30.994  1.00  0.00    -0.206 F 
ATOM     76  C   UNL A   1      39.262  26.654  28.747  1.00  0.00     0.040 A 
ATOM     77  C   UNL A   1      40.619  28.314  27.652  1.00  0.00     0.040 A 
ATOM     78  F   UNL A   1      41.348  30.202  28.839  1.00  0.00    -0.206 F 
ATOM     79  C   UNL A   1      39.926  27.105  27.609  1.00  0.00     0.006 A 
ENDBRANCH  51  72
BRANCH  63  80
ATOM     80  C   UNL A   1      44.389  28.634  35.398  1.00  0.00     0.057 A 
ATOM     81  C   UNL A   1      44.298  27.426  36.101  1.00  0.00     0.134 A 
ATOM     82  C   UNL A   1      45.661  29.035  34.966  1.00  0.00     0.134 A 
ATOM     83  F   UNL A   1      43.113  26.990  36.554  1.00  0.00    -0.206 F 
ATOM     84  C   UNL A   1      45.431  26.662  36.387  1.00  0.00     0.040 A 
ATOM     85  C   UNL A   1      46.796  28.263  35.218  1.00  0.00     0.040 A 
ATOM     86  F   UNL A   1      45.818  30.176  34.279  1.00  0.00    -0.206 F 
ATOM     87  C   UNL A   1      46.684  27.077  35.938  1.00  0.00     0.006 A 
ENDBRANCH  63  80
ENDBRANCH  37  38
ENDBRANCH  29  32
ENDBRANCH  27  28
ENDBRANCH  26  27
ENDBRANCH  25  26
ENDBRANCH   1  25
TORSDOF 15
ENDMDL
MODEL 3
REMARK VINA RESULT:     -11.3      5.385     10.641
REMARK SMILES C[C@@H]1C[C@@H](C)CN(S(=O)(=O)N2CC[C@H](C(=O)NCCCCCCNC(=O)c3ccc(-c4c5nc(c(-c6c(F)cccc6F)c6ccc([nH]6)c(-c6c(F)cccc6F)c6nc(c(-c7c(F)cccc7F)c7ccc4[nH]7)C=C6)C=C5)cc3)[C@@H]2C)C1
REMARK SMILES IDX 20 1 19 2 18 3 17 4 15 5 16 6 14 8 11 9 12 10 81 11 13 12
REMARK SMILES IDX 82 13 8 14 9 15 10 16 7 17 1 18 2 19 3 20 83 21 4 22 6 23
REMARK SMILES IDX 5 24 21 25 22 26 23 27 24 28 25 29 26 31 27 32 28 33 80 34
REMARK SMILES IDX 29 35 79 36 30 37 31 38 32 39 73 40 33 41 78 42 72 43 74 44
REMARK SMILES IDX 34 45 77 46 71 47 70 48 35 50 61 51 44 52 60 53 45 54 48 55
REMARK SMILES IDX 59 56 75 57 46 58 47 59 58 61 76 62 49 63 36 64 37 65 42 66
REMARK SMILES IDX 38 67 39 68 41 69 43 70 40 71 62 72 63 73 68 74 64 75 65 76
REMARK SMILES IDX 67 77 69 78 66 79 50 80 51 81 56 82 52 83 53 84 55 85 57 86
REMARK SMILES IDX 54 87
REMARK H PARENT 17 7 24 30 74 49 48 60
REMARK Flexibility Score: inf
ROOT
ATOM      1  C   UNL A   1      40.192  22.171  26.090  1.00  0.00     0.002 C 
ENDROOT
BRANCH   1   2
ATOM      2  C   UNL A   1      39.339  23.153  26.898  1.00  0.00     0.021 C 
BRANCH   2   3
ATOM      3  C   UNL A   1      38.021  23.535  26.235  1.00  0.00     0.116 C 
BRANCH   3   4
ATOM      4  N   UNL A   1      37.948  23.062  24.863  1.00  0.00    -0.356 N 
ATOM      5  C   UNL A   1      36.866  22.965  24.037  1.00  0.00     0.224 C 
ATOM      6  O   UNL A   1      37.029  22.568  22.885  1.00  0.00    -0.275 OA
ATOM      7  H   UNL A   1      38.802  22.768  24.473  1.00  0.00     0.163 HD
BRANCH   5   8
ATOM      8  C   UNL A   1      35.511  23.331  24.591  1.00  0.00     0.098 C 
ATOM      9  N   UNL A   1      33.439  22.224  24.974  1.00  0.00    -0.185 NA
ATOM     10  C   UNL A   1      33.400  22.703  23.584  1.00  0.00     0.105 C 
ATOM     11  C   UNL A   1      34.850  22.203  25.413  1.00  0.00     0.083 C 
ATOM     12  C   UNL A   1      34.496  23.745  23.522  1.00  0.00     0.032 C 
ATOM     13  C   UNL A   1      35.407  20.793  25.235  1.00  0.00     0.026 C 
BRANCH   9  14
ATOM     14  S   UNL A   1      32.183  22.570  26.017  1.00  0.00     0.282 S 
ATOM     15  O   UNL A   1      32.686  22.539  27.367  1.00  0.00    -0.195 OA
ATOM     16  O   UNL A   1      31.058  21.751  25.618  1.00  0.00    -0.195 OA
BRANCH  14  17
ATOM     17  N   UNL A   1      31.782  24.205  25.660  1.00  0.00    -0.188 NA
ATOM     18  C   UNL A   1      29.668  26.092  24.250  1.00  0.00     0.009 C 
ATOM     19  C   UNL A   1      29.972  25.972  25.748  1.00  0.00     0.001 C 
ATOM     20  C   UNL A   1      31.026  26.996  26.192  1.00  0.00     0.009 C 
ATOM     21  C   UNL A   1      30.380  24.532  26.122  1.00  0.00     0.106 C 
ATOM     22  C   UNL A   1      32.408  26.598  25.685  1.00  0.00     0.001 C 
ATOM     23  C   UNL A   1      32.728  25.206  26.224  1.00  0.00     0.106 C 
ATOM     24  C   UNL A   1      33.486  27.592  26.113  1.00  0.00     0.009 C 
ENDBRANCH  14  17
ENDBRANCH   9  14
ENDBRANCH   5   8
ENDBRANCH   3   4
ENDBRANCH   2   3
ENDBRANCH   1   2
BRANCH   1  25
ATOM     25  C   UNL A   1      40.900  21.094  26.920  1.00  0.00     0.002 C 
BRANCH  25  26
ATOM     26  C   UNL A   1      41.234  19.811  26.159  1.00  0.00     0.021 C 
BRANCH  26  27
ATOM     27  C   UNL A   1      42.529  19.136  26.592  1.00  0.00     0.116 C 
BRANCH  27  28
ATOM     28  N   UNL A   1      43.350  18.741  25.458  1.00  0.00    -0.352 N 
ATOM     29  C   UNL A   1      44.139  19.518  24.647  1.00  0.00     0.251 C 
ATOM     30  H   UNL A   1      43.337  17.782  25.241  1.00  0.00     0.163 HD
ATOM     31  O   UNL A   1      44.617  19.052  23.618  1.00  0.00    -0.269 OA
BRANCH  29  32
ATOM     32  C   UNL A   1      44.396  20.928  25.010  1.00  0.00     0.039 A 
ATOM     33  C   UNL A   1      43.810  21.939  24.245  1.00  0.00     0.014 A 
ATOM     34  C   UNL A   1      45.211  21.250  26.098  1.00  0.00     0.014 A 
ATOM     35  C   UNL A   1      44.002  23.274  24.604  1.00  0.00     0.010 A 
ATOM     36  C   UNL A   1      45.331  22.573  26.504  1.00  0.00     0.010 A 
ATOM     37  C   UNL A   1      44.739  23.601  25.754  1.00  0.00    -0.014 A 
BRANCH  37  38
ATOM     38  C   UNL A   1      44.919  25.013  26.178  1.00  0.00     0.031 A 
ATOM     39  C   UNL A   1      46.278  25.653  26.106  1.00  0.00     0.074 A 
ATOM     40  C   UNL A   1      43.875  25.700  26.679  1.00  0.00     0.049 A 
ATOM     41  N   UNL A   1      46.652  26.848  26.487  1.00  0.00    -0.248 NA
ATOM     42  C   UNL A   1      47.370  24.831  25.559  1.00  0.00     0.031 C 
ATOM     43  C   UNL A   1      42.515  25.180  26.838  1.00  0.00     0.029 A 
ATOM     44  N   UNL A   1      43.795  26.986  27.153  1.00  0.00    -0.354 N 
ATOM     45  C   UNL A   1      48.017  26.915  26.237  1.00  0.00     0.074 A 
ATOM     46  C   UNL A   1      48.418  25.621  25.733  1.00  0.00     0.031 C 
ATOM     47  C   UNL A   1      41.733  26.144  27.350  1.00  0.00     0.029 A 
ATOM     48  C   UNL A   1      42.541  27.334  27.593  1.00  0.00     0.049 A 
ATOM     49  H   UNL A   1      44.563  27.600  27.176  1.00  0.00     0.167 HD
ATOM     50  C   UNL A   1      48.857  27.967  26.390  1.00  0.00     0.037 A 
ATOM     51  C   UNL A   1      42.096  28.482  28.139  1.00  0.00     0.037 A 
ATOM     52  C   UNL A   1      48.450  29.259  26.876  1.00  0.00     0.049 A 
ATOM     53  C   UNL A   1      43.052  29.630  28.318  1.00  0.00     0.074 A 
ATOM     54  C   UNL A   1      49.212  30.404  27.022  1.00  0.00     0.029 A 
ATOM     55  N   UNL A   1      47.168  29.576  27.302  1.00  0.00    -0.354 N 
ATOM     56  N   UNL A   1      44.326  29.699  28.019  1.00  0.00    -0.248 NA
ATOM     57  C   UNL A   1      42.505  30.862  28.904  1.00  0.00     0.031 C 
ATOM     58  C   UNL A   1      48.407  31.398  27.587  1.00  0.00     0.029 A 
ATOM     59  C   UNL A   1      47.125  30.892  27.733  1.00  0.00     0.049 A 
ATOM     60  H   UNL A   1      46.402  28.957  27.298  1.00  0.00     0.167 HD
ATOM     61  C   UNL A   1      44.724  30.991  28.343  1.00  0.00     0.074 A 
ATOM     62  C   UNL A   1      43.552  31.673  28.852  1.00  0.00     0.031 C 
ATOM     63  C   UNL A   1      45.948  31.562  28.225  1.00  0.00     0.037 A 
BRANCH  50  64
ATOM     64  C   UNL A   1      50.300  27.760  26.029  1.00  0.00     0.057 A 
ATOM     65  C   UNL A   1      50.750  27.823  24.702  1.00  0.00     0.134 A 
ATOM     66  C   UNL A   1      51.260  27.526  27.023  1.00  0.00     0.134 A 
ATOM     67  F   UNL A   1      49.883  28.032  23.700  1.00  0.00    -0.206 F 
ATOM     68  C   UNL A   1      52.093  27.627  24.375  1.00  0.00     0.040 A 
ATOM     69  C   UNL A   1      52.610  27.362  26.711  1.00  0.00     0.040 A 
ATOM     70  F   UNL A   1      50.901  27.460  28.314  1.00  0.00    -0.206 F 
ATOM     71  C   UNL A   1      53.029  27.404  25.383  1.00  0.00     0.006 A 
ENDBRANCH  50  64
BRANCH  51  72
ATOM     72  C   UNL A   1      40.670  28.615  28.538  1.00  0.00     0.057 A 
ATOM     73  C   UNL A   1      39.698  29.034  27.622  1.00  0.00     0.134 A 
ATOM     74  C   UNL A   1      40.248  28.341  29.844  1.00  0.00     0.134 A 
ATOM     75  F   UNL A   1      40.042  29.327  26.359  1.00  0.00    -0.206 F 
ATOM     76  C   UNL A   1      38.364  29.203  27.996  1.00  0.00     0.040 A 
ATOM     77  C   UNL A   1      38.911  28.478  30.225  1.00  0.00     0.040 A 
ATOM     78  F   UNL A   1      41.126  27.925  30.769  1.00  0.00    -0.206 F 
ATOM     79  C   UNL A   1      37.967  28.920  29.301  1.00  0.00     0.006 A 
ENDBRANCH  51  72
BRANCH  63  80
ATOM     80  C   UNL A   1      46.073  33.011  28.602  1.00  0.00     0.057 A 
ATOM     81  C   UNL A   1      45.842  34.044  27.685  1.00  0.00     0.134 A 
ATOM     82  C   UNL A   1      46.392  33.375  29.917  1.00  0.00     0.134 A 
ATOM     83  F   UNL A   1      45.545  33.766  26.407  1.00  0.00    -0.206 F 
ATOM     84  C   UNL A   1      45.952  35.386  28.056  1.00  0.00     0.040 A 
ATOM     85  C   UNL A   1      46.472  34.712  30.307  1.00  0.00     0.040 A 
ATOM     86  F   UNL A   1      46.615  32.435  30.849  1.00  0.00    -0.206 F 
ATOM     87  C   UNL A   1      46.260  35.722  29.373  1.00  0.00     0.006 A 
ENDBRANCH  63  80
ENDBRANCH  37  38
ENDBRANCH  29  32
ENDBRANCH  27  28
ENDBRANCH  26  27
ENDBRANCH  25  26
ENDBRANCH   1  25
TORSDOF 15
ENDMDL
