MODEL 1
REMARK VINA RESULT:     -11.5      0.000      0.000
REMARK SMILES O=C(/C=C/c1ccccc1)Nc1ccc(O)cc1C(=O)NCCCCCCNC(=O)c1ccc(-c2c3nc(c(-c4c(F)cccc4F)c4ccc([nH]4)c(-c4c(F)cccc4F)c4nc(c(-c5c(F)cccc5F)c5ccc2[nH]5)C=C4)C=C3)cc1
REMARK SMILES IDX 24 1 23 2 22 3 21 4 19 5 20 6 18 8 12 9 13 10 14 11 17 12
REMARK SMILES IDX 15 13 11 14 1 15 2 16 3 18 4 19 5 20 6 21 10 22 7 23 9 24
REMARK SMILES IDX 8 25 16 26 25 28 26 29 27 30 28 31 29 32 30 34 31 35 32 36
REMARK SMILES IDX 84 37 33 38 83 39 34 40 35 41 36 42 77 43 37 44 82 45 76 46
REMARK SMILES IDX 78 47 38 48 81 49 75 50 74 51 39 53 65 54 48 55 64 56 49 57
REMARK SMILES IDX 52 58 63 59 79 60 50 61 51 62 62 64 80 65 53 66 40 67 41 68
REMARK SMILES IDX 46 69 42 70 43 71 45 72 47 73 44 74 66 75 67 76 72 77 68 78
REMARK SMILES IDX 69 79 71 80 73 81 70 82 54 83 55 84 60 85 56 86 57 87 59 88
REMARK SMILES IDX 61 89 58 90
REMARK H PARENT 21 7 11 17 16 27 28 33 78 52 52 63
REMARK Flexibility Score: inf
ROOT
ATOM      1  C   UNL A   1      33.833  28.870  26.702  1.00  0.00     0.002 C 
ENDROOT
BRANCH   1   2
ATOM      2  C   UNL A   1      32.846  27.950  27.444  1.00  0.00     0.021 C 
BRANCH   2   3
ATOM      3  C   UNL A   1      31.572  27.483  26.726  1.00  0.00     0.116 C 
BRANCH   3   4
ATOM      4  N   UNL A   1      31.182  26.099  26.867  1.00  0.00    -0.352 N 
ATOM      5  C   UNL A   1      31.856  24.908  26.652  1.00  0.00     0.253 C 
ATOM      6  O   UNL A   1      31.315  23.922  27.177  1.00  0.00    -0.269 OA
ATOM      7  H   UNL A   1      30.255  25.979  27.177  1.00  0.00     0.163 HD
BRANCH   5   8
ATOM      8  C   UNL A   1      33.040  24.638  25.743  1.00  0.00     0.067 A 
ATOM      9  C   UNL A   1      33.310  24.980  24.404  1.00  0.00     0.054 A 
ATOM     10  C   UNL A   1      34.420  24.407  23.730  1.00  0.00     0.031 A 
ATOM     11  C   UNL A   1      35.343  23.603  24.380  1.00  0.00     0.048 A 
ATOM     12  C   UNL A   1      34.023  23.823  26.382  1.00  0.00     0.062 A 
ATOM     13  C   UNL A   1      35.153  23.340  25.717  1.00  0.00     0.116 A 
BRANCH   9  14
ATOM     14  N   UNL A   1      32.632  25.873  23.566  1.00  0.00    -0.322 N 
ATOM     15  O   UNL A   1      34.025  27.714  23.490  1.00  0.00    -0.270 OA
ATOM     16  C   UNL A   1      32.950  27.170  23.278  1.00  0.00     0.248 C 
ATOM     17  H   UNL A   1      31.823  25.522  23.129  1.00  0.00     0.170 HD
BRANCH  16  18
ATOM     18  C   UNL A   1      31.785  27.971  22.784  1.00  0.00     0.072 C 
ATOM     19  C   UNL A   1      30.589  27.953  23.397  1.00  0.00     0.014 C 
BRANCH  19  20
ATOM     20  C   UNL A   1      29.665  29.080  23.376  1.00  0.00    -0.025 A 
ATOM     21  C   UNL A   1      28.378  28.812  22.876  1.00  0.00     0.008 A 
ATOM     22  C   UNL A   1      29.984  30.348  23.850  1.00  0.00     0.008 A 
ATOM     23  C   UNL A   1      27.408  29.797  22.860  1.00  0.00     0.001 A 
ATOM     24  C   UNL A   1      29.013  31.341  23.820  1.00  0.00     0.001 A 
ATOM     25  C   UNL A   1      27.738  31.059  23.318  1.00  0.00     0.000 A 
ENDBRANCH  19  20
ENDBRANCH  16  18
ENDBRANCH   9  14
BRANCH  13  26
ATOM     26  O   UNL A   1      36.100  22.589  26.345  1.00  0.00    -0.508 OA
ATOM     27  H   UNL A   1      36.351  21.759  25.990  1.00  0.00     0.293 HD
ENDBRANCH  13  26
ENDBRANCH   5   8
ENDBRANCH   3   4
ENDBRANCH   2   3
ENDBRANCH   1   2
BRANCH   1  28
ATOM     28  C   UNL A   1      33.834  30.386  26.987  1.00  0.00     0.002 C 
BRANCH  28  29
ATOM     29  C   UNL A   1      32.508  31.103  27.328  1.00  0.00     0.021 C 
BRANCH  29  30
ATOM     30  C   UNL A   1      32.126  32.369  26.529  1.00  0.00     0.116 C 
BRANCH  30  31
ATOM     31  N   UNL A   1      32.006  33.585  27.339  1.00  0.00    -0.352 N 
ATOM     32  C   UNL A   1      32.848  34.243  28.213  1.00  0.00     0.251 C 
ATOM     33  H   UNL A   1      31.134  34.030  27.237  1.00  0.00     0.163 HD
ATOM     34  O   UNL A   1      32.441  35.282  28.736  1.00  0.00    -0.269 OA
BRANCH  32  35
ATOM     35  C   UNL A   1      34.208  33.772  28.608  1.00  0.00     0.039 A 
ATOM     36  C   UNL A   1      34.361  33.127  29.843  1.00  0.00     0.014 A 
ATOM     37  C   UNL A   1      35.363  34.067  27.898  1.00  0.00     0.014 A 
ATOM     38  C   UNL A   1      35.627  32.691  30.299  1.00  0.00     0.010 A 
ATOM     39  C   UNL A   1      36.620  33.566  28.331  1.00  0.00     0.010 A 
ATOM     40  C   UNL A   1      36.787  32.827  29.516  1.00  0.00    -0.014 A 
BRANCH  40  41
ATOM     41  C   UNL A   1      38.111  32.186  29.921  1.00  0.00     0.031 A 
ATOM     42  C   UNL A   1      39.079  32.841  30.902  1.00  0.00     0.074 A 
ATOM     43  C   UNL A   1      38.523  31.016  29.368  1.00  0.00     0.049 A 
ATOM     44  N   UNL A   1      40.265  32.432  31.307  1.00  0.00    -0.248 NA
ATOM     45  C   UNL A   1      38.699  34.145  31.460  1.00  0.00     0.031 C 
ATOM     46  C   UNL A   1      37.824  30.272  28.317  1.00  0.00     0.029 A 
ATOM     47  N   UNL A   1      39.637  30.233  29.616  1.00  0.00    -0.354 N 
ATOM     48  C   UNL A   1      40.776  33.446  32.116  1.00  0.00     0.074 A 
ATOM     49  C   UNL A   1      39.811  34.523  32.071  1.00  0.00     0.031 C 
ATOM     50  C   UNL A   1      38.468  29.118  28.078  1.00  0.00     0.029 A 
ATOM     51  C   UNL A   1      39.663  29.047  28.912  1.00  0.00     0.049 A 
ATOM     52  H   UNL A   1      40.349  30.499  30.242  1.00  0.00     0.167 HD
ATOM     53  C   UNL A   1      41.902  33.480  32.875  1.00  0.00     0.037 A 
ATOM     54  C   UNL A   1      40.526  28.008  28.925  1.00  0.00     0.037 A 
ATOM     55  C   UNL A   1      42.842  32.396  33.018  1.00  0.00     0.049 A 
ATOM     56  C   UNL A   1      41.737  28.030  29.823  1.00  0.00     0.074 A 
ATOM     57  C   UNL A   1      43.945  32.316  33.854  1.00  0.00     0.029 A 
ATOM     58  N   UNL A   1      42.786  31.199  32.325  1.00  0.00    -0.354 N 
ATOM     59  N   UNL A   1      42.135  28.961  30.653  1.00  0.00    -0.248 NA
ATOM     60  C   UNL A   1      42.618  26.848  29.787  1.00  0.00     0.031 C 
ATOM     61  C   UNL A   1      44.576  31.086  33.641  1.00  0.00     0.029 A 
ATOM     62  C   UNL A   1      43.838  30.381  32.706  1.00  0.00     0.049 A 
ATOM     63  H   UNL A   1      42.099  30.964  31.659  1.00  0.00     0.167 HD
ATOM     64  C   UNL A   1      43.283  28.464  31.261  1.00  0.00     0.074 A 
ATOM     65  C   UNL A   1      43.515  27.146  30.716  1.00  0.00     0.031 C 
ATOM     66  C   UNL A   1      44.070  29.057  32.191  1.00  0.00     0.037 A 
BRANCH  53  67
ATOM     67  C   UNL A   1      42.169  34.736  33.668  1.00  0.00     0.057 A 
ATOM     68  C   UNL A   1      41.761  34.867  35.002  1.00  0.00     0.134 A 
ATOM     69  C   UNL A   1      42.876  35.810  33.107  1.00  0.00     0.134 A 
ATOM     70  F   UNL A   1      41.086  33.877  35.606  1.00  0.00    -0.206 F 
ATOM     71  C   UNL A   1      41.991  36.035  35.731  1.00  0.00     0.040 A 
ATOM     72  C   UNL A   1      43.147  36.969  33.838  1.00  0.00     0.040 A 
ATOM     73  F   UNL A   1      43.327  35.747  31.845  1.00  0.00    -0.206 F 
ATOM     74  C   UNL A   1      42.691  37.090  35.150  1.00  0.00     0.006 A 
ENDBRANCH  53  67
BRANCH  54  75
ATOM     75  C   UNL A   1      40.260  26.800  28.093  1.00  0.00     0.057 A 
ATOM     76  C   UNL A   1      40.829  26.668  26.818  1.00  0.00     0.134 A 
ATOM     77  C   UNL A   1      39.412  25.775  28.526  1.00  0.00     0.134 A 
ATOM     78  F   UNL A   1      41.626  27.631  26.332  1.00  0.00    -0.206 F 
ATOM     79  C   UNL A   1      40.548  25.573  25.999  1.00  0.00     0.040 A 
ATOM     80  C   UNL A   1      39.146  24.659  27.727  1.00  0.00     0.040 A 
ATOM     81  F   UNL A   1      38.834  25.838  29.734  1.00  0.00    -0.206 F 
ATOM     82  C   UNL A   1      39.709  24.561  26.456  1.00  0.00     0.006 A 
ENDBRANCH  54  75
BRANCH  66  83
ATOM     83  C   UNL A   1      45.233  28.276  32.732  1.00  0.00     0.057 A 
ATOM     84  C   UNL A   1      45.115  27.434  33.845  1.00  0.00     0.134 A 
ATOM     85  C   UNL A   1      46.483  28.329  32.098  1.00  0.00     0.134 A 
ATOM     86  F   UNL A   1      43.951  27.342  34.507  1.00  0.00    -0.206 F 
ATOM     87  C   UNL A   1      46.198  26.689  34.318  1.00  0.00     0.040 A 
ATOM     88  C   UNL A   1      47.566  27.570  32.545  1.00  0.00     0.040 A 
ATOM     89  F   UNL A   1      46.667  29.108  31.021  1.00  0.00    -0.206 F 
ATOM     90  C   UNL A   1      47.426  26.749  33.662  1.00  0.00     0.006 A 
ENDBRANCH  66  83
ENDBRANCH  40  41
ENDBRANCH  32  35
ENDBRANCH  30  31
ENDBRANCH  29  30
ENDBRANCH  28  29
ENDBRANCH   1  28
TORSDOF 17
ENDMDL
MODEL 2
REMARK VINA RESULT:     -11.3      2.989      4.349
REMARK SMILES O=C(/C=C/c1ccccc1)Nc1ccc(O)cc1C(=O)NCCCCCCNC(=O)c1ccc(-c2c3nc(c(-c4c(F)cccc4F)c4ccc([nH]4)c(-c4c(F)cccc4F)c4nc(c(-c5c(F)cccc5F)c5ccc2[nH]5)C=C4)C=C3)cc1
REMARK SMILES IDX 24 1 23 2 22 3 21 4 19 5 20 6 18 8 12 9 13 10 14 11 17 12
REMARK SMILES IDX 15 13 11 14 1 15 2 16 3 18 4 19 5 20 6 21 10 22 7 23 9 24
REMARK SMILES IDX 8 25 16 26 25 28 26 29 27 30 28 31 29 32 30 34 31 35 32 36
REMARK SMILES IDX 84 37 33 38 83 39 34 40 35 41 36 42 77 43 37 44 82 45 76 46
REMARK SMILES IDX 78 47 38 48 81 49 75 50 74 51 39 53 65 54 48 55 64 56 49 57
REMARK SMILES IDX 52 58 63 59 79 60 50 61 51 62 62 64 80 65 53 66 40 67 41 68
REMARK SMILES IDX 46 69 42 70 43 71 45 72 47 73 44 74 66 75 67 76 72 77 68 78
REMARK SMILES IDX 69 79 71 80 73 81 70 82 54 83 55 84 60 85 56 86 57 87 59 88
REMARK SMILES IDX 61 89 58 90
REMARK H PARENT 21 7 11 17 16 27 28 33 78 52 52 63
REMARK Flexibility Score: inf
ROOT
ATOM      1  C   UNL A   1      30.906  25.833  26.225  1.00  0.00     0.002 C 
ENDROOT
BRANCH   1   2
ATOM      2  C   UNL A   1      30.845  24.429  25.597  1.00  0.00     0.021 C 
BRANCH   2   3
ATOM      3  C   UNL A   1      30.746  23.200  26.512  1.00  0.00     0.116 C 
BRANCH   3   4
ATOM      4  N   UNL A   1      31.969  22.519  26.867  1.00  0.00    -0.352 N 
ATOM      5  C   UNL A   1      32.900  21.813  26.124  1.00  0.00     0.253 C 
ATOM      6  O   UNL A   1      33.981  21.638  26.706  1.00  0.00    -0.269 OA
ATOM      7  H   UNL A   1      32.183  22.566  27.827  1.00  0.00     0.163 HD
BRANCH   5   8
ATOM      8  C   UNL A   1      32.712  21.099  24.797  1.00  0.00     0.067 A 
ATOM      9  C   UNL A   1      32.506  21.568  23.486  1.00  0.00     0.054 A 
ATOM     10  C   UNL A   1      32.145  20.663  22.453  1.00  0.00     0.031 A 
ATOM     11  C   UNL A   1      32.106  19.292  22.653  1.00  0.00     0.048 A 
ATOM     12  C   UNL A   1      32.681  19.681  24.959  1.00  0.00     0.062 A 
ATOM     13  C   UNL A   1      32.406  18.806  23.905  1.00  0.00     0.116 A 
BRANCH   9  14
ATOM     14  N   UNL A   1      32.626  22.868  22.982  1.00  0.00    -0.322 N 
ATOM     15  O   UNL A   1      34.905  23.154  22.746  1.00  0.00    -0.270 OA
ATOM     16  C   UNL A   1      33.763  23.594  22.776  1.00  0.00     0.248 C 
ATOM     17  H   UNL A   1      31.782  23.317  22.747  1.00  0.00     0.170 HD
BRANCH  16  18
ATOM     18  C   UNL A   1      33.525  25.072  22.724  1.00  0.00     0.072 C 
ATOM     19  C   UNL A   1      32.406  25.601  22.200  1.00  0.00     0.014 C 
BRANCH  19  20
ATOM     20  C   UNL A   1      31.844  26.872  22.638  1.00  0.00    -0.025 A 
ATOM     21  C   UNL A   1      30.446  26.909  22.787  1.00  0.00     0.008 A 
ATOM     22  C   UNL A   1      32.613  27.991  22.940  1.00  0.00     0.008 A 
ATOM     23  C   UNL A   1      29.816  28.050  23.248  1.00  0.00     0.001 A 
ATOM     24  C   UNL A   1      31.977  29.142  23.389  1.00  0.00     0.001 A 
ATOM     25  C   UNL A   1      30.585  29.163  23.531  1.00  0.00     0.000 A 
ENDBRANCH  19  20
ENDBRANCH  16  18
ENDBRANCH   9  14
BRANCH  13  26
ATOM     26  O   UNL A   1      32.409  17.454  24.063  1.00  0.00    -0.508 OA
ATOM     27  H   UNL A   1      31.680  16.945  23.766  1.00  0.00     0.293 HD
ENDBRANCH  13  26
ENDBRANCH   5   8
ENDBRANCH   3   4
ENDBRANCH   2   3
ENDBRANCH   1   2
BRANCH   1  28
ATOM     28  C   UNL A   1      32.255  26.575  26.319  1.00  0.00     0.002 C 
BRANCH  28  29
ATOM     29  C   UNL A   1      32.301  28.018  26.871  1.00  0.00     0.021 C 
BRANCH  29  30
ATOM     30  C   UNL A   1      33.632  28.800  26.786  1.00  0.00     0.116 C 
BRANCH  30  31
ATOM     31  N   UNL A   1      33.669  30.023  27.592  1.00  0.00    -0.352 N 
ATOM     32  C   UNL A   1      34.653  30.661  28.322  1.00  0.00     0.251 C 
ATOM     33  H   UNL A   1      32.805  30.492  27.620  1.00  0.00     0.163 HD
ATOM     34  O   UNL A   1      34.359  31.715  28.889  1.00  0.00    -0.269 OA
BRANCH  32  35
ATOM     35  C   UNL A   1      36.043  30.154  28.511  1.00  0.00     0.039 A 
ATOM     36  C   UNL A   1      36.930  30.209  27.428  1.00  0.00     0.014 A 
ATOM     37  C   UNL A   1      36.473  29.489  29.651  1.00  0.00     0.014 A 
ATOM     38  C   UNL A   1      38.249  29.709  27.524  1.00  0.00     0.010 A 
ATOM     39  C   UNL A   1      37.821  29.052  29.762  1.00  0.00     0.010 A 
ATOM     40  C   UNL A   1      38.761  29.187  28.725  1.00  0.00    -0.014 A 
BRANCH  40  41
ATOM     41  C   UNL A   1      40.235  28.829  28.883  1.00  0.00     0.031 A 
ATOM     42  C   UNL A   1      41.244  29.761  29.549  1.00  0.00     0.074 A 
ATOM     43  C   UNL A   1      40.737  27.673  28.374  1.00  0.00     0.049 A 
ATOM     44  N   UNL A   1      42.543  29.607  29.715  1.00  0.00    -0.248 NA
ATOM     45  C   UNL A   1      40.750  31.052  30.043  1.00  0.00     0.031 C 
ATOM     46  C   UNL A   1      39.989  26.688  27.589  1.00  0.00     0.029 A 
ATOM     47  N   UNL A   1      42.004  27.121  28.443  1.00  0.00    -0.354 N 
ATOM     48  C   UNL A   1      43.010  30.792  30.281  1.00  0.00     0.074 A 
ATOM     49  C   UNL A   1      41.873  31.685  30.346  1.00  0.00     0.031 C 
ATOM     50  C   UNL A   1      40.773  25.630  27.330  1.00  0.00     0.029 A 
ATOM     51  C   UNL A   1      42.105  25.868  27.876  1.00  0.00     0.049 A 
ATOM     52  H   UNL A   1      42.767  27.583  28.862  1.00  0.00     0.167 HD
ATOM     53  C   UNL A   1      44.241  31.112  30.759  1.00  0.00     0.037 A 
ATOM     54  C   UNL A   1      43.132  24.993  27.799  1.00  0.00     0.037 A 
ATOM     55  C   UNL A   1      45.376  30.223  30.796  1.00  0.00     0.049 A 
ATOM     56  C   UNL A   1      44.475  25.333  28.393  1.00  0.00     0.074 A 
ATOM     57  C   UNL A   1      46.621  30.437  31.365  1.00  0.00     0.029 A 
ATOM     58  N   UNL A   1      45.403  28.947  30.259  1.00  0.00    -0.354 N 
ATOM     59  N   UNL A   1      44.853  26.422  29.013  1.00  0.00    -0.248 NA
ATOM     60  C   UNL A   1      45.533  24.314  28.280  1.00  0.00     0.031 C 
ATOM     61  C   UNL A   1      47.413  29.306  31.141  1.00  0.00     0.029 A 
ATOM     62  C   UNL A   1      46.645  28.369  30.473  1.00  0.00     0.049 A 
ATOM     63  H   UNL A   1      44.651  28.514  29.792  1.00  0.00     0.167 HD
ATOM     64  C   UNL A   1      46.174  26.205  29.394  1.00  0.00     0.074 A 
ATOM     65  C   UNL A   1      46.530  24.878  28.948  1.00  0.00     0.031 C 
ATOM     66  C   UNL A   1      47.008  27.040  30.057  1.00  0.00     0.037 A 
BRANCH  53  67
ATOM     67  C   UNL A   1      44.426  32.493  31.339  1.00  0.00     0.057 A 
ATOM     68  C   UNL A   1      44.858  33.571  30.553  1.00  0.00     0.134 A 
ATOM     69  C   UNL A   1      44.131  32.759  32.684  1.00  0.00     0.134 A 
ATOM     70  F   UNL A   1      45.152  33.391  29.256  1.00  0.00    -0.206 F 
ATOM     71  C   UNL A   1      45.047  34.844  31.092  1.00  0.00     0.040 A 
ATOM     72  C   UNL A   1      44.278  34.038  33.226  1.00  0.00     0.040 A 
ATOM     73  F   UNL A   1      43.684  31.786  33.491  1.00  0.00    -0.206 F 
ATOM     74  C   UNL A   1      44.752  35.082  32.433  1.00  0.00     0.006 A 
ENDBRANCH  53  67
BRANCH  54  75
ATOM     75  C   UNL A   1      42.931  23.653  27.176  1.00  0.00     0.057 A 
ATOM     76  C   UNL A   1      42.450  22.575  27.932  1.00  0.00     0.134 A 
ATOM     77  C   UNL A   1      43.244  23.406  25.835  1.00  0.00     0.134 A 
ATOM     78  F   UNL A   1      42.160  22.739  29.231  1.00  0.00    -0.206 F 
ATOM     79  C   UNL A   1      42.308  21.299  27.384  1.00  0.00     0.040 A 
ATOM     80  C   UNL A   1      43.079  22.140  25.266  1.00  0.00     0.040 A 
ATOM     81  F   UNL A   1      43.710  24.393  25.055  1.00  0.00    -0.206 F 
ATOM     82  C   UNL A   1      42.617  21.081  26.044  1.00  0.00     0.006 A 
ENDBRANCH  54  75
BRANCH  66  83
ATOM     83  C   UNL A   1      48.383  26.538  30.398  1.00  0.00     0.057 A 
ATOM     84  C   UNL A   1      48.638  25.785  31.551  1.00  0.00     0.134 A 
ATOM     85  C   UNL A   1      49.461  26.771  29.532  1.00  0.00     0.134 A 
ATOM     86  F   UNL A   1      47.655  25.532  32.429  1.00  0.00    -0.206 F 
ATOM     87  C   UNL A   1      49.915  25.297  31.839  1.00  0.00     0.040 A 
ATOM     88  C   UNL A   1      50.736  26.268  29.796  1.00  0.00     0.040 A 
ATOM     89  F   UNL A   1      49.288  27.479  28.406  1.00  0.00    -0.206 F 
ATOM     90  C   UNL A   1      50.967  25.531  30.956  1.00  0.00     0.006 A 
ENDBRANCH  66  83
ENDBRANCH  40  41
ENDBRANCH  32  35
ENDBRANCH  30  31
ENDBRANCH  29  30
ENDBRANCH  28  29
ENDBRANCH   1  28
TORSDOF 17
ENDMDL
MODEL 3
REMARK VINA RESULT:     -11.3      2.287      3.074
REMARK SMILES O=C(/C=C/c1ccccc1)Nc1ccc(O)cc1C(=O)NCCCCCCNC(=O)c1ccc(-c2c3nc(c(-c4c(F)cccc4F)c4ccc([nH]4)c(-c4c(F)cccc4F)c4nc(c(-c5c(F)cccc5F)c5ccc2[nH]5)C=C4)C=C3)cc1
REMARK SMILES IDX 24 1 23 2 22 3 21 4 19 5 20 6 18 8 12 9 13 10 14 11 17 12
REMARK SMILES IDX 15 13 11 14 1 15 2 16 3 18 4 19 5 20 6 21 10 22 7 23 9 24
REMARK SMILES IDX 8 25 16 26 25 28 26 29 27 30 28 31 29 32 30 34 31 35 32 36
REMARK SMILES IDX 84 37 33 38 83 39 34 40 35 41 36 42 77 43 37 44 82 45 76 46
REMARK SMILES IDX 78 47 38 48 81 49 75 50 74 51 39 53 65 54 48 55 64 56 49 57
REMARK SMILES IDX 52 58 63 59 79 60 50 61 51 62 62 64 80 65 53 66 40 67 41 68
REMARK SMILES IDX 46 69 42 70 43 71 45 72 47 73 44 74 66 75 67 76 72 77 68 78
REMARK SMILES IDX 69 79 71 80 73 81 70 82 54 83 55 84 60 85 56 86 57 87 59 88
REMARK SMILES IDX 61 89 58 90
REMARK H PARENT 21 7 11 17 16 27 28 33 78 52 52 63
REMARK Flexibility Score: inf
ROOT
ATOM      1  C   UNL A   1      33.305  27.939  25.600  1.00  0.00     0.002 C 
ENDROOT
BRANCH   1   2
ATOM      2  C   UNL A   1      33.962  26.826  24.763  1.00  0.00     0.021 C 
BRANCH   2   3
ATOM      3  C   UNL A   1      33.558  26.656  23.292  1.00  0.00     0.116 C 
BRANCH   3   4
ATOM      4  N   UNL A   1      33.928  25.430  22.624  1.00  0.00    -0.352 N 
ATOM      5  C   UNL A   1      33.661  24.098  22.893  1.00  0.00     0.253 C 
ATOM      6  O   UNL A   1      33.872  23.338  21.935  1.00  0.00    -0.269 OA
ATOM      7  H   UNL A   1      34.479  25.567  21.820  1.00  0.00     0.163 HD
BRANCH   5   8
ATOM      8  C   UNL A   1      33.317  23.447  24.221  1.00  0.00     0.067 A 
ATOM      9  C   UNL A   1      32.339  23.729  25.194  1.00  0.00     0.054 A 
ATOM     10  C   UNL A   1      32.381  23.082  26.457  1.00  0.00     0.031 A 
ATOM     11  C   UNL A   1      33.288  22.072  26.739  1.00  0.00     0.048 A 
ATOM     12  C   UNL A   1      34.222  22.390  24.543  1.00  0.00     0.062 A 
ATOM     13  C   UNL A   1      34.188  21.711  25.763  1.00  0.00     0.116 A 
BRANCH   9  14
ATOM     14  N   UNL A   1      31.235  24.585  25.115  1.00  0.00    -0.322 N 
ATOM     15  O   UNL A   1      30.233  24.003  23.118  1.00  0.00    -0.270 OA
ATOM     16  C   UNL A   1      30.367  24.754  24.075  1.00  0.00     0.248 C 
ATOM     17  H   UNL A   1      31.063  25.138  25.912  1.00  0.00     0.170 HD
BRANCH  16  18
ATOM     18  C   UNL A   1      29.644  26.065  24.110  1.00  0.00     0.072 C 
ATOM     19  C   UNL A   1      30.172  27.191  23.600  1.00  0.00     0.014 C 
BRANCH  19  20
ATOM     20  C   UNL A   1      29.364  28.277  23.061  1.00  0.00    -0.025 A 
ATOM     21  C   UNL A   1      30.048  29.220  22.271  1.00  0.00     0.008 A 
ATOM     22  C   UNL A   1      27.992  28.388  23.258  1.00  0.00     0.008 A 
ATOM     23  C   UNL A   1      29.367  30.261  21.668  1.00  0.00     0.001 A 
ATOM     24  C   UNL A   1      27.311  29.444  22.664  1.00  0.00     0.001 A 
ATOM     25  C   UNL A   1      28.006  30.374  21.882  1.00  0.00     0.000 A 
ENDBRANCH  19  20
ENDBRANCH  16  18
ENDBRANCH   9  14
BRANCH  13  26
ATOM     26  O   UNL A   1      35.036  20.684  26.047  1.00  0.00    -0.508 OA
ATOM     27  H   UNL A   1      34.961  19.873  25.584  1.00  0.00     0.293 HD
ENDBRANCH  13  26
ENDBRANCH   5   8
ENDBRANCH   3   4
ENDBRANCH   2   3
ENDBRANCH   1   2
BRANCH   1  28
ATOM     28  C   UNL A   1      33.074  29.333  24.981  1.00  0.00     0.002 C 
BRANCH  28  29
ATOM     29  C   UNL A   1      31.747  30.080  25.243  1.00  0.00     0.021 C 
BRANCH  29  30
ATOM     30  C   UNL A   1      31.436  30.551  26.681  1.00  0.00     0.116 C 
BRANCH  30  31
ATOM     31  N   UNL A   1      31.649  31.983  26.910  1.00  0.00    -0.352 N 
ATOM     32  C   UNL A   1      32.687  32.727  27.435  1.00  0.00     0.251 C 
ATOM     33  H   UNL A   1      30.885  32.535  26.628  1.00  0.00     0.163 HD
ATOM     34  O   UNL A   1      32.558  33.952  27.475  1.00  0.00    -0.269 OA
BRANCH  32  35
ATOM     35  C   UNL A   1      33.947  32.159  27.998  1.00  0.00     0.039 A 
ATOM     36  C   UNL A   1      34.947  33.042  28.429  1.00  0.00     0.014 A 
ATOM     37  C   UNL A   1      34.257  30.807  27.983  1.00  0.00     0.014 A 
ATOM     38  C   UNL A   1      36.181  32.574  28.934  1.00  0.00     0.010 A 
ATOM     39  C   UNL A   1      35.472  30.342  28.557  1.00  0.00     0.010 A 
ATOM     40  C   UNL A   1      36.449  31.202  29.089  1.00  0.00    -0.014 A 
BRANCH  40  41
ATOM     41  C   UNL A   1      37.697  30.702  29.811  1.00  0.00     0.031 A 
ATOM     42  C   UNL A   1      37.990  31.028  31.274  1.00  0.00     0.074 A 
ATOM     43  C   UNL A   1      38.649  29.988  29.157  1.00  0.00     0.049 A 
ATOM     44  N   UNL A   1      39.036  30.707  32.009  1.00  0.00    -0.248 NA
ATOM     45  C   UNL A   1      37.018  31.864  31.990  1.00  0.00     0.031 C 
ATOM     46  C   UNL A   1      38.646  29.664  27.729  1.00  0.00     0.029 A 
ATOM     47  N   UNL A   1      39.814  29.393  29.610  1.00  0.00    -0.354 N 
ATOM     48  C   UNL A   1      38.861  31.340  33.239  1.00  0.00     0.074 A 
ATOM     49  C   UNL A   1      37.657  32.133  33.118  1.00  0.00     0.031 C 
ATOM     50  C   UNL A   1      39.690  28.869  27.445  1.00  0.00     0.029 A 
ATOM     51  C   UNL A   1      40.483  28.660  28.652  1.00  0.00     0.049 A 
ATOM     52  H   UNL A   1      40.136  29.484  30.536  1.00  0.00     0.167 HD
ATOM     53  C   UNL A   1      39.583  31.244  34.386  1.00  0.00     0.037 A 
ATOM     54  C   UNL A   1      41.596  27.897  28.714  1.00  0.00     0.037 A 
ATOM     55  C   UNL A   1      40.734  30.397  34.576  1.00  0.00     0.049 A 
ATOM     56  C   UNL A   1      42.349  27.744  30.010  1.00  0.00     0.074 A 
ATOM     57  C   UNL A   1      41.449  30.163  35.741  1.00  0.00     0.029 A 
ATOM     58  N   UNL A   1      41.332  29.635  33.587  1.00  0.00    -0.354 N 
ATOM     59  N   UNL A   1      42.097  28.275  31.181  1.00  0.00    -0.248 NA
ATOM     60  C   UNL A   1      43.542  26.880  29.993  1.00  0.00     0.031 C 
ATOM     61  C   UNL A   1      42.500  29.288  35.448  1.00  0.00     0.029 A 
ATOM     62  C   UNL A   1      42.411  28.940  34.112  1.00  0.00     0.049 A 
ATOM     63  H   UNL A   1      41.034  29.594  32.649  1.00  0.00     0.167 HD
ATOM     64  C   UNL A   1      43.073  27.780  32.041  1.00  0.00     0.074 A 
ATOM     65  C   UNL A   1      43.915  26.900  31.265  1.00  0.00     0.031 C 
ATOM     66  C   UNL A   1      43.245  28.041  33.359  1.00  0.00     0.037 A 
BRANCH  53  67
ATOM     67  C   UNL A   1      39.116  32.053  35.572  1.00  0.00     0.057 A 
ATOM     68  C   UNL A   1      38.297  31.500  36.566  1.00  0.00     0.134 A 
ATOM     69  C   UNL A   1      39.520  33.385  35.743  1.00  0.00     0.134 A 
ATOM     70  F   UNL A   1      37.878  30.229  36.471  1.00  0.00    -0.206 F 
ATOM     71  C   UNL A   1      37.850  32.252  37.653  1.00  0.00     0.040 A 
ATOM     72  C   UNL A   1      39.111  34.138  36.847  1.00  0.00     0.040 A 
ATOM     73  F   UNL A   1      40.328  33.975  34.849  1.00  0.00    -0.206 F 
ATOM     74  C   UNL A   1      38.261  33.575  37.798  1.00  0.00     0.006 A 
ENDBRANCH  53  67
BRANCH  54  75
ATOM     75  C   UNL A   1      42.059  27.147  27.511  1.00  0.00     0.057 A 
ATOM     76  C   UNL A   1      42.874  27.765  26.552  1.00  0.00     0.134 A 
ATOM     77  C   UNL A   1      41.677  25.823  27.271  1.00  0.00     0.134 A 
ATOM     78  F   UNL A   1      43.250  29.042  26.708  1.00  0.00    -0.206 F 
ATOM     79  C   UNL A   1      43.274  27.101  25.390  1.00  0.00     0.040 A 
ATOM     80  C   UNL A   1      42.094  25.137  26.127  1.00  0.00     0.040 A 
ATOM     81  F   UNL A   1      40.898  25.173  28.148  1.00  0.00    -0.206 F 
ATOM     82  C   UNL A   1      42.888  25.780  25.178  1.00  0.00     0.006 A 
ENDBRANCH  54  75
BRANCH  66  83
ATOM     83  C   UNL A   1      44.355  27.328  34.079  1.00  0.00     0.057 A 
ATOM     84  C   UNL A   1      45.629  27.891  34.229  1.00  0.00     0.134 A 
ATOM     85  C   UNL A   1      44.130  26.079  34.674  1.00  0.00     0.134 A 
ATOM     86  F   UNL A   1      45.917  29.079  33.677  1.00  0.00    -0.206 F 
ATOM     87  C   UNL A   1      46.642  27.231  34.929  1.00  0.00     0.040 A 
ATOM     88  C   UNL A   1      45.127  25.421  35.397  1.00  0.00     0.040 A 
ATOM     89  F   UNL A   1      42.932  25.484  34.576  1.00  0.00    -0.206 F 
ATOM     90  C   UNL A   1      46.390  25.995  35.523  1.00  0.00     0.006 A 
ENDBRANCH  66  83
ENDBRANCH  40  41
ENDBRANCH  32  35
ENDBRANCH  30  31
ENDBRANCH  29  30
ENDBRANCH  28  29
ENDBRANCH   1  28
TORSDOF 17
ENDMDL
