MODEL 1
REMARK VINA RESULT:     -11.7      0.000      0.000
REMARK SMILES CC(C)(C)c1csc(NC(=O)Cn2cccc2C(=O)NCCCCCCNC(=O)c2ccc(-c3c4nc(c(-c5c(F)cccc5F)c5ccc([nH]5)c(-c5c(F)cccc5F)c5nc(c(-c6c(F)cccc6F)c6ccc3[nH]6)C=C5)C=C4)cc2)n1
REMARK SMILES IDX 22 1 21 2 20 3 18 4 19 5 17 7 13 8 14 9 15 10 16 11 12 12
REMARK SMILES IDX 10 13 9 14 11 16 8 17 5 18 6 19 84 20 7 21 2 22 1 23 3 24
REMARK SMILES IDX 4 25 23 26 24 27 25 28 26 29 27 30 28 31 29 33 30 34 31 35
REMARK SMILES IDX 83 36 32 37 82 38 33 39 34 40 35 41 76 42 36 43 81 44 75 45
REMARK SMILES IDX 77 46 37 47 80 48 74 49 73 50 38 52 64 53 47 54 63 55 48 56
REMARK SMILES IDX 51 57 62 58 78 59 49 60 50 61 61 63 79 64 52 65 39 66 40 67
REMARK SMILES IDX 45 68 41 69 42 70 44 71 46 72 43 73 65 74 66 75 71 76 67 77
REMARK SMILES IDX 68 78 70 79 72 80 69 81 53 82 54 83 59 84 55 85 56 86 58 87
REMARK SMILES IDX 60 88 57 89
REMARK H PARENT 20 6 9 15 27 32 77 51 51 62
REMARK Flexibility Score: inf
ROOT
ATOM      1  C   UNL A   1      37.423  22.810  25.369  1.00  0.00     0.021 C 
ENDROOT
BRANCH   1   2
ATOM      2  C   UNL A   1      36.264  23.559  26.003  1.00  0.00     0.116 C 
BRANCH   2   3
ATOM      3  N   UNL A   1      35.499  24.435  25.168  1.00  0.00    -0.351 N 
ATOM      4  C   UNL A   1      34.236  24.310  24.642  1.00  0.00     0.267 C 
ATOM      5  O   UNL A   1      33.863  25.307  24.014  1.00  0.00    -0.268 OA
ATOM      6  H   UNL A   1      35.959  25.272  24.928  1.00  0.00     0.163 HD
BRANCH   4   7
ATOM      7  C   UNL A   1      33.375  23.119  24.728  1.00  0.00     0.107 A 
ATOM      8  N   UNL A   1      32.442  22.627  25.649  1.00  0.00    -0.334 N 
ATOM      9  C   UNL A   1      31.951  21.413  25.213  1.00  0.00     0.087 A 
ATOM     10  C   UNL A   1      32.431  21.165  23.956  1.00  0.00     0.020 A 
ATOM     11  C   UNL A   1      33.308  22.220  23.655  1.00  0.00     0.033 A 
BRANCH   8  12
ATOM     12  C   UNL A   1      31.950  23.244  26.877  1.00  0.00     0.222 C 
BRANCH  12  13
ATOM     13  C   UNL A   1      30.479  23.575  26.946  1.00  0.00     0.246 C 
ATOM     14  N   UNL A   1      29.918  24.630  26.307  1.00  0.00    -0.300 N 
ATOM     15  H   UNL A   1      28.948  24.713  26.451  1.00  0.00     0.172 HD
ATOM     16  O   UNL A   1      29.738  22.871  27.646  1.00  0.00    -0.273 OA
BRANCH  14  17
ATOM     17  C   UNL A   1      30.443  25.597  25.500  1.00  0.00     0.189 A 
ATOM     18  C   UNL A   1      31.535  27.457  25.031  1.00  0.00     0.059 A 
ATOM     19  C   UNL A   1      30.987  27.190  23.788  1.00  0.00     0.093 A 
ATOM     20  N   UNL A   1      31.246  26.502  25.993  1.00  0.00    -0.224 NA
ATOM     21  S   UNL A   1      30.217  25.674  23.820  1.00  0.00    -0.105 S 
BRANCH  18  22
ATOM     22  C   UNL A   1      32.431  28.621  25.392  1.00  0.00     0.005 C 
ATOM     23  C   UNL A   1      31.606  29.897  25.660  1.00  0.00     0.017 C 
ATOM     24  C   UNL A   1      33.420  28.924  24.251  1.00  0.00     0.017 C 
ATOM     25  C   UNL A   1      33.207  28.257  26.671  1.00  0.00     0.017 C 
ENDBRANCH  18  22
ENDBRANCH  14  17
ENDBRANCH  12  13
ENDBRANCH   8  12
ENDBRANCH   4   7
ENDBRANCH   2   3
ENDBRANCH   1   2
BRANCH   1  26
ATOM     26  C   UNL A   1      37.082  21.743  24.333  1.00  0.00     0.002 C 
BRANCH  26  27
ATOM     27  C   UNL A   1      36.850  20.312  24.834  1.00  0.00     0.002 C 
BRANCH  27  28
ATOM     28  C   UNL A   1      38.078  19.404  24.998  1.00  0.00     0.021 C 
BRANCH  28  29
ATOM     29  C   UNL A   1      39.198  19.976  25.857  1.00  0.00     0.116 C 
BRANCH  29  30
ATOM     30  N   UNL A   1      40.300  19.044  26.004  1.00  0.00    -0.352 N 
ATOM     31  C   UNL A   1      41.646  19.295  26.108  1.00  0.00     0.251 C 
ATOM     32  H   UNL A   1      40.045  18.093  26.035  1.00  0.00     0.163 HD
ATOM     33  O   UNL A   1      42.448  18.396  25.904  1.00  0.00    -0.269 OA
BRANCH  31  34
ATOM     34  C   UNL A   1      42.136  20.644  26.453  1.00  0.00     0.039 A 
ATOM     35  C   UNL A   1      42.581  21.472  25.414  1.00  0.00     0.014 A 
ATOM     36  C   UNL A   1      42.250  21.057  27.784  1.00  0.00     0.014 A 
ATOM     37  C   UNL A   1      43.094  22.728  25.707  1.00  0.00     0.010 A 
ATOM     38  C   UNL A   1      42.713  22.328  28.080  1.00  0.00     0.010 A 
ATOM     39  C   UNL A   1      43.141  23.158  27.039  1.00  0.00    -0.014 A 
BRANCH  39  40
ATOM     40  C   UNL A   1      43.550  24.544  27.332  1.00  0.00     0.031 A 
ATOM     41  C   UNL A   1      42.326  25.468  27.507  1.00  0.00     0.074 A 
ATOM     42  C   UNL A   1      44.901  24.761  27.397  1.00  0.00     0.049 A 
ATOM     43  N   UNL A   1      42.211  26.750  27.341  1.00  0.00    -0.248 NA
ATOM     44  C   UNL A   1      41.010  24.866  27.871  1.00  0.00     0.031 C 
ATOM     45  C   UNL A   1      45.931  23.704  27.247  1.00  0.00     0.029 A 
ATOM     46  N   UNL A   1      45.694  25.873  27.601  1.00  0.00    -0.354 N 
ATOM     47  C   UNL A   1      40.919  27.128  27.783  1.00  0.00     0.074 A 
ATOM     48  C   UNL A   1      40.187  25.914  27.968  1.00  0.00     0.031 C 
ATOM     49  C   UNL A   1      47.176  24.226  27.288  1.00  0.00     0.029 A 
ATOM     50  C   UNL A   1      47.097  25.659  27.470  1.00  0.00     0.049 A 
ATOM     51  H   UNL A   1      45.315  26.754  27.822  1.00  0.00     0.167 HD
ATOM     52  C   UNL A   1      40.591  28.412  28.121  1.00  0.00     0.037 A 
ATOM     53  C   UNL A   1      48.114  26.578  27.469  1.00  0.00     0.037 A 
ATOM     54  C   UNL A   1      41.712  29.261  27.909  1.00  0.00     0.049 A 
ATOM     55  C   UNL A   1      47.474  27.839  27.846  1.00  0.00     0.074 A 
ATOM     56  C   UNL A   1      42.325  29.701  26.766  1.00  0.00     0.029 A 
ATOM     57  N   UNL A   1      42.564  29.425  28.975  1.00  0.00    -0.354 N 
ATOM     58  N   UNL A   1      47.067  28.119  29.046  1.00  0.00    -0.248 NA
ATOM     59  C   UNL A   1      47.188  28.831  26.805  1.00  0.00     0.031 C 
ATOM     60  C   UNL A   1      43.691  29.630  27.097  1.00  0.00     0.029 A 
ATOM     61  C   UNL A   1      43.839  29.419  28.474  1.00  0.00     0.049 A 
ATOM     62  H   UNL A   1      42.308  29.526  29.921  1.00  0.00     0.167 HD
ATOM     63  C   UNL A   1      46.169  29.128  28.814  1.00  0.00     0.074 A 
ATOM     64  C   UNL A   1      46.529  29.721  27.543  1.00  0.00     0.031 C 
ATOM     65  C   UNL A   1      44.923  29.034  29.348  1.00  0.00     0.037 A 
BRANCH  52  66
ATOM     66  C   UNL A   1      39.440  29.009  28.886  1.00  0.00     0.057 A 
ATOM     67  C   UNL A   1      39.303  28.679  30.257  1.00  0.00     0.134 A 
ATOM     68  C   UNL A   1      38.307  29.560  28.279  1.00  0.00     0.134 A 
ATOM     69  F   UNL A   1      40.338  28.183  30.956  1.00  0.00    -0.206 F 
ATOM     70  C   UNL A   1      38.085  28.761  30.938  1.00  0.00     0.040 A 
ATOM     71  C   UNL A   1      37.091  29.690  28.968  1.00  0.00     0.040 A 
ATOM     72  F   UNL A   1      38.304  29.900  26.985  1.00  0.00    -0.206 F 
ATOM     73  C   UNL A   1      36.966  29.249  30.283  1.00  0.00     0.006 A 
ENDBRANCH  52  66
BRANCH  53  74
ATOM     74  C   UNL A   1      49.591  26.672  27.151  1.00  0.00     0.057 A 
ATOM     75  C   UNL A   1      50.606  27.061  28.027  1.00  0.00     0.134 A 
ATOM     76  C   UNL A   1      50.072  26.221  25.886  1.00  0.00     0.134 A 
ATOM     77  F   UNL A   1      50.333  27.610  29.214  1.00  0.00    -0.206 F 
ATOM     78  C   UNL A   1      51.975  26.902  27.715  1.00  0.00     0.040 A 
ATOM     79  C   UNL A   1      51.421  26.008  25.584  1.00  0.00     0.040 A 
ATOM     80  F   UNL A   1      49.245  25.944  24.868  1.00  0.00    -0.206 F 
ATOM     81  C   UNL A   1      52.384  26.333  26.513  1.00  0.00     0.006 A 
ENDBRANCH  53  74
BRANCH  65  82
ATOM     82  C   UNL A   1      44.837  28.153  30.588  1.00  0.00     0.057 A 
ATOM     83  C   UNL A   1      45.570  28.483  31.739  1.00  0.00     0.134 A 
ATOM     84  C   UNL A   1      44.169  26.920  30.647  1.00  0.00     0.134 A 
ATOM     85  F   UNL A   1      46.219  29.655  31.811  1.00  0.00    -0.206 F 
ATOM     86  C   UNL A   1      45.673  27.623  32.843  1.00  0.00     0.040 A 
ATOM     87  C   UNL A   1      44.253  26.049  31.745  1.00  0.00     0.040 A 
ATOM     88  F   UNL A   1      43.404  26.507  29.640  1.00  0.00    -0.206 F 
ATOM     89  C   UNL A   1      45.021  26.394  32.845  1.00  0.00     0.006 A 
ENDBRANCH  65  82
ENDBRANCH  39  40
ENDBRANCH  31  34
ENDBRANCH  29  30
ENDBRANCH  28  29
ENDBRANCH  27  28
ENDBRANCH  26  27
ENDBRANCH   1  26
TORSDOF 17
ENDMDL
MODEL 2
REMARK VINA RESULT:     -11.1      1.635      2.685
REMARK SMILES CC(C)(C)c1csc(NC(=O)Cn2cccc2C(=O)NCCCCCCNC(=O)c2ccc(-c3c4nc(c(-c5c(F)cccc5F)c5ccc([nH]5)c(-c5c(F)cccc5F)c5nc(c(-c6c(F)cccc6F)c6ccc3[nH]6)C=C5)C=C4)cc2)n1
REMARK SMILES IDX 22 1 21 2 20 3 18 4 19 5 17 7 13 8 14 9 15 10 16 11 12 12
REMARK SMILES IDX 10 13 9 14 11 16 8 17 5 18 6 19 84 20 7 21 2 22 1 23 3 24
REMARK SMILES IDX 4 25 23 26 24 27 25 28 26 29 27 30 28 31 29 33 30 34 31 35
REMARK SMILES IDX 83 36 32 37 82 38 33 39 34 40 35 41 76 42 36 43 81 44 75 45
REMARK SMILES IDX 77 46 37 47 80 48 74 49 73 50 38 52 64 53 47 54 63 55 48 56
REMARK SMILES IDX 51 57 62 58 78 59 49 60 50 61 61 63 79 64 52 65 39 66 40 67
REMARK SMILES IDX 45 68 41 69 42 70 44 71 46 72 43 73 65 74 66 75 71 76 67 77
REMARK SMILES IDX 68 78 70 79 72 80 69 81 53 82 54 83 59 84 55 85 56 86 58 87
REMARK SMILES IDX 60 88 57 89
REMARK H PARENT 20 6 9 15 27 32 77 51 51 62
REMARK Flexibility Score: inf
ROOT
ATOM      1  C   UNL A   1      34.755  21.587  23.983  1.00  0.00     0.021 C 
ENDROOT
BRANCH   1   2
ATOM      2  C   UNL A   1      33.304  21.193  23.777  1.00  0.00     0.116 C 
BRANCH   2   3
ATOM      3  N   UNL A   1      32.359  21.582  24.780  1.00  0.00    -0.351 N 
ATOM      4  C   UNL A   1      32.092  22.805  25.346  1.00  0.00     0.267 C 
ATOM      5  O   UNL A   1      31.148  22.783  26.144  1.00  0.00    -0.268 OA
ATOM      6  H   UNL A   1      31.806  20.844  25.125  1.00  0.00     0.163 HD
BRANCH   4   7
ATOM      7  C   UNL A   1      32.845  24.049  25.119  1.00  0.00     0.107 A 
ATOM      8  N   UNL A   1      32.841  25.053  24.142  1.00  0.00    -0.334 N 
ATOM      9  C   UNL A   1      33.813  25.989  24.431  1.00  0.00     0.087 A 
ATOM     10  C   UNL A   1      34.357  25.702  25.654  1.00  0.00     0.020 A 
ATOM     11  C   UNL A   1      33.757  24.505  26.079  1.00  0.00     0.033 A 
BRANCH   8  12
ATOM     12  C   UNL A   1      31.956  25.213  22.992  1.00  0.00     0.222 C 
BRANCH  12  13
ATOM     13  C   UNL A   1      32.425  26.113  21.875  1.00  0.00     0.246 C 
ATOM     14  N   UNL A   1      32.070  27.416  21.764  1.00  0.00    -0.300 N 
ATOM     15  H   UNL A   1      32.457  27.868  20.980  1.00  0.00     0.172 HD
ATOM     16  O   UNL A   1      33.151  25.641  20.989  1.00  0.00    -0.273 OA
BRANCH  14  17
ATOM     17  C   UNL A   1      31.279  28.219  22.533  1.00  0.00     0.189 A 
ATOM     18  C   UNL A   1      29.500  29.436  23.009  1.00  0.00     0.059 A 
ATOM     19  C   UNL A   1      30.313  29.788  24.072  1.00  0.00     0.093 A 
ATOM     20  N   UNL A   1      30.058  28.495  22.157  1.00  0.00    -0.224 NA
ATOM     21  S   UNL A   1      31.722  28.835  24.050  1.00  0.00    -0.105 S 
BRANCH  18  22
ATOM     22  C   UNL A   1      28.093  29.927  22.747  1.00  0.00     0.005 C 
ATOM     23  C   UNL A   1      27.051  28.849  23.114  1.00  0.00     0.017 C 
ATOM     24  C   UNL A   1      27.907  30.284  21.261  1.00  0.00     0.017 C 
ATOM     25  C   UNL A   1      27.844  31.172  23.617  1.00  0.00     0.017 C 
ENDBRANCH  18  22
ENDBRANCH  14  17
ENDBRANCH  12  13
ENDBRANCH   8  12
ENDBRANCH   4   7
ENDBRANCH   2   3
ENDBRANCH   1   2
BRANCH   1  26
ATOM     26  C   UNL A   1      35.463  21.026  25.213  1.00  0.00     0.002 C 
BRANCH  26  27
ATOM     27  C   UNL A   1      36.333  19.776  25.027  1.00  0.00     0.002 C 
BRANCH  27  28
ATOM     28  C   UNL A   1      37.804  19.982  24.634  1.00  0.00     0.021 C 
BRANCH  28  29
ATOM     29  C   UNL A   1      38.746  20.306  25.786  1.00  0.00     0.116 C 
BRANCH  29  30
ATOM     30  N   UNL A   1      39.774  19.295  25.949  1.00  0.00    -0.352 N 
ATOM     31  C   UNL A   1      41.131  19.446  26.084  1.00  0.00     0.251 C 
ATOM     32  H   UNL A   1      39.449  18.365  25.966  1.00  0.00     0.163 HD
ATOM     33  O   UNL A   1      41.870  18.492  25.889  1.00  0.00    -0.269 OA
BRANCH  31  34
ATOM     34  C   UNL A   1      41.711  20.754  26.451  1.00  0.00     0.039 A 
ATOM     35  C   UNL A   1      42.114  21.611  25.419  1.00  0.00     0.014 A 
ATOM     36  C   UNL A   1      41.946  21.094  27.787  1.00  0.00     0.014 A 
ATOM     37  C   UNL A   1      42.708  22.828  25.728  1.00  0.00     0.010 A 
ATOM     38  C   UNL A   1      42.492  22.327  28.103  1.00  0.00     0.010 A 
ATOM     39  C   UNL A   1      42.878  23.188  27.071  1.00  0.00    -0.014 A 
BRANCH  39  40
ATOM     40  C   UNL A   1      43.374  24.539  27.393  1.00  0.00     0.031 A 
ATOM     41  C   UNL A   1      42.211  25.518  27.661  1.00  0.00     0.074 A 
ATOM     42  C   UNL A   1      44.736  24.682  27.402  1.00  0.00     0.049 A 
ATOM     43  N   UNL A   1      42.158  26.809  27.548  1.00  0.00    -0.248 NA
ATOM     44  C   UNL A   1      40.882  24.972  28.066  1.00  0.00     0.031 C 
ATOM     45  C   UNL A   1      45.700  23.579  27.165  1.00  0.00     0.029 A 
ATOM     46  N   UNL A   1      45.596  25.742  27.608  1.00  0.00    -0.354 N 
ATOM     47  C   UNL A   1      40.910  27.237  28.064  1.00  0.00     0.074 A 
ATOM     48  C   UNL A   1      40.123  26.056  28.240  1.00  0.00     0.031 C 
ATOM     49  C   UNL A   1      46.971  24.033  27.165  1.00  0.00     0.029 A 
ATOM     50  C   UNL A   1      46.978  25.460  27.403  1.00  0.00     0.049 A 
ATOM     51  H   UNL A   1      45.276  26.633  27.879  1.00  0.00     0.167 HD
ATOM     52  C   UNL A   1      40.668  28.522  28.464  1.00  0.00     0.037 A 
ATOM     53  C   UNL A   1      48.042  26.324  27.385  1.00  0.00     0.037 A 
ATOM     54  C   UNL A   1      41.822  29.320  28.229  1.00  0.00     0.049 A 
ATOM     55  C   UNL A   1      47.489  27.602  27.839  1.00  0.00     0.074 A 
ATOM     56  C   UNL A   1      42.404  29.771  27.075  1.00  0.00     0.029 A 
ATOM     57  N   UNL A   1      42.730  29.396  29.259  1.00  0.00    -0.354 N 
ATOM     58  N   UNL A   1      47.154  27.855  29.066  1.00  0.00    -0.248 NA
ATOM     59  C   UNL A   1      47.210  28.647  26.849  1.00  0.00     0.031 C 
ATOM     60  C   UNL A   1      43.779  29.615  27.337  1.00  0.00     0.029 A 
ATOM     61  C   UNL A   1      43.978  29.343  28.698  1.00  0.00     0.049 A 
ATOM     62  H   UNL A   1      42.523  29.474  30.219  1.00  0.00     0.167 HD
ATOM     63  C   UNL A   1      46.302  28.919  28.914  1.00  0.00     0.074 A 
ATOM     64  C   UNL A   1      46.635  29.541  27.650  1.00  0.00     0.031 C 
ATOM     65  C   UNL A   1      45.079  28.869  29.503  1.00  0.00     0.037 A 
BRANCH  52  66
ATOM     66  C   UNL A   1      39.587  29.149  29.304  1.00  0.00     0.057 A 
ATOM     67  C   UNL A   1      38.655  30.006  28.667  1.00  0.00     0.134 A 
ATOM     68  C   UNL A   1      39.643  29.246  30.697  1.00  0.00     0.134 A 
ATOM     69  F   UNL A   1      38.483  29.971  27.334  1.00  0.00    -0.206 F 
ATOM     70  C   UNL A   1      37.934  30.986  29.354  1.00  0.00     0.040 A 
ATOM     71  C   UNL A   1      38.888  30.195  31.402  1.00  0.00     0.040 A 
ATOM     72  F   UNL A   1      40.493  28.500  31.415  1.00  0.00    -0.206 F 
ATOM     73  C   UNL A   1      38.066  31.096  30.729  1.00  0.00     0.006 A 
ENDBRANCH  52  66
BRANCH  53  74
ATOM     74  C   UNL A   1      49.506  26.353  27.001  1.00  0.00     0.057 A 
ATOM     75  C   UNL A   1      50.595  26.208  27.863  1.00  0.00     0.134 A 
ATOM     76  C   UNL A   1      49.874  26.415  25.624  1.00  0.00     0.134 A 
ATOM     77  F   UNL A   1      50.445  26.241  29.190  1.00  0.00    -0.206 F 
ATOM     78  C   UNL A   1      51.913  26.021  27.390  1.00  0.00     0.040 A 
ATOM     79  C   UNL A   1      51.164  26.177  25.140  1.00  0.00     0.040 A 
ATOM     80  F   UNL A   1      48.984  26.696  24.661  1.00  0.00    -0.206 F 
ATOM     81  C   UNL A   1      52.194  25.959  26.028  1.00  0.00     0.006 A 
ENDBRANCH  53  74
BRANCH  65  82
ATOM     82  C   UNL A   1      45.002  27.946  30.714  1.00  0.00     0.057 A 
ATOM     83  C   UNL A   1      45.795  28.200  31.844  1.00  0.00     0.134 A 
ATOM     84  C   UNL A   1      44.282  26.742  30.755  1.00  0.00     0.134 A 
ATOM     85  F   UNL A   1      46.499  29.338  31.931  1.00  0.00    -0.206 F 
ATOM     86  C   UNL A   1      45.903  27.294  32.911  1.00  0.00     0.040 A 
ATOM     87  C   UNL A   1      44.370  25.828  31.817  1.00  0.00     0.040 A 
ATOM     88  F   UNL A   1      43.459  26.402  29.767  1.00  0.00    -0.206 F 
ATOM     89  C   UNL A   1      45.196  26.096  32.896  1.00  0.00     0.006 A 
ENDBRANCH  65  82
ENDBRANCH  39  40
ENDBRANCH  31  34
ENDBRANCH  29  30
ENDBRANCH  28  29
ENDBRANCH  27  28
ENDBRANCH  26  27
ENDBRANCH   1  26
TORSDOF 17
ENDMDL
MODEL 3
REMARK VINA RESULT:     -10.9      4.832     10.096
REMARK SMILES CC(C)(C)c1csc(NC(=O)Cn2cccc2C(=O)NCCCCCCNC(=O)c2ccc(-c3c4nc(c(-c5c(F)cccc5F)c5ccc([nH]5)c(-c5c(F)cccc5F)c5nc(c(-c6c(F)cccc6F)c6ccc3[nH]6)C=C5)C=C4)cc2)n1
REMARK SMILES IDX 22 1 21 2 20 3 18 4 19 5 17 7 13 8 14 9 15 10 16 11 12 12
REMARK SMILES IDX 10 13 9 14 11 16 8 17 5 18 6 19 84 20 7 21 2 22 1 23 3 24
REMARK SMILES IDX 4 25 23 26 24 27 25 28 26 29 27 30 28 31 29 33 30 34 31 35
REMARK SMILES IDX 83 36 32 37 82 38 33 39 34 40 35 41 76 42 36 43 81 44 75 45
REMARK SMILES IDX 77 46 37 47 80 48 74 49 73 50 38 52 64 53 47 54 63 55 48 56
REMARK SMILES IDX 51 57 62 58 78 59 49 60 50 61 61 63 79 64 52 65 39 66 40 67
REMARK SMILES IDX 45 68 41 69 42 70 44 71 46 72 43 73 65 74 66 75 71 76 67 77
REMARK SMILES IDX 68 78 70 79 72 80 69 81 53 82 54 83 59 84 55 85 56 86 58 87
REMARK SMILES IDX 60 88 57 89
REMARK H PARENT 20 6 9 15 27 32 77 51 51 62
REMARK Flexibility Score: inf
ROOT
ATOM      1  C   UNL A   1      31.904  28.447  27.199  1.00  0.00     0.021 C 
ENDROOT
BRANCH   1   2
ATOM      2  C   UNL A   1      31.936  27.499  26.014  1.00  0.00     0.116 C 
BRANCH   2   3
ATOM      3  N   UNL A   1      30.885  27.603  25.047  1.00  0.00    -0.351 N 
ATOM      4  C   UNL A   1      30.594  26.840  23.942  1.00  0.00     0.267 C 
ATOM      5  O   UNL A   1      29.554  27.183  23.367  1.00  0.00    -0.268 OA
ATOM      6  H   UNL A   1      30.264  28.351  25.201  1.00  0.00     0.163 HD
BRANCH   4   7
ATOM      7  C   UNL A   1      31.417  25.746  23.402  1.00  0.00     0.107 A 
ATOM      8  N   UNL A   1      31.582  24.386  23.691  1.00  0.00    -0.334 N 
ATOM      9  C   UNL A   1      32.541  23.844  22.858  1.00  0.00     0.087 A 
ATOM     10  C   UNL A   1      32.905  24.783  21.931  1.00  0.00     0.020 A 
ATOM     11  C   UNL A   1      32.209  25.956  22.265  1.00  0.00     0.033 A 
BRANCH   8  12
ATOM     12  C   UNL A   1      30.867  23.558  24.657  1.00  0.00     0.222 C 
BRANCH  12  13
ATOM     13  C   UNL A   1      31.250  23.697  26.110  1.00  0.00     0.246 C 
ATOM     14  N   UNL A   1      32.368  23.149  26.646  1.00  0.00    -0.300 N 
ATOM     15  H   UNL A   1      32.478  23.328  27.607  1.00  0.00     0.172 HD
ATOM     16  O   UNL A   1      30.497  24.318  26.873  1.00  0.00    -0.273 OA
BRANCH  14  17
ATOM     17  C   UNL A   1      33.370  22.397  26.104  1.00  0.00     0.189 A 
ATOM     18  C   UNL A   1      35.323  22.032  25.143  1.00  0.00     0.059 A 
ATOM     19  C   UNL A   1      34.768  20.770  25.025  1.00  0.00     0.093 A 
ATOM     20  N   UNL A   1      34.519  22.944  25.809  1.00  0.00    -0.224 NA
ATOM     21  S   UNL A   1      33.289  20.718  25.866  1.00  0.00    -0.105 S 
BRANCH  18  22
ATOM     22  C   UNL A   1      36.697  22.461  24.678  1.00  0.00     0.005 C 
ATOM     23  C   UNL A   1      37.245  23.612  25.548  1.00  0.00     0.017 C 
ATOM     24  C   UNL A   1      36.654  22.946  23.217  1.00  0.00     0.017 C 
ATOM     25  C   UNL A   1      37.647  21.255  24.798  1.00  0.00     0.017 C 
ENDBRANCH  18  22
ENDBRANCH  14  17
ENDBRANCH  12  13
ENDBRANCH   8  12
ENDBRANCH   4   7
ENDBRANCH   2   3
ENDBRANCH   1   2
BRANCH   1  26
ATOM     26  C   UNL A   1      32.354  29.885  26.954  1.00  0.00     0.002 C 
BRANCH  26  27
ATOM     27  C   UNL A   1      31.409  30.805  26.171  1.00  0.00     0.002 C 
BRANCH  27  28
ATOM     28  C   UNL A   1      31.338  32.281  26.591  1.00  0.00     0.021 C 
BRANCH  28  29
ATOM     29  C   UNL A   1      32.657  32.889  27.052  1.00  0.00     0.116 C 
BRANCH  29  30
ATOM     30  N   UNL A   1      32.477  34.211  27.621  1.00  0.00    -0.352 N 
ATOM     31  C   UNL A   1      33.027  34.755  28.755  1.00  0.00     0.251 C 
ATOM     32  H   UNL A   1      31.872  34.805  27.119  1.00  0.00     0.163 HD
ATOM     33  O   UNL A   1      32.526  35.751  29.254  1.00  0.00    -0.269 OA
BRANCH  31  34
ATOM     34  C   UNL A   1      34.214  34.142  29.385  1.00  0.00     0.039 A 
ATOM     35  C   UNL A   1      35.470  34.407  28.825  1.00  0.00     0.014 A 
ATOM     36  C   UNL A   1      34.088  33.244  30.449  1.00  0.00     0.014 A 
ATOM     37  C   UNL A   1      36.602  33.808  29.362  1.00  0.00     0.010 A 
ATOM     38  C   UNL A   1      35.218  32.684  31.022  1.00  0.00     0.010 A 
ATOM     39  C   UNL A   1      36.472  32.962  30.470  1.00  0.00    -0.014 A 
BRANCH  39  40
ATOM     40  C   UNL A   1      37.689  32.446  31.125  1.00  0.00     0.031 A 
ATOM     41  C   UNL A   1      38.212  31.176  30.420  1.00  0.00     0.074 A 
ATOM     42  C   UNL A   1      38.128  33.162  32.206  1.00  0.00     0.049 A 
ATOM     43  N   UNL A   1      38.934  30.199  30.877  1.00  0.00    -0.248 NA
ATOM     44  C   UNL A   1      37.829  30.925  29.000  1.00  0.00     0.031 C 
ATOM     45  C   UNL A   1      37.498  34.411  32.700  1.00  0.00     0.029 A 
ATOM     46  N   UNL A   1      39.167  33.019  33.105  1.00  0.00    -0.354 N 
ATOM     47  C   UNL A   1      39.269  29.362  29.784  1.00  0.00     0.074 A 
ATOM     48  C   UNL A   1      38.453  29.785  28.690  1.00  0.00     0.031 C 
ATOM     49  C   UNL A   1      38.105  34.854  33.822  1.00  0.00     0.029 A 
ATOM     50  C   UNL A   1      39.185  33.958  34.177  1.00  0.00     0.049 A 
ATOM     51  H   UNL A   1      39.848  32.315  33.011  1.00  0.00     0.167 HD
ATOM     52  C   UNL A   1      40.315  28.481  29.812  1.00  0.00     0.037 A 
ATOM     53  C   UNL A   1      39.986  33.984  35.288  1.00  0.00     0.037 A 
ATOM     54  C   UNL A   1      40.938  28.521  31.090  1.00  0.00     0.049 A 
ATOM     55  C   UNL A   1      40.989  32.944  35.046  1.00  0.00     0.074 A 
ATOM     56  C   UNL A   1      40.526  28.095  32.324  1.00  0.00     0.029 A 
ATOM     57  N   UNL A   1      41.969  29.419  31.238  1.00  0.00    -0.354 N 
ATOM     58  N   UNL A   1      41.963  33.056  34.197  1.00  0.00    -0.248 NA
ATOM     59  C   UNL A   1      40.856  31.655  35.733  1.00  0.00     0.031 C 
ATOM     60  C   UNL A   1      40.964  29.127  33.174  1.00  0.00     0.029 A 
ATOM     61  C   UNL A   1      41.838  29.977  32.482  1.00  0.00     0.049 A 
ATOM     62  H   UNL A   1      42.668  29.623  30.576  1.00  0.00     0.167 HD
ATOM     63  C   UNL A   1      42.311  31.746  33.990  1.00  0.00     0.074 A 
ATOM     64  C   UNL A   1      41.863  31.008  35.152  1.00  0.00     0.031 C 
ATOM     65  C   UNL A   1      42.404  31.285  32.715  1.00  0.00     0.037 A 
BRANCH  52  66
ATOM     66  C   UNL A   1      41.055  27.734  28.734  1.00  0.00     0.057 A 
ATOM     67  C   UNL A   1      40.815  26.343  28.598  1.00  0.00     0.134 A 
ATOM     68  C   UNL A   1      42.210  28.213  28.109  1.00  0.00     0.134 A 
ATOM     69  F   UNL A   1      39.714  25.777  29.120  1.00  0.00    -0.206 F 
ATOM     70  C   UNL A   1      41.730  25.472  28.002  1.00  0.00     0.040 A 
ATOM     71  C   UNL A   1      43.112  27.352  27.467  1.00  0.00     0.040 A 
ATOM     72  F   UNL A   1      42.555  29.504  28.177  1.00  0.00    -0.206 F 
ATOM     73  C   UNL A   1      42.897  25.976  27.450  1.00  0.00     0.006 A 
ENDBRANCH  52  66
BRANCH  53  74
ATOM     74  C   UNL A   1      40.092  34.684  36.626  1.00  0.00     0.057 A 
ATOM     75  C   UNL A   1      41.014  35.671  36.978  1.00  0.00     0.134 A 
ATOM     76  C   UNL A   1      39.107  34.442  37.630  1.00  0.00     0.134 A 
ATOM     77  F   UNL A   1      42.067  35.951  36.204  1.00  0.00    -0.206 F 
ATOM     78  C   UNL A   1      40.896  36.428  38.165  1.00  0.00     0.040 A 
ATOM     79  C   UNL A   1      38.946  35.218  38.781  1.00  0.00     0.040 A 
ATOM     80  F   UNL A   1      38.227  33.435  37.535  1.00  0.00    -0.206 F 
ATOM     81  C   UNL A   1      39.836  36.235  39.046  1.00  0.00     0.006 A 
ENDBRANCH  53  74
BRANCH  65  82
ATOM     82  C   UNL A   1      42.686  32.364  31.677  1.00  0.00     0.057 A 
ATOM     83  C   UNL A   1      43.882  33.096  31.729  1.00  0.00     0.134 A 
ATOM     84  C   UNL A   1      41.767  32.803  30.712  1.00  0.00     0.134 A 
ATOM     85  F   UNL A   1      44.850  32.744  32.589  1.00  0.00    -0.206 F 
ATOM     86  C   UNL A   1      44.120  34.216  30.917  1.00  0.00     0.040 A 
ATOM     87  C   UNL A   1      41.989  33.916  29.885  1.00  0.00     0.040 A 
ATOM     88  F   UNL A   1      40.611  32.170  30.528  1.00  0.00    -0.206 F 
ATOM     89  C   UNL A   1      43.167  34.637  29.996  1.00  0.00     0.006 A 
ENDBRANCH  65  82
ENDBRANCH  39  40
ENDBRANCH  31  34
ENDBRANCH  29  30
ENDBRANCH  28  29
ENDBRANCH  27  28
ENDBRANCH  26  27
ENDBRANCH   1  26
TORSDOF 17
ENDMDL
