MODEL 1
REMARK VINA RESULT:     -12.9      0.000      0.000
REMARK SMILES O=C1OC(c2ccc(Cl)cc2)=N/C1=C/Nc1ccc(O)c(C(=O)NCCCCCCNC(=O)c2ccc(-c3c4nc(c(-c5c(F)cccc5F)c5ccc([nH]5)c(-c5c(F)cccc5F)c5nc(c(-c6c(F)cccc6F)c6ccc3[nH]6)C=C5)C=C4)cc2)c1
REMARK SMILES IDX 27 1 26 2 25 3 24 4 22 5 23 6 21 8 16 9 17 10 88 11 18 12
REMARK SMILES IDX 19 13 15 14 14 16 1 17 2 18 3 19 13 20 4 21 12 22 5 23 6 24
REMARK SMILES IDX 11 25 7 26 10 27 8 28 9 29 20 30 28 32 29 33 30 34 31 35
REMARK SMILES IDX 32 36 33 38 34 39 35 40 87 41 36 42 86 43 37 44 38 45 39 46
REMARK SMILES IDX 80 47 40 48 85 49 79 50 81 51 41 52 84 53 78 54 77 55 42 57
REMARK SMILES IDX 68 58 51 59 67 60 52 61 55 62 66 63 82 64 53 65 54 66 65 68
REMARK SMILES IDX 83 69 56 70 43 71 44 72 49 73 45 74 46 75 48 76 50 77 47 78
REMARK SMILES IDX 69 79 70 80 75 81 71 82 72 83 74 84 76 85 73 86 57 87 58 88
REMARK SMILES IDX 63 89 59 90 60 91 62 92 64 93 61 94
REMARK H PARENT 24 7 15 15 20 31 31 37 81 56 55 67
REMARK Flexibility Score: inf
ROOT
ATOM      1  C   UNL A   1      32.468  29.833  27.088  1.00  0.00     0.002 C 
ENDROOT
BRANCH   1   2
ATOM      2  C   UNL A   1      33.903  29.574  26.618  1.00  0.00     0.021 C 
BRANCH   2   3
ATOM      3  C   UNL A   1      34.026  28.312  25.756  1.00  0.00     0.116 C 
BRANCH   3   4
ATOM      4  N   UNL A   1      34.196  28.701  24.377  1.00  0.00    -0.352 N 
ATOM      5  C   UNL A   1      33.369  28.606  23.290  1.00  0.00     0.255 C 
ATOM      6  O   UNL A   1      33.885  28.868  22.199  1.00  0.00    -0.269 OA
ATOM      7  H   UNL A   1      35.068  29.110  24.181  1.00  0.00     0.163 HD
BRANCH   5   8
ATOM      8  C   UNL A   1      31.899  28.337  23.344  1.00  0.00     0.083 A 
ATOM      9  C   UNL A   1      30.235  26.885  24.431  1.00  0.00     0.039 A 
ATOM     10  C   UNL A   1      29.247  27.419  23.604  1.00  0.00     0.030 A 
ATOM     11  C   UNL A   1      31.550  27.329  24.268  1.00  0.00     0.043 A 
ATOM     12  C   UNL A   1      29.550  28.457  22.728  1.00  0.00     0.049 A 
ATOM     13  C   UNL A   1      30.860  28.941  22.629  1.00  0.00     0.128 A 
BRANCH   9  14
ATOM     14  N   UNL A   1      29.969  25.886  25.372  1.00  0.00    -0.360 N 
ATOM     15  H   UNL A   1      29.080  25.902  25.795  1.00  0.00     0.166 HD
BRANCH  14  16
ATOM     16  C   UNL A   1      30.818  24.887  25.765  1.00  0.00     0.119 C 
ATOM     17  O   UNL A   1      30.189  24.172  22.900  1.00  0.00    -0.244 OA
ATOM     18  C   UNL A   1      30.899  23.547  23.659  1.00  0.00     0.365 C 
ATOM     19  O   UNL A   1      31.609  22.411  23.396  1.00  0.00    -0.402 OA
ATOM     20  C   UNL A   1      31.227  23.813  25.085  1.00  0.00     0.168 C 
ATOM     21  C   UNL A   1      32.208  22.072  24.560  1.00  0.00     0.231 C 
ATOM     22  N   UNL A   1      32.031  22.831  25.591  1.00  0.00    -0.204 NA
BRANCH  21  23
ATOM     23  C   UNL A   1      32.954  20.822  24.534  1.00  0.00     0.037 A 
ATOM     24  C   UNL A   1      34.300  20.791  24.902  1.00  0.00     0.015 A 
ATOM     25  C   UNL A   1      32.277  19.652  24.176  1.00  0.00     0.015 A 
ATOM     26  C   UNL A   1      34.974  19.568  24.916  1.00  0.00     0.021 A 
ATOM     27  C   UNL A   1      32.960  18.437  24.173  1.00  0.00     0.021 A 
ATOM     28  C   UNL A   1      34.303  18.399  24.548  1.00  0.00     0.041 A 
ATOM     29  Cl  UNL A   1      35.137  16.895  24.567  1.00  0.00    -0.084 Cl
ENDBRANCH  21  23
ENDBRANCH  14  16
ENDBRANCH   9  14
BRANCH  13  30
ATOM     30  O   UNL A   1      31.040  30.058  21.867  1.00  0.00    -0.507 OA
ATOM     31  H   UNL A   1      31.253  30.875  22.275  1.00  0.00     0.293 HD
ENDBRANCH  13  30
ENDBRANCH   5   8
ENDBRANCH   3   4
ENDBRANCH   2   3
ENDBRANCH   1   2
BRANCH   1  32
ATOM     32  C   UNL A   1      31.642  30.694  26.125  1.00  0.00     0.002 C 
BRANCH  32  33
ATOM     33  C   UNL A   1      31.389  32.122  26.612  1.00  0.00     0.021 C 
BRANCH  33  34
ATOM     34  C   UNL A   1      32.559  32.719  27.383  1.00  0.00     0.116 C 
BRANCH  34  35
ATOM     35  N   UNL A   1      32.369  34.145  27.608  1.00  0.00    -0.352 N 
ATOM     36  C   UNL A   1      32.938  34.951  28.560  1.00  0.00     0.251 C 
ATOM     37  H   UNL A   1      31.746  34.594  26.991  1.00  0.00     0.163 HD
ATOM     38  O   UNL A   1      32.475  36.060  28.801  1.00  0.00    -0.269 OA
BRANCH  36  39
ATOM     39  C   UNL A   1      34.117  34.463  29.301  1.00  0.00     0.039 A 
ATOM     40  C   UNL A   1      33.941  33.854  30.544  1.00  0.00     0.014 A 
ATOM     41  C   UNL A   1      35.396  34.604  28.754  1.00  0.00     0.014 A 
ATOM     42  C   UNL A   1      35.048  33.333  31.216  1.00  0.00     0.010 A 
ATOM     43  C   UNL A   1      36.484  34.014  29.385  1.00  0.00     0.010 A 
ATOM     44  C   UNL A   1      36.321  33.378  30.625  1.00  0.00    -0.014 A 
BRANCH  44  45
ATOM     45  C   UNL A   1      37.504  32.776  31.288  1.00  0.00     0.031 A 
ATOM     46  C   UNL A   1      38.180  31.582  30.675  1.00  0.00     0.074 A 
ATOM     47  C   UNL A   1      37.922  33.260  32.473  1.00  0.00     0.049 A 
ATOM     48  N   UNL A   1      39.163  30.857  31.145  1.00  0.00    -0.248 NA
ATOM     49  C   UNL A   1      37.666  31.124  29.375  1.00  0.00     0.031 C 
ATOM     50  C   UNL A   1      37.324  34.392  33.186  1.00  0.00     0.029 A 
ATOM     51  N   UNL A   1      38.942  32.854  33.296  1.00  0.00    -0.354 N 
ATOM     52  C   UNL A   1      39.375  29.856  30.207  1.00  0.00     0.074 A 
ATOM     53  C   UNL A   1      38.381  30.028  29.171  1.00  0.00     0.031 C 
ATOM     54  C   UNL A   1      38.001  34.602  34.326  1.00  0.00     0.029 A 
ATOM     55  C   UNL A   1      39.049  33.594  34.450  1.00  0.00     0.049 A 
ATOM     56  H   UNL A   1      39.542  32.103  33.080  1.00  0.00     0.167 HD
ATOM     57  C   UNL A   1      40.328  28.895  30.195  1.00  0.00     0.037 A 
ATOM     58  C   UNL A   1      39.888  33.462  35.495  1.00  0.00     0.037 A 
ATOM     59  C   UNL A   1      41.326  28.738  31.221  1.00  0.00     0.049 A 
ATOM     60  C   UNL A   1      40.915  32.363  35.474  1.00  0.00     0.074 A 
ATOM     61  C   UNL A   1      42.364  27.826  31.281  1.00  0.00     0.029 A 
ATOM     62  N   UNL A   1      41.405  29.511  32.371  1.00  0.00    -0.354 N 
ATOM     63  N   UNL A   1      41.144  31.461  34.551  1.00  0.00    -0.248 NA
ATOM     64  C   UNL A   1      41.804  32.265  36.641  1.00  0.00     0.031 C 
ATOM     65  C   UNL A   1      43.037  28.010  32.493  1.00  0.00     0.029 A 
ATOM     66  C   UNL A   1      42.459  29.080  33.157  1.00  0.00     0.049 A 
ATOM     67  H   UNL A   1      40.801  30.257  32.593  1.00  0.00     0.167 HD
ATOM     68  C   UNL A   1      42.224  30.715  35.006  1.00  0.00     0.074 A 
ATOM     69  C   UNL A   1      42.611  31.277  36.283  1.00  0.00     0.031 C 
ATOM     70  C   UNL A   1      42.841  29.660  34.419  1.00  0.00     0.037 A 
BRANCH  57  71
ATOM     71  C   UNL A   1      40.340  27.938  29.038  1.00  0.00     0.057 A 
ATOM     72  C   UNL A   1      39.572  26.766  29.039  1.00  0.00     0.134 A 
ATOM     73  C   UNL A   1      41.095  28.213  27.890  1.00  0.00     0.134 A 
ATOM     74  F   UNL A   1      38.834  26.437  30.110  1.00  0.00    -0.206 F 
ATOM     75  C   UNL A   1      39.575  25.889  27.952  1.00  0.00     0.040 A 
ATOM     76  C   UNL A   1      41.082  27.360  26.786  1.00  0.00     0.040 A 
ATOM     77  F   UNL A   1      41.848  29.321  27.818  1.00  0.00    -0.206 F 
ATOM     78  C   UNL A   1      40.325  26.191  26.817  1.00  0.00     0.006 A 
ENDBRANCH  57  71
BRANCH  58  79
ATOM     79  C   UNL A   1      39.801  34.397  36.646  1.00  0.00     0.057 A 
ATOM     80  C   UNL A   1      40.474  35.625  36.631  1.00  0.00     0.134 A 
ATOM     81  C   UNL A   1      39.068  34.080  37.796  1.00  0.00     0.134 A 
ATOM     82  F   UNL A   1      41.208  35.980  35.566  1.00  0.00    -0.206 F 
ATOM     83  C   UNL A   1      40.447  36.489  37.726  1.00  0.00     0.040 A 
ATOM     84  C   UNL A   1      39.007  34.948  38.887  1.00  0.00     0.040 A 
ATOM     85  F   UNL A   1      38.392  32.924  37.872  1.00  0.00    -0.206 F 
ATOM     86  C   UNL A   1      39.708  36.153  38.859  1.00  0.00     0.006 A 
ENDBRANCH  58  79
BRANCH  70  87
ATOM     87  C   UNL A   1      44.030  29.075  35.124  1.00  0.00     0.057 A 
ATOM     88  C   UNL A   1      43.911  28.018  36.034  1.00  0.00     0.134 A 
ATOM     89  C   UNL A   1      45.321  29.545  34.846  1.00  0.00     0.134 A 
ATOM     90  F   UNL A   1      42.703  27.529  36.356  1.00  0.00    -0.206 F 
ATOM     91  C   UNL A   1      45.030  27.464  36.659  1.00  0.00     0.040 A 
ATOM     92  C   UNL A   1      46.449  28.978  35.439  1.00  0.00     0.040 A 
ATOM     93  F   UNL A   1      45.508  30.549  33.975  1.00  0.00    -0.206 F 
ATOM     94  C   UNL A   1      46.305  27.938  36.354  1.00  0.00     0.006 A 
ENDBRANCH  70  87
ENDBRANCH  44  45
ENDBRANCH  36  39
ENDBRANCH  34  35
ENDBRANCH  33  34
ENDBRANCH  32  33
ENDBRANCH   1  32
TORSDOF 17
ENDMDL
MODEL 2
REMARK VINA RESULT:     -12.5      2.738      6.655
REMARK SMILES O=C1OC(c2ccc(Cl)cc2)=N/C1=C/Nc1ccc(O)c(C(=O)NCCCCCCNC(=O)c2ccc(-c3c4nc(c(-c5c(F)cccc5F)c5ccc([nH]5)c(-c5c(F)cccc5F)c5nc(c(-c6c(F)cccc6F)c6ccc3[nH]6)C=C5)C=C4)cc2)c1
REMARK SMILES IDX 27 1 26 2 25 3 24 4 22 5 23 6 21 8 16 9 17 10 88 11 18 12
REMARK SMILES IDX 19 13 15 14 14 16 1 17 2 18 3 19 13 20 4 21 12 22 5 23 6 24
REMARK SMILES IDX 11 25 7 26 10 27 8 28 9 29 20 30 28 32 29 33 30 34 31 35
REMARK SMILES IDX 32 36 33 38 34 39 35 40 87 41 36 42 86 43 37 44 38 45 39 46
REMARK SMILES IDX 80 47 40 48 85 49 79 50 81 51 41 52 84 53 78 54 77 55 42 57
REMARK SMILES IDX 68 58 51 59 67 60 52 61 55 62 66 63 82 64 53 65 54 66 65 68
REMARK SMILES IDX 83 69 56 70 43 71 44 72 49 73 45 74 46 75 48 76 50 77 47 78
REMARK SMILES IDX 69 79 70 80 75 81 71 82 72 83 74 84 76 85 73 86 57 87 58 88
REMARK SMILES IDX 63 89 59 90 60 91 62 92 64 93 61 94
REMARK H PARENT 24 7 15 15 20 31 31 37 81 56 55 67
REMARK Flexibility Score: inf
ROOT
ATOM      1  C   UNL A   1      34.146  25.358  24.972  1.00  0.00     0.002 C 
ENDROOT
BRANCH   1   2
ATOM      2  C   UNL A   1      34.093  26.680  25.744  1.00  0.00     0.021 C 
BRANCH   2   3
ATOM      3  C   UNL A   1      34.115  27.906  24.823  1.00  0.00     0.116 C 
BRANCH   3   4
ATOM      4  N   UNL A   1      33.466  29.008  25.492  1.00  0.00    -0.352 N 
ATOM      5  C   UNL A   1      32.230  29.573  25.336  1.00  0.00     0.255 C 
ATOM      6  O   UNL A   1      32.043  30.631  25.946  1.00  0.00    -0.269 OA
ATOM      7  H   UNL A   1      34.015  29.432  26.189  1.00  0.00     0.163 HD
BRANCH   5   8
ATOM      8  C   UNL A   1      31.084  28.955  24.601  1.00  0.00     0.083 A 
ATOM      9  C   UNL A   1      29.984  26.791  24.196  1.00  0.00     0.039 A 
ATOM     10  C   UNL A   1      29.157  27.400  23.255  1.00  0.00     0.030 A 
ATOM     11  C   UNL A   1      30.954  27.569  24.832  1.00  0.00     0.043 A 
ATOM     12  C   UNL A   1      29.218  28.776  23.051  1.00  0.00     0.049 A 
ATOM     13  C   UNL A   1      30.148  29.554  23.751  1.00  0.00     0.128 A 
BRANCH   9  14
ATOM     14  N   UNL A   1      29.917  25.424  24.484  1.00  0.00    -0.360 N 
ATOM     15  H   UNL A   1      29.371  25.161  25.259  1.00  0.00     0.166 HD
BRANCH  14  16
ATOM     16  C   UNL A   1      30.532  24.413  23.796  1.00  0.00     0.119 C 
ATOM     17  O   UNL A   1      30.371  23.336  26.612  1.00  0.00    -0.244 OA
ATOM     18  C   UNL A   1      30.864  22.778  25.655  1.00  0.00     0.365 C 
ATOM     19  O   UNL A   1      31.418  21.531  25.607  1.00  0.00    -0.402 OA
ATOM     20  C   UNL A   1      31.013  23.254  24.254  1.00  0.00     0.168 C 
ATOM     21  C   UNL A   1      31.864  21.373  24.341  1.00  0.00     0.231 C 
ATOM     22  N   UNL A   1      31.674  22.330  23.494  1.00  0.00    -0.204 NA
BRANCH  21  23
ATOM     23  C   UNL A   1      32.582  20.133  24.085  1.00  0.00     0.037 A 
ATOM     24  C   UNL A   1      33.715  19.802  24.831  1.00  0.00     0.015 A 
ATOM     25  C   UNL A   1      32.082  19.265  23.109  1.00  0.00     0.015 A 
ATOM     26  C   UNL A   1      34.351  18.581  24.597  1.00  0.00     0.021 A 
ATOM     27  C   UNL A   1      32.733  18.056  22.865  1.00  0.00     0.021 A 
ATOM     28  C   UNL A   1      33.861  17.717  23.614  1.00  0.00     0.041 A 
ATOM     29  Cl  UNL A   1      34.648  16.215  23.329  1.00  0.00    -0.084 Cl
ENDBRANCH  21  23
ENDBRANCH  14  16
ENDBRANCH   9  14
BRANCH  13  30
ATOM     30  O   UNL A   1      30.038  30.906  23.611  1.00  0.00    -0.507 OA
ATOM     31  H   UNL A   1      30.614  31.476  24.084  1.00  0.00     0.293 HD
ENDBRANCH  13  30
ENDBRANCH   5   8
ENDBRANCH   3   4
ENDBRANCH   2   3
ENDBRANCH   1   2
BRANCH   1  32
ATOM     32  C   UNL A   1      34.471  24.139  25.843  1.00  0.00     0.002 C 
BRANCH  32  33
ATOM     33  C   UNL A   1      35.527  23.203  25.250  1.00  0.00     0.021 C 
BRANCH  33  34
ATOM     34  C   UNL A   1      36.917  23.820  25.177  1.00  0.00     0.116 C 
BRANCH  34  35
ATOM     35  N   UNL A   1      37.945  22.842  25.504  1.00  0.00    -0.352 N 
ATOM     36  C   UNL A   1      39.158  23.039  26.114  1.00  0.00     0.251 C 
ATOM     37  H   UNL A   1      37.742  21.912  25.254  1.00  0.00     0.163 HD
ATOM     38  O   UNL A   1      40.027  22.175  26.071  1.00  0.00    -0.269 OA
BRANCH  36  39
ATOM     39  C   UNL A   1      39.408  24.310  26.820  1.00  0.00     0.039 A 
ATOM     40  C   UNL A   1      38.958  24.464  28.132  1.00  0.00     0.014 A 
ATOM     41  C   UNL A   1      40.097  25.344  26.179  1.00  0.00     0.014 A 
ATOM     42  C   UNL A   1      39.250  25.641  28.823  1.00  0.00     0.010 A 
ATOM     43  C   UNL A   1      40.457  26.478  26.895  1.00  0.00     0.010 A 
ATOM     44  C   UNL A   1      40.031  26.641  28.222  1.00  0.00    -0.014 A 
BRANCH  44  45
ATOM     45  C   UNL A   1      40.411  27.873  28.955  1.00  0.00     0.031 A 
ATOM     46  C   UNL A   1      41.761  27.972  29.608  1.00  0.00     0.074 A 
ATOM     47  C   UNL A   1      39.514  28.869  29.093  1.00  0.00     0.049 A 
ATOM     48  N   UNL A   1      42.244  28.920  30.370  1.00  0.00    -0.248 NA
ATOM     49  C   UNL A   1      42.682  26.843  29.399  1.00  0.00     0.031 C 
ATOM     50  C   UNL A   1      38.158  28.873  28.537  1.00  0.00     0.029 A 
ATOM     51  N   UNL A   1      39.603  30.068  29.755  1.00  0.00    -0.354 N 
ATOM     52  C   UNL A   1      43.514  28.498  30.738  1.00  0.00     0.074 A 
ATOM     53  C   UNL A   1      43.705  27.183  30.167  1.00  0.00     0.031 C 
ATOM     54  C   UNL A   1      37.554  30.027  28.863  1.00  0.00     0.029 A 
ATOM     55  C   UNL A   1      38.456  30.822  29.688  1.00  0.00     0.049 A 
ATOM     56  H   UNL A   1      40.414  30.360  30.232  1.00  0.00     0.167 HD
ATOM     57  C   UNL A   1      44.447  29.157  31.464  1.00  0.00     0.037 A 
ATOM     58  C   UNL A   1      38.163  32.013  30.243  1.00  0.00     0.037 A 
ATOM     59  C   UNL A   1      44.257  30.473  32.015  1.00  0.00     0.049 A 
ATOM     60  C   UNL A   1      39.205  32.708  31.076  1.00  0.00     0.074 A 
ATOM     61  C   UNL A   1      45.156  31.247  32.727  1.00  0.00     0.029 A 
ATOM     62  N   UNL A   1      43.083  31.207  31.920  1.00  0.00    -0.354 N 
ATOM     63  N   UNL A   1      40.426  32.325  31.365  1.00  0.00    -0.248 NA
ATOM     64  C   UNL A   1      38.831  34.005  31.659  1.00  0.00     0.031 C 
ATOM     65  C   UNL A   1      44.509  32.425  33.111  1.00  0.00     0.029 A 
ATOM     66  C   UNL A   1      43.227  32.413  32.583  1.00  0.00     0.049 A 
ATOM     67  H   UNL A   1      42.269  30.913  31.450  1.00  0.00     0.167 HD
ATOM     68  C   UNL A   1      40.975  33.346  32.129  1.00  0.00     0.074 A 
ATOM     69  C   UNL A   1      39.960  34.371  32.249  1.00  0.00     0.031 C 
ATOM     70  C   UNL A   1      42.211  33.430  32.680  1.00  0.00     0.037 A 
BRANCH  57  71
ATOM     71  C   UNL A   1      45.759  28.466  31.704  1.00  0.00     0.057 A 
ATOM     72  C   UNL A   1      45.967  27.637  32.814  1.00  0.00     0.134 A 
ATOM     73  C   UNL A   1      46.814  28.597  30.791  1.00  0.00     0.134 A 
ATOM     74  F   UNL A   1      45.002  27.476  33.733  1.00  0.00    -0.206 F 
ATOM     75  C   UNL A   1      47.183  26.985  33.022  1.00  0.00     0.040 A 
ATOM     76  C   UNL A   1      48.024  27.926  30.972  1.00  0.00     0.040 A 
ATOM     77  F   UNL A   1      46.682  29.370  29.702  1.00  0.00    -0.206 F 
ATOM     78  C   UNL A   1      48.214  27.122  32.094  1.00  0.00     0.006 A 
ENDBRANCH  57  71
BRANCH  58  79
ATOM     79  C   UNL A   1      36.830  32.632  30.026  1.00  0.00     0.057 A 
ATOM     80  C   UNL A   1      35.752  32.341  30.871  1.00  0.00     0.134 A 
ATOM     81  C   UNL A   1      36.593  33.508  28.960  1.00  0.00     0.134 A 
ATOM     82  F   UNL A   1      35.910  31.496  31.900  1.00  0.00    -0.206 F 
ATOM     83  C   UNL A   1      34.481  32.872  30.647  1.00  0.00     0.040 A 
ATOM     84  C   UNL A   1      35.334  34.071  28.742  1.00  0.00     0.040 A 
ATOM     85  F   UNL A   1      37.584  33.838  28.119  1.00  0.00    -0.206 F 
ATOM     86  C   UNL A   1      34.270  33.744  29.581  1.00  0.00     0.006 A 
ENDBRANCH  58  79
BRANCH  70  87
ATOM     87  C   UNL A   1      42.555  34.691  33.420  1.00  0.00     0.057 A 
ATOM     88  C   UNL A   1      43.108  35.804  32.777  1.00  0.00     0.134 A 
ATOM     89  C   UNL A   1      42.276  34.808  34.788  1.00  0.00     0.134 A 
ATOM     90  F   UNL A   1      43.411  35.756  31.470  1.00  0.00    -0.206 F 
ATOM     91  C   UNL A   1      43.394  36.981  33.472  1.00  0.00     0.040 A 
ATOM     92  C   UNL A   1      42.527  35.988  35.487  1.00  0.00     0.040 A 
ATOM     93  F   UNL A   1      41.735  33.781  35.464  1.00  0.00    -0.206 F 
ATOM     94  C   UNL A   1      43.093  37.078  34.831  1.00  0.00     0.006 A 
ENDBRANCH  70  87
ENDBRANCH  44  45
ENDBRANCH  36  39
ENDBRANCH  34  35
ENDBRANCH  33  34
ENDBRANCH  32  33
ENDBRANCH   1  32
TORSDOF 17
ENDMDL
MODEL 3
REMARK VINA RESULT:     -12.5      1.832      2.870
REMARK SMILES O=C1OC(c2ccc(Cl)cc2)=N/C1=C/Nc1ccc(O)c(C(=O)NCCCCCCNC(=O)c2ccc(-c3c4nc(c(-c5c(F)cccc5F)c5ccc([nH]5)c(-c5c(F)cccc5F)c5nc(c(-c6c(F)cccc6F)c6ccc3[nH]6)C=C5)C=C4)cc2)c1
REMARK SMILES IDX 27 1 26 2 25 3 24 4 22 5 23 6 21 8 16 9 17 10 88 11 18 12
REMARK SMILES IDX 19 13 15 14 14 16 1 17 2 18 3 19 13 20 4 21 12 22 5 23 6 24
REMARK SMILES IDX 11 25 7 26 10 27 8 28 9 29 20 30 28 32 29 33 30 34 31 35
REMARK SMILES IDX 32 36 33 38 34 39 35 40 87 41 36 42 86 43 37 44 38 45 39 46
REMARK SMILES IDX 80 47 40 48 85 49 79 50 81 51 41 52 84 53 78 54 77 55 42 57
REMARK SMILES IDX 68 58 51 59 67 60 52 61 55 62 66 63 82 64 53 65 54 66 65 68
REMARK SMILES IDX 83 69 56 70 43 71 44 72 49 73 45 74 46 75 48 76 50 77 47 78
REMARK SMILES IDX 69 79 70 80 75 81 71 82 72 83 74 84 76 85 73 86 57 87 58 88
REMARK SMILES IDX 63 89 59 90 60 91 62 92 64 93 61 94
REMARK H PARENT 24 7 15 15 20 31 31 37 81 56 55 67
REMARK Flexibility Score: inf
ROOT
ATOM      1  C   UNL A   1      32.283  29.779  27.162  1.00  0.00     0.002 C 
ENDROOT
BRANCH   1   2
ATOM      2  C   UNL A   1      33.774  29.485  26.971  1.00  0.00     0.021 C 
BRANCH   2   3
ATOM      3  C   UNL A   1      34.027  28.246  26.103  1.00  0.00     0.116 C 
BRANCH   3   4
ATOM      4  N   UNL A   1      34.092  28.648  24.719  1.00  0.00    -0.352 N 
ATOM      5  C   UNL A   1      33.636  28.057  23.572  1.00  0.00     0.255 C 
ATOM      6  O   UNL A   1      34.014  28.574  22.516  1.00  0.00    -0.269 OA
ATOM      7  H   UNL A   1      34.549  29.506  24.572  1.00  0.00     0.163 HD
BRANCH   5   8
ATOM      8  C   UNL A   1      32.645  26.939  23.511  1.00  0.00     0.083 A 
ATOM      9  C   UNL A   1      32.467  24.531  23.037  1.00  0.00     0.039 A 
ATOM     10  C   UNL A   1      31.080  24.627  23.128  1.00  0.00     0.030 A 
ATOM     11  C   UNL A   1      33.227  25.693  23.199  1.00  0.00     0.043 A 
ATOM     12  C   UNL A   1      30.481  25.828  23.496  1.00  0.00     0.049 A 
ATOM     13  C   UNL A   1      31.263  26.967  23.727  1.00  0.00     0.128 A 
BRANCH   9  14
ATOM     14  N   UNL A   1      33.120  23.332  22.734  1.00  0.00    -0.360 N 
ATOM     15  H   UNL A   1      32.554  22.580  22.446  1.00  0.00     0.166 HD
BRANCH  14  16
ATOM     16  C   UNL A   1      34.467  23.097  22.796  1.00  0.00     0.119 C 
ATOM     17  O   UNL A   1      33.438  21.899  25.370  1.00  0.00    -0.244 OA
ATOM     18  C   UNL A   1      34.594  21.937  25.005  1.00  0.00     0.365 C 
ATOM     19  O   UNL A   1      35.687  21.420  25.636  1.00  0.00    -0.402 OA
ATOM     20  C   UNL A   1      35.180  22.537  23.777  1.00  0.00     0.168 C 
ATOM     21  C   UNL A   1      36.749  21.749  24.866  1.00  0.00     0.231 C 
ATOM     22  N   UNL A   1      36.540  22.404  23.773  1.00  0.00    -0.204 NA
BRANCH  21  23
ATOM     23  C   UNL A   1      38.048  21.371  25.404  1.00  0.00     0.037 A 
ATOM     24  C   UNL A   1      38.812  22.289  26.126  1.00  0.00     0.015 A 
ATOM     25  C   UNL A   1      38.486  20.055  25.219  1.00  0.00     0.015 A 
ATOM     26  C   UNL A   1      40.030  21.880  26.674  1.00  0.00     0.021 A 
ATOM     27  C   UNL A   1      39.712  19.658  25.751  1.00  0.00     0.021 A 
ATOM     28  C   UNL A   1      40.476  20.570  26.481  1.00  0.00     0.041 A 
ATOM     29  Cl  UNL A   1      41.977  20.072  27.156  1.00  0.00    -0.084 Cl
ENDBRANCH  21  23
ENDBRANCH  14  16
ENDBRANCH   9  14
BRANCH  13  30
ATOM     30  O   UNL A   1      30.616  28.056  24.233  1.00  0.00    -0.507 OA
ATOM     31  H   UNL A   1      31.085  28.856  24.375  1.00  0.00     0.293 HD
ENDBRANCH  13  30
ENDBRANCH   5   8
ENDBRANCH   3   4
ENDBRANCH   2   3
ENDBRANCH   1   2
BRANCH   1  32
ATOM     32  C   UNL A   1      31.696  30.738  26.120  1.00  0.00     0.002 C 
BRANCH  32  33
ATOM     33  C   UNL A   1      31.468  32.163  26.630  1.00  0.00     0.021 C 
BRANCH  33  34
ATOM     34  C   UNL A   1      32.684  32.766  27.321  1.00  0.00     0.116 C 
BRANCH  34  35
ATOM     35  N   UNL A   1      32.472  34.174  27.626  1.00  0.00    -0.352 N 
ATOM     36  C   UNL A   1      33.012  34.927  28.638  1.00  0.00     0.251 C 
ATOM     37  H   UNL A   1      31.858  34.652  27.023  1.00  0.00     0.163 HD
ATOM     38  O   UNL A   1      32.531  36.015  28.934  1.00  0.00    -0.269 OA
BRANCH  36  39
ATOM     39  C   UNL A   1      34.180  34.407  29.374  1.00  0.00     0.039 A 
ATOM     40  C   UNL A   1      33.984  33.728  30.577  1.00  0.00     0.014 A 
ATOM     41  C   UNL A   1      35.469  34.589  28.862  1.00  0.00     0.014 A 
ATOM     42  C   UNL A   1      35.082  33.179  31.242  1.00  0.00     0.010 A 
ATOM     43  C   UNL A   1      36.548  33.973  29.481  1.00  0.00     0.010 A 
ATOM     44  C   UNL A   1      36.367  33.267  30.681  1.00  0.00    -0.014 A 
BRANCH  44  45
ATOM     45  C   UNL A   1      37.542  32.639  31.333  1.00  0.00     0.031 A 
ATOM     46  C   UNL A   1      38.215  31.459  30.689  1.00  0.00     0.074 A 
ATOM     47  C   UNL A   1      37.954  33.084  32.535  1.00  0.00     0.049 A 
ATOM     48  N   UNL A   1      39.191  30.714  31.143  1.00  0.00    -0.248 NA
ATOM     49  C   UNL A   1      37.707  31.044  29.371  1.00  0.00     0.031 C 
ATOM     50  C   UNL A   1      37.357  34.197  33.278  1.00  0.00     0.029 A 
ATOM     51  N   UNL A   1      38.966  32.647  33.352  1.00  0.00    -0.354 N 
ATOM     52  C   UNL A   1      39.403  29.741  30.176  1.00  0.00     0.074 A 
ATOM     53  C   UNL A   1      38.417  29.951  29.139  1.00  0.00     0.031 C 
ATOM     54  C   UNL A   1      38.028  34.369  34.428  1.00  0.00     0.029 A 
ATOM     55  C   UNL A   1      39.069  33.351  34.528  1.00  0.00     0.049 A 
ATOM     56  H   UNL A   1      39.563  31.900  33.117  1.00  0.00     0.167 HD
ATOM     57  C   UNL A   1      40.351  28.775  30.142  1.00  0.00     0.037 A 
ATOM     58  C   UNL A   1      39.900  33.182  35.574  1.00  0.00     0.037 A 
ATOM     59  C   UNL A   1      41.340  28.582  31.170  1.00  0.00     0.049 A 
ATOM     60  C   UNL A   1      40.921  32.079  35.528  1.00  0.00     0.074 A 
ATOM     61  C   UNL A   1      42.373  27.662  31.209  1.00  0.00     0.029 A 
ATOM     62  N   UNL A   1      41.416  29.319  32.342  1.00  0.00    -0.354 N 
ATOM     63  N   UNL A   1      41.151  31.203  34.579  1.00  0.00    -0.248 NA
ATOM     64  C   UNL A   1      41.801  31.940  36.697  1.00  0.00     0.031 C 
ATOM     65  C   UNL A   1      43.039  27.805  32.430  1.00  0.00     0.029 A 
ATOM     66  C   UNL A   1      42.462  28.858  33.123  1.00  0.00     0.049 A 
ATOM     67  H   UNL A   1      40.815  30.062  32.583  1.00  0.00     0.167 HD
ATOM     68  C   UNL A   1      42.223  30.437  35.019  1.00  0.00     0.074 A 
ATOM     69  C   UNL A   1      42.605  30.959  36.314  1.00  0.00     0.031 C 
ATOM     70  C   UNL A   1      42.838  29.398  34.404  1.00  0.00     0.037 A 
BRANCH  57  71
ATOM     71  C   UNL A   1      40.365  27.854  28.956  1.00  0.00     0.057 A 
ATOM     72  C   UNL A   1      41.124  28.134  27.811  1.00  0.00     0.134 A 
ATOM     73  C   UNL A   1      39.646  26.652  28.975  1.00  0.00     0.134 A 
ATOM     74  F   UNL A   1      41.827  29.274  27.723  1.00  0.00    -0.206 F 
ATOM     75  C   UNL A   1      41.145  27.266  26.718  1.00  0.00     0.040 A 
ATOM     76  C   UNL A   1      39.685  25.762  27.901  1.00  0.00     0.040 A 
ATOM     77  F   UNL A   1      38.904  26.317  30.041  1.00  0.00    -0.206 F 
ATOM     78  C   UNL A   1      40.431  26.070  26.765  1.00  0.00     0.006 A 
ENDBRANCH  57  71
BRANCH  58  79
ATOM     79  C   UNL A   1      39.811  34.083  36.753  1.00  0.00     0.057 A 
ATOM     80  C   UNL A   1      39.044  33.735  37.872  1.00  0.00     0.134 A 
ATOM     81  C   UNL A   1      40.467  35.320  36.782  1.00  0.00     0.134 A 
ATOM     82  F   UNL A   1      38.377  32.572  37.898  1.00  0.00    -0.206 F 
ATOM     83  C   UNL A   1      38.907  34.595  38.963  1.00  0.00     0.040 A 
ATOM     84  C   UNL A   1      40.364  36.176  37.880  1.00  0.00     0.040 A 
ATOM     85  F   UNL A   1      41.226  35.710  35.748  1.00  0.00    -0.206 F 
ATOM     86  C   UNL A   1      39.572  35.819  38.970  1.00  0.00     0.006 A 
ENDBRANCH  58  79
BRANCH  70  87
ATOM     87  C   UNL A   1      44.019  28.784  35.099  1.00  0.00     0.057 A 
ATOM     88  C   UNL A   1      45.322  29.263  34.917  1.00  0.00     0.134 A 
ATOM     89  C   UNL A   1      43.840  27.731  36.006  1.00  0.00     0.134 A 
ATOM     90  F   UNL A   1      45.566  30.261  34.054  1.00  0.00    -0.206 F 
ATOM     91  C   UNL A   1      46.407  28.702  35.594  1.00  0.00     0.040 A 
ATOM     92  C   UNL A   1      44.910  27.184  36.713  1.00  0.00     0.040 A 
ATOM     93  F   UNL A   1      42.615  27.231  36.236  1.00  0.00    -0.206 F 
ATOM     94  C   UNL A   1      46.200  27.665  36.503  1.00  0.00     0.006 A 
ENDBRANCH  70  87
ENDBRANCH  44  45
ENDBRANCH  36  39
ENDBRANCH  34  35
ENDBRANCH  33  34
ENDBRANCH  32  33
ENDBRANCH   1  32
TORSDOF 17
ENDMDL
