MODEL 1
REMARK VINA RESULT:     -13.2      0.000      0.000
REMARK SMILES Cc1ccccc1-c1c(Cl)ccc2c1C=C(C(=O)NCCCCCCNC(=O)c1ccc(-c3c4nc(c(-c5c(F)cccc5F)c5ccc([nH]5)c(-c5c(F)cccc5F)c5nc(c(-c6c(F)cccc6F)c6ccc3[nH]6)C=C5)C=C4)cc1)[C@@H](C(F)(F)F)O2
REMARK SMILES IDX 23 1 22 2 21 3 20 4 19 5 17 6 18 7 16 9 8 10 9 11 14 12
REMARK SMILES IDX 10 13 11 14 13 15 15 16 12 17 88 18 83 19 7 20 1 21 2 22
REMARK SMILES IDX 3 23 4 24 6 25 5 26 84 27 85 28 86 29 87 30 24 31 25 32
REMARK SMILES IDX 26 33 27 34 28 36 29 37 30 38 82 39 31 40 81 41 32 42 33 43
REMARK SMILES IDX 34 44 75 45 35 46 80 47 74 48 76 49 36 50 79 51 73 52 72 53
REMARK SMILES IDX 37 55 63 56 46 57 62 58 47 59 50 60 61 61 77 62 48 63 49 64
REMARK SMILES IDX 60 66 78 67 51 68 38 69 39 70 44 71 40 72 41 73 43 74 45 75
REMARK SMILES IDX 42 76 64 77 65 78 70 79 66 80 67 81 69 82 71 83 68 84 52 85
REMARK SMILES IDX 53 86 58 87 54 88 55 89 57 90 59 91 56 92
REMARK H PARENT 19 8 26 35 76 54 50 65
REMARK Flexibility Score: inf
ROOT
ATOM      1  C   UNL A   1      40.091  22.100  27.003  1.00  0.00     0.002 C 
ENDROOT
BRANCH   1   2
ATOM      2  C   UNL A   1      39.220  23.355  27.177  1.00  0.00     0.002 C 
BRANCH   2   3
ATOM      3  C   UNL A   1      38.263  23.732  26.036  1.00  0.00     0.021 C 
BRANCH   3   4
ATOM      4  C   UNL A   1      37.642  22.575  25.251  1.00  0.00     0.116 C 
BRANCH   4   5
ATOM      5  N   UNL A   1      36.872  23.017  24.113  1.00  0.00    -0.352 N 
ATOM      6  C   UNL A   1      35.635  23.569  24.039  1.00  0.00     0.251 C 
ATOM      7  O   UNL A   1      35.222  23.880  22.922  1.00  0.00    -0.270 OA
ATOM      8  H   UNL A   1      37.320  22.898  23.245  1.00  0.00     0.163 HD
BRANCH   6   9
ATOM      9  C   UNL A   1      34.769  23.743  25.264  1.00  0.00     0.067 C 
ATOM     10  C   UNL A   1      31.865  26.027  24.716  1.00  0.00     0.012 A 
ATOM     11  C   UNL A   1      30.674  25.915  23.952  1.00  0.00     0.049 A 
ATOM     12  C   UNL A   1      32.671  24.864  24.837  1.00  0.00     0.027 A 
ATOM     13  Cl  UNL A   1      29.673  27.289  23.601  1.00  0.00    -0.084 Cl
ATOM     14  C   UNL A   1      30.247  24.688  23.432  1.00  0.00     0.025 A 
ATOM     15  C   UNL A   1      32.167  23.620  24.401  1.00  0.00     0.128 A 
ATOM     16  C   UNL A   1      34.075  24.899  25.316  1.00  0.00     0.026 C 
ATOM     17  C   UNL A   1      30.973  23.534  23.695  1.00  0.00     0.049 A 
ATOM     18  O   UNL A   1      32.794  22.420  24.629  1.00  0.00    -0.475 OA
ATOM     19  C   UNL A   1      33.960  22.468  25.485  1.00  0.00     0.314 C 
BRANCH  10  20
ATOM     20  C   UNL A   1      32.139  27.271  25.486  1.00  0.00    -0.013 A 
ATOM     21  C   UNL A   1      33.639  28.379  23.722  1.00  0.00     0.045 C 
ATOM     22  C   UNL A   1      32.933  28.349  25.045  1.00  0.00    -0.043 A 
ATOM     23  C   UNL A   1      33.116  29.468  25.886  1.00  0.00     0.004 A 
ATOM     24  C   UNL A   1      32.498  29.550  27.131  1.00  0.00     0.000 A 
ATOM     25  C   UNL A   1      31.535  27.379  26.762  1.00  0.00     0.009 A 
ATOM     26  C   UNL A   1      31.699  28.506  27.569  1.00  0.00     0.001 A 
ENDBRANCH  10  20
BRANCH  19  27
ATOM     27  C   UNL A   1      33.601  22.251  26.963  1.00  0.00     0.429 C 
ATOM     28  F   UNL A   1      32.347  22.682  27.237  1.00  0.00    -0.167 F 
ATOM     29  F   UNL A   1      33.639  20.932  27.282  1.00  0.00    -0.167 F 
ATOM     30  F   UNL A   1      34.440  22.887  27.812  1.00  0.00    -0.167 F 
ENDBRANCH  19  27
ENDBRANCH   6   9
ENDBRANCH   4   5
ENDBRANCH   3   4
ENDBRANCH   2   3
ENDBRANCH   1   2
BRANCH   1  31
ATOM     31  C   UNL A   1      41.375  22.243  26.181  1.00  0.00     0.021 C 
BRANCH  31  32
ATOM     32  C   UNL A   1      42.475  21.243  26.524  1.00  0.00     0.116 C 
BRANCH  32  33
ATOM     33  N   UNL A   1      43.231  20.752  25.379  1.00  0.00    -0.352 N 
ATOM     34  C   UNL A   1      44.311  21.349  24.732  1.00  0.00     0.251 C 
ATOM     35  H   UNL A   1      42.939  19.886  25.015  1.00  0.00     0.163 HD
ATOM     36  O   UNL A   1      44.869  20.782  23.806  1.00  0.00    -0.269 OA
BRANCH  34  37
ATOM     37  C   UNL A   1      44.856  22.617  25.273  1.00  0.00     0.039 A 
ATOM     38  C   UNL A   1      45.491  22.576  26.518  1.00  0.00     0.014 A 
ATOM     39  C   UNL A   1      44.538  23.839  24.689  1.00  0.00     0.014 A 
ATOM     40  C   UNL A   1      45.545  23.735  27.292  1.00  0.00     0.010 A 
ATOM     41  C   UNL A   1      44.506  24.970  25.486  1.00  0.00     0.010 A 
ATOM     42  C   UNL A   1      44.931  24.896  26.815  1.00  0.00    -0.014 A 
BRANCH  42  43
ATOM     43  C   UNL A   1      44.537  25.991  27.695  1.00  0.00     0.031 A 
ATOM     44  C   UNL A   1      43.167  26.537  27.695  1.00  0.00     0.074 A 
ATOM     45  C   UNL A   1      45.433  26.515  28.563  1.00  0.00     0.049 A 
ATOM     46  N   UNL A   1      42.894  27.762  28.005  1.00  0.00    -0.248 NA
ATOM     47  C   UNL A   1      41.994  25.752  27.330  1.00  0.00     0.031 C 
ATOM     48  C   UNL A   1      45.166  27.445  29.658  1.00  0.00     0.029 A 
ATOM     49  N   UNL A   1      46.828  26.476  28.475  1.00  0.00    -0.354 N 
ATOM     50  C   UNL A   1      41.535  27.856  28.143  1.00  0.00     0.074 A 
ATOM     51  C   UNL A   1      41.011  26.601  27.648  1.00  0.00     0.031 C 
ATOM     52  C   UNL A   1      46.294  28.109  29.945  1.00  0.00     0.029 A 
ATOM     53  C   UNL A   1      47.292  27.716  28.968  1.00  0.00     0.049 A 
ATOM     54  H   UNL A   1      47.377  25.732  28.136  1.00  0.00     0.167 HD
ATOM     55  C   UNL A   1      40.977  28.923  28.778  1.00  0.00     0.037 A 
ATOM     56  C   UNL A   1      48.018  28.560  28.181  1.00  0.00     0.037 A 
ATOM     57  C   UNL A   1      41.960  29.889  29.251  1.00  0.00     0.049 A 
ATOM     58  C   UNL A   1      47.381  29.914  27.948  1.00  0.00     0.074 A 
ATOM     59  C   UNL A   1      42.543  30.154  30.480  1.00  0.00     0.029 A 
ATOM     60  N   UNL A   1      42.704  30.593  28.323  1.00  0.00    -0.354 N 
ATOM     61  N   UNL A   1      46.227  30.282  28.432  1.00  0.00    -0.248 NA
ATOM     62  C   UNL A   1      47.950  30.921  27.047  1.00  0.00     0.031 C 
ATOM     63  C   UNL A   1      43.641  31.037  30.276  1.00  0.00     0.029 A 
ATOM     64  C   UNL A   1      43.724  31.305  28.924  1.00  0.00     0.049 A 
ATOM     65  H   UNL A   1      42.529  30.587  27.354  1.00  0.00     0.167 HD
ATOM     66  C   UNL A   1      45.861  31.477  27.868  1.00  0.00     0.074 A 
ATOM     67  C   UNL A   1      46.977  31.845  27.018  1.00  0.00     0.031 C 
ATOM     68  C   UNL A   1      44.646  32.054  28.088  1.00  0.00     0.037 A 
BRANCH  55  69
ATOM     69  C   UNL A   1      39.526  28.927  29.152  1.00  0.00     0.057 A 
ATOM     70  C   UNL A   1      38.535  29.359  28.255  1.00  0.00     0.134 A 
ATOM     71  C   UNL A   1      39.064  28.547  30.424  1.00  0.00     0.134 A 
ATOM     72  F   UNL A   1      38.828  29.699  26.994  1.00  0.00    -0.206 F 
ATOM     73  C   UNL A   1      37.193  29.492  28.627  1.00  0.00     0.040 A 
ATOM     74  C   UNL A   1      37.734  28.722  30.825  1.00  0.00     0.040 A 
ATOM     75  F   UNL A   1      39.895  27.999  31.324  1.00  0.00    -0.206 F 
ATOM     76  C   UNL A   1      36.794  29.208  29.925  1.00  0.00     0.006 A 
ENDBRANCH  55  69
BRANCH  56  77
ATOM     77  C   UNL A   1      48.864  27.834  27.197  1.00  0.00     0.057 A 
ATOM     78  C   UNL A   1      50.102  27.321  27.627  1.00  0.00     0.134 A 
ATOM     79  C   UNL A   1      48.333  27.318  26.014  1.00  0.00     0.134 A 
ATOM     80  F   UNL A   1      50.666  27.775  28.758  1.00  0.00    -0.206 F 
ATOM     81  C   UNL A   1      50.716  26.247  26.981  1.00  0.00     0.040 A 
ATOM     82  C   UNL A   1      48.953  26.258  25.344  1.00  0.00     0.040 A 
ATOM     83  F   UNL A   1      47.148  27.743  25.551  1.00  0.00    -0.206 F 
ATOM     84  C   UNL A   1      50.121  25.691  25.853  1.00  0.00     0.006 A 
ENDBRANCH  56  77
BRANCH  68  85
ATOM     85  C   UNL A   1      44.232  33.377  27.511  1.00  0.00     0.057 A 
ATOM     86  C   UNL A   1      44.075  34.527  28.298  1.00  0.00     0.134 A 
ATOM     87  C   UNL A   1      43.855  33.508  26.160  1.00  0.00     0.134 A 
ATOM     88  F   UNL A   1      44.336  34.504  29.614  1.00  0.00    -0.206 F 
ATOM     89  C   UNL A   1      43.616  35.739  27.767  1.00  0.00     0.040 A 
ATOM     90  C   UNL A   1      43.353  34.698  25.630  1.00  0.00     0.040 A 
ATOM     91  F   UNL A   1      43.976  32.491  25.295  1.00  0.00    -0.206 F 
ATOM     92  C   UNL A   1      43.242  35.825  26.431  1.00  0.00     0.006 A 
ENDBRANCH  68  85
ENDBRANCH  42  43
ENDBRANCH  34  37
ENDBRANCH  32  33
ENDBRANCH  31  32
ENDBRANCH   1  31
TORSDOF 15
ENDMDL
MODEL 2
REMARK VINA RESULT:     -13.1      4.433      9.536
REMARK SMILES Cc1ccccc1-c1c(Cl)ccc2c1C=C(C(=O)NCCCCCCNC(=O)c1ccc(-c3c4nc(c(-c5c(F)cccc5F)c5ccc([nH]5)c(-c5c(F)cccc5F)c5nc(c(-c6c(F)cccc6F)c6ccc3[nH]6)C=C5)C=C4)cc1)[C@@H](C(F)(F)F)O2
REMARK SMILES IDX 23 1 22 2 21 3 20 4 19 5 17 6 18 7 16 9 8 10 9 11 14 12
REMARK SMILES IDX 10 13 11 14 13 15 15 16 12 17 88 18 83 19 7 20 1 21 2 22
REMARK SMILES IDX 3 23 4 24 6 25 5 26 84 27 85 28 86 29 87 30 24 31 25 32
REMARK SMILES IDX 26 33 27 34 28 36 29 37 30 38 82 39 31 40 81 41 32 42 33 43
REMARK SMILES IDX 34 44 75 45 35 46 80 47 74 48 76 49 36 50 79 51 73 52 72 53
REMARK SMILES IDX 37 55 63 56 46 57 62 58 47 59 50 60 61 61 77 62 48 63 49 64
REMARK SMILES IDX 60 66 78 67 51 68 38 69 39 70 44 71 40 72 41 73 43 74 45 75
REMARK SMILES IDX 42 76 64 77 65 78 70 79 66 80 67 81 69 82 71 83 68 84 52 85
REMARK SMILES IDX 53 86 58 87 54 88 55 89 57 90 59 91 56 92
REMARK H PARENT 19 8 26 35 76 54 50 65
REMARK Flexibility Score: inf
ROOT
ATOM      1  C   UNL A   1      33.722  33.194  27.631  1.00  0.00     0.002 C 
ENDROOT
BRANCH   1   2
ATOM      2  C   UNL A   1      33.715  31.695  27.975  1.00  0.00     0.002 C 
BRANCH   2   3
ATOM      3  C   UNL A   1      34.912  30.846  27.520  1.00  0.00     0.021 C 
BRANCH   3   4
ATOM      4  C   UNL A   1      34.627  29.382  27.186  1.00  0.00     0.116 C 
BRANCH   4   5
ATOM      5  N   UNL A   1      33.423  28.886  27.810  1.00  0.00    -0.352 N 
ATOM      6  C   UNL A   1      32.472  28.034  27.352  1.00  0.00     0.251 C 
ATOM      7  O   UNL A   1      31.548  27.757  28.116  1.00  0.00    -0.270 OA
ATOM      8  H   UNL A   1      33.266  29.224  28.721  1.00  0.00     0.163 HD
BRANCH   6   9
ATOM      9  C   UNL A   1      32.507  27.488  25.944  1.00  0.00     0.067 C 
ATOM     10  C   UNL A   1      33.158  23.813  25.792  1.00  0.00     0.012 A 
ATOM     11  C   UNL A   1      32.391  22.678  26.159  1.00  0.00     0.049 A 
ATOM     12  C   UNL A   1      32.506  25.075  25.821  1.00  0.00     0.027 A 
ATOM     13  Cl  UNL A   1      33.097  21.099  26.308  1.00  0.00    -0.084 Cl
ATOM     14  C   UNL A   1      31.021  22.771  26.430  1.00  0.00     0.025 A 
ATOM     15  C   UNL A   1      31.106  25.130  25.988  1.00  0.00     0.128 A 
ATOM     16  C   UNL A   1      33.238  26.365  25.782  1.00  0.00     0.026 C 
ATOM     17  C   UNL A   1      30.372  23.992  26.302  1.00  0.00     0.049 A 
ATOM     18  O   UNL A   1      30.366  26.280  25.860  1.00  0.00    -0.475 OA
ATOM     19  C   UNL A   1      31.085  27.446  25.393  1.00  0.00     0.314 C 
BRANCH  10  20
ATOM     20  C   UNL A   1      34.529  23.637  25.240  1.00  0.00    -0.013 A 
ATOM     21  C   UNL A   1      33.817  23.306  22.796  1.00  0.00     0.045 C 
ATOM     22  C   UNL A   1      34.844  23.416  23.884  1.00  0.00    -0.043 A 
ATOM     23  C   UNL A   1      36.193  23.258  23.501  1.00  0.00     0.004 A 
ATOM     24  C   UNL A   1      37.228  23.352  24.427  1.00  0.00     0.000 A 
ATOM     25  C   UNL A   1      35.603  23.716  26.160  1.00  0.00     0.009 A 
ATOM     26  C   UNL A   1      36.934  23.589  25.761  1.00  0.00     0.001 A 
ENDBRANCH  10  20
BRANCH  19  27
ATOM     27  C   UNL A   1      31.046  27.573  23.862  1.00  0.00     0.429 C 
ATOM     28  F   UNL A   1      29.901  28.161  23.442  1.00  0.00    -0.167 F 
ATOM     29  F   UNL A   1      32.069  28.346  23.414  1.00  0.00    -0.167 F 
ATOM     30  F   UNL A   1      31.144  26.383  23.228  1.00  0.00    -0.167 F 
ENDBRANCH  19  27
ENDBRANCH   6   9
ENDBRANCH   4   5
ENDBRANCH   3   4
ENDBRANCH   2   3
ENDBRANCH   1   2
BRANCH   1  31
ATOM     31  C   UNL A   1      33.010  34.141  28.602  1.00  0.00     0.021 C 
BRANCH  31  32
ATOM     32  C   UNL A   1      33.853  35.315  29.093  1.00  0.00     0.116 C 
BRANCH  32  33
ATOM     33  N   UNL A   1      34.118  35.317  30.525  1.00  0.00    -0.352 N 
ATOM     34  C   UNL A   1      34.953  34.473  31.255  1.00  0.00     0.251 C 
ATOM     35  H   UNL A   1      33.645  36.005  31.046  1.00  0.00     0.163 HD
ATOM     36  O   UNL A   1      35.104  34.635  32.455  1.00  0.00    -0.269 OA
BRANCH  34  37
ATOM     37  C   UNL A   1      35.759  33.462  30.527  1.00  0.00     0.039 A 
ATOM     38  C   UNL A   1      35.788  32.161  31.036  1.00  0.00     0.014 A 
ATOM     39  C   UNL A   1      36.642  33.842  29.521  1.00  0.00     0.014 A 
ATOM     40  C   UNL A   1      36.878  31.342  30.744  1.00  0.00     0.010 A 
ATOM     41  C   UNL A   1      37.769  33.070  29.300  1.00  0.00     0.010 A 
ATOM     42  C   UNL A   1      37.926  31.858  29.977  1.00  0.00    -0.014 A 
BRANCH  42  43
ATOM     43  C   UNL A   1      39.266  31.281  29.993  1.00  0.00     0.031 A 
ATOM     44  C   UNL A   1      39.570  29.996  29.335  1.00  0.00     0.074 A 
ATOM     45  C   UNL A   1      40.279  31.942  30.600  1.00  0.00     0.049 A 
ATOM     46  N   UNL A   1      40.508  29.202  29.735  1.00  0.00    -0.248 NA
ATOM     47  C   UNL A   1      38.831  29.495  28.182  1.00  0.00     0.031 C 
ATOM     48  C   UNL A   1      41.706  31.638  30.526  1.00  0.00     0.029 A 
ATOM     49  N   UNL A   1      40.183  32.909  31.605  1.00  0.00    -0.354 N 
ATOM     50  C   UNL A   1      40.676  28.248  28.767  1.00  0.00     0.074 A 
ATOM     51  C   UNL A   1      39.567  28.428  27.853  1.00  0.00     0.031 C 
ATOM     52  C   UNL A   1      42.313  32.149  31.606  1.00  0.00     0.029 A 
ATOM     53  C   UNL A   1      41.282  32.695  32.468  1.00  0.00     0.049 A 
ATOM     54  H   UNL A   1      39.488  33.601  31.694  1.00  0.00     0.167 HD
ATOM     55  C   UNL A   1      41.797  27.476  28.745  1.00  0.00     0.037 A 
ATOM     56  C   UNL A   1      41.096  32.392  33.785  1.00  0.00     0.037 A 
ATOM     57  C   UNL A   1      42.726  27.780  29.825  1.00  0.00     0.049 A 
ATOM     58  C   UNL A   1      41.653  31.050  34.211  1.00  0.00     0.074 A 
ATOM     59  C   UNL A   1      43.895  28.518  29.917  1.00  0.00     0.029 A 
ATOM     60  N   UNL A   1      42.344  27.517  31.127  1.00  0.00    -0.354 N 
ATOM     61  N   UNL A   1      42.261  30.215  33.415  1.00  0.00    -0.248 NA
ATOM     62  C   UNL A   1      41.463  30.496  35.554  1.00  0.00     0.031 C 
ATOM     63  C   UNL A   1      44.215  28.684  31.294  1.00  0.00     0.029 A 
ATOM     64  C   UNL A   1      43.239  28.048  32.036  1.00  0.00     0.049 A 
ATOM     65  H   UNL A   1      41.536  27.014  31.376  1.00  0.00     0.167 HD
ATOM     66  C   UNL A   1      42.455  29.027  34.070  1.00  0.00     0.074 A 
ATOM     67  C   UNL A   1      41.953  29.254  35.411  1.00  0.00     0.031 C 
ATOM     68  C   UNL A   1      42.959  27.920  33.455  1.00  0.00     0.037 A 
BRANCH  55  69
ATOM     69  C   UNL A   1      42.111  26.603  27.567  1.00  0.00     0.057 A 
ATOM     70  C   UNL A   1      41.904  25.215  27.602  1.00  0.00     0.134 A 
ATOM     71  C   UNL A   1      42.668  27.100  26.376  1.00  0.00     0.134 A 
ATOM     72  F   UNL A   1      41.330  24.616  28.654  1.00  0.00    -0.206 F 
ATOM     73  C   UNL A   1      42.309  24.369  26.565  1.00  0.00     0.040 A 
ATOM     74  C   UNL A   1      43.124  26.261  25.352  1.00  0.00     0.040 A 
ATOM     75  F   UNL A   1      42.797  28.420  26.173  1.00  0.00    -0.206 F 
ATOM     76  C   UNL A   1      42.954  24.887  25.450  1.00  0.00     0.006 A 
ENDBRANCH  55  69
BRANCH  56  77
ATOM     77  C   UNL A   1      39.873  33.026  34.346  1.00  0.00     0.057 A 
ATOM     78  C   UNL A   1      38.684  32.274  34.379  1.00  0.00     0.134 A 
ATOM     79  C   UNL A   1      39.942  34.152  35.168  1.00  0.00     0.134 A 
ATOM     80  F   UNL A   1      38.555  31.178  33.613  1.00  0.00    -0.206 F 
ATOM     81  C   UNL A   1      37.664  32.553  35.290  1.00  0.00     0.040 A 
ATOM     82  C   UNL A   1      38.914  34.456  36.066  1.00  0.00     0.040 A 
ATOM     83  F   UNL A   1      41.049  34.907  35.206  1.00  0.00    -0.206 F 
ATOM     84  C   UNL A   1      37.794  33.629  36.161  1.00  0.00     0.006 A 
ENDBRANCH  56  77
BRANCH  68  85
ATOM     85  C   UNL A   1      43.214  26.617  34.157  1.00  0.00     0.057 A 
ATOM     86  C   UNL A   1      44.490  26.041  34.238  1.00  0.00     0.134 A 
ATOM     87  C   UNL A   1      42.160  25.834  34.667  1.00  0.00     0.134 A 
ATOM     88  F   UNL A   1      45.562  26.663  33.723  1.00  0.00    -0.206 F 
ATOM     89  C   UNL A   1      44.710  24.790  34.828  1.00  0.00     0.040 A 
ATOM     90  C   UNL A   1      42.360  24.565  35.215  1.00  0.00     0.040 A 
ATOM     91  F   UNL A   1      40.894  26.276  34.670  1.00  0.00    -0.206 F 
ATOM     92  C   UNL A   1      43.641  24.042  35.309  1.00  0.00     0.006 A 
ENDBRANCH  68  85
ENDBRANCH  42  43
ENDBRANCH  34  37
ENDBRANCH  32  33
ENDBRANCH  31  32
ENDBRANCH   1  31
TORSDOF 15
ENDMDL
MODEL 3
REMARK VINA RESULT:     -13.1      4.891      9.649
REMARK SMILES Cc1ccccc1-c1c(Cl)ccc2c1C=C(C(=O)NCCCCCCNC(=O)c1ccc(-c3c4nc(c(-c5c(F)cccc5F)c5ccc([nH]5)c(-c5c(F)cccc5F)c5nc(c(-c6c(F)cccc6F)c6ccc3[nH]6)C=C5)C=C4)cc1)[C@@H](C(F)(F)F)O2
REMARK SMILES IDX 23 1 22 2 21 3 20 4 19 5 17 6 18 7 16 9 8 10 9 11 14 12
REMARK SMILES IDX 10 13 11 14 13 15 15 16 12 17 88 18 83 19 7 20 1 21 2 22
REMARK SMILES IDX 3 23 4 24 6 25 5 26 84 27 85 28 86 29 87 30 24 31 25 32
REMARK SMILES IDX 26 33 27 34 28 36 29 37 30 38 82 39 31 40 81 41 32 42 33 43
REMARK SMILES IDX 34 44 75 45 35 46 80 47 74 48 76 49 36 50 79 51 73 52 72 53
REMARK SMILES IDX 37 55 63 56 46 57 62 58 47 59 50 60 61 61 77 62 48 63 49 64
REMARK SMILES IDX 60 66 78 67 51 68 38 69 39 70 44 71 40 72 41 73 43 74 45 75
REMARK SMILES IDX 42 76 64 77 65 78 70 79 66 80 67 81 69 82 71 83 68 84 52 85
REMARK SMILES IDX 53 86 58 87 54 88 55 89 57 90 59 91 56 92
REMARK H PARENT 19 8 26 35 76 54 50 65
REMARK Flexibility Score: inf
ROOT
ATOM      1  C   UNL A   1      35.918  32.626  28.069  1.00  0.00     0.002 C 
ENDROOT
BRANCH   1   2
ATOM      2  C   UNL A   1      34.955  31.486  27.699  1.00  0.00     0.002 C 
BRANCH   2   3
ATOM      3  C   UNL A   1      35.473  30.043  27.804  1.00  0.00     0.021 C 
BRANCH   3   4
ATOM      4  C   UNL A   1      34.678  28.973  27.056  1.00  0.00     0.116 C 
BRANCH   4   5
ATOM      5  N   UNL A   1      33.402  28.689  27.668  1.00  0.00    -0.352 N 
ATOM      6  C   UNL A   1      32.348  27.958  27.225  1.00  0.00     0.251 C 
ATOM      7  O   UNL A   1      31.377  27.858  27.975  1.00  0.00    -0.270 OA
ATOM      8  H   UNL A   1      33.275  29.094  28.556  1.00  0.00     0.163 HD
BRANCH   6   9
ATOM      9  C   UNL A   1      32.335  27.339  25.848  1.00  0.00     0.067 C 
ATOM     10  C   UNL A   1      33.159  23.695  25.852  1.00  0.00     0.012 A 
ATOM     11  C   UNL A   1      32.470  22.547  26.321  1.00  0.00     0.049 A 
ATOM     12  C   UNL A   1      32.447  24.924  25.852  1.00  0.00     0.027 A 
ATOM     13  Cl  UNL A   1      33.261  21.013  26.512  1.00  0.00    -0.084 Cl
ATOM     14  C   UNL A   1      31.114  22.591  26.663  1.00  0.00     0.025 A 
ATOM     15  C   UNL A   1      31.057  24.923  26.094  1.00  0.00     0.128 A 
ATOM     16  C   UNL A   1      33.111  26.244  25.705  1.00  0.00     0.026 C 
ATOM     17  C   UNL A   1      30.399  23.771  26.508  1.00  0.00     0.049 A 
ATOM     18  O   UNL A   1      30.255  26.028  25.948  1.00  0.00    -0.475 OA
ATOM     19  C   UNL A   1      30.889  27.199  25.381  1.00  0.00     0.314 C 
BRANCH  10  20
ATOM     20  C   UNL A   1      34.505  23.554  25.234  1.00  0.00    -0.013 A 
ATOM     21  C   UNL A   1      33.682  23.102  22.845  1.00  0.00     0.045 C 
ATOM     22  C   UNL A   1      34.758  23.295  23.872  1.00  0.00    -0.043 A 
ATOM     23  C   UNL A   1      36.091  23.176  23.422  1.00  0.00     0.004 A 
ATOM     24  C   UNL A   1      37.168  23.346  24.288  1.00  0.00     0.000 A 
ATOM     25  C   UNL A   1      35.622  23.710  26.091  1.00  0.00     0.009 A 
ATOM     26  C   UNL A   1      36.935  23.621  25.626  1.00  0.00     0.001 A 
ENDBRANCH  10  20
BRANCH  19  27
ATOM     27  C   UNL A   1      30.762  27.240  23.850  1.00  0.00     0.429 C 
ATOM     28  F   UNL A   1      30.099  26.158  23.378  1.00  0.00    -0.167 F 
ATOM     29  F   UNL A   1      30.060  28.332  23.452  1.00  0.00    -0.167 F 
ATOM     30  F   UNL A   1      31.957  27.288  23.219  1.00  0.00    -0.167 F 
ENDBRANCH  19  27
ENDBRANCH   6   9
ENDBRANCH   4   5
ENDBRANCH   3   4
ENDBRANCH   2   3
ENDBRANCH   1   2
BRANCH   1  31
ATOM     31  C   UNL A   1      35.552  33.490  29.280  1.00  0.00     0.021 C 
BRANCH  31  32
ATOM     32  C   UNL A   1      34.699  32.792  30.336  1.00  0.00     0.116 C 
BRANCH  32  33
ATOM     33  N   UNL A   1      34.020  33.690  31.260  1.00  0.00    -0.352 N 
ATOM     34  C   UNL A   1      34.490  34.219  32.461  1.00  0.00     0.251 C 
ATOM     35  H   UNL A   1      33.109  33.959  31.003  1.00  0.00     0.163 HD
ATOM     36  O   UNL A   1      33.809  35.001  33.104  1.00  0.00    -0.269 OA
BRANCH  34  37
ATOM     37  C   UNL A   1      35.883  33.921  32.874  1.00  0.00     0.039 A 
ATOM     38  C   UNL A   1      36.907  34.699  32.326  1.00  0.00     0.014 A 
ATOM     39  C   UNL A   1      36.186  32.765  33.587  1.00  0.00     0.014 A 
ATOM     40  C   UNL A   1      38.195  34.169  32.246  1.00  0.00     0.010 A 
ATOM     41  C   UNL A   1      37.438  32.196  33.430  1.00  0.00     0.010 A 
ATOM     42  C   UNL A   1      38.417  32.862  32.688  1.00  0.00    -0.014 A 
BRANCH  42  43
ATOM     43  C   UNL A   1      39.563  32.072  32.250  1.00  0.00     0.031 A 
ATOM     44  C   UNL A   1      39.411  30.889  31.382  1.00  0.00     0.074 A 
ATOM     45  C   UNL A   1      40.813  32.436  32.619  1.00  0.00     0.049 A 
ATOM     46  N   UNL A   1      40.231  29.891  31.399  1.00  0.00    -0.248 NA
ATOM     47  C   UNL A   1      38.312  30.729  30.437  1.00  0.00     0.031 C 
ATOM     48  C   UNL A   1      42.076  31.912  32.105  1.00  0.00     0.029 A 
ATOM     49  N   UNL A   1      41.184  33.215  33.719  1.00  0.00    -0.354 N 
ATOM     50  C   UNL A   1      39.939  29.105  30.315  1.00  0.00     0.074 A 
ATOM     51  C   UNL A   1      38.698  29.627  29.784  1.00  0.00     0.031 C 
ATOM     52  C   UNL A   1      43.033  32.116  33.021  1.00  0.00     0.029 A 
ATOM     53  C   UNL A   1      42.397  32.671  34.200  1.00  0.00     0.049 A 
ATOM     54  H   UNL A   1      40.697  33.988  34.086  1.00  0.00     0.167 HD
ATOM     55  C   UNL A   1      40.828  28.170  29.881  1.00  0.00     0.037 A 
ATOM     56  C   UNL A   1      42.494  32.179  35.468  1.00  0.00     0.037 A 
ATOM     57  C   UNL A   1      42.046  28.119  30.679  1.00  0.00     0.049 A 
ATOM     58  C   UNL A   1      42.846  30.708  35.552  1.00  0.00     0.074 A 
ATOM     59  C   UNL A   1      43.328  28.621  30.524  1.00  0.00     0.029 A 
ATOM     60  N   UNL A   1      41.963  27.701  31.995  1.00  0.00    -0.354 N 
ATOM     61  N   UNL A   1      43.040  29.933  34.520  1.00  0.00    -0.248 NA
ATOM     62  C   UNL A   1      42.893  29.968  36.816  1.00  0.00     0.031 C 
ATOM     63  C   UNL A   1      44.017  28.487  31.762  1.00  0.00     0.029 A 
ATOM     64  C   UNL A   1      43.152  27.906  32.668  1.00  0.00     0.049 A 
ATOM     65  H   UNL A   1      41.158  27.307  32.401  1.00  0.00     0.167 HD
ATOM     66  C   UNL A   1      43.140  28.634  34.945  1.00  0.00     0.074 A 
ATOM     67  C   UNL A   1      43.057  28.706  36.390  1.00  0.00     0.031 C 
ATOM     68  C   UNL A   1      43.225  27.582  34.082  1.00  0.00     0.037 A 
BRANCH  55  69
ATOM     69  C   UNL A   1      40.639  27.476  28.566  1.00  0.00     0.057 A 
ATOM     70  C   UNL A   1      39.824  26.339  28.443  1.00  0.00     0.134 A 
ATOM     71  C   UNL A   1      41.289  27.882  27.388  1.00  0.00     0.134 A 
ATOM     72  F   UNL A   1      39.104  25.876  29.473  1.00  0.00    -0.206 F 
ATOM     73  C   UNL A   1      39.736  25.603  27.257  1.00  0.00     0.040 A 
ATOM     74  C   UNL A   1      41.251  27.128  26.209  1.00  0.00     0.040 A 
ATOM     75  F   UNL A   1      41.994  29.024  27.347  1.00  0.00    -0.206 F 
ATOM     76  C   UNL A   1      40.478  25.975  26.145  1.00  0.00     0.006 A 
ENDBRANCH  55  69
BRANCH  56  77
ATOM     77  C   UNL A   1      41.618  32.902  36.428  1.00  0.00     0.057 A 
ATOM     78  C   UNL A   1      42.064  34.134  36.943  1.00  0.00     0.134 A 
ATOM     79  C   UNL A   1      40.256  32.618  36.536  1.00  0.00     0.134 A 
ATOM     80  F   UNL A   1      43.362  34.468  36.869  1.00  0.00    -0.206 F 
ATOM     81  C   UNL A   1      41.172  35.095  37.421  1.00  0.00     0.040 A 
ATOM     82  C   UNL A   1      39.357  33.564  37.037  1.00  0.00     0.040 A 
ATOM     83  F   UNL A   1      39.754  31.473  36.050  1.00  0.00    -0.206 F 
ATOM     84  C   UNL A   1      39.808  34.822  37.437  1.00  0.00     0.006 A 
ENDBRANCH  56  77
BRANCH  68  85
ATOM     85  C   UNL A   1      43.370  26.152  34.519  1.00  0.00     0.057 A 
ATOM     86  C   UNL A   1      44.558  25.427  34.343  1.00  0.00     0.134 A 
ATOM     87  C   UNL A   1      42.276  25.417  35.016  1.00  0.00     0.134 A 
ATOM     88  F   UNL A   1      45.646  26.004  33.812  1.00  0.00    -0.206 F 
ATOM     89  C   UNL A   1      44.663  24.073  34.683  1.00  0.00     0.040 A 
ATOM     90  C   UNL A   1      42.356  24.055  35.315  1.00  0.00     0.040 A 
ATOM     91  F   UNL A   1      41.089  25.995  35.250  1.00  0.00    -0.206 F 
ATOM     92  C   UNL A   1      43.557  23.379  35.161  1.00  0.00     0.006 A 
ENDBRANCH  68  85
ENDBRANCH  42  43
ENDBRANCH  34  37
ENDBRANCH  32  33
ENDBRANCH  31  32
ENDBRANCH   1  31
TORSDOF 15
ENDMDL
