MODEL 1
REMARK VINA RESULT:     -12.2      0.000      0.000
REMARK SMILES NS(=O)(=O)c1ccc(-n2nc(C(F)(F)F)cc2-c2ccc(C(=O)NCCCCCCNC(=O)c3ccc(-c4c5nc(c(-c6c(F)cccc6F)c6ccc([nH]6)c(-c6c(F)cccc6F)c6nc(c(-c7c(F)cccc7F)c7ccc4[nH]7)C=C6)C=C5)cc3)cc2)cc1
REMARK SMILES IDX 26 1 25 2 24 3 22 4 23 5 21 7 18 8 19 9 89 10 20 11 88 12
REMARK SMILES IDX 17 13 9 14 10 15 11 16 16 17 8 18 5 19 6 20 91 21 7 22 90 23
REMARK SMILES IDX 2 24 3 25 4 26 1 27 12 30 13 31 14 32 15 33 27 34 28 35
REMARK SMILES IDX 29 36 30 37 31 38 32 39 33 41 34 42 35 43 87 44 36 45 86 46
REMARK SMILES IDX 37 47 38 48 39 49 80 50 40 51 85 52 79 53 81 54 41 55 84 56
REMARK SMILES IDX 78 57 77 58 42 60 68 61 51 62 67 63 52 64 55 65 66 66 82 67
REMARK SMILES IDX 53 68 54 69 65 71 83 72 56 73 43 74 44 75 49 76 45 77 46 78
REMARK SMILES IDX 48 79 50 80 47 81 69 82 70 83 75 84 71 85 72 86 74 87 76 88
REMARK SMILES IDX 73 89 57 90 58 91 63 92 59 93 60 94 62 95 64 96 61 97
REMARK H PARENT 24 6 1 28 1 29 31 40 81 59 55 70
REMARK Flexibility Score: inf
ROOT
ATOM      1  C   UNL A   1      31.803  32.905  27.222  1.00  0.00     0.021 C 
ENDROOT
BRANCH   1   2
ATOM      2  C   UNL A   1      32.088  31.437  26.895  1.00  0.00     0.116 C 
BRANCH   2   3
ATOM      3  N   UNL A   1      33.303  31.019  27.566  1.00  0.00    -0.352 N 
ATOM      4  C   UNL A   1      33.959  29.818  27.619  1.00  0.00     0.251 C 
ATOM      5  O   UNL A   1      34.960  29.734  28.328  1.00  0.00    -0.269 OA
ATOM      6  H   UNL A   1      33.741  31.736  28.081  1.00  0.00     0.163 HD
BRANCH   4   7
ATOM      7  C   UNL A   1      33.552  28.651  26.795  1.00  0.00     0.039 A 
ATOM      8  C   UNL A   1      32.772  26.308  25.469  1.00  0.00     0.000 A 
ATOM      9  C   UNL A   1      32.023  26.784  26.550  1.00  0.00     0.011 A 
ATOM     10  C   UNL A   1      33.883  27.025  25.027  1.00  0.00     0.011 A 
ATOM     11  C   UNL A   1      32.418  27.945  27.215  1.00  0.00     0.014 A 
ATOM     12  C   UNL A   1      34.231  28.222  25.650  1.00  0.00     0.014 A 
BRANCH   8  13
ATOM     13  C   UNL A   1      32.350  25.122  24.744  1.00  0.00     0.075 A 
ATOM     14  N   UNL A   1      31.262  25.080  23.886  1.00  0.00    -0.233 N 
ATOM     15  N   UNL A   1      30.952  23.809  23.525  1.00  0.00    -0.163 NA
ATOM     16  C   UNL A   1      31.978  23.062  23.983  1.00  0.00     0.167 A 
ATOM     17  C   UNL A   1      32.848  23.839  24.789  1.00  0.00     0.064 A 
BRANCH  14  18
ATOM     18  C   UNL A   1      30.504  26.185  23.422  1.00  0.00     0.065 A 
ATOM     19  C   UNL A   1      29.111  28.497  22.753  1.00  0.00     0.082 A 
ATOM     20  C   UNL A   1      30.418  28.331  22.295  1.00  0.00     0.024 A 
ATOM     21  C   UNL A   1      28.484  27.499  23.513  1.00  0.00     0.024 A 
ATOM     22  C   UNL A   1      31.117  27.176  22.638  1.00  0.00     0.030 A 
ATOM     23  C   UNL A   1      29.172  26.322  23.823  1.00  0.00     0.030 A 
BRANCH  19  24
ATOM     24  S   UNL A   1      28.241  30.006  22.444  1.00  0.00     0.238 S 
ATOM     25  O   UNL A   1      27.188  30.144  23.412  1.00  0.00    -0.207 OA
ATOM     26  O   UNL A   1      28.024  30.117  21.017  1.00  0.00    -0.207 OA
BRANCH  24  27
ATOM     27  N   UNL A   1      29.356  31.208  22.833  1.00  0.00    -0.225 NA
ATOM     28  H   UNL A   1      29.783  30.996  23.734  1.00  0.00     0.137 HD
ATOM     29  H   UNL A   1      28.879  32.108  22.886  1.00  0.00     0.137 HD
ENDBRANCH  24  27
ENDBRANCH  19  24
ENDBRANCH  14  18
BRANCH  16  30
ATOM     30  C   UNL A   1      32.146  21.598  23.670  1.00  0.00     0.435 C 
ATOM     31  F   UNL A   1      31.657  20.786  24.641  1.00  0.00    -0.164 F 
ATOM     32  F   UNL A   1      31.534  21.253  22.506  1.00  0.00    -0.164 F 
ATOM     33  F   UNL A   1      33.460  21.269  23.518  1.00  0.00    -0.164 F 
ENDBRANCH  16  30
ENDBRANCH   8  13
ENDBRANCH   4   7
ENDBRANCH   2   3
ENDBRANCH   1   2
BRANCH   1  34
ATOM     34  C   UNL A   1      33.085  33.730  27.398  1.00  0.00     0.002 C 
BRANCH  34  35
ATOM     35  C   UNL A   1      33.276  34.345  28.795  1.00  0.00     0.002 C 
BRANCH  35  36
ATOM     36  C   UNL A   1      32.885  35.824  28.942  1.00  0.00     0.021 C 
BRANCH  36  37
ATOM     37  C   UNL A   1      33.524  36.491  30.146  1.00  0.00     0.116 C 
BRANCH  37  38
ATOM     38  N   UNL A   1      32.780  36.224  31.384  1.00  0.00    -0.352 N 
ATOM     39  C   UNL A   1      32.888  35.152  32.251  1.00  0.00     0.251 C 
ATOM     40  H   UNL A   1      32.110  36.903  31.630  1.00  0.00     0.163 HD
ATOM     41  O   UNL A   1      31.983  34.865  33.025  1.00  0.00    -0.269 OA
BRANCH  39  42
ATOM     42  C   UNL A   1      34.136  34.376  32.243  1.00  0.00     0.039 A 
ATOM     43  C   UNL A   1      34.187  33.009  31.950  1.00  0.00     0.014 A 
ATOM     44  C   UNL A   1      35.295  35.091  32.504  1.00  0.00     0.014 A 
ATOM     45  C   UNL A   1      35.437  32.396  31.896  1.00  0.00     0.010 A 
ATOM     46  C   UNL A   1      36.493  34.570  32.136  1.00  0.00     0.010 A 
ATOM     47  C   UNL A   1      36.583  33.199  31.995  1.00  0.00    -0.014 A 
BRANCH  47  48
ATOM     48  C   UNL A   1      37.932  32.677  31.908  1.00  0.00     0.031 A 
ATOM     49  C   UNL A   1      38.645  32.646  33.203  1.00  0.00     0.074 A 
ATOM     50  C   UNL A   1      38.369  32.022  30.807  1.00  0.00     0.049 A 
ATOM     51  N   UNL A   1      39.634  33.388  33.568  1.00  0.00    -0.248 NA
ATOM     52  C   UNL A   1      38.082  31.821  34.284  1.00  0.00     0.031 C 
ATOM     53  C   UNL A   1      37.636  31.679  29.579  1.00  0.00     0.029 A 
ATOM     54  N   UNL A   1      39.570  31.423  30.607  1.00  0.00    -0.354 N 
ATOM     55  C   UNL A   1      39.974  32.954  34.844  1.00  0.00     0.074 A 
ATOM     56  C   UNL A   1      38.860  32.173  35.310  1.00  0.00     0.031 C 
ATOM     57  C   UNL A   1      38.325  30.750  28.879  1.00  0.00     0.029 A 
ATOM     58  C   UNL A   1      39.614  30.562  29.513  1.00  0.00     0.049 A 
ATOM     59  H   UNL A   1      40.348  31.583  31.189  1.00  0.00     0.167 HD
ATOM     60  C   UNL A   1      41.259  33.043  35.286  1.00  0.00     0.037 A 
ATOM     61  C   UNL A   1      40.640  29.730  29.201  1.00  0.00     0.037 A 
ATOM     62  C   UNL A   1      42.032  33.927  34.445  1.00  0.00     0.049 A 
ATOM     63  C   UNL A   1      41.844  30.253  29.907  1.00  0.00     0.074 A 
ATOM     64  C   UNL A   1      41.913  35.253  34.068  1.00  0.00     0.029 A 
ATOM     65  N   UNL A   1      42.871  33.356  33.517  1.00  0.00    -0.354 N 
ATOM     66  N   UNL A   1      42.397  31.403  29.626  1.00  0.00    -0.248 NA
ATOM     67  C   UNL A   1      42.094  29.753  31.251  1.00  0.00     0.031 C 
ATOM     68  C   UNL A   1      42.252  35.270  32.681  1.00  0.00     0.029 A 
ATOM     69  C   UNL A   1      42.642  33.981  32.316  1.00  0.00     0.049 A 
ATOM     70  H   UNL A   1      43.517  32.632  33.683  1.00  0.00     0.167 HD
ATOM     71  C   UNL A   1      42.698  31.967  30.858  1.00  0.00     0.074 A 
ATOM     72  C   UNL A   1      42.536  30.878  31.823  1.00  0.00     0.031 C 
ATOM     73  C   UNL A   1      42.748  33.322  31.034  1.00  0.00     0.037 A 
BRANCH  60  74
ATOM     74  C   UNL A   1      41.914  32.043  36.208  1.00  0.00     0.057 A 
ATOM     75  C   UNL A   1      42.622  32.520  37.326  1.00  0.00     0.134 A 
ATOM     76  C   UNL A   1      42.133  30.684  35.900  1.00  0.00     0.134 A 
ATOM     77  F   UNL A   1      42.501  33.796  37.725  1.00  0.00    -0.206 F 
ATOM     78  C   UNL A   1      43.548  31.734  38.021  1.00  0.00     0.040 A 
ATOM     79  C   UNL A   1      43.016  29.875  36.620  1.00  0.00     0.040 A 
ATOM     80  F   UNL A   1      41.592  30.083  34.835  1.00  0.00    -0.206 F 
ATOM     81  C   UNL A   1      43.756  30.409  37.662  1.00  0.00     0.006 A 
ENDBRANCH  60  74
BRANCH  61  82
ATOM     82  C   UNL A   1      40.558  28.356  28.650  1.00  0.00     0.057 A 
ATOM     83  C   UNL A   1      39.907  27.325  29.342  1.00  0.00     0.134 A 
ATOM     84  C   UNL A   1      40.882  28.082  27.308  1.00  0.00     0.134 A 
ATOM     85  F   UNL A   1      39.511  27.503  30.611  1.00  0.00    -0.206 F 
ATOM     86  C   UNL A   1      39.588  26.101  28.734  1.00  0.00     0.040 A 
ATOM     87  C   UNL A   1      40.574  26.864  26.690  1.00  0.00     0.040 A 
ATOM     88  F   UNL A   1      41.432  29.019  26.522  1.00  0.00    -0.206 F 
ATOM     89  C   UNL A   1      39.913  25.871  27.401  1.00  0.00     0.006 A 
ENDBRANCH  61  82
BRANCH  73  90
ATOM     90  C   UNL A   1      42.663  34.208  29.816  1.00  0.00     0.057 A 
ATOM     91  C   UNL A   1      41.478  34.799  29.351  1.00  0.00     0.134 A 
ATOM     92  C   UNL A   1      43.851  34.630  29.209  1.00  0.00     0.134 A 
ATOM     93  F   UNL A   1      40.301  34.538  29.929  1.00  0.00    -0.206 F 
ATOM     94  C   UNL A   1      41.472  35.740  28.315  1.00  0.00     0.040 A 
ATOM     95  C   UNL A   1      43.864  35.590  28.194  1.00  0.00     0.040 A 
ATOM     96  F   UNL A   1      45.032  34.155  29.637  1.00  0.00    -0.206 F 
ATOM     97  C   UNL A   1      42.671  36.145  27.739  1.00  0.00     0.006 A 
ENDBRANCH  73  90
ENDBRANCH  47  48
ENDBRANCH  39  42
ENDBRANCH  37  38
ENDBRANCH  36  37
ENDBRANCH  35  36
ENDBRANCH  34  35
ENDBRANCH   1  34
TORSDOF 18
ENDMDL
MODEL 2
REMARK VINA RESULT:     -12.1      5.060      9.305
REMARK SMILES NS(=O)(=O)c1ccc(-n2nc(C(F)(F)F)cc2-c2ccc(C(=O)NCCCCCCNC(=O)c3ccc(-c4c5nc(c(-c6c(F)cccc6F)c6ccc([nH]6)c(-c6c(F)cccc6F)c6nc(c(-c7c(F)cccc7F)c7ccc4[nH]7)C=C6)C=C5)cc3)cc2)cc1
REMARK SMILES IDX 26 1 25 2 24 3 22 4 23 5 21 7 18 8 19 9 89 10 20 11 88 12
REMARK SMILES IDX 17 13 9 14 10 15 11 16 16 17 8 18 5 19 6 20 91 21 7 22 90 23
REMARK SMILES IDX 2 24 3 25 4 26 1 27 12 30 13 31 14 32 15 33 27 34 28 35
REMARK SMILES IDX 29 36 30 37 31 38 32 39 33 41 34 42 35 43 87 44 36 45 86 46
REMARK SMILES IDX 37 47 38 48 39 49 80 50 40 51 85 52 79 53 81 54 41 55 84 56
REMARK SMILES IDX 78 57 77 58 42 60 68 61 51 62 67 63 52 64 55 65 66 66 82 67
REMARK SMILES IDX 53 68 54 69 65 71 83 72 56 73 43 74 44 75 49 76 45 77 46 78
REMARK SMILES IDX 48 79 50 80 47 81 69 82 70 83 75 84 71 85 72 86 74 87 76 88
REMARK SMILES IDX 73 89 57 90 58 91 63 92 59 93 60 94 62 95 64 96 61 97
REMARK H PARENT 24 6 1 28 1 29 31 40 81 59 55 70
REMARK Flexibility Score: inf
ROOT
ATOM      1  C   UNL A   1      31.884  29.040  24.039  1.00  0.00     0.021 C 
ENDROOT
BRANCH   1   2
ATOM      2  C   UNL A   1      32.588  27.900  23.300  1.00  0.00     0.116 C 
BRANCH   2   3
ATOM      3  N   UNL A   1      31.680  26.780  23.159  1.00  0.00    -0.352 N 
ATOM      4  C   UNL A   1      31.840  25.434  23.350  1.00  0.00     0.251 C 
ATOM      5  O   UNL A   1      30.892  24.693  23.095  1.00  0.00    -0.269 OA
ATOM      6  H   UNL A   1      30.773  27.036  22.872  1.00  0.00     0.163 HD
BRANCH   4   7
ATOM      7  C   UNL A   1      33.081  24.853  23.926  1.00  0.00     0.039 A 
ATOM      8  C   UNL A   1      35.366  23.534  24.871  1.00  0.00     0.000 A 
ATOM      9  C   UNL A   1      35.118  23.609  23.496  1.00  0.00     0.011 A 
ATOM     10  C   UNL A   1      34.496  24.154  25.766  1.00  0.00     0.011 A 
ATOM     11  C   UNL A   1      33.975  24.256  23.028  1.00  0.00     0.014 A 
ATOM     12  C   UNL A   1      33.394  24.861  25.288  1.00  0.00     0.014 A 
BRANCH   8  13
ATOM     13  C   UNL A   1      36.572  22.895  25.369  1.00  0.00     0.075 A 
ATOM     14  N   UNL A   1      36.719  21.527  25.532  1.00  0.00    -0.233 N 
ATOM     15  N   UNL A   1      37.845  21.218  26.223  1.00  0.00    -0.163 NA
ATOM     16  C   UNL A   1      38.523  22.381  26.313  1.00  0.00     0.167 A 
ATOM     17  C   UNL A   1      37.740  23.460  25.831  1.00  0.00     0.064 A 
BRANCH  14  18
ATOM     18  C   UNL A   1      35.830  20.518  25.079  1.00  0.00     0.065 A 
ATOM     19  C   UNL A   1      34.066  18.455  24.475  1.00  0.00     0.082 A 
ATOM     20  C   UNL A   1      33.560  19.718  24.783  1.00  0.00     0.024 A 
ATOM     21  C   UNL A   1      35.449  18.227  24.433  1.00  0.00     0.024 A 
ATOM     22  C   UNL A   1      34.445  20.748  25.093  1.00  0.00     0.030 A 
ATOM     23  C   UNL A   1      36.338  19.272  24.705  1.00  0.00     0.030 A 
BRANCH  19  24
ATOM     24  S   UNL A   1      32.968  17.096  24.202  1.00  0.00     0.238 S 
ATOM     25  O   UNL A   1      31.830  17.234  25.069  1.00  0.00    -0.207 OA
ATOM     26  O   UNL A   1      33.760  15.885  24.123  1.00  0.00    -0.207 OA
BRANCH  24  27
ATOM     27  N   UNL A   1      32.373  17.356  22.649  1.00  0.00    -0.225 NA
ATOM     28  H   UNL A   1      32.547  16.530  22.076  1.00  0.00     0.137 HD
ATOM     29  H   UNL A   1      32.842  18.161  22.235  1.00  0.00     0.137 HD
ENDBRANCH  24  27
ENDBRANCH  19  24
ENDBRANCH  14  18
BRANCH  16  30
ATOM     30  C   UNL A   1      39.922  22.488  26.862  1.00  0.00     0.435 C 
ATOM     31  F   UNL A   1      40.347  21.349  27.464  1.00  0.00    -0.164 F 
ATOM     32  F   UNL A   1      40.826  22.798  25.895  1.00  0.00    -0.164 F 
ATOM     33  F   UNL A   1      40.014  23.476  27.797  1.00  0.00    -0.164 F 
ENDBRANCH  16  30
ENDBRANCH   8  13
ENDBRANCH   4   7
ENDBRANCH   2   3
ENDBRANCH   1   2
BRANCH   1  34
ATOM     34  C   UNL A   1      32.378  29.202  25.482  1.00  0.00     0.002 C 
BRANCH  34  35
ATOM     35  C   UNL A   1      33.866  28.876  25.700  1.00  0.00     0.002 C 
BRANCH  35  36
ATOM     36  C   UNL A   1      34.291  28.597  27.151  1.00  0.00     0.021 C 
BRANCH  36  37
ATOM     37  C   UNL A   1      35.576  29.304  27.541  1.00  0.00     0.116 C 
BRANCH  37  38
ATOM     38  N   UNL A   1      35.578  29.706  28.953  1.00  0.00    -0.352 N 
ATOM     39  C   UNL A   1      36.524  29.452  29.931  1.00  0.00     0.251 C 
ATOM     40  H   UNL A   1      34.795  30.227  29.247  1.00  0.00     0.163 HD
ATOM     41  O   UNL A   1      36.244  29.518  31.121  1.00  0.00    -0.269 OA
BRANCH  39  42
ATOM     42  C   UNL A   1      37.892  29.128  29.503  1.00  0.00     0.039 A 
ATOM     43  C   UNL A   1      38.512  29.721  28.399  1.00  0.00     0.014 A 
ATOM     44  C   UNL A   1      38.571  28.213  30.292  1.00  0.00     0.014 A 
ATOM     45  C   UNL A   1      39.840  29.392  28.136  1.00  0.00     0.010 A 
ATOM     46  C   UNL A   1      39.926  28.151  30.222  1.00  0.00     0.010 A 
ATOM     47  C   UNL A   1      40.531  28.598  29.063  1.00  0.00    -0.014 A 
BRANCH  47  48
ATOM     48  C   UNL A   1      41.924  28.230  28.916  1.00  0.00     0.031 A 
ATOM     49  C   UNL A   1      42.136  27.003  28.119  1.00  0.00     0.074 A 
ATOM     50  C   UNL A   1      42.921  29.089  29.231  1.00  0.00     0.049 A 
ATOM     51  N   UNL A   1      42.534  25.854  28.545  1.00  0.00    -0.248 NA
ATOM     52  C   UNL A   1      41.684  27.000  26.718  1.00  0.00     0.031 C 
ATOM     53  C   UNL A   1      42.835  30.478  29.708  1.00  0.00     0.029 A 
ATOM     54  N   UNL A   1      44.259  28.915  29.084  1.00  0.00    -0.354 N 
ATOM     55  C   UNL A   1      42.613  25.045  27.417  1.00  0.00     0.074 A 
ATOM     56  C   UNL A   1      41.868  25.720  26.389  1.00  0.00     0.031 C 
ATOM     57  C   UNL A   1      44.039  31.079  29.587  1.00  0.00     0.029 A 
ATOM     58  C   UNL A   1      45.012  30.082  29.193  1.00  0.00     0.049 A 
ATOM     59  H   UNL A   1      44.665  28.034  28.912  1.00  0.00     0.167 HD
ATOM     60  C   UNL A   1      43.522  24.033  27.353  1.00  0.00     0.037 A 
ATOM     61  C   UNL A   1      46.338  30.196  28.928  1.00  0.00     0.037 A 
ATOM     62  C   UNL A   1      44.052  23.734  28.664  1.00  0.00     0.049 A 
ATOM     63  C   UNL A   1      46.907  28.820  28.993  1.00  0.00     0.074 A 
ATOM     64  C   UNL A   1      43.492  23.353  29.870  1.00  0.00     0.029 A 
ATOM     65  N   UNL A   1      45.298  24.224  28.977  1.00  0.00    -0.354 N 
ATOM     66  N   UNL A   1      46.961  28.118  30.094  1.00  0.00    -0.248 NA
ATOM     67  C   UNL A   1      46.917  28.046  27.760  1.00  0.00     0.031 C 
ATOM     68  C   UNL A   1      44.201  24.103  30.855  1.00  0.00     0.029 A 
ATOM     69  C   UNL A   1      45.206  24.823  30.208  1.00  0.00     0.049 A 
ATOM     70  H   UNL A   1      46.108  24.157  28.421  1.00  0.00     0.167 HD
ATOM     71  C   UNL A   1      46.585  26.835  29.721  1.00  0.00     0.074 A 
ATOM     72  C   UNL A   1      46.623  26.841  28.257  1.00  0.00     0.031 C 
ATOM     73  C   UNL A   1      45.982  25.979  30.599  1.00  0.00     0.037 A 
BRANCH  60  74
ATOM     74  C   UNL A   1      44.224  23.597  26.090  1.00  0.00     0.057 A 
ATOM     75  C   UNL A   1      44.215  22.231  25.751  1.00  0.00     0.134 A 
ATOM     76  C   UNL A   1      45.140  24.384  25.362  1.00  0.00     0.134 A 
ATOM     77  F   UNL A   1      43.387  21.374  26.369  1.00  0.00    -0.206 F 
ATOM     78  C   UNL A   1      45.113  21.678  24.832  1.00  0.00     0.040 A 
ATOM     79  C   UNL A   1      46.006  23.851  24.404  1.00  0.00     0.040 A 
ATOM     80  F   UNL A   1      45.328  25.687  25.599  1.00  0.00    -0.206 F 
ATOM     81  C   UNL A   1      46.021  22.488  24.162  1.00  0.00     0.006 A 
ENDBRANCH  60  74
BRANCH  61  82
ATOM     82  C   UNL A   1      47.039  31.331  28.282  1.00  0.00     0.057 A 
ATOM     83  C   UNL A   1      46.595  31.873  27.067  1.00  0.00     0.134 A 
ATOM     84  C   UNL A   1      48.003  32.089  28.972  1.00  0.00     0.134 A 
ATOM     85  F   UNL A   1      45.642  31.254  26.355  1.00  0.00    -0.206 F 
ATOM     86  C   UNL A   1      47.073  33.098  26.575  1.00  0.00     0.040 A 
ATOM     87  C   UNL A   1      48.492  33.309  28.492  1.00  0.00     0.040 A 
ATOM     88  F   UNL A   1      48.442  31.713  30.183  1.00  0.00    -0.206 F 
ATOM     89  C   UNL A   1      48.017  33.825  27.293  1.00  0.00     0.006 A 
ENDBRANCH  61  82
BRANCH  73  90
ATOM     90  C   UNL A   1      45.904  26.378  32.052  1.00  0.00     0.057 A 
ATOM     91  C   UNL A   1      44.796  27.010  32.638  1.00  0.00     0.134 A 
ATOM     92  C   UNL A   1      46.904  25.936  32.924  1.00  0.00     0.134 A 
ATOM     93  F   UNL A   1      43.742  27.383  31.904  1.00  0.00    -0.206 F 
ATOM     94  C   UNL A   1      44.702  27.218  34.018  1.00  0.00     0.040 A 
ATOM     95  C   UNL A   1      46.810  26.110  34.308  1.00  0.00     0.040 A 
ATOM     96  F   UNL A   1      47.968  25.270  32.448  1.00  0.00    -0.206 F 
ATOM     97  C   UNL A   1      45.708  26.758  34.860  1.00  0.00     0.006 A 
ENDBRANCH  73  90
ENDBRANCH  47  48
ENDBRANCH  39  42
ENDBRANCH  37  38
ENDBRANCH  36  37
ENDBRANCH  35  36
ENDBRANCH  34  35
ENDBRANCH   1  34
TORSDOF 18
ENDMDL
MODEL 3
REMARK VINA RESULT:     -12.0      4.226      6.602
REMARK SMILES NS(=O)(=O)c1ccc(-n2nc(C(F)(F)F)cc2-c2ccc(C(=O)NCCCCCCNC(=O)c3ccc(-c4c5nc(c(-c6c(F)cccc6F)c6ccc([nH]6)c(-c6c(F)cccc6F)c6nc(c(-c7c(F)cccc7F)c7ccc4[nH]7)C=C6)C=C5)cc3)cc2)cc1
REMARK SMILES IDX 26 1 25 2 24 3 22 4 23 5 21 7 18 8 19 9 89 10 20 11 88 12
REMARK SMILES IDX 17 13 9 14 10 15 11 16 16 17 8 18 5 19 6 20 91 21 7 22 90 23
REMARK SMILES IDX 2 24 3 25 4 26 1 27 12 30 13 31 14 32 15 33 27 34 28 35
REMARK SMILES IDX 29 36 30 37 31 38 32 39 33 41 34 42 35 43 87 44 36 45 86 46
REMARK SMILES IDX 37 47 38 48 39 49 80 50 40 51 85 52 79 53 81 54 41 55 84 56
REMARK SMILES IDX 78 57 77 58 42 60 68 61 51 62 67 63 52 64 55 65 66 66 82 67
REMARK SMILES IDX 53 68 54 69 65 71 83 72 56 73 43 74 44 75 49 76 45 77 46 78
REMARK SMILES IDX 48 79 50 80 47 81 69 82 70 83 75 84 71 85 72 86 74 87 76 88
REMARK SMILES IDX 73 89 57 90 58 91 63 92 59 93 60 94 62 95 64 96 61 97
REMARK H PARENT 24 6 1 28 1 29 31 40 81 59 55 70
REMARK Flexibility Score: inf
ROOT
ATOM      1  C   UNL A   1      32.095  27.939  23.798  1.00  0.00     0.021 C 
ENDROOT
BRANCH   1   2
ATOM      2  C   UNL A   1      31.752  27.311  22.445  1.00  0.00     0.116 C 
BRANCH   2   3
ATOM      3  N   UNL A   1      30.918  26.144  22.651  1.00  0.00    -0.352 N 
ATOM      4  C   UNL A   1      31.188  24.893  23.139  1.00  0.00     0.251 C 
ATOM      5  O   UNL A   1      30.278  24.065  23.149  1.00  0.00    -0.269 OA
ATOM      6  H   UNL A   1      29.977  26.276  22.391  1.00  0.00     0.163 HD
BRANCH   4   7
ATOM      7  C   UNL A   1      32.504  24.534  23.727  1.00  0.00     0.039 A 
ATOM      8  C   UNL A   1      34.977  23.630  24.688  1.00  0.00     0.000 A 
ATOM      9  C   UNL A   1      34.740  23.693  23.311  1.00  0.00     0.011 A 
ATOM     10  C   UNL A   1      33.994  24.058  25.579  1.00  0.00     0.011 A 
ATOM     11  C   UNL A   1      33.506  24.134  22.834  1.00  0.00     0.014 A 
ATOM     12  C   UNL A   1      32.789  24.565  25.095  1.00  0.00     0.014 A 
BRANCH   8  13
ATOM     13  C   UNL A   1      36.272  23.210  25.196  1.00  0.00     0.075 A 
ATOM     14  N   UNL A   1      36.621  21.892  25.443  1.00  0.00    -0.233 N 
ATOM     15  N   UNL A   1      37.791  21.798  26.124  1.00  0.00    -0.163 NA
ATOM     16  C   UNL A   1      38.292  23.051  26.121  1.00  0.00     0.167 A 
ATOM     17  C   UNL A   1      37.350  23.969  25.591  1.00  0.00     0.064 A 
BRANCH  14  18
ATOM     18  C   UNL A   1      35.883  20.736  25.080  1.00  0.00     0.065 A 
ATOM     19  C   UNL A   1      34.426  18.405  24.656  1.00  0.00     0.082 A 
ATOM     20  C   UNL A   1      33.748  19.607  24.862  1.00  0.00     0.024 A 
ATOM     21  C   UNL A   1      35.828  18.369  24.625  1.00  0.00     0.024 A 
ATOM     22  C   UNL A   1      34.479  20.772  25.081  1.00  0.00     0.030 A 
ATOM     23  C   UNL A   1      36.562  19.545  24.806  1.00  0.00     0.030 A 
BRANCH  19  24
ATOM     24  S   UNL A   1      33.530  16.889  24.501  1.00  0.00     0.238 S 
ATOM     25  O   UNL A   1      33.697  16.123  25.707  1.00  0.00    -0.207 OA
ATOM     26  O   UNL A   1      33.778  16.350  23.180  1.00  0.00    -0.207 OA
BRANCH  24  27
ATOM     27  N   UNL A   1      31.914  17.366  24.505  1.00  0.00    -0.225 NA
ATOM     28  H   UNL A   1      31.847  18.339  24.209  1.00  0.00     0.137 HD
ATOM     29  H   UNL A   1      31.534  17.270  25.446  1.00  0.00     0.137 HD
ENDBRANCH  24  27
ENDBRANCH  19  24
ENDBRANCH  14  18
BRANCH  16  30
ATOM     30  C   UNL A   1      39.667  23.398  26.627  1.00  0.00     0.435 C 
ATOM     31  F   UNL A   1      40.632  22.567  26.159  1.00  0.00    -0.164 F 
ATOM     32  F   UNL A   1      40.027  24.666  26.294  1.00  0.00    -0.164 F 
ATOM     33  F   UNL A   1      39.728  23.333  27.988  1.00  0.00    -0.164 F 
ENDBRANCH  16  30
ENDBRANCH   8  13
ENDBRANCH   4   7
ENDBRANCH   2   3
ENDBRANCH   1   2
BRANCH   1  34
ATOM     34  C   UNL A   1      33.607  28.033  24.038  1.00  0.00     0.002 C 
BRANCH  34  35
ATOM     35  C   UNL A   1      34.021  28.245  25.505  1.00  0.00     0.002 C 
BRANCH  35  36
ATOM     36  C   UNL A   1      32.962  28.879  26.421  1.00  0.00     0.021 C 
BRANCH  36  37
ATOM     37  C   UNL A   1      33.560  29.582  27.625  1.00  0.00     0.116 C 
BRANCH  37  38
ATOM     38  N   UNL A   1      33.950  30.965  27.318  1.00  0.00    -0.352 N 
ATOM     39  C   UNL A   1      35.092  31.652  27.692  1.00  0.00     0.251 C 
ATOM     40  H   UNL A   1      33.310  31.474  26.770  1.00  0.00     0.163 HD
ATOM     41  O   UNL A   1      35.128  32.876  27.688  1.00  0.00    -0.269 OA
BRANCH  39  42
ATOM     42  C   UNL A   1      36.278  30.872  28.070  1.00  0.00     0.039 A 
ATOM     43  C   UNL A   1      36.511  29.567  27.626  1.00  0.00     0.014 A 
ATOM     44  C   UNL A   1      37.199  31.524  28.875  1.00  0.00     0.014 A 
ATOM     45  C   UNL A   1      37.709  28.955  27.987  1.00  0.00     0.010 A 
ATOM     46  C   UNL A   1      38.470  31.052  28.947  1.00  0.00     0.010 A 
ATOM     47  C   UNL A   1      38.679  29.718  28.654  1.00  0.00    -0.014 A 
BRANCH  47  48
ATOM     48  C   UNL A   1      39.976  29.200  29.039  1.00  0.00     0.031 A 
ATOM     49  C   UNL A   1      40.115  28.958  30.491  1.00  0.00     0.074 A 
ATOM     50  C   UNL A   1      40.848  28.721  28.123  1.00  0.00     0.049 A 
ATOM     51  N   UNL A   1      40.836  29.621  31.328  1.00  0.00    -0.248 NA
ATOM     52  C   UNL A   1      39.212  27.980  31.120  1.00  0.00     0.031 C 
ATOM     53  C   UNL A   1      40.684  28.584  26.667  1.00  0.00     0.029 A 
ATOM     54  N   UNL A   1      42.060  28.145  28.335  1.00  0.00    -0.354 N 
ATOM     55  C   UNL A   1      40.662  28.988  32.554  1.00  0.00     0.074 A 
ATOM     56  C   UNL A   1      39.498  28.157  32.411  1.00  0.00     0.031 C 
ATOM     57  C   UNL A   1      41.642  27.768  26.174  1.00  0.00     0.029 A 
ATOM     58  C   UNL A   1      42.580  27.466  27.236  1.00  0.00     0.049 A 
ATOM     59  H   UNL A   1      42.532  28.203  29.196  1.00  0.00     0.167 HD
ATOM     60  C   UNL A   1      41.659  28.991  33.482  1.00  0.00     0.037 A 
ATOM     61  C   UNL A   1      43.687  26.682  27.242  1.00  0.00     0.037 A 
ATOM     62  C   UNL A   1      42.656  29.987  33.163  1.00  0.00     0.049 A 
ATOM     63  C   UNL A   1      44.481  27.072  28.441  1.00  0.00     0.074 A 
ATOM     64  C   UNL A   1      42.628  31.356  32.972  1.00  0.00     0.029 A 
ATOM     65  N   UNL A   1      43.823  29.558  32.576  1.00  0.00    -0.354 N 
ATOM     66  N   UNL A   1      45.040  28.245  28.579  1.00  0.00    -0.248 NA
ATOM     67  C   UNL A   1      44.201  26.364  29.682  1.00  0.00     0.031 C 
ATOM     68  C   UNL A   1      43.489  31.587  31.857  1.00  0.00     0.029 A 
ATOM     69  C   UNL A   1      44.059  30.366  31.493  1.00  0.00     0.049 A 
ATOM     70  H   UNL A   1      44.386  28.809  32.878  1.00  0.00     0.167 HD
ATOM     71  C   UNL A   1      44.796  28.605  29.898  1.00  0.00     0.074 A 
ATOM     72  C   UNL A   1      44.320  27.380  30.543  1.00  0.00     0.031 C 
ATOM     73  C   UNL A   1      44.701  29.915  30.278  1.00  0.00     0.037 A 
BRANCH  60  74
ATOM     74  C   UNL A   1      41.943  27.851  34.430  1.00  0.00     0.057 A 
ATOM     75  C   UNL A   1      41.730  28.049  35.806  1.00  0.00     0.134 A 
ATOM     76  C   UNL A   1      42.681  26.694  34.102  1.00  0.00     0.134 A 
ATOM     77  F   UNL A   1      41.041  29.112  36.250  1.00  0.00    -0.206 F 
ATOM     78  C   UNL A   1      42.289  27.216  36.781  1.00  0.00     0.040 A 
ATOM     79  C   UNL A   1      43.199  25.826  35.067  1.00  0.00     0.040 A 
ATOM     80  F   UNL A   1      43.031  26.385  32.849  1.00  0.00    -0.206 F 
ATOM     81  C   UNL A   1      43.037  26.105  36.413  1.00  0.00     0.006 A 
ENDBRANCH  60  74
BRANCH  61  82
ATOM     82  C   UNL A   1      43.902  25.412  26.507  1.00  0.00     0.057 A 
ATOM     83  C   UNL A   1      44.840  25.313  25.470  1.00  0.00     0.134 A 
ATOM     84  C   UNL A   1      43.383  24.192  26.981  1.00  0.00     0.134 A 
ATOM     85  F   UNL A   1      45.431  26.412  24.981  1.00  0.00    -0.206 F 
ATOM     86  C   UNL A   1      45.246  24.076  24.944  1.00  0.00     0.040 A 
ATOM     87  C   UNL A   1      43.775  22.952  26.463  1.00  0.00     0.040 A 
ATOM     88  F   UNL A   1      42.541  24.156  28.024  1.00  0.00    -0.206 F 
ATOM     89  C   UNL A   1      44.720  22.890  25.447  1.00  0.00     0.006 A 
ENDBRANCH  61  82
BRANCH  73  90
ATOM     90  C   UNL A   1      45.062  30.982  29.275  1.00  0.00     0.057 A 
ATOM     91  C   UNL A   1      44.143  31.598  28.412  1.00  0.00     0.134 A 
ATOM     92  C   UNL A   1      46.345  31.539  29.320  1.00  0.00     0.134 A 
ATOM     93  F   UNL A   1      42.865  31.205  28.366  1.00  0.00    -0.206 F 
ATOM     94  C   UNL A   1      44.490  32.692  27.611  1.00  0.00     0.040 A 
ATOM     95  C   UNL A   1      46.698  32.650  28.549  1.00  0.00     0.040 A 
ATOM     96  F   UNL A   1      47.265  31.044  30.164  1.00  0.00    -0.206 F 
ATOM     97  C   UNL A   1      45.771  33.227  27.687  1.00  0.00     0.006 A 
ENDBRANCH  73  90
ENDBRANCH  47  48
ENDBRANCH  39  42
ENDBRANCH  37  38
ENDBRANCH  36  37
ENDBRANCH  35  36
ENDBRANCH  34  35
ENDBRANCH   1  34
TORSDOF 18
ENDMDL
