MODEL 1
REMARK VINA RESULT:     -11.3      0.000      0.000
REMARK SMILES O=C(NCCCCCCNC(=O)c1c(C(=O)N2CCc3ccccc32)cccc1[N+](=O)[O-])c1ccc(-c2c3nc(c(-c4c(F)cccc4F)c4ccc([nH]4)c(-c4c(F)cccc4F)c4nc(c(-c5c(F)cccc5F)c5ccc2[nH]5)C=C4)C=C3)cc1
REMARK SMILES IDX 6 1 5 2 4 3 3 4 1 5 2 6 33 8 34 9 86 10 35 11 85 12 36 13
REMARK SMILES IDX 37 14 38 15 79 16 39 17 84 18 78 19 80 20 40 21 83 22 77 23
REMARK SMILES IDX 76 24 41 26 67 27 50 28 66 29 51 30 54 31 65 32 81 33 52 34
REMARK SMILES IDX 53 35 64 37 82 38 55 39 42 40 43 41 48 42 44 43 45 44 47 45
REMARK SMILES IDX 49 46 46 47 68 48 69 49 74 50 70 51 71 52 73 53 75 54 72 55
REMARK SMILES IDX 56 56 57 57 62 58 58 59 59 60 61 61 63 62 60 63 7 64 8 65
REMARK SMILES IDX 9 66 10 67 11 68 12 70 13 71 14 72 29 73 26 74 28 75 27 76
REMARK SMILES IDX 15 77 16 78 17 79 18 80 25 81 19 82 20 83 24 84 21 85 23 86
REMARK SMILES IDX 22 87 30 88 31 89 32 90
REMARK H PARENT 3 7 80 25 54 36 10 69
REMARK Flexibility Score: inf
ROOT
ATOM      1  C   UNL A   1      38.846  22.671  26.215  1.00  0.00     0.002 C 
ENDROOT
BRANCH   1   2
ATOM      2  C   UNL A   1      38.898  21.304  25.535  1.00  0.00     0.021 C 
BRANCH   2   3
ATOM      3  C   UNL A   1      39.347  20.147  26.416  1.00  0.00     0.116 C 
BRANCH   3   4
ATOM      4  N   UNL A   1      40.483  19.418  25.881  1.00  0.00    -0.352 N 
ATOM      5  O   UNL A   1      42.630  19.092  25.259  1.00  0.00    -0.269 OA
ATOM      6  C   UNL A   1      41.808  19.790  25.835  1.00  0.00     0.251 C 
ATOM      7  H   UNL A   1      40.278  18.535  25.498  1.00  0.00     0.163 HD
BRANCH   6   8
ATOM      8  C   UNL A   1      42.228  21.069  26.453  1.00  0.00     0.039 A 
ATOM      9  C   UNL A   1      42.279  21.213  27.841  1.00  0.00     0.014 A 
ATOM     10  C   UNL A   1      42.548  22.149  25.625  1.00  0.00     0.014 A 
ATOM     11  C   UNL A   1      42.482  22.472  28.396  1.00  0.00     0.010 A 
ATOM     12  C   UNL A   1      42.839  23.395  26.188  1.00  0.00     0.010 A 
ATOM     13  C   UNL A   1      42.763  23.579  27.578  1.00  0.00    -0.014 A 
BRANCH  13  14
ATOM     14  C   UNL A   1      42.991  24.906  28.205  1.00  0.00     0.031 A 
ATOM     15  C   UNL A   1      44.373  25.358  28.590  1.00  0.00     0.074 A 
ATOM     16  C   UNL A   1      41.940  25.731  28.382  1.00  0.00     0.049 A 
ATOM     17  N   UNL A   1      44.754  26.506  29.097  1.00  0.00    -0.248 NA
ATOM     18  C   UNL A   1      45.472  24.401  28.392  1.00  0.00     0.031 C 
ATOM     19  C   UNL A   1      40.549  25.402  28.064  1.00  0.00     0.029 A 
ATOM     20  N   UNL A   1      41.879  27.018  28.849  1.00  0.00    -0.354 N 
ATOM     21  C   UNL A   1      46.124  26.398  29.302  1.00  0.00     0.074 A 
ATOM     22  C   UNL A   1      46.508  25.067  28.885  1.00  0.00     0.031 C 
ATOM     23  C   UNL A   1      39.781  26.477  28.287  1.00  0.00     0.029 A 
ATOM     24  C   UNL A   1      40.614  27.552  28.817  1.00  0.00     0.049 A 
ATOM     25  H   UNL A   1      42.665  27.512  29.175  1.00  0.00     0.167 HD
ATOM     26  C   UNL A   1      46.984  27.327  29.786  1.00  0.00     0.037 A 
ATOM     27  C   UNL A   1      40.170  28.770  29.174  1.00  0.00     0.037 A 
ATOM     28  C   UNL A   1      46.606  28.662  30.173  1.00  0.00     0.049 A 
ATOM     29  C   UNL A   1      41.145  29.781  29.700  1.00  0.00     0.074 A 
ATOM     30  C   UNL A   1      47.414  29.689  30.635  1.00  0.00     0.029 A 
ATOM     31  N   UNL A   1      45.312  29.158  30.144  1.00  0.00    -0.354 N 
ATOM     32  N   UNL A   1      42.443  29.675  29.852  1.00  0.00    -0.248 NA
ATOM     33  C   UNL A   1      40.594  31.081  30.105  1.00  0.00     0.031 C 
ATOM     34  C   UNL A   1      46.602  30.793  30.919  1.00  0.00     0.029 A 
ATOM     35  C   UNL A   1      45.296  30.469  30.595  1.00  0.00     0.049 A 
ATOM     36  H   UNL A   1      44.520  28.653  29.848  1.00  0.00     0.167 HD
ATOM     37  C   UNL A   1      42.867  30.900  30.350  1.00  0.00     0.074 A 
ATOM     38  C   UNL A   1      41.690  31.738  30.457  1.00  0.00     0.031 C 
ATOM     39  C   UNL A   1      44.118  31.293  30.690  1.00  0.00     0.037 A 
BRANCH  26  40
ATOM     40  C   UNL A   1      48.424  26.928  29.942  1.00  0.00     0.057 A 
ATOM     41  C   UNL A   1      48.893  26.271  31.086  1.00  0.00     0.134 A 
ATOM     42  C   UNL A   1      49.343  27.168  28.912  1.00  0.00     0.134 A 
ATOM     43  F   UNL A   1      48.067  26.021  32.113  1.00  0.00    -0.206 F 
ATOM     44  C   UNL A   1      50.229  25.884  31.208  1.00  0.00     0.040 A 
ATOM     45  C   UNL A   1      50.675  26.766  29.013  1.00  0.00     0.040 A 
ATOM     46  F   UNL A   1      48.958  27.787  27.785  1.00  0.00    -0.206 F 
ATOM     47  C   UNL A   1      51.123  26.126  30.166  1.00  0.00     0.006 A 
ENDBRANCH  26  40
BRANCH  27  48
ATOM     48  C   UNL A   1      38.732  29.102  29.028  1.00  0.00     0.057 A 
ATOM     49  C   UNL A   1      37.858  29.018  30.117  1.00  0.00     0.134 A 
ATOM     50  C   UNL A   1      38.201  29.520  27.802  1.00  0.00     0.134 A 
ATOM     51  F   UNL A   1      38.305  28.609  31.313  1.00  0.00    -0.206 F 
ATOM     52  C   UNL A   1      36.503  29.326  29.991  1.00  0.00     0.040 A 
ATOM     53  C   UNL A   1      36.854  29.854  27.666  1.00  0.00     0.040 A 
ATOM     54  F   UNL A   1      38.991  29.627  26.723  1.00  0.00    -0.206 F 
ATOM     55  C   UNL A   1      35.998  29.752  28.762  1.00  0.00     0.006 A 
ENDBRANCH  27  48
BRANCH  39  56
ATOM     56  C   UNL A   1      44.279  32.702  31.173  1.00  0.00     0.057 A 
ATOM     57  C   UNL A   1      44.210  33.029  32.534  1.00  0.00     0.134 A 
ATOM     58  C   UNL A   1      44.517  33.743  30.267  1.00  0.00     0.134 A 
ATOM     59  F   UNL A   1      43.969  32.079  33.449  1.00  0.00    -0.206 F 
ATOM     60  C   UNL A   1      44.347  34.347  32.973  1.00  0.00     0.040 A 
ATOM     61  C   UNL A   1      44.680  35.061  30.696  1.00  0.00     0.040 A 
ATOM     62  F   UNL A   1      44.599  33.495  28.951  1.00  0.00    -0.206 F 
ATOM     63  C   UNL A   1      44.587  35.366  32.053  1.00  0.00     0.006 A 
ENDBRANCH  39  56
ENDBRANCH  13  14
ENDBRANCH   6   8
ENDBRANCH   3   4
ENDBRANCH   2   3
ENDBRANCH   1   2
BRANCH   1  64
ATOM     64  C   UNL A   1      37.557  23.472  26.017  1.00  0.00     0.002 C 
BRANCH  64  65
ATOM     65  C   UNL A   1      37.017  23.556  24.584  1.00  0.00     0.021 C 
BRANCH  65  66
ATOM     66  C   UNL A   1      35.737  22.772  24.313  1.00  0.00     0.116 C 
BRANCH  66  67
ATOM     67  N   UNL A   1      35.004  23.283  23.172  1.00  0.00    -0.352 N 
ATOM     68  C   UNL A   1      33.668  23.537  23.027  1.00  0.00     0.259 C 
ATOM     69  H   UNL A   1      35.553  23.476  22.377  1.00  0.00     0.163 HD
ATOM     70  O   UNL A   1      33.234  23.935  21.954  1.00  0.00    -0.269 OA
BRANCH  68  71
ATOM     71  C   UNL A   1      32.753  23.308  24.156  1.00  0.00     0.130 A 
ATOM     72  C   UNL A   1      32.490  24.343  25.055  1.00  0.00     0.060 A 
ATOM     73  C   UNL A   1      32.173  22.061  24.407  1.00  0.00     0.282 A 
ATOM     74  C   UNL A   1      31.652  24.131  26.162  1.00  0.00     0.015 A 
ATOM     75  C   UNL A   1      31.285  21.856  25.476  1.00  0.00     0.086 A 
ATOM     76  C   UNL A   1      31.019  22.905  26.351  1.00  0.00     0.008 A 
BRANCH  72  77
ATOM     77  C   UNL A   1      33.237  25.608  24.989  1.00  0.00     0.259 C 
ATOM     78  O   UNL A   1      34.345  25.648  25.516  1.00  0.00    -0.269 OA
BRANCH  77  79
ATOM     79  N   UNL A   1      32.606  26.703  24.387  1.00  0.00    -0.308 N 
ATOM     80  C   UNL A   1      33.360  27.353  23.285  1.00  0.00     0.131 C 
ATOM     81  C   UNL A   1      32.277  27.747  25.296  1.00  0.00     0.047 A 
ATOM     82  C   UNL A   1      33.628  28.818  23.665  1.00  0.00     0.059 C 
ATOM     83  C   UNL A   1      33.004  28.898  25.015  1.00  0.00    -0.022 A 
ATOM     84  C   UNL A   1      31.553  27.620  26.469  1.00  0.00     0.026 A 
ATOM     85  C   UNL A   1      33.162  29.880  25.980  1.00  0.00     0.006 A 
ATOM     86  C   UNL A   1      31.692  28.606  27.442  1.00  0.00     0.002 A 
ATOM     87  C   UNL A   1      32.529  29.708  27.215  1.00  0.00     0.000 A 
ENDBRANCH  77  79
ENDBRANCH  72  77
BRANCH  73  88
ATOM     88  N   UNL A   1      32.519  20.908  23.602  1.00  0.00     0.063 N 
ATOM     89  O   UNL A   1      33.348  20.125  24.085  1.00  0.00    -0.258 OA
ATOM     90  O   UNL A   1      31.989  20.802  22.492  1.00  0.00    -0.258 OA
ENDBRANCH  73  88
ENDBRANCH  68  71
ENDBRANCH  66  67
ENDBRANCH  65  66
ENDBRANCH  64  65
ENDBRANCH   1  64
TORSDOF 16
ENDMDL
MODEL 2
REMARK VINA RESULT:     -11.1      3.652      8.989
REMARK SMILES O=C(NCCCCCCNC(=O)c1c(C(=O)N2CCc3ccccc32)cccc1[N+](=O)[O-])c1ccc(-c2c3nc(c(-c4c(F)cccc4F)c4ccc([nH]4)c(-c4c(F)cccc4F)c4nc(c(-c5c(F)cccc5F)c5ccc2[nH]5)C=C4)C=C3)cc1
REMARK SMILES IDX 6 1 5 2 4 3 3 4 1 5 2 6 33 8 34 9 86 10 35 11 85 12 36 13
REMARK SMILES IDX 37 14 38 15 79 16 39 17 84 18 78 19 80 20 40 21 83 22 77 23
REMARK SMILES IDX 76 24 41 26 67 27 50 28 66 29 51 30 54 31 65 32 81 33 52 34
REMARK SMILES IDX 53 35 64 37 82 38 55 39 42 40 43 41 48 42 44 43 45 44 47 45
REMARK SMILES IDX 49 46 46 47 68 48 69 49 74 50 70 51 71 52 73 53 75 54 72 55
REMARK SMILES IDX 56 56 57 57 62 58 58 59 59 60 61 61 63 62 60 63 7 64 8 65
REMARK SMILES IDX 9 66 10 67 11 68 12 70 13 71 14 72 29 73 26 74 28 75 27 76
REMARK SMILES IDX 15 77 16 78 17 79 18 80 25 81 19 82 20 83 24 84 21 85 23 86
REMARK SMILES IDX 22 87 30 88 31 89 32 90
REMARK H PARENT 3 7 80 25 54 36 10 69
REMARK Flexibility Score: inf
ROOT
ATOM      1  C   UNL A   1      31.760  30.373  26.213  1.00  0.00     0.002 C 
ENDROOT
BRANCH   1   2
ATOM      2  C   UNL A   1      31.483  31.775  26.753  1.00  0.00     0.021 C 
BRANCH   2   3
ATOM      3  C   UNL A   1      32.706  32.560  27.206  1.00  0.00     0.116 C 
BRANCH   3   4
ATOM      4  N   UNL A   1      32.405  33.926  27.595  1.00  0.00    -0.352 N 
ATOM      5  O   UNL A   1      32.632  35.847  28.762  1.00  0.00    -0.269 OA
ATOM      6  C   UNL A   1      33.078  34.745  28.474  1.00  0.00     0.251 C 
ATOM      7  H   UNL A   1      31.610  34.323  27.171  1.00  0.00     0.163 HD
BRANCH   6   8
ATOM      8  C   UNL A   1      34.329  34.265  29.106  1.00  0.00     0.039 A 
ATOM      9  C   UNL A   1      35.572  34.522  28.523  1.00  0.00     0.014 A 
ATOM     10  C   UNL A   1      34.248  33.521  30.288  1.00  0.00     0.014 A 
ATOM     11  C   UNL A   1      36.708  33.896  29.023  1.00  0.00     0.010 A 
ATOM     12  C   UNL A   1      35.407  32.966  30.839  1.00  0.00     0.010 A 
ATOM     13  C   UNL A   1      36.641  33.110  30.186  1.00  0.00    -0.014 A 
BRANCH  13  14
ATOM     14  C   UNL A   1      37.878  32.470  30.702  1.00  0.00     0.031 A 
ATOM     15  C   UNL A   1      38.543  32.961  31.959  1.00  0.00     0.074 A 
ATOM     16  C   UNL A   1      38.377  31.400  30.051  1.00  0.00     0.049 A 
ATOM     17  N   UNL A   1      39.597  32.481  32.576  1.00  0.00    -0.248 NA
ATOM     18  C   UNL A   1      37.961  34.146  32.606  1.00  0.00     0.031 C 
ATOM     19  C   UNL A   1      37.832  30.838  28.814  1.00  0.00     0.029 A 
ATOM     20  N   UNL A   1      39.435  30.582  30.350  1.00  0.00    -0.354 N 
ATOM     21  C   UNL A   1      39.817  33.319  33.662  1.00  0.00     0.074 A 
ATOM     22  C   UNL A   1      38.803  34.349  33.611  1.00  0.00     0.031 C 
ATOM     23  C   UNL A   1      38.521  29.735  28.491  1.00  0.00     0.029 A 
ATOM     24  C   UNL A   1      39.589  29.542  29.466  1.00  0.00     0.049 A 
ATOM     25  H   UNL A   1      40.028  30.725  31.123  1.00  0.00     0.167 HD
ATOM     26  C   UNL A   1      40.774  33.232  34.618  1.00  0.00     0.037 A 
ATOM     27  C   UNL A   1      40.490  28.544  29.439  1.00  0.00     0.037 A 
ATOM     28  C   UNL A   1      41.765  32.189  34.685  1.00  0.00     0.049 A 
ATOM     29  C   UNL A   1      41.533  28.468  30.514  1.00  0.00     0.074 A 
ATOM     30  C   UNL A   1      42.749  31.992  35.641  1.00  0.00     0.029 A 
ATOM     31  N   UNL A   1      41.901  31.165  33.759  1.00  0.00    -0.354 N 
ATOM     32  N   UNL A   1      41.705  29.246  31.555  1.00  0.00    -0.248 NA
ATOM     33  C   UNL A   1      42.508  27.374  30.410  1.00  0.00     0.031 C 
ATOM     34  C   UNL A   1      43.501  30.871  35.272  1.00  0.00     0.029 A 
ATOM     35  C   UNL A   1      42.960  30.344  34.111  1.00  0.00     0.049 A 
ATOM     36  H   UNL A   1      41.328  31.041  32.968  1.00  0.00     0.167 HD
ATOM     37  C   UNL A   1      42.793  28.726  32.242  1.00  0.00     0.074 A 
ATOM     38  C   UNL A   1      43.230  27.555  31.508  1.00  0.00     0.031 C 
ATOM     39  C   UNL A   1      43.379  29.179  33.376  1.00  0.00     0.037 A 
BRANCH  26  40
ATOM     40  C   UNL A   1      40.808  34.305  35.668  1.00  0.00     0.057 A 
ATOM     41  C   UNL A   1      41.563  35.474  35.512  1.00  0.00     0.134 A 
ATOM     42  C   UNL A   1      40.039  34.184  36.834  1.00  0.00     0.134 A 
ATOM     43  F   UNL A   1      42.329  35.648  34.424  1.00  0.00    -0.206 F 
ATOM     44  C   UNL A   1      41.567  36.476  36.485  1.00  0.00     0.040 A 
ATOM     45  C   UNL A   1      40.018  35.188  37.803  1.00  0.00     0.040 A 
ATOM     46  F   UNL A   1      39.287  33.093  37.044  1.00  0.00    -0.206 F 
ATOM     47  C   UNL A   1      40.787  36.337  37.632  1.00  0.00     0.006 A 
ENDBRANCH  26  40
BRANCH  27  48
ATOM     48  C   UNL A   1      40.430  27.526  28.361  1.00  0.00     0.057 A 
ATOM     49  C   UNL A   1      41.123  27.706  27.160  1.00  0.00     0.134 A 
ATOM     50  C   UNL A   1      39.689  26.348  28.511  1.00  0.00     0.134 A 
ATOM     51  F   UNL A   1      41.838  28.821  26.952  1.00  0.00    -0.206 F 
ATOM     52  C   UNL A   1      41.072  26.756  26.139  1.00  0.00     0.040 A 
ATOM     53  C   UNL A   1      39.648  25.379  27.510  1.00  0.00     0.040 A 
ATOM     54  F   UNL A   1      39.009  26.115  29.645  1.00  0.00    -0.206 F 
ATOM     55  C   UNL A   1      40.336  25.585  26.315  1.00  0.00     0.006 A 
ENDBRANCH  27  48
BRANCH  39  56
ATOM     56  C   UNL A   1      44.531  28.383  33.909  1.00  0.00     0.057 A 
ATOM     57  C   UNL A   1      45.857  28.678  33.565  1.00  0.00     0.134 A 
ATOM     58  C   UNL A   1      44.312  27.315  34.788  1.00  0.00     0.134 A 
ATOM     59  F   UNL A   1      46.130  29.679  32.715  1.00  0.00    -0.206 F 
ATOM     60  C   UNL A   1      46.922  27.921  34.056  1.00  0.00     0.040 A 
ATOM     61  C   UNL A   1      45.371  26.566  35.305  1.00  0.00     0.040 A 
ATOM     62  F   UNL A   1      43.066  26.984  35.162  1.00  0.00    -0.206 F 
ATOM     63  C   UNL A   1      46.680  26.865  34.932  1.00  0.00     0.006 A 
ENDBRANCH  39  56
ENDBRANCH  13  14
ENDBRANCH   6   8
ENDBRANCH   3   4
ENDBRANCH   2   3
ENDBRANCH   1   2
BRANCH   1  64
ATOM     64  C   UNL A   1      32.178  29.324  27.247  1.00  0.00     0.002 C 
BRANCH  64  65
ATOM     65  C   UNL A   1      33.456  28.533  26.941  1.00  0.00     0.021 C 
BRANCH  65  66
ATOM     66  C   UNL A   1      33.274  27.287  26.081  1.00  0.00     0.116 C 
BRANCH  66  67
ATOM     67  N   UNL A   1      33.797  27.456  24.741  1.00  0.00    -0.352 N 
ATOM     68  C   UNL A   1      33.477  26.803  23.583  1.00  0.00     0.259 C 
ATOM     69  H   UNL A   1      34.494  28.147  24.650  1.00  0.00     0.163 HD
ATOM     70  O   UNL A   1      34.070  27.070  22.547  1.00  0.00    -0.269 OA
BRANCH  68  71
ATOM     71  C   UNL A   1      32.434  25.766  23.593  1.00  0.00     0.130 A 
ATOM     72  C   UNL A   1      32.788  24.430  23.789  1.00  0.00     0.060 A 
ATOM     73  C   UNL A   1      31.088  26.056  23.349  1.00  0.00     0.282 A 
ATOM     74  C   UNL A   1      31.812  23.420  23.760  1.00  0.00     0.015 A 
ATOM     75  C   UNL A   1      30.096  25.062  23.381  1.00  0.00     0.086 A 
ATOM     76  C   UNL A   1      30.465  23.738  23.597  1.00  0.00     0.008 A 
BRANCH  72  77
ATOM     77  C   UNL A   1      34.200  24.021  23.822  1.00  0.00     0.259 C 
ATOM     78  O   UNL A   1      34.779  23.868  22.750  1.00  0.00    -0.269 OA
BRANCH  77  79
ATOM     79  N   UNL A   1      34.772  23.766  25.074  1.00  0.00    -0.308 N 
ATOM     80  C   UNL A   1      35.962  24.586  25.415  1.00  0.00     0.131 C 
ATOM     81  C   UNL A   1      35.172  22.413  25.259  1.00  0.00     0.047 A 
ATOM     82  C   UNL A   1      37.161  23.650  25.640  1.00  0.00     0.059 C 
ATOM     83  C   UNL A   1      36.553  22.315  25.383  1.00  0.00    -0.022 A 
ATOM     84  C   UNL A   1      34.382  21.290  25.081  1.00  0.00     0.026 A 
ATOM     85  C   UNL A   1      37.192  21.106  25.160  1.00  0.00     0.006 A 
ATOM     86  C   UNL A   1      35.012  20.066  24.869  1.00  0.00     0.002 A 
ATOM     87  C   UNL A   1      36.411  19.984  24.865  1.00  0.00     0.000 A 
ENDBRANCH  77  79
ENDBRANCH  72  77
BRANCH  73  88
ATOM     88  N   UNL A   1      30.673  27.397  22.993  1.00  0.00     0.063 N 
ATOM     89  O   UNL A   1      30.347  28.142  23.927  1.00  0.00    -0.258 OA
ATOM     90  O   UNL A   1      30.648  27.692  21.794  1.00  0.00    -0.258 OA
ENDBRANCH  73  88
ENDBRANCH  68  71
ENDBRANCH  66  67
ENDBRANCH  65  66
ENDBRANCH  64  65
ENDBRANCH   1  64
TORSDOF 16
ENDMDL
MODEL 3
REMARK VINA RESULT:     -11.1      3.183      8.532
REMARK SMILES O=C(NCCCCCCNC(=O)c1c(C(=O)N2CCc3ccccc32)cccc1[N+](=O)[O-])c1ccc(-c2c3nc(c(-c4c(F)cccc4F)c4ccc([nH]4)c(-c4c(F)cccc4F)c4nc(c(-c5c(F)cccc5F)c5ccc2[nH]5)C=C4)C=C3)cc1
REMARK SMILES IDX 6 1 5 2 4 3 3 4 1 5 2 6 33 8 34 9 86 10 35 11 85 12 36 13
REMARK SMILES IDX 37 14 38 15 79 16 39 17 84 18 78 19 80 20 40 21 83 22 77 23
REMARK SMILES IDX 76 24 41 26 67 27 50 28 66 29 51 30 54 31 65 32 81 33 52 34
REMARK SMILES IDX 53 35 64 37 82 38 55 39 42 40 43 41 48 42 44 43 45 44 47 45
REMARK SMILES IDX 49 46 46 47 68 48 69 49 74 50 70 51 71 52 73 53 75 54 72 55
REMARK SMILES IDX 56 56 57 57 62 58 58 59 59 60 61 61 63 62 60 63 7 64 8 65
REMARK SMILES IDX 9 66 10 67 11 68 12 70 13 71 14 72 29 73 26 74 28 75 27 76
REMARK SMILES IDX 15 77 16 78 17 79 18 80 25 81 19 82 20 83 24 84 21 85 23 86
REMARK SMILES IDX 22 87 30 88 31 89 32 90
REMARK H PARENT 3 7 80 25 54 36 10 69
REMARK Flexibility Score: inf
ROOT
ATOM      1  C   UNL A   1      34.481  30.717  27.637  1.00  0.00     0.002 C 
ENDROOT
BRANCH   1   2
ATOM      2  C   UNL A   1      33.169  31.487  27.778  1.00  0.00     0.021 C 
BRANCH   2   3
ATOM      3  C   UNL A   1      33.102  32.814  27.036  1.00  0.00     0.116 C 
BRANCH   3   4
ATOM      4  N   UNL A   1      32.625  33.913  27.857  1.00  0.00    -0.352 N 
ATOM      5  O   UNL A   1      32.628  35.353  29.597  1.00  0.00    -0.269 OA
ATOM      6  C   UNL A   1      33.215  34.491  28.960  1.00  0.00     0.251 C 
ATOM      7  H   UNL A   1      31.760  34.299  27.589  1.00  0.00     0.163 HD
BRANCH   6   8
ATOM      8  C   UNL A   1      34.553  34.029  29.397  1.00  0.00     0.039 A 
ATOM      9  C   UNL A   1      35.700  34.366  28.675  1.00  0.00     0.014 A 
ATOM     10  C   UNL A   1      34.652  33.221  30.534  1.00  0.00     0.014 A 
ATOM     11  C   UNL A   1      36.912  33.761  28.988  1.00  0.00     0.010 A 
ATOM     12  C   UNL A   1      35.891  32.685  30.900  1.00  0.00     0.010 A 
ATOM     13  C   UNL A   1      37.023  32.912  30.102  1.00  0.00    -0.014 A 
BRANCH  13  14
ATOM     14  C   UNL A   1      38.338  32.297  30.418  1.00  0.00     0.031 A 
ATOM     15  C   UNL A   1      39.264  32.913  31.430  1.00  0.00     0.074 A 
ATOM     16  C   UNL A   1      38.674  31.138  29.816  1.00  0.00     0.049 A 
ATOM     17  N   UNL A   1      40.423  32.476  31.862  1.00  0.00    -0.248 NA
ATOM     18  C   UNL A   1      38.847  34.188  32.031  1.00  0.00     0.031 C 
ATOM     19  C   UNL A   1      37.868  30.450  28.806  1.00  0.00     0.029 A 
ATOM     20  N   UNL A   1      39.765  30.325  29.982  1.00  0.00    -0.354 N 
ATOM     21  C   UNL A   1      40.881  33.431  32.760  1.00  0.00     0.074 A 
ATOM     22  C   UNL A   1      39.889  34.483  32.798  1.00  0.00     0.031 C 
ATOM     23  C   UNL A   1      38.462  29.291  28.485  1.00  0.00     0.029 A 
ATOM     24  C   UNL A   1      39.715  29.181  29.225  1.00  0.00     0.049 A 
ATOM     25  H   UNL A   1      40.513  30.541  30.585  1.00  0.00     0.167 HD
ATOM     26  C   UNL A   1      42.023  33.428  33.491  1.00  0.00     0.037 A 
ATOM     27  C   UNL A   1      40.580  28.156  29.131  1.00  0.00     0.037 A 
ATOM     28  C   UNL A   1      42.996  32.366  33.476  1.00  0.00     0.049 A 
ATOM     29  C   UNL A   1      41.831  28.175  29.958  1.00  0.00     0.074 A 
ATOM     30  C   UNL A   1      44.162  32.252  34.215  1.00  0.00     0.029 A 
ATOM     31  N   UNL A   1      42.918  31.233  32.680  1.00  0.00    -0.354 N 
ATOM     32  N   UNL A   1      42.232  29.067  30.831  1.00  0.00    -0.248 NA
ATOM     33  C   UNL A   1      42.752  27.042  29.787  1.00  0.00     0.031 C 
ATOM     34  C   UNL A   1      44.807  31.069  33.839  1.00  0.00     0.029 A 
ATOM     35  C   UNL A   1      44.022  30.424  32.897  1.00  0.00     0.049 A 
ATOM     36  H   UNL A   1      42.186  31.033  32.052  1.00  0.00     0.167 HD
ATOM     37  C   UNL A   1      43.439  28.596  31.328  1.00  0.00     0.074 A 
ATOM     38  C   UNL A   1      43.696  27.330  30.672  1.00  0.00     0.031 C 
ATOM     39  C   UNL A   1      44.261  29.164  32.243  1.00  0.00     0.037 A 
BRANCH  26  40
ATOM     40  C   UNL A   1      42.293  34.619  34.365  1.00  0.00     0.057 A 
ATOM     41  C   UNL A   1      41.925  34.648  35.716  1.00  0.00     0.134 A 
ATOM     42  C   UNL A   1      42.969  35.735  33.856  1.00  0.00     0.134 A 
ATOM     43  F   UNL A   1      41.265  33.615  36.263  1.00  0.00    -0.206 F 
ATOM     44  C   UNL A   1      42.203  35.752  36.525  1.00  0.00     0.040 A 
ATOM     45  C   UNL A   1      43.272  36.835  34.660  1.00  0.00     0.040 A 
ATOM     46  F   UNL A   1      43.356  35.770  32.572  1.00  0.00    -0.206 F 
ATOM     47  C   UNL A   1      42.885  36.848  35.998  1.00  0.00     0.006 A 
ENDBRANCH  26  40
BRANCH  27  48
ATOM     48  C   UNL A   1      40.279  27.017  28.230  1.00  0.00     0.057 A 
ATOM     49  C   UNL A   1      40.835  26.944  26.949  1.00  0.00     0.134 A 
ATOM     50  C   UNL A   1      39.438  25.972  28.631  1.00  0.00     0.134 A 
ATOM     51  F   UNL A   1      41.636  27.923  26.503  1.00  0.00    -0.206 F 
ATOM     52  C   UNL A   1      40.557  25.879  26.092  1.00  0.00     0.040 A 
ATOM     53  C   UNL A   1      39.170  24.889  27.795  1.00  0.00     0.040 A 
ATOM     54  F   UNL A   1      38.881  25.981  29.852  1.00  0.00    -0.206 F 
ATOM     55  C   UNL A   1      39.726  24.843  26.517  1.00  0.00     0.006 A 
ENDBRANCH  27  48
BRANCH  39  56
ATOM     56  C   UNL A   1      45.495  28.398  32.613  1.00  0.00     0.057 A 
ATOM     57  C   UNL A   1      45.499  27.457  33.651  1.00  0.00     0.134 A 
ATOM     58  C   UNL A   1      46.692  28.596  31.914  1.00  0.00     0.134 A 
ATOM     59  F   UNL A   1      44.388  27.233  34.368  1.00  0.00    -0.206 F 
ATOM     60  C   UNL A   1      46.657  26.758  33.996  1.00  0.00     0.040 A 
ATOM     61  C   UNL A   1      47.851  27.887  32.234  1.00  0.00     0.040 A 
ATOM     62  F   UNL A   1      46.754  29.479  30.905  1.00  0.00    -0.206 F 
ATOM     63  C   UNL A   1      47.836  26.970  33.284  1.00  0.00     0.006 A 
ENDBRANCH  39  56
ENDBRANCH  13  14
ENDBRANCH   6   8
ENDBRANCH   3   4
ENDBRANCH   2   3
ENDBRANCH   1   2
BRANCH   1  64
ATOM     64  C   UNL A   1      34.378  29.321  27.016  1.00  0.00     0.002 C 
BRANCH  64  65
ATOM     65  C   UNL A   1      33.164  28.478  27.424  1.00  0.00     0.021 C 
BRANCH  65  66
ATOM     66  C   UNL A   1      32.125  28.243  26.331  1.00  0.00     0.116 C 
BRANCH  66  67
ATOM     67  N   UNL A   1      31.311  27.070  26.583  1.00  0.00    -0.352 N 
ATOM     68  C   UNL A   1      30.940  26.060  25.740  1.00  0.00     0.259 C 
ATOM     69  H   UNL A   1      30.971  26.990  27.504  1.00  0.00     0.163 HD
ATOM     70  O   UNL A   1      30.205  25.168  26.141  1.00  0.00    -0.269 OA
BRANCH  68  71
ATOM     71  C   UNL A   1      31.407  26.063  24.345  1.00  0.00     0.130 A 
ATOM     72  C   UNL A   1      32.602  25.419  24.014  1.00  0.00     0.060 A 
ATOM     73  C   UNL A   1      30.729  26.743  23.330  1.00  0.00     0.282 A 
ATOM     74  C   UNL A   1      33.086  25.447  22.696  1.00  0.00     0.015 A 
ATOM     75  C   UNL A   1      31.172  26.723  21.997  1.00  0.00     0.086 A 
ATOM     76  C   UNL A   1      32.355  26.061  21.682  1.00  0.00     0.008 A 
BRANCH  72  77
ATOM     77  C   UNL A   1      33.484  24.882  25.061  1.00  0.00     0.259 C 
ATOM     78  O   UNL A   1      34.217  25.668  25.653  1.00  0.00    -0.269 OA
BRANCH  77  79
ATOM     79  N   UNL A   1      33.479  23.497  25.264  1.00  0.00    -0.308 N 
ATOM     80  C   UNL A   1      33.238  23.055  26.662  1.00  0.00     0.131 C 
ATOM     81  C   UNL A   1      34.678  22.851  24.858  1.00  0.00     0.047 A 
ATOM     82  C   UNL A   1      34.456  22.249  27.142  1.00  0.00     0.059 C 
ATOM     83  C   UNL A   1      35.346  22.308  25.949  1.00  0.00    -0.022 A 
ATOM     84  C   UNL A   1      35.284  22.946  23.616  1.00  0.00     0.026 A 
ATOM     85  C   UNL A   1      36.696  22.005  25.865  1.00  0.00     0.006 A 
ATOM     86  C   UNL A   1      36.637  22.631  23.515  1.00  0.00     0.002 A 
ATOM     87  C   UNL A   1      37.349  22.206  24.646  1.00  0.00     0.000 A 
ENDBRANCH  77  79
ENDBRANCH  72  77
BRANCH  73  88
ATOM     88  N   UNL A   1      29.566  27.552  23.630  1.00  0.00     0.063 N 
ATOM     89  O   UNL A   1      28.480  26.960  23.685  1.00  0.00    -0.258 OA
ATOM     90  O   UNL A   1      29.733  28.766  23.784  1.00  0.00    -0.258 OA
ENDBRANCH  73  88
ENDBRANCH  68  71
ENDBRANCH  66  67
ENDBRANCH  65  66
ENDBRANCH  64  65
ENDBRANCH   1  64
TORSDOF 16
ENDMDL
