MODEL 1
REMARK VINA RESULT:     -13.3      0.000      0.000
REMARK SMILES Cc1ccc(C)c(N2C(=O)S[C@H](CC(=O)Nc3ccc(C(=O)NCCCCCCNC(=O)c4ccc(-c5c6nc(c(-c7c(F)cccc7F)c7ccc([nH]7)c(-c7c(F)cccc7F)c7nc(c(-c8c(F)cccc8F)c8ccc5[nH]8)C=C7)C=C6)cc4)c(O)c3)C2=O)c1
REMARK SMILES IDX 25 1 24 2 23 3 21 4 22 5 20 7 17 8 18 9 89 10 19 11 87 12
REMARK SMILES IDX 16 13 14 14 15 15 13 17 12 18 8 19 9 20 90 21 10 22 11 23
REMARK SMILES IDX 91 24 7 25 1 26 2 27 3 28 92 29 4 30 5 31 6 32 88 33 26 35
REMARK SMILES IDX 27 36 28 37 29 38 30 39 31 40 32 42 33 43 34 44 86 45 35 46
REMARK SMILES IDX 85 47 36 48 37 49 38 50 79 51 39 52 84 53 78 54 80 55 40 56
REMARK SMILES IDX 83 57 77 58 76 59 41 61 67 62 50 63 66 64 51 65 54 66 65 67
REMARK SMILES IDX 81 68 52 69 53 70 64 72 82 73 55 74 42 75 43 76 48 77 44 78
REMARK SMILES IDX 45 79 47 80 49 81 46 82 68 83 69 84 74 85 70 86 71 87 73 88
REMARK SMILES IDX 75 89 72 90 56 91 57 92 62 93 58 94 59 95 61 96 63 97 60 98
REMARK H PARENT 23 6 16 16 88 34 30 41 80 60 54 71
REMARK Flexibility Score: inf
ROOT
ATOM      1  C   UNL A   1      34.216  32.315  28.274  1.00  0.00     0.021 C 
ENDROOT
BRANCH   1   2
ATOM      2  C   UNL A   1      33.852  31.262  27.240  1.00  0.00     0.116 C 
BRANCH   2   3
ATOM      3  N   UNL A   1      32.864  30.301  27.657  1.00  0.00    -0.352 N 
ATOM      4  C   UNL A   1      32.297  29.250  26.981  1.00  0.00     0.255 C 
ATOM      5  O   UNL A   1      31.579  28.495  27.638  1.00  0.00    -0.269 OA
ATOM      6  H   UNL A   1      32.541  30.417  28.580  1.00  0.00     0.163 HD
BRANCH   4   7
ATOM      7  C   UNL A   1      32.411  29.039  25.503  1.00  0.00     0.081 A 
ATOM      8  C   UNL A   1      32.654  28.047  22.871  1.00  0.00     0.044 A 
ATOM      9  C   UNL A   1      33.684  27.907  23.788  1.00  0.00     0.027 A 
ATOM     10  C   UNL A   1      31.618  28.912  23.185  1.00  0.00     0.073 A 
ATOM     11  C   UNL A   1      33.545  28.331  25.105  1.00  0.00     0.020 A 
ATOM     12  C   UNL A   1      31.539  29.448  24.483  1.00  0.00     0.130 A 
BRANCH   8  13
ATOM     13  N   UNL A   1      32.718  27.382  21.637  1.00  0.00    -0.326 N 
ATOM     14  C   UNL A   1      32.842  26.018  21.443  1.00  0.00     0.226 C 
ATOM     15  O   UNL A   1      33.278  25.578  20.381  1.00  0.00    -0.275 OA
ATOM     16  H   UNL A   1      32.670  27.941  20.829  1.00  0.00     0.169 HD
BRANCH  14  17
ATOM     17  C   UNL A   1      32.209  25.088  22.476  1.00  0.00     0.125 C 
BRANCH  17  18
ATOM     18  C   UNL A   1      33.076  24.707  23.675  1.00  0.00     0.156 C 
ATOM     19  N   UNL A   1      32.850  22.347  24.040  1.00  0.00    -0.240 N 
ATOM     20  C   UNL A   1      31.901  22.793  24.915  1.00  0.00     0.293 C 
ATOM     21  C   UNL A   1      33.638  23.311  23.431  1.00  0.00     0.248 C 
ATOM     22  O   UNL A   1      30.994  22.165  25.455  1.00  0.00    -0.261 OA
ATOM     23  S   UNL A   1      32.155  24.501  25.227  1.00  0.00    -0.050 SA
ATOM     24  O   UNL A   1      34.639  23.115  22.750  1.00  0.00    -0.273 OA
BRANCH  19  25
ATOM     25  C   UNL A   1      33.211  20.980  24.044  1.00  0.00     0.056 A 
ATOM     26  C   UNL A   1      32.153  17.703  22.377  1.00  0.00     0.044 C 
ATOM     27  C   UNL A   1      32.852  18.705  23.251  1.00  0.00    -0.049 A 
ATOM     28  C   UNL A   1      33.812  18.253  24.162  1.00  0.00     0.004 A 
ATOM     29  C   UNL A   1      32.563  20.078  23.185  1.00  0.00     0.030 A 
ATOM     30  C   UNL A   1      34.458  19.146  25.014  1.00  0.00     0.006 A 
ATOM     31  C   UNL A   1      34.159  20.515  24.979  1.00  0.00    -0.027 A 
ATOM     32  C   UNL A   1      34.875  21.408  25.954  1.00  0.00     0.046 C 
ENDBRANCH  19  25
ENDBRANCH  17  18
ENDBRANCH  14  17
ENDBRANCH   8  13
BRANCH  12  33
ATOM     33  O   UNL A   1      30.635  30.461  24.625  1.00  0.00    -0.507 OA
ATOM     34  H   UNL A   1      30.835  31.317  24.302  1.00  0.00     0.293 HD
ENDBRANCH  12  33
ENDBRANCH   4   7
ENDBRANCH   2   3
ENDBRANCH   1   2
BRANCH   1  35
ATOM     35  C   UNL A   1      33.975  33.788  27.926  1.00  0.00     0.002 C 
BRANCH  35  36
ATOM     36  C   UNL A   1      32.973  34.637  28.719  1.00  0.00     0.002 C 
BRANCH  36  37
ATOM     37  C   UNL A   1      33.050  36.168  28.751  1.00  0.00     0.021 C 
BRANCH  37  38
ATOM     38  C   UNL A   1      33.288  36.859  30.087  1.00  0.00     0.116 C 
BRANCH  38  39
ATOM     39  N   UNL A   1      32.458  36.362  31.191  1.00  0.00    -0.352 N 
ATOM     40  C   UNL A   1      32.645  35.363  32.135  1.00  0.00     0.251 C 
ATOM     41  H   UNL A   1      31.598  36.833  31.280  1.00  0.00     0.163 HD
ATOM     42  O   UNL A   1      31.685  34.953  32.781  1.00  0.00    -0.269 OA
BRANCH  40  43
ATOM     43  C   UNL A   1      33.983  34.793  32.400  1.00  0.00     0.039 A 
ATOM     44  C   UNL A   1      35.019  35.467  33.053  1.00  0.00     0.014 A 
ATOM     45  C   UNL A   1      34.293  33.601  31.788  1.00  0.00     0.014 A 
ATOM     46  C   UNL A   1      36.321  34.953  32.943  1.00  0.00     0.010 A 
ATOM     47  C   UNL A   1      35.407  32.909  32.119  1.00  0.00     0.010 A 
ATOM     48  C   UNL A   1      36.502  33.691  32.373  1.00  0.00    -0.014 A 
BRANCH  48  49
ATOM     49  C   UNL A   1      37.766  33.034  32.123  1.00  0.00     0.031 A 
ATOM     50  C   UNL A   1      38.589  32.849  33.329  1.00  0.00     0.074 A 
ATOM     51  C   UNL A   1      38.007  32.302  31.013  1.00  0.00     0.049 A 
ATOM     52  N   UNL A   1      39.614  33.541  33.690  1.00  0.00    -0.248 NA
ATOM     53  C   UNL A   1      38.106  31.907  34.353  1.00  0.00     0.031 C 
ATOM     54  C   UNL A   1      37.104  31.968  29.904  1.00  0.00     0.029 A 
ATOM     55  N   UNL A   1      39.135  31.608  30.700  1.00  0.00    -0.354 N 
ATOM     56  C   UNL A   1      40.035  32.963  34.879  1.00  0.00     0.074 A 
ATOM     57  C   UNL A   1      38.922  32.197  35.365  1.00  0.00     0.031 C 
ATOM     58  C   UNL A   1      37.666  31.004  29.137  1.00  0.00     0.029 A 
ATOM     59  C   UNL A   1      39.014  30.746  29.618  1.00  0.00     0.049 A 
ATOM     60  H   UNL A   1      39.975  31.711  31.202  1.00  0.00     0.167 HD
ATOM     61  C   UNL A   1      41.356  32.892  35.197  1.00  0.00     0.037 A 
ATOM     62  C   UNL A   1      39.954  29.866  29.192  1.00  0.00     0.037 A 
ATOM     63  C   UNL A   1      42.141  33.733  34.320  1.00  0.00     0.049 A 
ATOM     64  C   UNL A   1      41.252  30.277  29.792  1.00  0.00     0.074 A 
ATOM     65  C   UNL A   1      42.117  35.071  33.971  1.00  0.00     0.029 A 
ATOM     66  N   UNL A   1      42.883  33.112  33.343  1.00  0.00    -0.354 N 
ATOM     67  N   UNL A   1      41.901  31.359  29.469  1.00  0.00    -0.248 NA
ATOM     68  C   UNL A   1      41.625  29.690  31.071  1.00  0.00     0.031 C 
ATOM     69  C   UNL A   1      42.431  35.100  32.579  1.00  0.00     0.029 A 
ATOM     70  C   UNL A   1      42.680  33.789  32.169  1.00  0.00     0.049 A 
ATOM     71  H   UNL A   1      43.457  32.321  33.466  1.00  0.00     0.167 HD
ATOM     72  C   UNL A   1      42.437  31.823  30.661  1.00  0.00     0.074 A 
ATOM     73  C   UNL A   1      42.332  30.699  31.586  1.00  0.00     0.031 C 
ATOM     74  C   UNL A   1      42.642  33.158  30.868  1.00  0.00     0.037 A 
BRANCH  61  75
ATOM     75  C   UNL A   1      41.982  31.781  36.011  1.00  0.00     0.057 A 
ATOM     76  C   UNL A   1      42.824  32.134  37.081  1.00  0.00     0.134 A 
ATOM     77  C   UNL A   1      42.024  30.416  35.652  1.00  0.00     0.134 A 
ATOM     78  F   UNL A   1      42.879  33.400  37.524  1.00  0.00    -0.206 F 
ATOM     79  C   UNL A   1      43.705  31.226  37.678  1.00  0.00     0.040 A 
ATOM     80  C   UNL A   1      42.856  29.488  36.283  1.00  0.00     0.040 A 
ATOM     81  F   UNL A   1      41.347  29.910  34.617  1.00  0.00    -0.206 F 
ATOM     82  C   UNL A   1      43.729  29.900  37.273  1.00  0.00     0.006 A 
ENDBRANCH  61  75
BRANCH  62  83
ATOM     83  C   UNL A   1      39.796  28.564  28.504  1.00  0.00     0.057 A 
ATOM     84  C   UNL A   1      40.403  28.323  27.262  1.00  0.00     0.134 A 
ATOM     85  C   UNL A   1      39.285  27.437  29.169  1.00  0.00     0.134 A 
ATOM     86  F   UNL A   1      40.951  29.328  26.565  1.00  0.00    -0.206 F 
ATOM     87  C   UNL A   1      40.524  27.033  26.727  1.00  0.00     0.040 A 
ATOM     88  C   UNL A   1      39.394  26.143  28.642  1.00  0.00     0.040 A 
ATOM     89  F   UNL A   1      38.742  27.539  30.390  1.00  0.00    -0.206 F 
ATOM     90  C   UNL A   1      40.030  25.936  27.425  1.00  0.00     0.006 A 
ENDBRANCH  62  83
BRANCH  74  91
ATOM     91  C   UNL A   1      42.570  34.070  29.673  1.00  0.00     0.057 A 
ATOM     92  C   UNL A   1      41.421  34.776  29.287  1.00  0.00     0.134 A 
ATOM     93  C   UNL A   1      43.745  34.344  28.966  1.00  0.00     0.134 A 
ATOM     94  F   UNL A   1      40.272  34.657  29.964  1.00  0.00    -0.206 F 
ATOM     95  C   UNL A   1      41.431  35.676  28.217  1.00  0.00     0.040 A 
ATOM     96  C   UNL A   1      43.778  35.267  27.918  1.00  0.00     0.040 A 
ATOM     97  F   UNL A   1      44.898  33.748  29.312  1.00  0.00    -0.206 F 
ATOM     98  C   UNL A   1      42.615  35.928  27.533  1.00  0.00     0.006 A 
ENDBRANCH  74  91
ENDBRANCH  48  49
ENDBRANCH  40  43
ENDBRANCH  38  39
ENDBRANCH  37  38
ENDBRANCH  36  37
ENDBRANCH  35  36
ENDBRANCH   1  35
TORSDOF 18
ENDMDL
MODEL 2
REMARK VINA RESULT:     -12.6      1.487      2.240
REMARK SMILES Cc1ccc(C)c(N2C(=O)S[C@H](CC(=O)Nc3ccc(C(=O)NCCCCCCNC(=O)c4ccc(-c5c6nc(c(-c7c(F)cccc7F)c7ccc([nH]7)c(-c7c(F)cccc7F)c7nc(c(-c8c(F)cccc8F)c8ccc5[nH]8)C=C7)C=C6)cc4)c(O)c3)C2=O)c1
REMARK SMILES IDX 25 1 24 2 23 3 21 4 22 5 20 7 17 8 18 9 89 10 19 11 87 12
REMARK SMILES IDX 16 13 14 14 15 15 13 17 12 18 8 19 9 20 90 21 10 22 11 23
REMARK SMILES IDX 91 24 7 25 1 26 2 27 3 28 92 29 4 30 5 31 6 32 88 33 26 35
REMARK SMILES IDX 27 36 28 37 29 38 30 39 31 40 32 42 33 43 34 44 86 45 35 46
REMARK SMILES IDX 85 47 36 48 37 49 38 50 79 51 39 52 84 53 78 54 80 55 40 56
REMARK SMILES IDX 83 57 77 58 76 59 41 61 67 62 50 63 66 64 51 65 54 66 65 67
REMARK SMILES IDX 81 68 52 69 53 70 64 72 82 73 55 74 42 75 43 76 48 77 44 78
REMARK SMILES IDX 45 79 47 80 49 81 46 82 68 83 69 84 74 85 70 86 71 87 73 88
REMARK SMILES IDX 75 89 72 90 56 91 57 92 62 93 58 94 59 95 61 96 63 97 60 98
REMARK H PARENT 23 6 16 16 88 34 30 41 80 60 54 71
REMARK Flexibility Score: inf
ROOT
ATOM      1  C   UNL A   1      32.653  32.734  27.476  1.00  0.00     0.021 C 
ENDROOT
BRANCH   1   2
ATOM      2  C   UNL A   1      32.692  31.272  27.065  1.00  0.00     0.116 C 
BRANCH   2   3
ATOM      3  N   UNL A   1      33.828  30.525  27.541  1.00  0.00    -0.352 N 
ATOM      4  C   UNL A   1      34.348  29.325  27.125  1.00  0.00     0.255 C 
ATOM      5  O   UNL A   1      35.424  28.989  27.620  1.00  0.00    -0.269 OA
ATOM      6  H   UNL A   1      34.311  30.944  28.289  1.00  0.00     0.163 HD
BRANCH   4   7
ATOM      7  C   UNL A   1      33.642  28.373  26.210  1.00  0.00     0.081 A 
ATOM      8  C   UNL A   1      31.807  26.778  24.776  1.00  0.00     0.044 A 
ATOM      9  C   UNL A   1      32.014  26.589  26.133  1.00  0.00     0.027 A 
ATOM     10  C   UNL A   1      32.705  27.576  24.087  1.00  0.00     0.073 A 
ATOM     11  C   UNL A   1      32.863  27.415  26.860  1.00  0.00     0.020 A 
ATOM     12  C   UNL A   1      33.654  28.322  24.808  1.00  0.00     0.130 A 
BRANCH   8  13
ATOM     13  N   UNL A   1      30.757  26.109  24.127  1.00  0.00    -0.326 N 
ATOM     14  C   UNL A   1      30.613  24.740  23.991  1.00  0.00     0.226 C 
ATOM     15  O   UNL A   1      29.906  24.275  23.098  1.00  0.00    -0.275 OA
ATOM     16  H   UNL A   1      30.053  26.670  23.729  1.00  0.00     0.169 HD
BRANCH  14  17
ATOM     17  C   UNL A   1      31.155  23.849  25.107  1.00  0.00     0.125 C 
BRANCH  17  18
ATOM     18  C   UNL A   1      31.700  22.485  24.689  1.00  0.00     0.156 C 
ATOM     19  N   UNL A   1      34.084  22.665  24.486  1.00  0.00    -0.240 N 
ATOM     20  C   UNL A   1      33.737  22.884  23.183  1.00  0.00     0.293 C 
ATOM     21  C   UNL A   1      33.063  22.296  25.347  1.00  0.00     0.248 C 
ATOM     22  O   UNL A   1      34.415  23.359  22.274  1.00  0.00    -0.261 OA
ATOM     23  S   UNL A   1      32.089  22.346  22.920  1.00  0.00    -0.050 SA
ATOM     24  O   UNL A   1      33.186  21.899  26.501  1.00  0.00    -0.273 OA
BRANCH  19  25
ATOM     25  C   UNL A   1      35.446  22.491  24.822  1.00  0.00     0.056 A 
ATOM     26  C   UNL A   1      38.068  19.708  24.927  1.00  0.00     0.044 C 
ATOM     27  C   UNL A   1      37.386  21.039  25.063  1.00  0.00    -0.049 A 
ATOM     28  C   UNL A   1      38.092  22.104  25.633  1.00  0.00     0.004 A 
ATOM     29  C   UNL A   1      36.061  21.242  24.644  1.00  0.00     0.030 A 
ATOM     30  C   UNL A   1      37.485  23.346  25.807  1.00  0.00     0.006 A 
ATOM     31  C   UNL A   1      36.154  23.554  25.421  1.00  0.00    -0.027 A 
ATOM     32  C   UNL A   1      35.561  24.912  25.675  1.00  0.00     0.046 C 
ENDBRANCH  19  25
ENDBRANCH  17  18
ENDBRANCH  14  17
ENDBRANCH   8  13
BRANCH  12  33
ATOM     33  O   UNL A   1      34.635  28.884  24.043  1.00  0.00    -0.507 OA
ATOM     34  H   UNL A   1      34.764  29.812  24.053  1.00  0.00     0.293 HD
ENDBRANCH  12  33
ENDBRANCH   4   7
ENDBRANCH   2   3
ENDBRANCH   1   2
BRANCH   1  35
ATOM     35  C   UNL A   1      33.808  33.281  28.323  1.00  0.00     0.002 C 
BRANCH  35  36
ATOM     36  C   UNL A   1      34.131  34.781  28.351  1.00  0.00     0.002 C 
BRANCH  36  37
ATOM     37  C   UNL A   1      33.078  35.834  28.713  1.00  0.00     0.021 C 
BRANCH  37  38
ATOM     38  C   UNL A   1      33.272  36.654  29.981  1.00  0.00     0.116 C 
BRANCH  38  39
ATOM     39  N   UNL A   1      32.476  36.206  31.130  1.00  0.00    -0.352 N 
ATOM     40  C   UNL A   1      32.695  35.256  32.116  1.00  0.00     0.251 C 
ATOM     41  H   UNL A   1      31.614  36.675  31.219  1.00  0.00     0.163 HD
ATOM     42  O   UNL A   1      31.756  34.871  32.806  1.00  0.00    -0.269 OA
BRANCH  40  43
ATOM     43  C   UNL A   1      34.045  34.709  32.373  1.00  0.00     0.039 A 
ATOM     44  C   UNL A   1      35.089  35.419  32.972  1.00  0.00     0.014 A 
ATOM     45  C   UNL A   1      34.351  33.495  31.805  1.00  0.00     0.014 A 
ATOM     46  C   UNL A   1      36.393  34.912  32.853  1.00  0.00     0.010 A 
ATOM     47  C   UNL A   1      35.479  32.827  32.139  1.00  0.00     0.010 A 
ATOM     48  C   UNL A   1      36.572  33.628  32.333  1.00  0.00    -0.014 A 
BRANCH  48  49
ATOM     49  C   UNL A   1      37.836  32.971  32.081  1.00  0.00     0.031 A 
ATOM     50  C   UNL A   1      38.647  32.757  33.291  1.00  0.00     0.074 A 
ATOM     51  C   UNL A   1      38.086  32.262  30.959  1.00  0.00     0.049 A 
ATOM     52  N   UNL A   1      39.671  33.437  33.676  1.00  0.00    -0.248 NA
ATOM     53  C   UNL A   1      38.150  31.796  34.290  1.00  0.00     0.031 C 
ATOM     54  C   UNL A   1      37.192  31.956  29.834  1.00  0.00     0.029 A 
ATOM     55  N   UNL A   1      39.214  31.571  30.641  1.00  0.00    -0.354 N 
ATOM     56  C   UNL A   1      40.078  32.832  34.857  1.00  0.00     0.074 A 
ATOM     57  C   UNL A   1      38.957  32.061  35.316  1.00  0.00     0.031 C 
ATOM     58  C   UNL A   1      37.758  31.006  29.052  1.00  0.00     0.029 A 
ATOM     59  C   UNL A   1      39.100  30.733  29.540  1.00  0.00     0.049 A 
ATOM     60  H   UNL A   1      40.049  31.659  31.154  1.00  0.00     0.167 HD
ATOM     61  C   UNL A   1      41.395  32.749  35.186  1.00  0.00     0.037 A 
ATOM     62  C   UNL A   1      40.041  29.857  29.104  1.00  0.00     0.037 A 
ATOM     63  C   UNL A   1      42.192  33.606  34.335  1.00  0.00     0.049 A 
ATOM     64  C   UNL A   1      41.334  30.250  29.726  1.00  0.00     0.074 A 
ATOM     65  C   UNL A   1      42.177  34.951  34.015  1.00  0.00     0.029 A 
ATOM     66  N   UNL A   1      42.941  33.002  33.353  1.00  0.00    -0.354 N 
ATOM     67  N   UNL A   1      41.990  31.337  29.433  1.00  0.00    -0.248 NA
ATOM     68  C   UNL A   1      41.693  29.635  30.996  1.00  0.00     0.031 C 
ATOM     69  C   UNL A   1      42.505  35.008  32.627  1.00  0.00     0.029 A 
ATOM     70  C   UNL A   1      42.752  33.705  32.191  1.00  0.00     0.049 A 
ATOM     71  H   UNL A   1      43.511  32.207  33.464  1.00  0.00     0.167 HD
ATOM     72  C   UNL A   1      42.516  31.773  30.639  1.00  0.00     0.074 A 
ATOM     73  C   UNL A   1      42.398  30.630  31.539  1.00  0.00     0.031 C 
ATOM     74  C   UNL A   1      42.725  33.103  30.877  1.00  0.00     0.037 A 
BRANCH  61  75
ATOM     75  C   UNL A   1      42.009  31.619  35.982  1.00  0.00     0.057 A 
ATOM     76  C   UNL A   1      42.871  31.945  37.045  1.00  0.00     0.134 A 
ATOM     77  C   UNL A   1      42.020  30.257  35.611  1.00  0.00     0.134 A 
ATOM     78  F   UNL A   1      42.955  33.205  37.500  1.00  0.00    -0.206 F 
ATOM     79  C   UNL A   1      43.741  31.014  37.623  1.00  0.00     0.040 A 
ATOM     80  C   UNL A   1      42.842  29.307  36.223  1.00  0.00     0.040 A 
ATOM     81  F   UNL A   1      41.321  29.774  34.579  1.00  0.00    -0.206 F 
ATOM     82  C   UNL A   1      43.734  29.691  37.206  1.00  0.00     0.006 A 
ENDBRANCH  61  75
BRANCH  62  83
ATOM     83  C   UNL A   1      39.884  28.571  28.387  1.00  0.00     0.057 A 
ATOM     84  C   UNL A   1      40.538  28.338  27.168  1.00  0.00     0.134 A 
ATOM     85  C   UNL A   1      39.322  27.445  29.010  1.00  0.00     0.134 A 
ATOM     86  F   UNL A   1      41.137  29.343  26.512  1.00  0.00    -0.206 F 
ATOM     87  C   UNL A   1      40.655  27.056  26.616  1.00  0.00     0.040 A 
ATOM     88  C   UNL A   1      39.425  26.158  28.465  1.00  0.00     0.040 A 
ATOM     89  F   UNL A   1      38.730  27.538  30.209  1.00  0.00    -0.206 F 
ATOM     90  C   UNL A   1      40.108  25.958  27.273  1.00  0.00     0.006 A 
ENDBRANCH  62  83
BRANCH  74  91
ATOM     91  C   UNL A   1      42.668  34.040  29.701  1.00  0.00     0.057 A 
ATOM     92  C   UNL A   1      43.716  34.224  28.786  1.00  0.00     0.134 A 
ATOM     93  C   UNL A   1      41.458  34.679  29.411  1.00  0.00     0.134 A 
ATOM     94  F   UNL A   1      44.880  33.577  28.924  1.00  0.00    -0.206 F 
ATOM     95  C   UNL A   1      43.580  35.044  27.663  1.00  0.00     0.040 A 
ATOM     96  C   UNL A   1      41.297  35.472  28.272  1.00  0.00     0.040 A 
ATOM     97  F   UNL A   1      40.392  34.506  30.209  1.00  0.00    -0.206 F 
ATOM     98  C   UNL A   1      42.364  35.666  27.400  1.00  0.00     0.006 A 
ENDBRANCH  74  91
ENDBRANCH  48  49
ENDBRANCH  40  43
ENDBRANCH  38  39
ENDBRANCH  37  38
ENDBRANCH  36  37
ENDBRANCH  35  36
ENDBRANCH   1  35
TORSDOF 18
ENDMDL
MODEL 3
REMARK VINA RESULT:     -12.1      4.280     10.061
REMARK SMILES Cc1ccc(C)c(N2C(=O)S[C@H](CC(=O)Nc3ccc(C(=O)NCCCCCCNC(=O)c4ccc(-c5c6nc(c(-c7c(F)cccc7F)c7ccc([nH]7)c(-c7c(F)cccc7F)c7nc(c(-c8c(F)cccc8F)c8ccc5[nH]8)C=C7)C=C6)cc4)c(O)c3)C2=O)c1
REMARK SMILES IDX 25 1 24 2 23 3 21 4 22 5 20 7 17 8 18 9 89 10 19 11 87 12
REMARK SMILES IDX 16 13 14 14 15 15 13 17 12 18 8 19 9 20 90 21 10 22 11 23
REMARK SMILES IDX 91 24 7 25 1 26 2 27 3 28 92 29 4 30 5 31 6 32 88 33 26 35
REMARK SMILES IDX 27 36 28 37 29 38 30 39 31 40 32 42 33 43 34 44 86 45 35 46
REMARK SMILES IDX 85 47 36 48 37 49 38 50 79 51 39 52 84 53 78 54 80 55 40 56
REMARK SMILES IDX 83 57 77 58 76 59 41 61 67 62 50 63 66 64 51 65 54 66 65 67
REMARK SMILES IDX 81 68 52 69 53 70 64 72 82 73 55 74 42 75 43 76 48 77 44 78
REMARK SMILES IDX 45 79 47 80 49 81 46 82 68 83 69 84 74 85 70 86 71 87 73 88
REMARK SMILES IDX 75 89 72 90 56 91 57 92 62 93 58 94 59 95 61 96 63 97 60 98
REMARK H PARENT 23 6 16 16 88 34 30 41 80 60 54 71
REMARK Flexibility Score: inf
ROOT
ATOM      1  C   UNL A   1      38.870  22.853  26.778  1.00  0.00     0.021 C 
ENDROOT
BRANCH   1   2
ATOM      2  C   UNL A   1      37.812  22.927  25.689  1.00  0.00     0.116 C 
BRANCH   2   3
ATOM      3  N   UNL A   1      37.066  21.715  25.467  1.00  0.00    -0.352 N 
ATOM      4  C   UNL A   1      35.750  21.524  25.130  1.00  0.00     0.255 C 
ATOM      5  O   UNL A   1      35.412  20.371  24.858  1.00  0.00    -0.269 OA
ATOM      6  H   UNL A   1      37.586  20.887  25.576  1.00  0.00     0.163 HD
BRANCH   4   7
ATOM      7  C   UNL A   1      34.703  22.594  25.181  1.00  0.00     0.081 A 
ATOM      8  C   UNL A   1      32.958  24.712  25.842  1.00  0.00     0.044 A 
ATOM      9  C   UNL A   1      32.919  23.510  26.529  1.00  0.00     0.027 A 
ATOM     10  C   UNL A   1      33.678  24.760  24.659  1.00  0.00     0.073 A 
ATOM     11  C   UNL A   1      33.820  22.487  26.256  1.00  0.00     0.020 A 
ATOM     12  C   UNL A   1      34.499  23.673  24.310  1.00  0.00     0.130 A 
BRANCH   8  13
ATOM     13  N   UNL A   1      32.221  25.811  26.308  1.00  0.00    -0.326 N 
ATOM     14  C   UNL A   1      32.723  27.053  26.651  1.00  0.00     0.226 C 
ATOM     15  O   UNL A   1      32.090  27.796  27.400  1.00  0.00    -0.275 OA
ATOM     16  H   UNL A   1      31.249  25.686  26.401  1.00  0.00     0.169 HD
BRANCH  14  17
ATOM     17  C   UNL A   1      33.949  27.562  25.895  1.00  0.00     0.125 C 
BRANCH  17  18
ATOM     18  C   UNL A   1      33.712  28.680  24.882  1.00  0.00     0.156 C 
ATOM     19  N   UNL A   1      31.614  28.268  23.794  1.00  0.00    -0.240 N 
ATOM     20  C   UNL A   1      32.448  27.674  22.889  1.00  0.00     0.293 C 
ATOM     21  C   UNL A   1      32.215  28.965  24.829  1.00  0.00     0.248 C 
ATOM     22  O   UNL A   1      32.172  26.888  21.987  1.00  0.00    -0.261 OA
ATOM     23  S   UNL A   1      34.091  28.224  23.164  1.00  0.00    -0.050 SA
ATOM     24  O   UNL A   1      31.657  29.695  25.641  1.00  0.00    -0.273 OA
BRANCH  19  25
ATOM     25  C   UNL A   1      30.247  28.436  23.472  1.00  0.00     0.056 A 
ATOM     26  C   UNL A   1      27.883  31.179  22.238  1.00  0.00     0.044 C 
ATOM     27  C   UNL A   1      28.419  29.867  22.737  1.00  0.00    -0.049 A 
ATOM     28  C   UNL A   1      27.523  28.822  22.984  1.00  0.00     0.004 A 
ATOM     29  C   UNL A   1      29.789  29.665  22.970  1.00  0.00     0.030 A 
ATOM     30  C   UNL A   1      27.976  27.601  23.479  1.00  0.00     0.006 A 
ATOM     31  C   UNL A   1      29.336  27.395  23.744  1.00  0.00    -0.027 A 
ATOM     32  C   UNL A   1      29.740  26.061  24.310  1.00  0.00     0.046 C 
ENDBRANCH  19  25
ENDBRANCH  17  18
ENDBRANCH  14  17
ENDBRANCH   8  13
BRANCH  12  33
ATOM     33  O   UNL A   1      34.977  23.710  23.031  1.00  0.00    -0.507 OA
ATOM     34  H   UNL A   1      34.596  24.294  22.405  1.00  0.00     0.293 HD
ENDBRANCH  12  33
ENDBRANCH   4   7
ENDBRANCH   2   3
ENDBRANCH   1   2
BRANCH   1  35
ATOM     35  C   UNL A   1      40.304  22.495  26.373  1.00  0.00     0.002 C 
BRANCH  35  36
ATOM     36  C   UNL A   1      41.032  21.300  27.003  1.00  0.00     0.002 C 
BRANCH  36  37
ATOM     37  C   UNL A   1      41.410  20.056  26.191  1.00  0.00     0.021 C 
BRANCH  37  38
ATOM     38  C   UNL A   1      42.837  19.533  26.278  1.00  0.00     0.116 C 
BRANCH  38  39
ATOM     39  N   UNL A   1      43.623  19.688  25.048  1.00  0.00    -0.352 N 
ATOM     40  C   UNL A   1      44.214  20.785  24.438  1.00  0.00     0.251 C 
ATOM     41  H   UNL A   1      43.758  18.844  24.558  1.00  0.00     0.163 HD
ATOM     42  O   UNL A   1      44.582  20.703  23.270  1.00  0.00    -0.269 OA
BRANCH  40  43
ATOM     43  C   UNL A   1      44.436  22.049  25.173  1.00  0.00     0.039 A 
ATOM     44  C   UNL A   1      45.257  22.182  26.296  1.00  0.00     0.014 A 
ATOM     45  C   UNL A   1      43.627  23.113  24.853  1.00  0.00     0.014 A 
ATOM     46  C   UNL A   1      45.120  23.333  27.089  1.00  0.00     0.010 A 
ATOM     47  C   UNL A   1      43.878  24.355  25.327  1.00  0.00     0.010 A 
ATOM     48  C   UNL A   1      44.332  24.385  26.619  1.00  0.00    -0.014 A 
BRANCH  48  49
ATOM     49  C   UNL A   1      44.028  25.612  27.322  1.00  0.00     0.031 A 
ATOM     50  C   UNL A   1      44.919  26.732  26.977  1.00  0.00     0.074 A 
ATOM     51  C   UNL A   1      42.834  25.846  27.909  1.00  0.00     0.049 A 
ATOM     52  N   UNL A   1      45.903  27.189  27.671  1.00  0.00    -0.248 NA
ATOM     53  C   UNL A   1      44.830  27.287  25.616  1.00  0.00     0.031 C 
ATOM     54  C   UNL A   1      41.627  25.010  27.930  1.00  0.00     0.029 A 
ATOM     55  N   UNL A   1      42.427  26.974  28.553  1.00  0.00    -0.354 N 
ATOM     56  C   UNL A   1      46.407  28.244  26.923  1.00  0.00     0.074 A 
ATOM     57  C   UNL A   1      45.920  28.053  25.586  1.00  0.00     0.031 C 
ATOM     58  C   UNL A   1      40.584  25.732  28.403  1.00  0.00     0.029 A 
ATOM     59  C   UNL A   1      41.070  27.031  28.840  1.00  0.00     0.049 A 
ATOM     60  H   UNL A   1      43.050  27.696  28.798  1.00  0.00     0.167 HD
ATOM     61  C   UNL A   1      46.908  29.357  27.525  1.00  0.00     0.037 A 
ATOM     62  C   UNL A   1      40.410  28.095  29.362  1.00  0.00     0.037 A 
ATOM     63  C   UNL A   1      47.102  29.131  28.941  1.00  0.00     0.049 A 
ATOM     64  C   UNL A   1      41.429  29.000  29.958  1.00  0.00     0.074 A 
ATOM     65  C   UNL A   1      47.792  28.200  29.695  1.00  0.00     0.029 A 
ATOM     66  N   UNL A   1      46.202  29.709  29.804  1.00  0.00    -0.354 N 
ATOM     67  N   UNL A   1      42.130  28.719  31.021  1.00  0.00    -0.248 NA
ATOM     68  C   UNL A   1      41.976  30.056  29.118  1.00  0.00     0.031 C 
ATOM     69  C   UNL A   1      46.956  27.939  30.822  1.00  0.00     0.029 A 
ATOM     70  C   UNL A   1      45.832  28.760  30.721  1.00  0.00     0.049 A 
ATOM     71  H   UNL A   1      45.881  30.639  29.769  1.00  0.00     0.167 HD
ATOM     72  C   UNL A   1      43.390  29.239  30.765  1.00  0.00     0.074 A 
ATOM     73  C   UNL A   1      43.203  30.145  29.636  1.00  0.00     0.031 C 
ATOM     74  C   UNL A   1      44.510  28.666  31.298  1.00  0.00     0.037 A 
BRANCH  61  75
ATOM     75  C   UNL A   1      46.842  30.750  26.939  1.00  0.00     0.057 A 
ATOM     76  C   UNL A   1      48.015  31.526  26.934  1.00  0.00     0.134 A 
ATOM     77  C   UNL A   1      45.662  31.462  26.632  1.00  0.00     0.134 A 
ATOM     78  F   UNL A   1      49.206  30.971  27.207  1.00  0.00    -0.206 F 
ATOM     79  C   UNL A   1      48.002  32.910  26.736  1.00  0.00     0.040 A 
ATOM     80  C   UNL A   1      45.647  32.835  26.373  1.00  0.00     0.040 A 
ATOM     81  F   UNL A   1      44.445  30.910  26.658  1.00  0.00    -0.206 F 
ATOM     82  C   UNL A   1      46.814  33.571  26.463  1.00  0.00     0.006 A 
ENDBRANCH  61  75
BRANCH  62  83
ATOM     83  C   UNL A   1      39.002  28.520  29.189  1.00  0.00     0.057 A 
ATOM     84  C   UNL A   1      38.116  28.551  30.276  1.00  0.00     0.134 A 
ATOM     85  C   UNL A   1      38.567  29.169  28.021  1.00  0.00     0.134 A 
ATOM     86  F   UNL A   1      38.453  27.989  31.446  1.00  0.00    -0.206 F 
ATOM     87  C   UNL A   1      36.884  29.216  30.218  1.00  0.00     0.040 A 
ATOM     88  C   UNL A   1      37.336  29.832  27.947  1.00  0.00     0.040 A 
ATOM     89  F   UNL A   1      39.358  29.258  26.943  1.00  0.00    -0.206 F 
ATOM     90  C   UNL A   1      36.497  29.871  29.053  1.00  0.00     0.006 A 
ENDBRANCH  62  83
BRANCH  74  91
ATOM     91  C   UNL A   1      44.322  27.665  32.406  1.00  0.00     0.057 A 
ATOM     92  C   UNL A   1      44.185  26.283  32.207  1.00  0.00     0.134 A 
ATOM     93  C   UNL A   1      44.416  28.105  33.731  1.00  0.00     0.134 A 
ATOM     94  F   UNL A   1      44.184  25.755  30.976  1.00  0.00    -0.206 F 
ATOM     95  C   UNL A   1      44.098  25.387  33.277  1.00  0.00     0.040 A 
ATOM     96  C   UNL A   1      44.367  27.217  34.808  1.00  0.00     0.040 A 
ATOM     97  F   UNL A   1      44.603  29.407  34.000  1.00  0.00    -0.206 F 
ATOM     98  C   UNL A   1      44.194  25.854  34.583  1.00  0.00     0.006 A 
ENDBRANCH  74  91
ENDBRANCH  48  49
ENDBRANCH  40  43
ENDBRANCH  38  39
ENDBRANCH  37  38
ENDBRANCH  36  37
ENDBRANCH  35  36
ENDBRANCH   1  35
TORSDOF 18
ENDMDL
