MODEL 1
REMARK VINA RESULT:     -11.2      0.000      0.000
REMARK SMILES O=C(NCCCCCCNC(=O)c1sccc1NC(=O)c1ccc(Br)nc1)c1ccc(-c2c3nc(c(-c4c(F)cccc4F)c4ccc([nH]4)c(-c4c(F)cccc4F)c4nc(c(-c5c(F)cccc5F)c5ccc2[nH]5)C=C4)C=C3)cc1
REMARK SMILES IDX 6 1 5 2 4 3 3 4 1 5 2 6 28 8 29 9 81 10 30 11 80 12 31 13
REMARK SMILES IDX 32 14 33 15 74 16 34 17 79 18 73 19 75 20 35 21 78 22 72 23
REMARK SMILES IDX 71 24 36 26 62 27 45 28 61 29 46 30 49 31 60 32 76 33 47 34
REMARK SMILES IDX 48 35 59 37 77 38 50 39 37 40 38 41 43 42 39 43 40 44 42 45
REMARK SMILES IDX 44 46 41 47 63 48 64 49 69 50 65 51 66 52 68 53 70 54 67 55
REMARK SMILES IDX 51 56 52 57 57 58 53 59 54 60 56 61 58 62 55 63 7 64 8 65
REMARK SMILES IDX 9 66 10 67 11 68 12 70 13 71 14 72 17 73 15 74 16 75 18 76
REMARK SMILES IDX 19 77 20 79 21 80 22 81 27 82 23 83 26 84 24 85 25 86
REMARK H PARENT 3 7 75 25 49 36 10 69 18 78
REMARK Flexibility Score: inf
ROOT
ATOM      1  C   UNL A   1      31.595  30.637  26.322  1.00  0.00     0.002 C 
ENDROOT
BRANCH   1   2
ATOM      2  C   UNL A   1      31.428  32.108  26.702  1.00  0.00     0.021 C 
BRANCH   2   3
ATOM      3  C   UNL A   1      32.719  32.846  27.033  1.00  0.00     0.116 C 
BRANCH   3   4
ATOM      4  N   UNL A   1      32.489  34.137  27.656  1.00  0.00    -0.352 N 
ATOM      5  O   UNL A   1      32.727  35.762  29.206  1.00  0.00    -0.269 OA
ATOM      6  C   UNL A   1      33.139  34.712  28.722  1.00  0.00     0.251 C 
ATOM      7  H   UNL A   1      31.768  34.678  27.260  1.00  0.00     0.163 HD
BRANCH   6   8
ATOM      8  C   UNL A   1      34.325  34.047  29.307  1.00  0.00     0.039 A 
ATOM      9  C   UNL A   1      35.615  34.406  28.910  1.00  0.00     0.014 A 
ATOM     10  C   UNL A   1      34.140  33.055  30.275  1.00  0.00     0.014 A 
ATOM     11  C   UNL A   1      36.709  33.688  29.381  1.00  0.00     0.010 A 
ATOM     12  C   UNL A   1      35.246  32.387  30.807  1.00  0.00     0.010 A 
ATOM     13  C   UNL A   1      36.539  32.681  30.345  1.00  0.00    -0.014 A 
BRANCH  13  14
ATOM     14  C   UNL A   1      37.734  31.998  30.902  1.00  0.00     0.031 A 
ATOM     15  C   UNL A   1      38.256  32.332  32.271  1.00  0.00     0.074 A 
ATOM     16  C   UNL A   1      38.331  31.044  30.164  1.00  0.00     0.049 A 
ATOM     17  N   UNL A   1      39.276  31.815  32.911  1.00  0.00    -0.248 NA
ATOM     18  C   UNL A   1      37.550  33.383  33.019  1.00  0.00     0.031 C 
ATOM     19  C   UNL A   1      37.921  30.643  28.816  1.00  0.00     0.029 A 
ATOM     20  N   UNL A   1      39.397  30.227  30.443  1.00  0.00    -0.354 N 
ATOM     21  C   UNL A   1      39.341  32.481  34.127  1.00  0.00     0.074 A 
ATOM     22  C   UNL A   1      38.275  33.461  34.127  1.00  0.00     0.031 C 
ATOM     23  C   UNL A   1      38.697  29.630  28.403  1.00  0.00     0.029 A 
ATOM     24  C   UNL A   1      39.692  29.349  29.431  1.00  0.00     0.049 A 
ATOM     25  H   UNL A   1      39.901  30.268  31.288  1.00  0.00     0.167 HD
ATOM     26  C   UNL A   1      40.206  32.287  35.152  1.00  0.00     0.037 A 
ATOM     27  C   UNL A   1      40.666  28.426  29.332  1.00  0.00     0.037 A 
ATOM     28  C   UNL A   1      41.262  31.307  35.151  1.00  0.00     0.049 A 
ATOM     29  C   UNL A   1      41.626  28.251  30.471  1.00  0.00     0.074 A 
ATOM     30  C   UNL A   1      42.176  31.021  36.150  1.00  0.00     0.029 A 
ATOM     31  N   UNL A   1      41.547  30.453  34.095  1.00  0.00    -0.354 N 
ATOM     32  N   UNL A   1      41.656  28.871  31.625  1.00  0.00    -0.248 NA
ATOM     33  C   UNL A   1      42.687  27.253  30.293  1.00  0.00     0.031 C 
ATOM     34  C   UNL A   1      43.037  30.019  35.687  1.00  0.00     0.029 A 
ATOM     35  C   UNL A   1      42.632  29.652  34.413  1.00  0.00     0.049 A 
ATOM     36  H   UNL A   1      41.051  30.420  33.246  1.00  0.00     0.167 HD
ATOM     37  C   UNL A   1      42.731  28.329  32.317  1.00  0.00     0.074 A 
ATOM     38  C   UNL A   1      43.310  27.315  31.461  1.00  0.00     0.031 C 
ATOM     39  C   UNL A   1      43.196  28.647  33.549  1.00  0.00     0.037 A 
BRANCH  26  40
ATOM     40  C   UNL A   1      40.055  33.160  36.364  1.00  0.00     0.057 A 
ATOM     41  C   UNL A   1      39.187  32.822  37.411  1.00  0.00     0.134 A 
ATOM     42  C   UNL A   1      40.822  34.322  36.511  1.00  0.00     0.134 A 
ATOM     43  F   UNL A   1      38.415  31.727  37.329  1.00  0.00    -0.206 F 
ATOM     44  C   UNL A   1      39.074  33.620  38.552  1.00  0.00     0.040 A 
ATOM     45  C   UNL A   1      40.735  35.116  37.657  1.00  0.00     0.040 A 
ATOM     46  F   UNL A   1      41.679  34.698  35.549  1.00  0.00    -0.206 F 
ATOM     47  C   UNL A   1      39.855  34.767  38.680  1.00  0.00     0.006 A 
ENDBRANCH  26  40
BRANCH  27  48
ATOM     48  C   UNL A   1      40.781  27.604  28.103  1.00  0.00     0.057 A 
ATOM     49  C   UNL A   1      41.528  28.045  27.004  1.00  0.00     0.134 A 
ATOM     50  C   UNL A   1      40.156  26.355  28.002  1.00  0.00     0.134 A 
ATOM     51  F   UNL A   1      42.135  29.239  27.037  1.00  0.00    -0.206 F 
ATOM     52  C   UNL A   1      41.636  27.279  25.842  1.00  0.00     0.040 A 
ATOM     53  C   UNL A   1      40.278  25.568  26.857  1.00  0.00     0.040 A 
ATOM     54  F   UNL A   1      39.433  25.874  29.024  1.00  0.00    -0.206 F 
ATOM     55  C   UNL A   1      41.015  26.033  25.770  1.00  0.00     0.006 A 
ENDBRANCH  27  48
BRANCH  39  56
ATOM     56  C   UNL A   1      44.377  27.869  34.047  1.00  0.00     0.057 A 
ATOM     57  C   UNL A   1      45.690  28.320  33.857  1.00  0.00     0.134 A 
ATOM     58  C   UNL A   1      44.199  26.664  34.737  1.00  0.00     0.134 A 
ATOM     59  F   UNL A   1      45.927  29.459  33.189  1.00  0.00    -0.206 F 
ATOM     60  C   UNL A   1      46.785  27.587  34.315  1.00  0.00     0.040 A 
ATOM     61  C   UNL A   1      45.285  25.934  35.221  1.00  0.00     0.040 A 
ATOM     62  F   UNL A   1      42.966  26.180  34.956  1.00  0.00    -0.206 F 
ATOM     63  C   UNL A   1      46.583  26.392  35.003  1.00  0.00     0.006 A 
ENDBRANCH  39  56
ENDBRANCH  13  14
ENDBRANCH   6   8
ENDBRANCH   3   4
ENDBRANCH   2   3
ENDBRANCH   1   2
BRANCH   1  64
ATOM     64  C   UNL A   1      32.483  29.805  27.252  1.00  0.00     0.002 C 
BRANCH  64  65
ATOM     65  C   UNL A   1      32.117  28.323  27.388  1.00  0.00     0.021 C 
BRANCH  65  66
ATOM     66  C   UNL A   1      32.167  27.506  26.098  1.00  0.00     0.116 C 
BRANCH  66  67
ATOM     67  N   UNL A   1      33.445  26.843  25.923  1.00  0.00    -0.351 N 
ATOM     68  C   UNL A   1      33.728  25.517  25.702  1.00  0.00     0.263 C 
ATOM     69  H   UNL A   1      34.231  27.433  25.970  1.00  0.00     0.163 HD
ATOM     70  O   UNL A   1      34.909  25.178  25.810  1.00  0.00    -0.268 OA
BRANCH  68  71
ATOM     71  C   UNL A   1      32.667  24.603  25.331  1.00  0.00     0.115 A 
ATOM     72  S   UNL A   1      31.725  23.946  26.606  1.00  0.00    -0.137 S 
ATOM     73  C   UNL A   1      32.287  24.111  24.086  1.00  0.00     0.065 A 
ATOM     74  C   UNL A   1      30.841  22.967  25.534  1.00  0.00     0.068 A 
ATOM     75  C   UNL A   1      31.262  23.122  24.233  1.00  0.00     0.038 A 
BRANCH  73  76
ATOM     76  N   UNL A   1      32.916  24.529  22.914  1.00  0.00    -0.320 N 
ATOM     77  C   UNL A   1      32.723  25.625  22.107  1.00  0.00     0.257 C 
ATOM     78  H   UNL A   1      33.631  23.927  22.606  1.00  0.00     0.170 HD
ATOM     79  O   UNL A   1      33.333  25.718  21.043  1.00  0.00    -0.269 OA
BRANCH  77  80
ATOM     80  C   UNL A   1      31.839  26.729  22.490  1.00  0.00     0.058 A 
ATOM     81  C   UNL A   1      30.502  26.538  22.839  1.00  0.00     0.018 A 
ATOM     82  C   UNL A   1      32.361  28.013  22.531  1.00  0.00     0.126 A 
ATOM     83  C   UNL A   1      29.717  27.655  23.129  1.00  0.00     0.037 A 
ATOM     84  N   UNL A   1      31.618  29.111  22.808  1.00  0.00    -0.249 NA
ATOM     85  C   UNL A   1      30.311  28.911  23.090  1.00  0.00     0.106 A 
ATOM     86  Br  UNL A   1      29.239  30.441  23.410  1.00  0.00    -0.029 Br
ENDBRANCH  77  80
ENDBRANCH  73  76
ENDBRANCH  68  71
ENDBRANCH  66  67
ENDBRANCH  65  66
ENDBRANCH  64  65
ENDBRANCH   1  64
TORSDOF 15
ENDMDL
MODEL 2
REMARK VINA RESULT:     -11.2      4.981      9.734
REMARK SMILES O=C(NCCCCCCNC(=O)c1sccc1NC(=O)c1ccc(Br)nc1)c1ccc(-c2c3nc(c(-c4c(F)cccc4F)c4ccc([nH]4)c(-c4c(F)cccc4F)c4nc(c(-c5c(F)cccc5F)c5ccc2[nH]5)C=C4)C=C3)cc1
REMARK SMILES IDX 6 1 5 2 4 3 3 4 1 5 2 6 28 8 29 9 81 10 30 11 80 12 31 13
REMARK SMILES IDX 32 14 33 15 74 16 34 17 79 18 73 19 75 20 35 21 78 22 72 23
REMARK SMILES IDX 71 24 36 26 62 27 45 28 61 29 46 30 49 31 60 32 76 33 47 34
REMARK SMILES IDX 48 35 59 37 77 38 50 39 37 40 38 41 43 42 39 43 40 44 42 45
REMARK SMILES IDX 44 46 41 47 63 48 64 49 69 50 65 51 66 52 68 53 70 54 67 55
REMARK SMILES IDX 51 56 52 57 57 58 53 59 54 60 56 61 58 62 55 63 7 64 8 65
REMARK SMILES IDX 9 66 10 67 11 68 12 70 13 71 14 72 17 73 15 74 16 75 18 76
REMARK SMILES IDX 19 77 20 79 21 80 22 81 27 82 23 83 26 84 24 85 25 86
REMARK H PARENT 3 7 75 25 49 36 10 69 18 78
REMARK Flexibility Score: inf
ROOT
ATOM      1  C   UNL A   1      37.772  21.453  24.678  1.00  0.00     0.002 C 
ENDROOT
BRANCH   1   2
ATOM      2  C   UNL A   1      38.325  20.037  24.830  1.00  0.00     0.021 C 
BRANCH   2   3
ATOM      3  C   UNL A   1      39.042  19.754  26.143  1.00  0.00     0.116 C 
BRANCH   3   4
ATOM      4  N   UNL A   1      40.177  18.863  25.989  1.00  0.00    -0.352 N 
ATOM      5  O   UNL A   1      42.350  18.297  25.750  1.00  0.00    -0.269 OA
ATOM      6  C   UNL A   1      41.520  19.155  26.033  1.00  0.00     0.251 C 
ATOM      7  H   UNL A   1      39.956  17.916  25.831  1.00  0.00     0.163 HD
BRANCH   6   8
ATOM      8  C   UNL A   1      41.965  20.519  26.397  1.00  0.00     0.039 A 
ATOM      9  C   UNL A   1      42.173  20.871  27.732  1.00  0.00     0.014 A 
ATOM     10  C   UNL A   1      42.185  21.456  25.383  1.00  0.00     0.014 A 
ATOM     11  C   UNL A   1      42.474  22.188  28.061  1.00  0.00     0.010 A 
ATOM     12  C   UNL A   1      42.565  22.760  25.710  1.00  0.00     0.010 A 
ATOM     13  C   UNL A   1      42.688  23.143  27.055  1.00  0.00    -0.014 A 
BRANCH  13  14
ATOM     14  C   UNL A   1      43.103  24.518  27.433  1.00  0.00     0.031 A 
ATOM     15  C   UNL A   1      44.539  24.950  27.347  1.00  0.00     0.074 A 
ATOM     16  C   UNL A   1      42.157  25.389  27.831  1.00  0.00     0.049 A 
ATOM     17  N   UNL A   1      45.064  26.119  27.622  1.00  0.00    -0.248 NA
ATOM     18  C   UNL A   1      45.516  23.944  26.901  1.00  0.00     0.031 C 
ATOM     19  C   UNL A   1      40.731  25.079  27.966  1.00  0.00     0.029 A 
ATOM     20  N   UNL A   1      42.243  26.712  28.180  1.00  0.00    -0.354 N 
ATOM     21  C   UNL A   1      46.428  25.988  27.393  1.00  0.00     0.074 A 
ATOM     22  C   UNL A   1      46.655  24.618  26.984  1.00  0.00     0.031 C 
ATOM     23  C   UNL A   1      40.072  26.189  28.327  1.00  0.00     0.029 A 
ATOM     24  C   UNL A   1      41.033  27.272  28.504  1.00  0.00     0.049 A 
ATOM     25  H   UNL A   1      43.091  27.211  28.198  1.00  0.00     0.167 HD
ATOM     26  C   UNL A   1      47.398  26.928  27.507  1.00  0.00     0.037 A 
ATOM     27  C   UNL A   1      40.727  28.518  28.911  1.00  0.00     0.037 A 
ATOM     28  C   UNL A   1      47.166  28.291  27.909  1.00  0.00     0.049 A 
ATOM     29  C   UNL A   1      41.825  29.529  29.054  1.00  0.00     0.074 A 
ATOM     30  C   UNL A   1      48.082  29.323  28.033  1.00  0.00     0.029 A 
ATOM     31  N   UNL A   1      45.929  28.814  28.254  1.00  0.00    -0.354 N 
ATOM     32  N   UNL A   1      43.106  29.396  28.808  1.00  0.00    -0.248 NA
ATOM     33  C   UNL A   1      41.438  30.861  29.534  1.00  0.00     0.031 C 
ATOM     34  C   UNL A   1      47.405  30.460  28.488  1.00  0.00     0.029 A 
ATOM     35  C   UNL A   1      46.060  30.149  28.607  1.00  0.00     0.049 A 
ATOM     36  H   UNL A   1      45.082  28.313  28.249  1.00  0.00     0.167 HD
ATOM     37  C   UNL A   1      43.675  30.630  29.090  1.00  0.00     0.074 A 
ATOM     38  C   UNL A   1      42.597  31.504  29.503  1.00  0.00     0.031 C 
ATOM     39  C   UNL A   1      44.975  31.003  29.016  1.00  0.00     0.037 A 
BRANCH  26  40
ATOM     40  C   UNL A   1      48.807  26.512  27.200  1.00  0.00     0.057 A 
ATOM     41  C   UNL A   1      49.651  25.985  28.187  1.00  0.00     0.134 A 
ATOM     42  C   UNL A   1      49.310  26.589  25.895  1.00  0.00     0.134 A 
ATOM     43  F   UNL A   1      49.235  25.892  29.459  1.00  0.00    -0.206 F 
ATOM     44  C   UNL A   1      50.950  25.567  27.890  1.00  0.00     0.040 A 
ATOM     45  C   UNL A   1      50.599  26.154  25.582  1.00  0.00     0.040 A 
ATOM     46  F   UNL A   1      48.552  27.077  24.901  1.00  0.00    -0.206 F 
ATOM     47  C   UNL A   1      51.425  25.644  26.582  1.00  0.00     0.006 A 
ENDBRANCH  26  40
BRANCH  27  48
ATOM     48  C   UNL A   1      39.320  28.869  29.218  1.00  0.00     0.057 A 
ATOM     49  C   UNL A   1      38.485  29.429  28.244  1.00  0.00     0.134 A 
ATOM     50  C   UNL A   1      38.773  28.644  30.488  1.00  0.00     0.134 A 
ATOM     51  F   UNL A   1      38.957  29.682  27.015  1.00  0.00    -0.206 F 
ATOM     52  C   UNL A   1      37.160  29.767  28.526  1.00  0.00     0.040 A 
ATOM     53  C   UNL A   1      37.443  28.952  30.775  1.00  0.00     0.040 A 
ATOM     54  F   UNL A   1      39.521  28.103  31.460  1.00  0.00    -0.206 F 
ATOM     55  C   UNL A   1      36.635  29.521  29.794  1.00  0.00     0.006 A 
ENDBRANCH  27  48
BRANCH  39  56
ATOM     56  C   UNL A   1      45.292  32.426  29.370  1.00  0.00     0.057 A 
ATOM     57  C   UNL A   1      45.690  32.792  30.663  1.00  0.00     0.134 A 
ATOM     58  C   UNL A   1      45.211  33.437  28.405  1.00  0.00     0.134 A 
ATOM     59  F   UNL A   1      45.771  31.872  31.635  1.00  0.00    -0.206 F 
ATOM     60  C   UNL A   1      45.975  34.119  30.988  1.00  0.00     0.040 A 
ATOM     61  C   UNL A   1      45.516  34.763  28.712  1.00  0.00     0.040 A 
ATOM     62  F   UNL A   1      44.840  33.150  27.148  1.00  0.00    -0.206 F 
ATOM     63  C   UNL A   1      45.892  35.107  30.009  1.00  0.00     0.006 A 
ENDBRANCH  39  56
ENDBRANCH  13  14
ENDBRANCH   6   8
ENDBRANCH   3   4
ENDBRANCH   2   3
ENDBRANCH   1   2
BRANCH   1  64
ATOM     64  C   UNL A   1      38.239  22.466  25.727  1.00  0.00     0.002 C 
BRANCH  64  65
ATOM     65  C   UNL A   1      37.297  23.647  25.992  1.00  0.00     0.021 C 
BRANCH  65  66
ATOM     66  C   UNL A   1      35.809  23.365  25.798  1.00  0.00     0.116 C 
BRANCH  66  67
ATOM     67  N   UNL A   1      35.166  22.953  27.031  1.00  0.00    -0.351 N 
ATOM     68  C   UNL A   1      34.024  22.217  27.227  1.00  0.00     0.263 C 
ATOM     69  H   UNL A   1      35.617  23.247  27.854  1.00  0.00     0.163 HD
ATOM     70  O   UNL A   1      33.570  22.194  28.374  1.00  0.00    -0.268 OA
BRANCH  68  71
ATOM     71  C   UNL A   1      33.431  21.492  26.121  1.00  0.00     0.115 A 
ATOM     72  S   UNL A   1      34.478  20.504  25.187  1.00  0.00    -0.137 S 
ATOM     73  C   UNL A   1      32.126  21.484  25.638  1.00  0.00     0.065 A 
ATOM     74  C   UNL A   1      33.233  20.098  24.103  1.00  0.00     0.068 A 
ATOM     75  C   UNL A   1      32.046  20.712  24.435  1.00  0.00     0.038 A 
BRANCH  73  76
ATOM     76  N   UNL A   1      31.112  22.209  26.262  1.00  0.00    -0.320 N 
ATOM     77  C   UNL A   1      30.862  23.558  26.345  1.00  0.00     0.257 C 
ATOM     78  H   UNL A   1      30.453  21.650  26.734  1.00  0.00     0.170 HD
ATOM     79  O   UNL A   1      29.953  23.969  27.064  1.00  0.00    -0.269 OA
BRANCH  77  80
ATOM     80  C   UNL A   1      31.615  24.539  25.561  1.00  0.00     0.058 A 
ATOM     81  C   UNL A   1      32.585  25.371  26.123  1.00  0.00     0.018 A 
ATOM     82  C   UNL A   1      31.372  24.628  24.199  1.00  0.00     0.126 A 
ATOM     83  C   UNL A   1      33.208  26.319  25.313  1.00  0.00     0.037 A 
ATOM     84  N   UNL A   1      31.964  25.542  23.394  1.00  0.00    -0.249 NA
ATOM     85  C   UNL A   1      32.860  26.375  23.969  1.00  0.00     0.106 A 
ATOM     86  Br  UNL A   1      33.646  27.708  22.874  1.00  0.00    -0.029 Br
ENDBRANCH  77  80
ENDBRANCH  73  76
ENDBRANCH  68  71
ENDBRANCH  66  67
ENDBRANCH  65  66
ENDBRANCH  64  65
ENDBRANCH   1  64
TORSDOF 15
ENDMDL
MODEL 3
REMARK VINA RESULT:     -11.2      2.294      3.431
REMARK SMILES O=C(NCCCCCCNC(=O)c1sccc1NC(=O)c1ccc(Br)nc1)c1ccc(-c2c3nc(c(-c4c(F)cccc4F)c4ccc([nH]4)c(-c4c(F)cccc4F)c4nc(c(-c5c(F)cccc5F)c5ccc2[nH]5)C=C4)C=C3)cc1
REMARK SMILES IDX 6 1 5 2 4 3 3 4 1 5 2 6 28 8 29 9 81 10 30 11 80 12 31 13
REMARK SMILES IDX 32 14 33 15 74 16 34 17 79 18 73 19 75 20 35 21 78 22 72 23
REMARK SMILES IDX 71 24 36 26 62 27 45 28 61 29 46 30 49 31 60 32 76 33 47 34
REMARK SMILES IDX 48 35 59 37 77 38 50 39 37 40 38 41 43 42 39 43 40 44 42 45
REMARK SMILES IDX 44 46 41 47 63 48 64 49 69 50 65 51 66 52 68 53 70 54 67 55
REMARK SMILES IDX 51 56 52 57 57 58 53 59 54 60 56 61 58 62 55 63 7 64 8 65
REMARK SMILES IDX 9 66 10 67 11 68 12 70 13 71 14 72 17 73 15 74 16 75 18 76
REMARK SMILES IDX 19 77 20 79 21 80 22 81 27 82 23 83 26 84 24 85 25 86
REMARK H PARENT 3 7 75 25 49 36 10 69 18 78
REMARK Flexibility Score: inf
ROOT
ATOM      1  C   UNL A   1      31.306  30.256  25.190  1.00  0.00     0.002 C 
ENDROOT
BRANCH   1   2
ATOM      2  C   UNL A   1      31.045  31.540  25.976  1.00  0.00     0.021 C 
BRANCH   2   3
ATOM      3  C   UNL A   1      32.186  31.999  26.874  1.00  0.00     0.116 C 
BRANCH   3   4
ATOM      4  N   UNL A   1      32.068  33.390  27.274  1.00  0.00    -0.352 N 
ATOM      5  O   UNL A   1      32.567  35.262  28.432  1.00  0.00    -0.269 OA
ATOM      6  C   UNL A   1      32.889  34.128  28.093  1.00  0.00     0.251 C 
ATOM      7  H   UNL A   1      31.291  33.872  26.908  1.00  0.00     0.163 HD
BRANCH   6   8
ATOM      8  C   UNL A   1      34.154  33.541  28.588  1.00  0.00     0.039 A 
ATOM      9  C   UNL A   1      34.156  32.640  29.654  1.00  0.00     0.014 A 
ATOM     10  C   UNL A   1      35.356  33.895  27.967  1.00  0.00     0.014 A 
ATOM     11  C   UNL A   1      35.364  32.194  30.181  1.00  0.00     0.010 A 
ATOM     12  C   UNL A   1      36.564  33.384  28.448  1.00  0.00     0.010 A 
ATOM     13  C   UNL A   1      36.580  32.549  29.576  1.00  0.00    -0.014 A 
BRANCH  13  14
ATOM     14  C   UNL A   1      37.847  31.980  30.101  1.00  0.00     0.031 A 
ATOM     15  C   UNL A   1      38.555  32.600  31.271  1.00  0.00     0.074 A 
ATOM     16  C   UNL A   1      38.341  30.869  29.521  1.00  0.00     0.049 A 
ATOM     17  N   UNL A   1      39.659  32.216  31.863  1.00  0.00    -0.248 NA
ATOM     18  C   UNL A   1      37.953  33.810  31.853  1.00  0.00     0.031 C 
ATOM     19  C   UNL A   1      37.748  30.185  28.369  1.00  0.00     0.029 A 
ATOM     20  N   UNL A   1      39.442  30.111  29.827  1.00  0.00    -0.354 N 
ATOM     21  C   UNL A   1      39.890  33.137  32.876  1.00  0.00     0.074 A 
ATOM     22  C   UNL A   1      38.827  34.117  32.803  1.00  0.00     0.031 C 
ATOM     23  C   UNL A   1      38.465  29.088  28.093  1.00  0.00     0.029 A 
ATOM     24  C   UNL A   1      39.599  29.021  29.008  1.00  0.00     0.049 A 
ATOM     25  H   UNL A   1      40.061  30.329  30.561  1.00  0.00     0.167 HD
ATOM     26  C   UNL A   1      40.893  33.157  33.787  1.00  0.00     0.037 A 
ATOM     27  C   UNL A   1      40.556  28.075  28.985  1.00  0.00     0.037 A 
ATOM     28  C   UNL A   1      41.946  32.177  33.860  1.00  0.00     0.049 A 
ATOM     29  C   UNL A   1      41.669  28.138  29.989  1.00  0.00     0.074 A 
ATOM     30  C   UNL A   1      42.994  32.101  34.761  1.00  0.00     0.029 A 
ATOM     31  N   UNL A   1      42.085  31.101  32.996  1.00  0.00    -0.354 N 
ATOM     32  N   UNL A   1      41.857  29.001  30.958  1.00  0.00    -0.248 NA
ATOM     33  C   UNL A   1      42.702  27.100  29.896  1.00  0.00     0.031 C 
ATOM     34  C   UNL A   1      43.789  31.000  34.420  1.00  0.00     0.029 A 
ATOM     35  C   UNL A   1      43.211  30.366  33.333  1.00  0.00     0.049 A 
ATOM     36  H   UNL A   1      41.474  30.890  32.254  1.00  0.00     0.167 HD
ATOM     37  C   UNL A   1      43.023  28.603  31.597  1.00  0.00     0.074 A 
ATOM     38  C   UNL A   1      43.484  27.408  30.921  1.00  0.00     0.031 C 
ATOM     39  C   UNL A   1      43.655  29.179  32.648  1.00  0.00     0.037 A 
BRANCH  26  40
ATOM     40  C   UNL A   1      40.907  34.284  34.779  1.00  0.00     0.057 A 
ATOM     41  C   UNL A   1      41.470  35.529  34.472  1.00  0.00     0.134 A 
ATOM     42  C   UNL A   1      40.306  34.140  36.036  1.00  0.00     0.134 A 
ATOM     43  F   UNL A   1      42.071  35.730  33.289  1.00  0.00    -0.206 F 
ATOM     44  C   UNL A   1      41.451  36.586  35.386  1.00  0.00     0.040 A 
ATOM     45  C   UNL A   1      40.260  35.195  36.950  1.00  0.00     0.040 A 
ATOM     46  F   UNL A   1      39.741  32.976  36.392  1.00  0.00    -0.206 F 
ATOM     47  C   UNL A   1      40.838  36.421  36.626  1.00  0.00     0.006 A 
ENDBRANCH  26  40
BRANCH  27  48
ATOM     48  C   UNL A   1      40.502  26.995  27.971  1.00  0.00     0.057 A 
ATOM     49  C   UNL A   1      41.192  27.107  26.758  1.00  0.00     0.134 A 
ATOM     50  C   UNL A   1      39.769  25.823  28.193  1.00  0.00     0.134 A 
ATOM     51  F   UNL A   1      41.898  28.213  26.482  1.00  0.00    -0.206 F 
ATOM     52  C   UNL A   1      41.143  26.097  25.796  1.00  0.00     0.040 A 
ATOM     53  C   UNL A   1      39.733  24.795  27.252  1.00  0.00     0.040 A 
ATOM     54  F   UNL A   1      39.094  25.654  29.340  1.00  0.00    -0.206 F 
ATOM     55  C   UNL A   1      40.416  24.933  26.046  1.00  0.00     0.006 A 
ENDBRANCH  27  48
BRANCH  39  56
ATOM     56  C   UNL A   1      44.901  28.504  33.140  1.00  0.00     0.057 A 
ATOM     57  C   UNL A   1      46.169  28.861  32.662  1.00  0.00     0.134 A 
ATOM     58  C   UNL A   1      44.833  27.498  34.110  1.00  0.00     0.134 A 
ATOM     59  F   UNL A   1      46.299  29.807  31.719  1.00  0.00    -0.206 F 
ATOM     60  C   UNL A   1      47.324  28.224  33.117  1.00  0.00     0.040 A 
ATOM     61  C   UNL A   1      45.982  26.869  34.590  1.00  0.00     0.040 A 
ATOM     62  F   UNL A   1      43.648  27.114  34.611  1.00  0.00    -0.206 F 
ATOM     63  C   UNL A   1      47.231  27.228  34.087  1.00  0.00     0.006 A 
ENDBRANCH  39  56
ENDBRANCH  13  14
ENDBRANCH   6   8
ENDBRANCH   3   4
ENDBRANCH   2   3
ENDBRANCH   1   2
BRANCH   1  64
ATOM     64  C   UNL A   1      30.277  29.916  24.108  1.00  0.00     0.002 C 
BRANCH  64  65
ATOM     65  C   UNL A   1      30.834  29.324  22.808  1.00  0.00     0.021 C 
BRANCH  65  66
ATOM     66  C   UNL A   1      30.615  27.825  22.615  1.00  0.00     0.116 C 
BRANCH  66  67
ATOM     67  N   UNL A   1      31.700  27.206  21.877  1.00  0.00    -0.351 N 
ATOM     68  C   UNL A   1      32.898  26.706  22.323  1.00  0.00     0.263 C 
ATOM     69  H   UNL A   1      31.555  27.134  20.906  1.00  0.00     0.163 HD
ATOM     70  O   UNL A   1      33.740  26.435  21.463  1.00  0.00    -0.268 OA
BRANCH  68  71
ATOM     71  C   UNL A   1      33.111  26.493  23.740  1.00  0.00     0.115 A 
ATOM     72  S   UNL A   1      33.677  27.832  24.653  1.00  0.00    -0.137 S 
ATOM     73  C   UNL A   1      32.972  25.347  24.516  1.00  0.00     0.065 A 
ATOM     74  C   UNL A   1      33.796  26.899  26.068  1.00  0.00     0.068 A 
ATOM     75  C   UNL A   1      33.427  25.591  25.851  1.00  0.00     0.038 A 
BRANCH  73  76
ATOM     76  N   UNL A   1      32.509  24.150  23.972  1.00  0.00    -0.320 N 
ATOM     77  C   UNL A   1      33.137  22.957  23.701  1.00  0.00     0.257 C 
ATOM     78  H   UNL A   1      31.553  24.161  23.736  1.00  0.00     0.170 HD
ATOM     79  O   UNL A   1      32.534  22.069  23.101  1.00  0.00    -0.269 OA
BRANCH  77  80
ATOM     80  C   UNL A   1      34.505  22.679  24.147  1.00  0.00     0.058 A 
ATOM     81  C   UNL A   1      35.630  23.096  23.435  1.00  0.00     0.018 A 
ATOM     82  C   UNL A   1      34.687  21.993  25.338  1.00  0.00     0.126 A 
ATOM     83  C   UNL A   1      36.893  22.731  23.902  1.00  0.00     0.037 A 
ATOM     84  N   UNL A   1      35.903  21.627  25.809  1.00  0.00    -0.249 NA
ATOM     85  C   UNL A   1      36.979  21.993  25.076  1.00  0.00     0.106 A 
ATOM     86  Br  UNL A   1      38.684  21.429  25.681  1.00  0.00    -0.029 Br
ENDBRANCH  77  80
ENDBRANCH  73  76
ENDBRANCH  68  71
ENDBRANCH  66  67
ENDBRANCH  65  66
ENDBRANCH  64  65
ENDBRANCH   1  64
TORSDOF 15
ENDMDL
