MODEL 1
REMARK VINA RESULT:     -12.7      0.000      0.000
REMARK SMILES CC(=O)Nc1ccc(/C(=C\c2ccc(S(C)(=O)=O)cc2)C(=O)NCCCCCCNC(=O)c2ccc(-c3c4nc(c(-c5c(F)cccc5F)c5ccc([nH]5)c(-c5c(F)cccc5F)c5nc(c(-c6c(F)cccc6F)c6ccc3[nH]6)C=C5)C=C4)cc2)cc1
REMARK SMILES IDX 26 1 25 2 24 3 23 4 21 5 22 6 9 8 10 9 8 10 5 11 6 12 88 13
REMARK SMILES IDX 7 14 87 15 4 16 1 17 2 18 3 19 11 21 12 22 20 23 13 24 19 25
REMARK SMILES IDX 14 26 15 27 16 28 17 29 18 30 27 31 28 32 29 33 30 34 31 35
REMARK SMILES IDX 32 37 33 38 34 39 86 40 35 41 85 42 36 43 37 44 38 45 79 46
REMARK SMILES IDX 39 47 84 48 78 49 80 50 40 51 83 52 77 53 76 54 41 56 67 57
REMARK SMILES IDX 50 58 66 59 51 60 54 61 65 62 81 63 52 64 53 65 64 67 82 68
REMARK SMILES IDX 55 69 42 70 43 71 48 72 44 73 45 74 47 75 49 76 46 77 68 78
REMARK SMILES IDX 69 79 74 80 70 81 71 82 73 83 75 84 72 85 56 86 57 87 62 88
REMARK SMILES IDX 58 89 59 90 61 91 63 92 60 93
REMARK H PARENT 23 7 4 20 30 36 80 55 54 66
REMARK Flexibility Score: inf
ROOT
ATOM      1  C   UNL A   1      32.452  29.264  27.082  1.00  0.00     0.002 C 
ENDROOT
BRANCH   1   2
ATOM      2  C   UNL A   1      33.117  28.003  26.506  1.00  0.00     0.021 C 
BRANCH   2   3
ATOM      3  C   UNL A   1      32.119  26.992  25.933  1.00  0.00     0.116 C 
BRANCH   3   4
ATOM      4  N   UNL A   1      32.205  26.977  24.489  1.00  0.00    -0.352 N 
ATOM      5  C   UNL A   1      32.564  26.081  23.535  1.00  0.00     0.251 C 
ATOM      6  O   UNL A   1      32.474  26.536  22.390  1.00  0.00    -0.269 OA
ATOM      7  H   UNL A   1      31.932  27.837  24.097  1.00  0.00     0.163 HD
BRANCH   5   8
ATOM      8  C   UNL A   1      32.969  24.627  23.788  1.00  0.00     0.047 C 
ATOM      9  C   UNL A   1      32.004  23.687  23.924  1.00  0.00     0.022 C 
BRANCH   8  10
ATOM     10  C   UNL A   1      34.421  24.310  24.074  1.00  0.00    -0.013 A 
ATOM     11  C   UNL A   1      36.969  23.303  24.891  1.00  0.00     0.041 A 
ATOM     12  C   UNL A   1      36.536  23.173  23.570  1.00  0.00     0.027 A 
ATOM     13  C   UNL A   1      36.205  24.077  25.748  1.00  0.00     0.027 A 
ATOM     14  C   UNL A   1      35.296  23.700  23.162  1.00  0.00     0.011 A 
ATOM     15  C   UNL A   1      34.941  24.531  25.358  1.00  0.00     0.011 A 
BRANCH  11  16
ATOM     16  N   UNL A   1      38.151  22.646  25.272  1.00  0.00    -0.326 N 
ATOM     17  C   UNL A   1      37.480  20.244  25.000  1.00  0.00     0.114 C 
ATOM     18  C   UNL A   1      38.451  21.319  25.415  1.00  0.00     0.221 C 
ATOM     19  O   UNL A   1      39.563  21.011  25.854  1.00  0.00    -0.275 OA
ATOM     20  H   UNL A   1      38.901  23.251  25.472  1.00  0.00     0.169 HD
ENDBRANCH  11  16
ENDBRANCH   8  10
BRANCH   9  21
ATOM     21  C   UNL A   1      32.128  22.222  23.972  1.00  0.00    -0.025 A 
ATOM     22  C   UNL A   1      32.148  21.529  22.748  1.00  0.00     0.009 A 
ATOM     23  C   UNL A   1      32.291  21.516  25.166  1.00  0.00     0.009 A 
ATOM     24  C   UNL A   1      32.385  20.153  22.714  1.00  0.00     0.021 A 
ATOM     25  C   UNL A   1      32.530  20.138  25.138  1.00  0.00     0.021 A 
ATOM     26  C   UNL A   1      32.585  19.466  23.912  1.00  0.00     0.067 A 
BRANCH  26  27
ATOM     27  S   UNL A   1      33.039  17.748  23.853  1.00  0.00     0.175 S 
ATOM     28  C   UNL A   1      34.765  17.745  24.255  1.00  0.00     0.163 C 
ATOM     29  O   UNL A   1      32.322  17.082  24.923  1.00  0.00    -0.224 OA
ATOM     30  O   UNL A   1      32.900  17.305  22.478  1.00  0.00    -0.224 OA
ENDBRANCH  26  27
ENDBRANCH   9  21
ENDBRANCH   5   8
ENDBRANCH   3   4
ENDBRANCH   2   3
ENDBRANCH   1   2
BRANCH   1  31
ATOM     31  C   UNL A   1      31.967  30.278  26.036  1.00  0.00     0.002 C 
BRANCH  31  32
ATOM     32  C   UNL A   1      31.628  31.662  26.592  1.00  0.00     0.021 C 
BRANCH  32  33
ATOM     33  C   UNL A   1      32.803  32.366  27.265  1.00  0.00     0.116 C 
BRANCH  33  34
ATOM     34  N   UNL A   1      32.522  33.776  27.495  1.00  0.00    -0.352 N 
ATOM     35  C   UNL A   1      33.042  34.619  28.446  1.00  0.00     0.251 C 
ATOM     36  H   UNL A   1      31.868  34.183  26.883  1.00  0.00     0.163 HD
ATOM     37  O   UNL A   1      32.530  35.712  28.660  1.00  0.00    -0.269 OA
BRANCH  35  38
ATOM     38  C   UNL A   1      34.219  34.190  29.226  1.00  0.00     0.039 A 
ATOM     39  C   UNL A   1      34.028  33.506  30.429  1.00  0.00     0.014 A 
ATOM     40  C   UNL A   1      35.510  34.445  28.752  1.00  0.00     0.014 A 
ATOM     41  C   UNL A   1      35.134  33.003  31.117  1.00  0.00     0.010 A 
ATOM     42  C   UNL A   1      36.604  33.887  29.404  1.00  0.00     0.010 A 
ATOM     43  C   UNL A   1      36.424  33.150  30.583  1.00  0.00    -0.014 A 
BRANCH  43  44
ATOM     44  C   UNL A   1      37.601  32.502  31.211  1.00  0.00     0.031 A 
ATOM     45  C   UNL A   1      38.264  31.329  30.552  1.00  0.00     0.074 A 
ATOM     46  C   UNL A   1      38.011  32.916  32.426  1.00  0.00     0.049 A 
ATOM     47  N   UNL A   1      39.233  30.570  30.994  1.00  0.00    -0.248 NA
ATOM     48  C   UNL A   1      37.749  30.943  29.229  1.00  0.00     0.031 C 
ATOM     49  C   UNL A   1      37.428  34.027  33.181  1.00  0.00     0.029 A 
ATOM     50  N   UNL A   1      39.004  32.442  33.244  1.00  0.00    -0.354 N 
ATOM     51  C   UNL A   1      39.440  29.613  30.011  1.00  0.00     0.074 A 
ATOM     52  C   UNL A   1      38.458  29.853  28.975  1.00  0.00     0.031 C 
ATOM     53  C   UNL A   1      38.090  34.165  34.340  1.00  0.00     0.029 A 
ATOM     54  C   UNL A   1      39.109  33.123  34.432  1.00  0.00     0.049 A 
ATOM     55  H   UNL A   1      39.584  31.684  33.004  1.00  0.00     0.167 HD
ATOM     56  C   UNL A   1      40.375  28.633  29.969  1.00  0.00     0.037 A 
ATOM     57  C   UNL A   1      39.925  32.924  35.484  1.00  0.00     0.037 A 
ATOM     58  C   UNL A   1      41.349  28.401  31.003  1.00  0.00     0.049 A 
ATOM     59  C   UNL A   1      40.908  31.787  35.444  1.00  0.00     0.074 A 
ATOM     60  C   UNL A   1      42.380  27.479  31.028  1.00  0.00     0.029 A 
ATOM     61  N   UNL A   1      41.401  29.090  32.207  1.00  0.00    -0.354 N 
ATOM     62  N   UNL A   1      41.140  30.931  34.481  1.00  0.00    -0.248 NA
ATOM     63  C   UNL A   1      41.732  31.585  36.644  1.00  0.00     0.031 C 
ATOM     64  C   UNL A   1      43.018  27.569  32.270  1.00  0.00     0.029 A 
ATOM     65  C   UNL A   1      42.418  28.583  33.001  1.00  0.00     0.049 A 
ATOM     66  H   UNL A   1      40.804  29.831  32.460  1.00  0.00     0.167 HD
ATOM     67  C   UNL A   1      42.149  30.098  34.947  1.00  0.00     0.074 A 
ATOM     68  C   UNL A   1      42.492  30.563  36.276  1.00  0.00     0.031 C 
ATOM     69  C   UNL A   1      42.738  29.046  34.328  1.00  0.00     0.037 A 
BRANCH  56  70
ATOM     70  C   UNL A   1      40.369  27.731  28.767  1.00  0.00     0.057 A 
ATOM     71  C   UNL A   1      39.628  26.541  28.737  1.00  0.00     0.134 A 
ATOM     72  C   UNL A   1      41.114  28.055  27.626  1.00  0.00     0.134 A 
ATOM     73  F   UNL A   1      38.901  26.167  29.801  1.00  0.00    -0.206 F 
ATOM     74  C   UNL A   1      39.662  25.686  27.635  1.00  0.00     0.040 A 
ATOM     75  C   UNL A   1      41.131  27.222  26.505  1.00  0.00     0.040 A 
ATOM     76  F   UNL A   1      41.839  29.182  27.582  1.00  0.00    -0.206 F 
ATOM     77  C   UNL A   1      40.414  26.027  26.513  1.00  0.00     0.006 A 
ENDBRANCH  56  70
BRANCH  57  78
ATOM     78  C   UNL A   1      39.860  33.837  36.651  1.00  0.00     0.057 A 
ATOM     79  C   UNL A   1      39.037  33.540  37.743  1.00  0.00     0.134 A 
ATOM     80  C   UNL A   1      40.629  35.005  36.720  1.00  0.00     0.134 A 
ATOM     81  F   UNL A   1      38.263  32.445  37.726  1.00  0.00    -0.206 F 
ATOM     82  C   UNL A   1      38.975  34.374  38.860  1.00  0.00     0.040 A 
ATOM     83  C   UNL A   1      40.595  35.837  37.840  1.00  0.00     0.040 A 
ATOM     84  F   UNL A   1      41.443  35.340  35.708  1.00  0.00    -0.206 F 
ATOM     85  C   UNL A   1      39.764  35.523  38.914  1.00  0.00     0.006 A 
ENDBRANCH  57  78
BRANCH  69  86
ATOM     86  C   UNL A   1      43.819  28.325  35.079  1.00  0.00     0.057 A 
ATOM     87  C   UNL A   1      45.160  28.719  34.996  1.00  0.00     0.134 A 
ATOM     88  C   UNL A   1      43.510  27.260  35.934  1.00  0.00     0.134 A 
ATOM     89  F   UNL A   1      45.526  29.721  34.183  1.00  0.00    -0.206 F 
ATOM     90  C   UNL A   1      46.157  28.071  35.728  1.00  0.00     0.040 A 
ATOM     91  C   UNL A   1      44.493  26.620  36.690  1.00  0.00     0.040 A 
ATOM     92  F   UNL A   1      42.242  26.836  36.064  1.00  0.00    -0.206 F 
ATOM     93  C   UNL A   1      45.822  27.024  36.585  1.00  0.00     0.006 A 
ENDBRANCH  69  86
ENDBRANCH  43  44
ENDBRANCH  35  38
ENDBRANCH  33  34
ENDBRANCH  32  33
ENDBRANCH  31  32
ENDBRANCH   1  31
TORSDOF 17
ENDMDL
MODEL 2
REMARK VINA RESULT:     -12.6      1.108      6.054
REMARK SMILES CC(=O)Nc1ccc(/C(=C\c2ccc(S(C)(=O)=O)cc2)C(=O)NCCCCCCNC(=O)c2ccc(-c3c4nc(c(-c5c(F)cccc5F)c5ccc([nH]5)c(-c5c(F)cccc5F)c5nc(c(-c6c(F)cccc6F)c6ccc3[nH]6)C=C5)C=C4)cc2)cc1
REMARK SMILES IDX 26 1 25 2 24 3 23 4 21 5 22 6 9 8 10 9 8 10 5 11 6 12 88 13
REMARK SMILES IDX 7 14 87 15 4 16 1 17 2 18 3 19 11 21 12 22 20 23 13 24 19 25
REMARK SMILES IDX 14 26 15 27 16 28 17 29 18 30 27 31 28 32 29 33 30 34 31 35
REMARK SMILES IDX 32 37 33 38 34 39 86 40 35 41 85 42 36 43 37 44 38 45 79 46
REMARK SMILES IDX 39 47 84 48 78 49 80 50 40 51 83 52 77 53 76 54 41 56 67 57
REMARK SMILES IDX 50 58 66 59 51 60 54 61 65 62 81 63 52 64 53 65 64 67 82 68
REMARK SMILES IDX 55 69 42 70 43 71 48 72 44 73 45 74 47 75 49 76 46 77 68 78
REMARK SMILES IDX 69 79 74 80 70 81 71 82 73 83 75 84 72 85 56 86 57 87 62 88
REMARK SMILES IDX 58 89 59 90 61 91 63 92 60 93
REMARK H PARENT 23 7 4 20 30 36 80 55 54 66
REMARK Flexibility Score: inf
ROOT
ATOM      1  C   UNL A   1      32.045  29.251  27.017  1.00  0.00     0.002 C 
ENDROOT
BRANCH   1   2
ATOM      2  C   UNL A   1      32.880  28.097  26.436  1.00  0.00     0.021 C 
BRANCH   2   3
ATOM      3  C   UNL A   1      32.033  26.980  25.819  1.00  0.00     0.116 C 
BRANCH   3   4
ATOM      4  N   UNL A   1      32.216  26.957  24.383  1.00  0.00    -0.352 N 
ATOM      5  C   UNL A   1      32.633  26.055  23.460  1.00  0.00     0.251 C 
ATOM      6  O   UNL A   1      32.624  26.505  22.310  1.00  0.00    -0.269 OA
ATOM      7  H   UNL A   1      31.975  27.817  23.970  1.00  0.00     0.163 HD
BRANCH   5   8
ATOM      8  C   UNL A   1      33.013  24.601  23.747  1.00  0.00     0.047 C 
ATOM      9  C   UNL A   1      32.031  23.679  23.895  1.00  0.00     0.022 C 
BRANCH   8  10
ATOM     10  C   UNL A   1      34.457  24.266  24.049  1.00  0.00    -0.013 A 
ATOM     11  C   UNL A   1      36.983  23.233  24.905  1.00  0.00     0.041 A 
ATOM     12  C   UNL A   1      36.558  23.087  23.583  1.00  0.00     0.027 A 
ATOM     13  C   UNL A   1      36.224  24.034  25.741  1.00  0.00     0.027 A 
ATOM     14  C   UNL A   1      35.329  23.625  23.155  1.00  0.00     0.011 A 
ATOM     15  C   UNL A   1      34.971  24.502  25.334  1.00  0.00     0.011 A 
BRANCH  11  16
ATOM     16  N   UNL A   1      38.151  22.565  25.307  1.00  0.00    -0.326 N 
ATOM     17  C   UNL A   1      37.475  20.171  24.983  1.00  0.00     0.114 C 
ATOM     18  C   UNL A   1      38.440  21.234  25.439  1.00  0.00     0.221 C 
ATOM     19  O   UNL A   1      39.539  20.914  25.901  1.00  0.00    -0.275 OA
ATOM     20  H   UNL A   1      38.899  23.163  25.535  1.00  0.00     0.169 HD
ENDBRANCH  11  16
ENDBRANCH   8  10
BRANCH   9  21
ATOM     21  C   UNL A   1      32.131  22.214  23.975  1.00  0.00    -0.025 A 
ATOM     22  C   UNL A   1      32.033  21.488  22.774  1.00  0.00     0.009 A 
ATOM     23  C   UNL A   1      32.381  21.538  25.171  1.00  0.00     0.009 A 
ATOM     24  C   UNL A   1      32.240  20.107  22.759  1.00  0.00     0.021 A 
ATOM     25  C   UNL A   1      32.590  20.154  25.162  1.00  0.00     0.021 A 
ATOM     26  C   UNL A   1      32.527  19.449  23.956  1.00  0.00     0.067 A 
BRANCH  26  27
ATOM     27  S   UNL A   1      32.942  17.719  23.908  1.00  0.00     0.175 S 
ATOM     28  C   UNL A   1      34.650  17.673  24.376  1.00  0.00     0.163 C 
ATOM     29  O   UNL A   1      32.168  17.069  24.948  1.00  0.00    -0.224 OA
ATOM     30  O   UNL A   1      32.845  17.284  22.527  1.00  0.00    -0.224 OA
ENDBRANCH  26  27
ENDBRANCH   9  21
ENDBRANCH   5   8
ENDBRANCH   3   4
ENDBRANCH   2   3
ENDBRANCH   1   2
BRANCH   1  31
ATOM     31  C   UNL A   1      31.731  30.385  26.032  1.00  0.00     0.002 C 
BRANCH  31  32
ATOM     32  C   UNL A   1      31.483  31.748  26.681  1.00  0.00     0.021 C 
BRANCH  32  33
ATOM     33  C   UNL A   1      32.734  32.398  27.263  1.00  0.00     0.116 C 
BRANCH  33  34
ATOM     34  N   UNL A   1      32.509  33.800  27.586  1.00  0.00    -0.352 N 
ATOM     35  C   UNL A   1      33.127  34.580  28.532  1.00  0.00     0.251 C 
ATOM     36  H   UNL A   1      31.818  34.251  27.052  1.00  0.00     0.163 HD
ATOM     37  O   UNL A   1      32.663  35.670  28.843  1.00  0.00    -0.269 OA
BRANCH  35  38
ATOM     38  C   UNL A   1      34.353  34.085  29.190  1.00  0.00     0.039 A 
ATOM     39  C   UNL A   1      34.246  33.378  30.390  1.00  0.00     0.014 A 
ATOM     40  C   UNL A   1      35.603  34.301  28.603  1.00  0.00     0.014 A 
ATOM     41  C   UNL A   1      35.389  32.815  30.960  1.00  0.00     0.010 A 
ATOM     42  C   UNL A   1      36.729  33.684  29.137  1.00  0.00     0.010 A 
ATOM     43  C   UNL A   1      36.629  32.925  30.312  1.00  0.00    -0.014 A 
BRANCH  43  44
ATOM     44  C   UNL A   1      37.831  32.215  30.813  1.00  0.00     0.031 A 
ATOM     45  C   UNL A   1      38.631  32.786  31.946  1.00  0.00     0.074 A 
ATOM     46  C   UNL A   1      38.252  31.104  30.178  1.00  0.00     0.049 A 
ATOM     47  N   UNL A   1      39.763  32.368  32.452  1.00  0.00    -0.248 NA
ATOM     48  C   UNL A   1      38.100  34.003  32.578  1.00  0.00     0.031 C 
ATOM     49  C   UNL A   1      37.575  30.470  29.045  1.00  0.00     0.029 A 
ATOM     50  N   UNL A   1      39.358  30.321  30.387  1.00  0.00    -0.354 N 
ATOM     51  C   UNL A   1      40.084  33.272  33.454  1.00  0.00     0.074 A 
ATOM     52  C   UNL A   1      39.057  34.292  33.447  1.00  0.00     0.031 C 
ATOM     53  C   UNL A   1      38.266  29.381  28.676  1.00  0.00     0.029 A 
ATOM     54  C   UNL A   1      39.458  29.268  29.511  1.00  0.00     0.049 A 
ATOM     55  H   UNL A   1      40.017  30.496  31.096  1.00  0.00     0.167 HD
ATOM     56  C   UNL A   1      41.132  33.246  34.313  1.00  0.00     0.037 A 
ATOM     57  C   UNL A   1      40.410  28.324  29.384  1.00  0.00     0.037 A 
ATOM     58  C   UNL A   1      42.150  32.227  34.314  1.00  0.00     0.049 A 
ATOM     59  C   UNL A   1      41.599  28.355  30.303  1.00  0.00     0.074 A 
ATOM     60  C   UNL A   1      43.215  32.071  35.183  1.00  0.00     0.029 A 
ATOM     61  N   UNL A   1      42.236  31.197  33.388  1.00  0.00    -0.354 N 
ATOM     62  N   UNL A   1      41.858  29.176  31.290  1.00  0.00    -0.248 NA
ATOM     63  C   UNL A   1      42.632  27.334  30.080  1.00  0.00     0.031 C 
ATOM     64  C   UNL A   1      43.979  30.983  34.747  1.00  0.00     0.029 A 
ATOM     65  C   UNL A   1      43.362  30.428  33.636  1.00  0.00     0.049 A 
ATOM     66  H   UNL A   1      41.592  31.034  32.661  1.00  0.00     0.167 HD
ATOM     67  C   UNL A   1      43.073  28.762  31.820  1.00  0.00     0.074 A 
ATOM     68  C   UNL A   1      43.492  27.608  31.050  1.00  0.00     0.031 C 
ATOM     69  C   UNL A   1      43.775  29.291  32.853  1.00  0.00     0.037 A 
BRANCH  56  70
ATOM     70  C   UNL A   1      41.231  34.367  35.308  1.00  0.00     0.057 A 
ATOM     71  C   UNL A   1      40.593  34.308  36.556  1.00  0.00     0.134 A 
ATOM     72  C   UNL A   1      41.971  35.519  35.016  1.00  0.00     0.134 A 
ATOM     73  F   UNL A   1      39.860  33.237  36.895  1.00  0.00    -0.206 F 
ATOM     74  C   UNL A   1      40.653  35.371  37.458  1.00  0.00     0.040 A 
ATOM     75  C   UNL A   1      42.063  36.577  35.924  1.00  0.00     0.040 A 
ATOM     76  F   UNL A   1      42.613  35.639  33.846  1.00  0.00    -0.206 F 
ATOM     77  C   UNL A   1      41.392  36.510  37.143  1.00  0.00     0.006 A 
ENDBRANCH  56  70
BRANCH  57  78
ATOM     78  C   UNL A   1      40.262  27.261  28.361  1.00  0.00     0.057 A 
ATOM     79  C   UNL A   1      40.882  27.382  27.112  1.00  0.00     0.134 A 
ATOM     80  C   UNL A   1      39.528  26.094  28.608  1.00  0.00     0.134 A 
ATOM     81  F   UNL A   1      41.583  28.484  26.812  1.00  0.00    -0.206 F 
ATOM     82  C   UNL A   1      40.774  26.384  26.143  1.00  0.00     0.040 A 
ATOM     83  C   UNL A   1      39.430  25.078  27.656  1.00  0.00     0.040 A 
ATOM     84  F   UNL A   1      38.917  25.916  29.788  1.00  0.00    -0.206 F 
ATOM     85  C   UNL A   1      40.052  25.223  26.418  1.00  0.00     0.006 A 
ENDBRANCH  57  78
BRANCH  69  86
ATOM     86  C   UNL A   1      45.070  28.623  33.214  1.00  0.00     0.057 A 
ATOM     87  C   UNL A   1      45.116  27.538  34.097  1.00  0.00     0.134 A 
ATOM     88  C   UNL A   1      46.276  29.038  32.635  1.00  0.00     0.134 A 
ATOM     89  F   UNL A   1      43.999  27.103  34.699  1.00  0.00    -0.206 F 
ATOM     90  C   UNL A   1      46.317  26.895  34.400  1.00  0.00     0.040 A 
ATOM     91  C   UNL A   1      47.479  28.388  32.910  1.00  0.00     0.040 A 
ATOM     92  F   UNL A   1      46.300  30.069  31.776  1.00  0.00    -0.206 F 
ATOM     93  C   UNL A   1      47.503  27.315  33.798  1.00  0.00     0.006 A 
ENDBRANCH  69  86
ENDBRANCH  43  44
ENDBRANCH  35  38
ENDBRANCH  33  34
ENDBRANCH  32  33
ENDBRANCH  31  32
ENDBRANCH   1  31
TORSDOF 17
ENDMDL
MODEL 3
REMARK VINA RESULT:     -12.6      1.802      2.855
REMARK SMILES CC(=O)Nc1ccc(/C(=C\c2ccc(S(C)(=O)=O)cc2)C(=O)NCCCCCCNC(=O)c2ccc(-c3c4nc(c(-c5c(F)cccc5F)c5ccc([nH]5)c(-c5c(F)cccc5F)c5nc(c(-c6c(F)cccc6F)c6ccc3[nH]6)C=C5)C=C4)cc2)cc1
REMARK SMILES IDX 26 1 25 2 24 3 23 4 21 5 22 6 9 8 10 9 8 10 5 11 6 12 88 13
REMARK SMILES IDX 7 14 87 15 4 16 1 17 2 18 3 19 11 21 12 22 20 23 13 24 19 25
REMARK SMILES IDX 14 26 15 27 16 28 17 29 18 30 27 31 28 32 29 33 30 34 31 35
REMARK SMILES IDX 32 37 33 38 34 39 86 40 35 41 85 42 36 43 37 44 38 45 79 46
REMARK SMILES IDX 39 47 84 48 78 49 80 50 40 51 83 52 77 53 76 54 41 56 67 57
REMARK SMILES IDX 50 58 66 59 51 60 54 61 65 62 81 63 52 64 53 65 64 67 82 68
REMARK SMILES IDX 55 69 42 70 43 71 48 72 44 73 45 74 47 75 49 76 46 77 68 78
REMARK SMILES IDX 69 79 74 80 70 81 71 82 73 83 75 84 72 85 56 86 57 87 62 88
REMARK SMILES IDX 58 89 59 90 61 91 63 92 60 93
REMARK H PARENT 23 7 4 20 30 36 80 55 54 66
REMARK Flexibility Score: inf
ROOT
ATOM      1  C   UNL A   1      31.516  25.622  25.824  1.00  0.00     0.002 C 
ENDROOT
BRANCH   1   2
ATOM      2  C   UNL A   1      30.389  25.934  24.825  1.00  0.00     0.021 C 
BRANCH   2   3
ATOM      3  C   UNL A   1      30.391  25.021  23.596  1.00  0.00     0.116 C 
BRANCH   3   4
ATOM      4  N   UNL A   1      31.544  25.309  22.768  1.00  0.00    -0.352 N 
ATOM      5  C   UNL A   1      32.758  24.746  22.544  1.00  0.00     0.251 C 
ATOM      6  O   UNL A   1      33.433  25.372  21.721  1.00  0.00    -0.269 OA
ATOM      7  H   UNL A   1      31.413  26.122  22.229  1.00  0.00     0.163 HD
BRANCH   5   8
ATOM      8  C   UNL A   1      33.258  23.437  23.159  1.00  0.00     0.047 C 
ATOM      9  C   UNL A   1      32.416  22.378  23.232  1.00  0.00     0.022 C 
BRANCH   8  10
ATOM     10  C   UNL A   1      34.607  23.417  23.844  1.00  0.00    -0.013 A 
ATOM     11  C   UNL A   1      36.966  22.952  25.391  1.00  0.00     0.041 A 
ATOM     12  C   UNL A   1      36.944  22.692  24.019  1.00  0.00     0.027 A 
ATOM     13  C   UNL A   1      35.872  23.595  25.943  1.00  0.00     0.027 A 
ATOM     14  C   UNL A   1      35.792  22.953  23.253  1.00  0.00     0.011 A 
ATOM     15  C   UNL A   1      34.706  23.783  25.196  1.00  0.00     0.011 A 
BRANCH  11  16
ATOM     16  N   UNL A   1      38.094  22.550  26.127  1.00  0.00    -0.326 N 
ATOM     17  C   UNL A   1      39.136  24.767  26.668  1.00  0.00     0.114 C 
ATOM     18  C   UNL A   1      39.130  23.260  26.668  1.00  0.00     0.221 C 
ATOM     19  O   UNL A   1      40.053  22.639  27.203  1.00  0.00    -0.275 OA
ATOM     20  H   UNL A   1      38.146  21.580  26.284  1.00  0.00     0.169 HD
ENDBRANCH  11  16
ENDBRANCH   8  10
BRANCH   9  21
ATOM     21  C   UNL A   1      32.705  20.979  23.585  1.00  0.00    -0.025 A 
ATOM     22  C   UNL A   1      32.208  19.976  22.733  1.00  0.00     0.009 A 
ATOM     23  C   UNL A   1      33.497  20.625  24.679  1.00  0.00     0.009 A 
ATOM     24  C   UNL A   1      32.545  18.637  22.940  1.00  0.00     0.021 A 
ATOM     25  C   UNL A   1      33.839  19.285  24.890  1.00  0.00     0.021 A 
ATOM     26  C   UNL A   1      33.368  18.300  24.015  1.00  0.00     0.067 A 
BRANCH  26  27
ATOM     27  S   UNL A   1      33.920  16.617  24.181  1.00  0.00     0.175 S 
ATOM     28  C   UNL A   1      32.578  15.804  25.004  1.00  0.00     0.163 C 
ATOM     29  O   UNL A   1      34.028  16.072  22.841  1.00  0.00    -0.224 OA
ATOM     30  O   UNL A   1      35.060  16.616  25.077  1.00  0.00    -0.224 OA
ENDBRANCH  26  27
ENDBRANCH   9  21
ENDBRANCH   5   8
ENDBRANCH   3   4
ENDBRANCH   2   3
ENDBRANCH   1   2
BRANCH   1  31
ATOM     31  C   UNL A   1      32.540  26.748  26.021  1.00  0.00     0.002 C 
BRANCH  31  32
ATOM     32  C   UNL A   1      32.187  28.064  25.325  1.00  0.00     0.021 C 
BRANCH  32  33
ATOM     33  C   UNL A   1      33.276  29.129  25.418  1.00  0.00     0.116 C 
BRANCH  33  34
ATOM     34  N   UNL A   1      32.752  30.388  25.929  1.00  0.00    -0.352 N 
ATOM     35  C   UNL A   1      33.212  31.160  26.968  1.00  0.00     0.251 C 
ATOM     36  H   UNL A   1      31.957  30.735  25.465  1.00  0.00     0.163 HD
ATOM     37  O   UNL A   1      32.525  32.065  27.425  1.00  0.00    -0.269 OA
BRANCH  35  38
ATOM     38  C   UNL A   1      34.541  30.877  27.544  1.00  0.00     0.039 A 
ATOM     39  C   UNL A   1      35.468  31.916  27.663  1.00  0.00     0.014 A 
ATOM     40  C   UNL A   1      34.858  29.590  27.988  1.00  0.00     0.014 A 
ATOM     41  C   UNL A   1      36.686  31.680  28.304  1.00  0.00     0.010 A 
ATOM     42  C   UNL A   1      36.042  29.374  28.684  1.00  0.00     0.010 A 
ATOM     43  C   UNL A   1      36.959  30.420  28.860  1.00  0.00    -0.014 A 
BRANCH  43  44
ATOM     44  C   UNL A   1      38.175  30.180  29.674  1.00  0.00     0.031 A 
ATOM     45  C   UNL A   1      39.282  29.316  29.147  1.00  0.00     0.074 A 
ATOM     46  C   UNL A   1      38.234  30.665  30.929  1.00  0.00     0.049 A 
ATOM     47  N   UNL A   1      40.370  28.907  29.747  1.00  0.00    -0.248 NA
ATOM     48  C   UNL A   1      39.132  28.826  27.768  1.00  0.00     0.031 C 
ATOM     49  C   UNL A   1      37.207  31.493  31.564  1.00  0.00     0.029 A 
ATOM     50  N   UNL A   1      39.192  30.520  31.899  1.00  0.00    -0.354 N 
ATOM     51  C   UNL A   1      41.031  28.107  28.826  1.00  0.00     0.074 A 
ATOM     52  C   UNL A   1      40.194  28.043  27.646  1.00  0.00     0.031 C 
ATOM     53  C   UNL A   1      37.603  31.805  32.808  1.00  0.00     0.029 A 
ATOM     54  C   UNL A   1      38.884  31.158  33.076  1.00  0.00     0.049 A 
ATOM     55  H   UNL A   1      40.021  30.007  31.766  1.00  0.00     0.167 HD
ATOM     56  C   UNL A   1      42.234  27.496  28.946  1.00  0.00     0.037 A 
ATOM     57  C   UNL A   1      39.551  31.206  34.244  1.00  0.00     0.037 A 
ATOM     58  C   UNL A   1      43.061  27.565  30.123  1.00  0.00     0.049 A 
ATOM     59  C   UNL A   1      40.850  30.462  34.378  1.00  0.00     0.074 A 
ATOM     60  C   UNL A   1      44.324  27.038  30.323  1.00  0.00     0.029 A 
ATOM     61  N   UNL A   1      42.698  28.192  31.307  1.00  0.00    -0.354 N 
ATOM     62  N   UNL A   1      41.497  29.764  33.478  1.00  0.00    -0.248 NA
ATOM     63  C   UNL A   1      41.503  30.504  35.694  1.00  0.00     0.031 C 
ATOM     64  C   UNL A   1      44.700  27.293  31.647  1.00  0.00     0.029 A 
ATOM     65  C   UNL A   1      43.692  28.025  32.257  1.00  0.00     0.049 A 
ATOM     66  H   UNL A   1      41.857  28.683  31.451  1.00  0.00     0.167 HD
ATOM     67  C   UNL A   1      42.643  29.298  34.110  1.00  0.00     0.074 A 
ATOM     68  C   UNL A   1      42.606  29.806  35.467  1.00  0.00     0.031 C 
ATOM     69  C   UNL A   1      43.636  28.523  33.608  1.00  0.00     0.037 A 
BRANCH  56  70
ATOM     70  C   UNL A   1      42.710  26.684  27.775  1.00  0.00     0.057 A 
ATOM     71  C   UNL A   1      43.366  27.272  26.684  1.00  0.00     0.134 A 
ATOM     72  C   UNL A   1      42.511  25.298  27.736  1.00  0.00     0.134 A 
ATOM     73  F   UNL A   1      43.581  28.596  26.653  1.00  0.00    -0.206 F 
ATOM     74  C   UNL A   1      43.767  26.519  25.579  1.00  0.00     0.040 A 
ATOM     75  C   UNL A   1      42.935  24.530  26.650  1.00  0.00     0.040 A 
ATOM     76  F   UNL A   1      41.898  24.669  28.750  1.00  0.00    -0.206 F 
ATOM     77  C   UNL A   1      43.554  25.142  25.562  1.00  0.00     0.006 A 
ENDBRANCH  56  70
BRANCH  57  78
ATOM     78  C   UNL A   1      39.009  32.005  35.370  1.00  0.00     0.057 A 
ATOM     79  C   UNL A   1      38.271  31.393  36.389  1.00  0.00     0.134 A 
ATOM     80  C   UNL A   1      39.232  33.384  35.472  1.00  0.00     0.134 A 
ATOM     81  F   UNL A   1      38.010  30.079  36.336  1.00  0.00    -0.206 F 
ATOM     82  C   UNL A   1      37.770  32.122  37.468  1.00  0.00     0.040 A 
ATOM     83  C   UNL A   1      38.757  34.122  36.557  1.00  0.00     0.040 A 
ATOM     84  F   UNL A   1      39.938  34.027  34.531  1.00  0.00    -0.206 F 
ATOM     85  C   UNL A   1      38.020  33.491  37.558  1.00  0.00     0.006 A 
ENDBRANCH  57  78
BRANCH  69  86
ATOM     86  C   UNL A   1      44.768  28.178  34.531  1.00  0.00     0.057 A 
ATOM     87  C   UNL A   1      44.775  26.992  35.274  1.00  0.00     0.134 A 
ATOM     88  C   UNL A   1      45.886  29.015  34.637  1.00  0.00     0.134 A 
ATOM     89  F   UNL A   1      43.728  26.155  35.230  1.00  0.00    -0.206 F 
ATOM     90  C   UNL A   1      45.849  26.655  36.101  1.00  0.00     0.040 A 
ATOM     91  C   UNL A   1      46.976  28.678  35.440  1.00  0.00     0.040 A 
ATOM     92  F   UNL A   1      45.945  30.165  33.947  1.00  0.00    -0.206 F 
ATOM     93  C   UNL A   1      46.958  27.496  36.178  1.00  0.00     0.006 A 
ENDBRANCH  69  86
ENDBRANCH  43  44
ENDBRANCH  35  38
ENDBRANCH  33  34
ENDBRANCH  32  33
ENDBRANCH  31  32
ENDBRANCH   1  31
TORSDOF 17
ENDMDL
