MODEL 1
REMARK VINA RESULT:     -12.3      0.000      0.000
REMARK SMILES COc1ccc([C@H]2CC(c3ccc(S(C)(=O)=O)cc3)=NN2c2ccc(C(=O)NCCCCCCNC(=O)c3ccc(-c4c5nc(c(-c6c(F)cccc6F)c6ccc([nH]6)c(-c6c(F)cccc6F)c6nc(c(-c7c(F)cccc7F)c7ccc4[nH]7)C=C6)C=C5)cc3)cc2)cc1
REMARK SMILES IDX 31 1 30 2 29 3 28 4 26 5 27 6 25 8 22 9 23 10 93 11 24 12
REMARK SMILES IDX 92 13 21 14 7 15 8 16 9 17 20 18 6 19 3 20 4 21 95 22 5 23
REMARK SMILES IDX 94 24 2 25 1 26 10 27 11 28 19 29 12 30 18 31 13 32 14 33
REMARK SMILES IDX 15 34 16 35 17 36 32 37 33 38 34 39 35 40 36 41 37 43 38 44
REMARK SMILES IDX 39 45 91 46 40 47 90 48 41 49 42 50 43 51 84 52 44 53 89 54
REMARK SMILES IDX 83 55 85 56 45 57 88 58 82 59 81 60 46 62 72 63 55 64 71 65
REMARK SMILES IDX 56 66 59 67 70 68 86 69 57 70 58 71 69 73 87 74 60 75 47 76
REMARK SMILES IDX 48 77 53 78 49 79 50 80 52 81 54 82 51 83 73 84 74 85 79 86
REMARK SMILES IDX 75 87 76 88 78 89 80 90 77 91 61 92 62 93 67 94 63 95 64 96
REMARK SMILES IDX 66 97 68 98 65 99
REMARK H PARENT 28 7 35 42 85 61 59 72
REMARK Flexibility Score: inf
ROOT
ATOM      1  C   UNL A   1      38.500  28.313  28.043  1.00  0.00     0.002 C 
ENDROOT
BRANCH   1   2
ATOM      2  C   UNL A   1      38.005  29.475  28.918  1.00  0.00     0.021 C 
BRANCH   2   3
ATOM      3  C   UNL A   1      36.503  29.416  29.205  1.00  0.00     0.116 C 
BRANCH   3   4
ATOM      4  N   UNL A   1      35.855  30.601  28.683  1.00  0.00    -0.352 N 
ATOM      5  C   UNL A   1      34.808  30.787  27.821  1.00  0.00     0.251 C 
ATOM      6  O   UNL A   1      34.509  31.950  27.544  1.00  0.00    -0.269 OA
ATOM      7  H   UNL A   1      36.245  31.442  29.015  1.00  0.00     0.163 HD
BRANCH   5   8
ATOM      8  C   UNL A   1      33.987  29.677  27.261  1.00  0.00     0.039 A 
ATOM      9  C   UNL A   1      32.587  27.553  26.014  1.00  0.00     0.060 A 
ATOM     10  C   UNL A   1      33.957  27.729  25.805  1.00  0.00     0.029 A 
ATOM     11  C   UNL A   1      31.941  28.414  26.903  1.00  0.00     0.029 A 
ATOM     12  C   UNL A   1      34.645  28.788  26.400  1.00  0.00     0.016 A 
ATOM     13  C   UNL A   1      32.642  29.440  27.555  1.00  0.00     0.016 A 
BRANCH   9  14
ATOM     14  N   UNL A   1      31.921  26.528  25.364  1.00  0.00    -0.257 N 
ATOM     15  C   UNL A   1      30.505  26.549  25.004  1.00  0.00     0.144 C 
ATOM     16  C   UNL A   1      30.262  25.116  24.511  1.00  0.00     0.091 C 
ATOM     17  C   UNL A   1      31.603  24.509  24.806  1.00  0.00     0.071 C 
ATOM     18  N   UNL A   1      32.507  25.308  25.277  1.00  0.00    -0.176 NA
BRANCH  15  19
ATOM     19  C   UNL A   1      30.207  27.585  23.933  1.00  0.00    -0.023 A 
ATOM     20  C   UNL A   1      29.637  29.473  21.920  1.00  0.00     0.118 A 
ATOM     21  C   UNL A   1      28.602  28.865  22.629  1.00  0.00     0.047 A 
ATOM     22  C   UNL A   1      30.959  29.175  22.240  1.00  0.00     0.047 A 
ATOM     23  C   UNL A   1      28.882  27.920  23.621  1.00  0.00     0.010 A 
ATOM     24  C   UNL A   1      31.242  28.238  23.238  1.00  0.00     0.010 A 
BRANCH  20  25
ATOM     25  O   UNL A   1      29.256  30.385  20.973  1.00  0.00    -0.497 OA
ATOM     26  C   UNL A   1      27.960  30.941  21.180  1.00  0.00     0.278 C 
ENDBRANCH  20  25
ENDBRANCH  15  19
BRANCH  17  27
ATOM     27  C   UNL A   1      31.845  23.080  24.603  1.00  0.00    -0.002 A 
ATOM     28  C   UNL A   1      31.755  22.223  25.706  1.00  0.00     0.011 A 
ATOM     29  C   UNL A   1      32.186  22.598  23.339  1.00  0.00     0.011 A 
ATOM     30  C   UNL A   1      31.994  20.861  25.538  1.00  0.00     0.021 A 
ATOM     31  C   UNL A   1      32.451  21.238  23.174  1.00  0.00     0.021 A 
ATOM     32  C   UNL A   1      32.357  20.379  24.276  1.00  0.00     0.067 A 
BRANCH  32  33
ATOM     33  S   UNL A   1      32.680  18.641  24.077  1.00  0.00     0.175 S 
ATOM     34  C   UNL A   1      34.423  18.489  24.369  1.00  0.00     0.163 C 
ATOM     35  O   UNL A   1      31.972  17.961  25.143  1.00  0.00    -0.224 OA
ATOM     36  O   UNL A   1      32.438  18.307  22.685  1.00  0.00    -0.224 OA
ENDBRANCH  32  33
ENDBRANCH  17  27
ENDBRANCH   9  14
ENDBRANCH   5   8
ENDBRANCH   3   4
ENDBRANCH   2   3
ENDBRANCH   1   2
BRANCH   1  37
ATOM     37  C   UNL A   1      39.600  27.452  28.677  1.00  0.00     0.002 C 
BRANCH  37  38
ATOM     38  C   UNL A   1      39.541  25.963  28.327  1.00  0.00     0.021 C 
BRANCH  38  39
ATOM     39  C   UNL A   1      39.922  25.638  26.886  1.00  0.00     0.116 C 
BRANCH  39  40
ATOM     40  N   UNL A   1      40.426  24.279  26.752  1.00  0.00    -0.352 N 
ATOM     41  C   UNL A   1      41.696  23.851  26.462  1.00  0.00     0.251 C 
ATOM     42  H   UNL A   1      39.761  23.567  26.888  1.00  0.00     0.163 HD
ATOM     43  O   UNL A   1      41.908  22.677  26.179  1.00  0.00    -0.269 OA
BRANCH  41  44
ATOM     44  C   UNL A   1      42.816  24.816  26.477  1.00  0.00     0.039 A 
ATOM     45  C   UNL A   1      43.243  25.378  25.272  1.00  0.00     0.014 A 
ATOM     46  C   UNL A   1      43.448  25.155  27.678  1.00  0.00     0.014 A 
ATOM     47  C   UNL A   1      44.265  26.330  25.276  1.00  0.00     0.010 A 
ATOM     48  C   UNL A   1      44.428  26.144  27.687  1.00  0.00     0.010 A 
ATOM     49  C   UNL A   1      44.843  26.743  26.487  1.00  0.00    -0.014 A 
BRANCH  49  50
ATOM     50  C   UNL A   1      45.879  27.804  26.524  1.00  0.00     0.031 A 
ATOM     51  C   UNL A   1      45.476  29.248  26.632  1.00  0.00     0.074 A 
ATOM     52  C   UNL A   1      47.178  27.472  26.391  1.00  0.00     0.049 A 
ATOM     53  N   UNL A   1      46.221  30.322  26.567  1.00  0.00    -0.248 NA
ATOM     54  C   UNL A   1      44.041  29.522  26.815  1.00  0.00     0.031 C 
ATOM     55  C   UNL A   1      47.693  26.110  26.245  1.00  0.00     0.029 A 
ATOM     56  N   UNL A   1      48.301  28.259  26.341  1.00  0.00    -0.354 N 
ATOM     57  C   UNL A   1      45.350  31.395  26.696  1.00  0.00     0.074 A 
ATOM     58  C   UNL A   1      44.014  30.847  26.794  1.00  0.00     0.031 C 
ATOM     59  C   UNL A   1      49.030  26.156  26.126  1.00  0.00     0.029 A 
ATOM     60  C   UNL A   1      49.462  27.550  26.152  1.00  0.00     0.049 A 
ATOM     61  H   UNL A   1      48.277  29.239  26.429  1.00  0.00     0.167 HD
ATOM     62  C   UNL A   1      45.640  32.717  26.751  1.00  0.00     0.037 A 
ATOM     63  C   UNL A   1      50.730  27.976  26.002  1.00  0.00     0.037 A 
ATOM     64  C   UNL A   1      46.970  33.261  26.672  1.00  0.00     0.049 A 
ATOM     65  C   UNL A   1      51.021  29.451  26.046  1.00  0.00     0.074 A 
ATOM     66  C   UNL A   1      47.365  34.585  26.746  1.00  0.00     0.029 A 
ATOM     67  N   UNL A   1      48.121  32.507  26.507  1.00  0.00    -0.354 N 
ATOM     68  N   UNL A   1      50.189  30.452  26.208  1.00  0.00    -0.248 NA
ATOM     69  C   UNL A   1      52.426  29.855  25.892  1.00  0.00     0.031 C 
ATOM     70  C   UNL A   1      48.755  34.635  26.599  1.00  0.00     0.029 A 
ATOM     71  C   UNL A   1      49.226  33.339  26.466  1.00  0.00     0.049 A 
ATOM     72  H   UNL A   1      48.148  31.526  26.428  1.00  0.00     0.167 HD
ATOM     73  C   UNL A   1      50.970  31.600  26.197  1.00  0.00     0.074 A 
ATOM     74  C   UNL A   1      52.343  31.171  26.029  1.00  0.00     0.031 C 
ATOM     75  C   UNL A   1      50.586  32.893  26.310  1.00  0.00     0.037 A 
BRANCH  62  76
ATOM     76  C   UNL A   1      44.494  33.669  26.923  1.00  0.00     0.057 A 
ATOM     77  C   UNL A   1      44.032  34.034  28.194  1.00  0.00     0.134 A 
ATOM     78  C   UNL A   1      43.882  34.267  25.814  1.00  0.00     0.134 A 
ATOM     79  F   UNL A   1      44.570  33.488  29.295  1.00  0.00    -0.206 F 
ATOM     80  C   UNL A   1      42.991  34.949  28.357  1.00  0.00     0.040 A 
ATOM     81  C   UNL A   1      42.856  35.201  25.965  1.00  0.00     0.040 A 
ATOM     82  F   UNL A   1      44.281  33.965  24.570  1.00  0.00    -0.206 F 
ATOM     83  C   UNL A   1      42.405  35.541  27.240  1.00  0.00     0.006 A 
ENDBRANCH  62  76
BRANCH  63  84
ATOM     84  C   UNL A   1      51.827  27.000  25.792  1.00  0.00     0.057 A 
ATOM     85  C   UNL A   1      52.188  26.585  24.505  1.00  0.00     0.134 A 
ATOM     86  C   UNL A   1      52.521  26.437  26.869  1.00  0.00     0.134 A 
ATOM     87  F   UNL A   1      51.545  27.073  23.434  1.00  0.00    -0.206 F 
ATOM     88  C   UNL A   1      53.181  25.628  24.297  1.00  0.00     0.040 A 
ATOM     89  C   UNL A   1      53.534  25.497  26.675  1.00  0.00     0.040 A 
ATOM     90  F   UNL A   1      52.228  26.798  28.127  1.00  0.00    -0.206 F 
ATOM     91  C   UNL A   1      53.860  25.083  25.385  1.00  0.00     0.006 A 
ENDBRANCH  63  84
BRANCH  75  92
ATOM     92  C   UNL A   1      51.666  33.933  26.288  1.00  0.00     0.057 A 
ATOM     93  C   UNL A   1      52.089  34.526  25.092  1.00  0.00     0.134 A 
ATOM     94  C   UNL A   1      52.259  34.372  27.478  1.00  0.00     0.134 A 
ATOM     95  F   UNL A   1      51.569  34.138  23.919  1.00  0.00    -0.206 F 
ATOM     96  C   UNL A   1      53.078  35.510  25.080  1.00  0.00     0.040 A 
ATOM     97  C   UNL A   1      53.232  35.370  27.480  1.00  0.00     0.040 A 
ATOM     98  F   UNL A   1      51.892  33.847  28.656  1.00  0.00    -0.206 F 
ATOM     99  C   UNL A   1      53.647  35.939  26.278  1.00  0.00     0.006 A 
ENDBRANCH  75  92
ENDBRANCH  49  50
ENDBRANCH  41  44
ENDBRANCH  39  40
ENDBRANCH  38  39
ENDBRANCH  37  38
ENDBRANCH   1  37
TORSDOF 18
ENDMDL
MODEL 2
REMARK VINA RESULT:     -12.0      0.490      5.778
REMARK SMILES COc1ccc([C@H]2CC(c3ccc(S(C)(=O)=O)cc3)=NN2c2ccc(C(=O)NCCCCCCNC(=O)c3ccc(-c4c5nc(c(-c6c(F)cccc6F)c6ccc([nH]6)c(-c6c(F)cccc6F)c6nc(c(-c7c(F)cccc7F)c7ccc4[nH]7)C=C6)C=C5)cc3)cc2)cc1
REMARK SMILES IDX 31 1 30 2 29 3 28 4 26 5 27 6 25 8 22 9 23 10 93 11 24 12
REMARK SMILES IDX 92 13 21 14 7 15 8 16 9 17 20 18 6 19 3 20 4 21 95 22 5 23
REMARK SMILES IDX 94 24 2 25 1 26 10 27 11 28 19 29 12 30 18 31 13 32 14 33
REMARK SMILES IDX 15 34 16 35 17 36 32 37 33 38 34 39 35 40 36 41 37 43 38 44
REMARK SMILES IDX 39 45 91 46 40 47 90 48 41 49 42 50 43 51 84 52 44 53 89 54
REMARK SMILES IDX 83 55 85 56 45 57 88 58 82 59 81 60 46 62 72 63 55 64 71 65
REMARK SMILES IDX 56 66 59 67 70 68 86 69 57 70 58 71 69 73 87 74 60 75 47 76
REMARK SMILES IDX 48 77 53 78 49 79 50 80 52 81 54 82 51 83 73 84 74 85 79 86
REMARK SMILES IDX 75 87 76 88 78 89 80 90 77 91 61 92 62 93 67 94 63 95 64 96
REMARK SMILES IDX 66 97 68 98 65 99
REMARK H PARENT 28 7 35 42 85 61 59 72
REMARK Flexibility Score: inf
ROOT
ATOM      1  C   UNL A   1      38.861  28.283  27.987  1.00  0.00     0.002 C 
ENDROOT
BRANCH   1   2
ATOM      2  C   UNL A   1      38.235  29.561  28.567  1.00  0.00     0.021 C 
BRANCH   2   3
ATOM      3  C   UNL A   1      36.777  29.380  28.991  1.00  0.00     0.116 C 
BRANCH   3   4
ATOM      4  N   UNL A   1      36.001  30.537  28.594  1.00  0.00    -0.352 N 
ATOM      5  C   UNL A   1      34.866  30.686  27.843  1.00  0.00     0.251 C 
ATOM      6  O   UNL A   1      34.463  31.835  27.657  1.00  0.00    -0.269 OA
ATOM      7  H   UNL A   1      36.363  31.388  28.933  1.00  0.00     0.163 HD
BRANCH   5   8
ATOM      8  C   UNL A   1      34.074  29.545  27.304  1.00  0.00     0.039 A 
ATOM      9  C   UNL A   1      32.696  27.396  26.074  1.00  0.00     0.060 A 
ATOM     10  C   UNL A   1      33.993  27.736  25.680  1.00  0.00     0.029 A 
ATOM     11  C   UNL A   1      32.123  28.105  27.132  1.00  0.00     0.029 A 
ATOM     12  C   UNL A   1      34.666  28.809  26.269  1.00  0.00     0.016 A 
ATOM     13  C   UNL A   1      32.821  29.140  27.771  1.00  0.00     0.016 A 
BRANCH   9  14
ATOM     14  N   UNL A   1      32.034  26.365  25.431  1.00  0.00    -0.257 N 
ATOM     15  C   UNL A   1      30.614  26.372  25.085  1.00  0.00     0.144 C 
ATOM     16  C   UNL A   1      30.380  24.936  24.596  1.00  0.00     0.091 C 
ATOM     17  C   UNL A   1      31.729  24.342  24.878  1.00  0.00     0.071 C 
ATOM     18  N   UNL A   1      32.630  25.150  25.339  1.00  0.00    -0.176 NA
BRANCH  15  19
ATOM     19  C   UNL A   1      30.295  27.404  24.017  1.00  0.00    -0.023 A 
ATOM     20  C   UNL A   1      29.687  29.286  22.009  1.00  0.00     0.118 A 
ATOM     21  C   UNL A   1      28.665  28.650  22.712  1.00  0.00     0.047 A 
ATOM     22  C   UNL A   1      31.015  29.018  22.333  1.00  0.00     0.047 A 
ATOM     23  C   UNL A   1      28.964  27.708  23.701  1.00  0.00     0.010 A 
ATOM     24  C   UNL A   1      31.316  28.085  23.329  1.00  0.00     0.010 A 
BRANCH  20  25
ATOM     25  O   UNL A   1      29.287  30.192  21.064  1.00  0.00    -0.497 OA
ATOM     26  C   UNL A   1      28.062  30.853  21.364  1.00  0.00     0.278 C 
ENDBRANCH  20  25
ENDBRANCH  15  19
BRANCH  17  27
ATOM     27  C   UNL A   1      31.983  22.916  24.673  1.00  0.00    -0.002 A 
ATOM     28  C   UNL A   1      32.281  22.123  25.787  1.00  0.00     0.011 A 
ATOM     29  C   UNL A   1      31.954  22.375  23.387  1.00  0.00     0.011 A 
ATOM     30  C   UNL A   1      32.539  20.765  25.614  1.00  0.00     0.021 A 
ATOM     31  C   UNL A   1      32.237  21.020  23.209  1.00  0.00     0.021 A 
ATOM     32  C   UNL A   1      32.531  20.224  24.323  1.00  0.00     0.067 A 
BRANCH  32  33
ATOM     33  S   UNL A   1      32.881  18.494  24.111  1.00  0.00     0.175 S 
ATOM     34  C   UNL A   1      32.391  18.155  22.440  1.00  0.00     0.163 C 
ATOM     35  O   UNL A   1      34.320  18.345  24.209  1.00  0.00    -0.224 OA
ATOM     36  O   UNL A   1      31.991  17.756  24.988  1.00  0.00    -0.224 OA
ENDBRANCH  32  33
ENDBRANCH  17  27
ENDBRANCH   9  14
ENDBRANCH   5   8
ENDBRANCH   3   4
ENDBRANCH   2   3
ENDBRANCH   1   2
BRANCH   1  37
ATOM     37  C   UNL A   1      38.905  27.092  28.951  1.00  0.00     0.002 C 
BRANCH  37  38
ATOM     38  C   UNL A   1      39.936  26.014  28.603  1.00  0.00     0.021 C 
BRANCH  38  39
ATOM     39  C   UNL A   1      39.827  25.474  27.180  1.00  0.00     0.116 C 
BRANCH  39  40
ATOM     40  N   UNL A   1      40.383  24.134  27.066  1.00  0.00    -0.352 N 
ATOM     41  C   UNL A   1      41.653  23.750  26.719  1.00  0.00     0.251 C 
ATOM     42  H   UNL A   1      39.758  23.399  27.264  1.00  0.00     0.163 HD
ATOM     43  O   UNL A   1      41.901  22.576  26.466  1.00  0.00    -0.269 OA
BRANCH  41  44
ATOM     44  C   UNL A   1      42.728  24.761  26.637  1.00  0.00     0.039 A 
ATOM     45  C   UNL A   1      43.048  25.310  25.393  1.00  0.00     0.014 A 
ATOM     46  C   UNL A   1      43.424  25.157  27.784  1.00  0.00     0.014 A 
ATOM     47  C   UNL A   1      44.025  26.305  25.308  1.00  0.00     0.010 A 
ATOM     48  C   UNL A   1      44.357  26.186  27.705  1.00  0.00     0.010 A 
ATOM     49  C   UNL A   1      44.664  26.772  26.467  1.00  0.00    -0.014 A 
BRANCH  49  50
ATOM     50  C   UNL A   1      45.653  27.877  26.410  1.00  0.00     0.031 A 
ATOM     51  C   UNL A   1      47.120  27.570  26.303  1.00  0.00     0.074 A 
ATOM     52  C   UNL A   1      45.234  29.152  26.525  1.00  0.00     0.049 A 
ATOM     53  N   UNL A   1      48.141  28.388  26.353  1.00  0.00    -0.248 NA
ATOM     54  C   UNL A   1      47.490  26.155  26.141  1.00  0.00     0.031 C 
ATOM     55  C   UNL A   1      43.840  29.576  26.668  1.00  0.00     0.029 A 
ATOM     56  N   UNL A   1      45.944  30.326  26.556  1.00  0.00    -0.354 N 
ATOM     57  C   UNL A   1      49.271  27.589  26.234  1.00  0.00     0.074 A 
ATOM     58  C   UNL A   1      48.814  26.218  26.158  1.00  0.00     0.031 C 
ATOM     59  C   UNL A   1      43.796  30.914  26.766  1.00  0.00     0.029 A 
ATOM     60  C   UNL A   1      45.157  31.439  26.729  1.00  0.00     0.049 A 
ATOM     61  H   UNL A   1      46.923  30.368  26.464  1.00  0.00     0.167 HD
ATOM     62  C   UNL A   1      50.570  27.967  26.170  1.00  0.00     0.037 A 
ATOM     63  C   UNL A   1      45.498  32.736  26.859  1.00  0.00     0.037 A 
ATOM     64  C   UNL A   1      51.023  29.331  26.227  1.00  0.00     0.049 A 
ATOM     65  C   UNL A   1      46.949  33.124  26.805  1.00  0.00     0.074 A 
ATOM     66  C   UNL A   1      52.317  29.815  26.142  1.00  0.00     0.029 A 
ATOM     67  N   UNL A   1      50.193  30.431  26.378  1.00  0.00    -0.354 N 
ATOM     68  N   UNL A   1      48.004  32.360  26.652  1.00  0.00    -0.248 NA
ATOM     69  C   UNL A   1      47.258  34.556  26.937  1.00  0.00     0.031 C 
ATOM     70  C   UNL A   1      52.274  31.207  26.268  1.00  0.00     0.029 A 
ATOM     71  C   UNL A   1      50.949  31.591  26.399  1.00  0.00     0.049 A 
ATOM     72  H   UNL A   1      49.212  30.393  26.459  1.00  0.00     0.167 HD
ATOM     73  C   UNL A   1      49.096  33.217  26.648  1.00  0.00     0.074 A 
ATOM     74  C   UNL A   1      48.576  34.561  26.797  1.00  0.00     0.031 C 
ATOM     75  C   UNL A   1      50.412  32.920  26.536  1.00  0.00     0.037 A 
BRANCH  62  76
ATOM     76  C   UNL A   1      51.597  26.886  26.012  1.00  0.00     0.057 A 
ATOM     77  C   UNL A   1      51.958  26.400  24.748  1.00  0.00     0.134 A 
ATOM     78  C   UNL A   1      52.269  26.362  27.123  1.00  0.00     0.134 A 
ATOM     79  F   UNL A   1      51.343  26.852  23.646  1.00  0.00    -0.206 F 
ATOM     80  C   UNL A   1      52.941  25.421  24.597  1.00  0.00     0.040 A 
ATOM     81  C   UNL A   1      53.270  25.400  26.983  1.00  0.00     0.040 A 
ATOM     82  F   UNL A   1      51.975  26.789  28.361  1.00  0.00    -0.206 F 
ATOM     83  C   UNL A   1      53.605  24.924  25.716  1.00  0.00     0.006 A 
ENDBRANCH  62  76
BRANCH  63  84
ATOM     84  C   UNL A   1      44.450  33.768  27.056  1.00  0.00     0.057 A 
ATOM     85  C   UNL A   1      43.861  34.416  25.965  1.00  0.00     0.134 A 
ATOM     86  C   UNL A   1      44.032  34.150  28.336  1.00  0.00     0.134 A 
ATOM     87  F   UNL A   1      44.236  34.108  24.715  1.00  0.00    -0.206 F 
ATOM     88  C   UNL A   1      42.914  35.426  26.138  1.00  0.00     0.040 A 
ATOM     89  C   UNL A   1      43.068  35.142  28.524  1.00  0.00     0.040 A 
ATOM     90  F   UNL A   1      44.554  33.562  29.423  1.00  0.00    -0.206 F 
ATOM     91  C   UNL A   1      42.513  35.789  27.423  1.00  0.00     0.006 A 
ENDBRANCH  63  84
BRANCH  75  92
ATOM     92  C   UNL A   1      51.377  34.067  26.538  1.00  0.00     0.057 A 
ATOM     93  C   UNL A   1      52.052  34.456  27.702  1.00  0.00     0.134 A 
ATOM     94  C   UNL A   1      51.660  34.764  25.358  1.00  0.00     0.134 A 
ATOM     95  F   UNL A   1      51.812  33.837  28.867  1.00  0.00    -0.206 F 
ATOM     96  C   UNL A   1      52.966  35.510  27.694  1.00  0.00     0.040 A 
ATOM     97  C   UNL A   1      52.588  35.804  25.332  1.00  0.00     0.040 A 
ATOM     98  F   UNL A   1      51.051  34.435  24.209  1.00  0.00    -0.206 F 
ATOM     99  C   UNL A   1      53.241  36.183  26.504  1.00  0.00     0.006 A 
ENDBRANCH  75  92
ENDBRANCH  49  50
ENDBRANCH  41  44
ENDBRANCH  39  40
ENDBRANCH  38  39
ENDBRANCH  37  38
ENDBRANCH   1  37
TORSDOF 18
ENDMDL
MODEL 3
REMARK VINA RESULT:     -11.9      2.852      6.668
REMARK SMILES COc1ccc([C@H]2CC(c3ccc(S(C)(=O)=O)cc3)=NN2c2ccc(C(=O)NCCCCCCNC(=O)c3ccc(-c4c5nc(c(-c6c(F)cccc6F)c6ccc([nH]6)c(-c6c(F)cccc6F)c6nc(c(-c7c(F)cccc7F)c7ccc4[nH]7)C=C6)C=C5)cc3)cc2)cc1
REMARK SMILES IDX 31 1 30 2 29 3 28 4 26 5 27 6 25 8 22 9 23 10 93 11 24 12
REMARK SMILES IDX 92 13 21 14 7 15 8 16 9 17 20 18 6 19 3 20 4 21 95 22 5 23
REMARK SMILES IDX 94 24 2 25 1 26 10 27 11 28 19 29 12 30 18 31 13 32 14 33
REMARK SMILES IDX 15 34 16 35 17 36 32 37 33 38 34 39 35 40 36 41 37 43 38 44
REMARK SMILES IDX 39 45 91 46 40 47 90 48 41 49 42 50 43 51 84 52 44 53 89 54
REMARK SMILES IDX 83 55 85 56 45 57 88 58 82 59 81 60 46 62 72 63 55 64 71 65
REMARK SMILES IDX 56 66 59 67 70 68 86 69 57 70 58 71 69 73 87 74 60 75 47 76
REMARK SMILES IDX 48 77 53 78 49 79 50 80 52 81 54 82 51 83 73 84 74 85 79 86
REMARK SMILES IDX 75 87 76 88 78 89 80 90 77 91 61 92 62 93 67 94 63 95 64 96
REMARK SMILES IDX 66 97 68 98 65 99
REMARK H PARENT 28 7 35 42 85 61 59 72
REMARK Flexibility Score: inf
ROOT
ATOM      1  C   UNL A   1      36.204  29.888  30.786  1.00  0.00     0.002 C 
ENDROOT
BRANCH   1   2
ATOM      2  C   UNL A   1      37.345  29.740  29.767  1.00  0.00     0.021 C 
BRANCH   2   3
ATOM      3  C   UNL A   1      36.883  29.897  28.317  1.00  0.00     0.116 C 
BRANCH   3   4
ATOM      4  N   UNL A   1      35.938  30.990  28.218  1.00  0.00    -0.352 N 
ATOM      5  C   UNL A   1      34.665  31.079  27.722  1.00  0.00     0.251 C 
ATOM      6  O   UNL A   1      34.126  32.187  27.755  1.00  0.00    -0.269 OA
ATOM      7  H   UNL A   1      36.279  31.840  28.579  1.00  0.00     0.163 HD
BRANCH   5   8
ATOM      8  C   UNL A   1      33.890  29.912  27.214  1.00  0.00     0.039 A 
ATOM      9  C   UNL A   1      32.587  27.669  26.074  1.00  0.00     0.060 A 
ATOM     10  C   UNL A   1      33.966  27.848  25.930  1.00  0.00     0.029 A 
ATOM     11  C   UNL A   1      31.881  28.593  26.847  1.00  0.00     0.029 A 
ATOM     12  C   UNL A   1      34.607  28.964  26.471  1.00  0.00     0.016 A 
ATOM     13  C   UNL A   1      32.532  29.681  27.448  1.00  0.00     0.016 A 
BRANCH   9  14
ATOM     14  N   UNL A   1      31.972  26.582  25.478  1.00  0.00    -0.257 N 
ATOM     15  C   UNL A   1      30.550  26.506  25.146  1.00  0.00     0.144 C 
ATOM     16  C   UNL A   1      30.384  25.043  24.713  1.00  0.00     0.091 C 
ATOM     17  C   UNL A   1      31.764  24.528  25.003  1.00  0.00     0.071 C 
ATOM     18  N   UNL A   1      32.627  25.396  25.425  1.00  0.00    -0.176 NA
BRANCH  15  19
ATOM     19  C   UNL A   1      30.172  27.481  24.043  1.00  0.00    -0.023 A 
ATOM     20  C   UNL A   1      29.488  29.324  22.023  1.00  0.00     0.118 A 
ATOM     21  C   UNL A   1      30.826  29.053  22.307  1.00  0.00     0.047 A 
ATOM     22  C   UNL A   1      28.487  28.646  22.715  1.00  0.00     0.047 A 
ATOM     23  C   UNL A   1      31.168  28.148  23.315  1.00  0.00     0.010 A 
ATOM     24  C   UNL A   1      28.827  27.732  23.718  1.00  0.00     0.010 A 
BRANCH  20  25
ATOM     25  O   UNL A   1      29.261  30.222  21.017  1.00  0.00    -0.497 OA
ATOM     26  C   UNL A   1      27.995  30.873  21.083  1.00  0.00     0.278 C 
ENDBRANCH  20  25
ENDBRANCH  15  19
BRANCH  17  27
ATOM     27  C   UNL A   1      32.086  23.109  24.849  1.00  0.00    -0.002 A 
ATOM     28  C   UNL A   1      31.839  22.497  23.616  1.00  0.00     0.011 A 
ATOM     29  C   UNL A   1      32.603  22.386  25.925  1.00  0.00     0.011 A 
ATOM     30  C   UNL A   1      32.126  21.143  23.450  1.00  0.00     0.021 A 
ATOM     31  C   UNL A   1      32.867  21.024  25.769  1.00  0.00     0.021 A 
ATOM     32  C   UNL A   1      32.624  20.411  24.534  1.00  0.00     0.067 A 
BRANCH  32  33
ATOM     33  S   UNL A   1      32.969  18.680  24.319  1.00  0.00     0.175 S 
ATOM     34  C   UNL A   1      32.410  18.329  22.672  1.00  0.00     0.163 C 
ATOM     35  O   UNL A   1      34.410  18.534  24.357  1.00  0.00    -0.224 OA
ATOM     36  O   UNL A   1      32.117  17.946  25.236  1.00  0.00    -0.224 OA
ENDBRANCH  32  33
ENDBRANCH  17  27
ENDBRANCH   9  14
ENDBRANCH   5   8
ENDBRANCH   3   4
ENDBRANCH   2   3
ENDBRANCH   1   2
BRANCH   1  37
ATOM     37  C   UNL A   1      36.502  30.837  31.953  1.00  0.00     0.002 C 
BRANCH  37  38
ATOM     38  C   UNL A   1      35.513  31.995  32.117  1.00  0.00     0.021 C 
BRANCH  38  39
ATOM     39  C   UNL A   1      35.938  33.289  31.429  1.00  0.00     0.116 C 
BRANCH  39  40
ATOM     40  N   UNL A   1      36.551  34.222  32.362  1.00  0.00    -0.352 N 
ATOM     41  C   UNL A   1      37.851  34.285  32.794  1.00  0.00     0.251 C 
ATOM     42  H   UNL A   1      35.947  34.903  32.736  1.00  0.00     0.163 HD
ATOM     43  O   UNL A   1      38.157  35.002  33.742  1.00  0.00    -0.269 OA
BRANCH  41  44
ATOM     44  C   UNL A   1      38.887  33.474  32.122  1.00  0.00     0.039 A 
ATOM     45  C   UNL A   1      39.065  33.608  30.744  1.00  0.00     0.014 A 
ATOM     46  C   UNL A   1      39.672  32.575  32.852  1.00  0.00     0.014 A 
ATOM     47  C   UNL A   1      40.076  32.887  30.104  1.00  0.00     0.010 A 
ATOM     48  C   UNL A   1      40.714  31.899  32.223  1.00  0.00     0.010 A 
ATOM     49  C   UNL A   1      40.927  32.051  30.843  1.00  0.00    -0.014 A 
BRANCH  49  50
ATOM     50  C   UNL A   1      42.052  31.330  30.198  1.00  0.00     0.031 A 
ATOM     51  C   UNL A   1      43.376  32.016  30.008  1.00  0.00     0.074 A 
ATOM     52  C   UNL A   1      41.860  30.085  29.722  1.00  0.00     0.049 A 
ATOM     53  N   UNL A   1      44.440  31.597  29.370  1.00  0.00    -0.248 NA
ATOM     54  C   UNL A   1      43.516  33.359  30.593  1.00  0.00     0.031 C 
ATOM     55  C   UNL A   1      40.611  29.327  29.815  1.00  0.00     0.029 A 
ATOM     56  N   UNL A   1      42.711  29.244  29.049  1.00  0.00    -0.354 N 
ATOM     57  C   UNL A   1      45.370  32.623  29.472  1.00  0.00     0.074 A 
ATOM     58  C   UNL A   1      44.730  33.704  30.191  1.00  0.00     0.031 C 
ATOM     59  C   UNL A   1      40.779  28.131  29.226  1.00  0.00     0.029 A 
ATOM     60  C   UNL A   1      42.132  28.053  28.684  1.00  0.00     0.049 A 
ATOM     61  H   UNL A   1      43.646  29.473  28.846  1.00  0.00     0.167 HD
ATOM     62  C   UNL A   1      46.649  32.652  29.028  1.00  0.00     0.037 A 
ATOM     63  C   UNL A   1      42.631  27.021  27.979  1.00  0.00     0.037 A 
ATOM     64  C   UNL A   1      47.290  31.569  28.329  1.00  0.00     0.049 A 
ATOM     65  C   UNL A   1      44.048  27.088  27.479  1.00  0.00     0.074 A 
ATOM     66  C   UNL A   1      48.591  31.495  27.864  1.00  0.00     0.029 A 
ATOM     67  N   UNL A   1      46.678  30.370  28.001  1.00  0.00    -0.354 N 
ATOM     68  N   UNL A   1      44.928  28.050  27.618  1.00  0.00    -0.248 NA
ATOM     69  C   UNL A   1      44.543  25.925  26.728  1.00  0.00     0.031 C 
ATOM     70  C   UNL A   1      48.759  30.260  27.230  1.00  0.00     0.029 A 
ATOM     71  C   UNL A   1      47.572  29.554  27.330  1.00  0.00     0.049 A 
ATOM     72  H   UNL A   1      45.745  30.135  28.213  1.00  0.00     0.167 HD
ATOM     73  C   UNL A   1      46.084  27.601  26.994  1.00  0.00     0.074 A 
ATOM     74  C   UNL A   1      45.799  26.273  26.489  1.00  0.00     0.031 C 
ATOM     75  C   UNL A   1      47.272  28.231  26.846  1.00  0.00     0.037 A 
BRANCH  62  76
ATOM     76  C   UNL A   1      47.448  33.891  29.301  1.00  0.00     0.057 A 
ATOM     77  C   UNL A   1      47.490  34.949  28.384  1.00  0.00     0.134 A 
ATOM     78  C   UNL A   1      48.139  34.052  30.508  1.00  0.00     0.134 A 
ATOM     79  F   UNL A   1      46.859  34.852  27.204  1.00  0.00    -0.206 F 
ATOM     80  C   UNL A   1      48.203  36.119  28.652  1.00  0.00     0.040 A 
ATOM     81  C   UNL A   1      48.836  35.225  30.798  1.00  0.00     0.040 A 
ATOM     82  F   UNL A   1      48.134  33.077  31.431  1.00  0.00    -0.206 F 
ATOM     83  C   UNL A   1      48.872  36.262  29.866  1.00  0.00     0.006 A 
ENDBRANCH  62  76
BRANCH  63  84
ATOM     84  C   UNL A   1      41.790  25.832  27.696  1.00  0.00     0.057 A 
ATOM     85  C   UNL A   1      40.798  25.868  26.709  1.00  0.00     0.134 A 
ATOM     86  C   UNL A   1      41.936  24.644  28.421  1.00  0.00     0.134 A 
ATOM     87  F   UNL A   1      40.597  26.985  25.996  1.00  0.00    -0.206 F 
ATOM     88  C   UNL A   1      39.965  24.774  26.470  1.00  0.00     0.040 A 
ATOM     89  C   UNL A   1      41.126  23.534  28.176  1.00  0.00     0.040 A 
ATOM     90  F   UNL A   1      42.873  24.543  29.376  1.00  0.00    -0.206 F 
ATOM     91  C   UNL A   1      40.131  23.601  27.204  1.00  0.00     0.006 A 
ENDBRANCH  63  84
BRANCH  75  92
ATOM     92  C   UNL A   1      48.362  27.482  26.139  1.00  0.00     0.057 A 
ATOM     93  C   UNL A   1      48.443  27.450  24.741  1.00  0.00     0.134 A 
ATOM     94  C   UNL A   1      49.360  26.820  26.864  1.00  0.00     0.134 A 
ATOM     95  F   UNL A   1      47.509  28.053  23.992  1.00  0.00    -0.206 F 
ATOM     96  C   UNL A   1      49.472  26.771  24.089  1.00  0.00     0.040 A 
ATOM     97  C   UNL A   1      50.406  26.157  26.223  1.00  0.00     0.040 A 
ATOM     98  F   UNL A   1      49.341  26.820  28.205  1.00  0.00    -0.206 F 
ATOM     99  C   UNL A   1      50.461  26.128  24.831  1.00  0.00     0.006 A 
ENDBRANCH  75  92
ENDBRANCH  49  50
ENDBRANCH  41  44
ENDBRANCH  39  40
ENDBRANCH  38  39
ENDBRANCH  37  38
ENDBRANCH   1  37
TORSDOF 18
ENDMDL
