MODEL 1
REMARK VINA RESULT:     -11.7      0.000      0.000
REMARK SMILES O=C(Cc1cccn1-c1ccc2c(c1)OCCO2)NCCCCCCNC(=O)c1ccc(-c2c3nc(c(-c4c(F)cccc4F)c4ccc([nH]4)c(-c4c(F)cccc4F)c4nc(c(-c5c(F)cccc5F)c5ccc2[nH]5)C=C4)C=C3)cc1
REMARK SMILES IDX 22 1 21 2 20 3 19 4 1 5 2 6 3 8 4 9 5 10 8 11 6 12 7 13 9 14
REMARK SMILES IDX 10 15 14 16 11 17 13 18 12 19 15 20 18 21 16 22 17 23 23 24
REMARK SMILES IDX 24 25 25 26 26 27 27 28 28 30 29 31 30 32 82 33 31 34 81 35
REMARK SMILES IDX 32 36 33 37 34 38 75 39 35 40 80 41 74 42 76 43 36 44 79 45
REMARK SMILES IDX 73 46 72 47 37 49 63 50 46 51 62 52 47 53 50 54 61 55 77 56
REMARK SMILES IDX 48 57 49 58 60 60 78 61 51 62 38 63 39 64 44 65 40 66 41 67
REMARK SMILES IDX 43 68 45 69 42 70 64 71 65 72 70 73 66 74 67 75 69 76 71 77
REMARK SMILES IDX 68 78 52 79 53 80 58 81 54 82 55 83 57 84 59 85 56 86
REMARK H PARENT 19 7 26 29 76 48 50 59
REMARK Flexibility Score: inf
ROOT
ATOM      1  C   UNL A   1      34.092  28.285  24.539  1.00  0.00     0.002 C 
ENDROOT
BRANCH   1   2
ATOM      2  C   UNL A   1      33.906  28.896  23.145  1.00  0.00     0.021 C 
BRANCH   2   3
ATOM      3  C   UNL A   1      33.622  27.885  22.037  1.00  0.00     0.116 C 
BRANCH   3   4
ATOM      4  N   UNL A   1      32.920  26.720  22.532  1.00  0.00    -0.356 N 
ATOM      5  O   UNL A   1      33.049  25.503  20.591  1.00  0.00    -0.275 OA
ATOM      6  C   UNL A   1      32.711  25.591  21.768  1.00  0.00     0.225 C 
ATOM      7  H   UNL A   1      32.575  26.735  23.455  1.00  0.00     0.163 HD
BRANCH   6   8
ATOM      8  C   UNL A   1      31.963  24.468  22.480  1.00  0.00     0.154 C 
BRANCH   8   9
ATOM      9  C   UNL A   1      31.490  24.855  23.858  1.00  0.00     0.032 A 
ATOM     10  C   UNL A   1      30.321  25.492  24.248  1.00  0.00     0.024 A 
ATOM     11  N   UNL A   1      32.190  24.528  25.016  1.00  0.00    -0.320 N 
ATOM     12  C   UNL A   1      30.255  25.469  25.655  1.00  0.00     0.020 A 
ATOM     13  C   UNL A   1      31.392  24.839  26.100  1.00  0.00     0.091 A 
BRANCH  11  14
ATOM     14  C   UNL A   1      33.485  23.961  25.124  1.00  0.00     0.049 A 
ATOM     15  C   UNL A   1      34.578  24.793  25.400  1.00  0.00     0.031 A 
ATOM     16  C   UNL A   1      33.678  22.591  24.909  1.00  0.00     0.077 A 
ATOM     17  C   UNL A   1      35.858  24.247  25.499  1.00  0.00     0.052 A 
ATOM     18  C   UNL A   1      34.966  22.059  24.977  1.00  0.00     0.163 A 
ATOM     19  C   UNL A   1      36.054  22.886  25.268  1.00  0.00     0.161 A 
ATOM     20  O   UNL A   1      35.090  20.719  24.714  1.00  0.00    -0.486 OA
ATOM     21  O   UNL A   1      37.346  22.432  25.341  1.00  0.00    -0.486 OA
ATOM     22  C   UNL A   1      36.374  20.218  25.103  1.00  0.00     0.271 C 
ATOM     23  C   UNL A   1      37.486  21.167  24.688  1.00  0.00     0.271 C 
ENDBRANCH  11  14
ENDBRANCH   8   9
ENDBRANCH   6   8
ENDBRANCH   3   4
ENDBRANCH   2   3
ENDBRANCH   1   2
BRANCH   1  24
ATOM     24  C   UNL A   1      32.929  28.498  25.516  1.00  0.00     0.002 C 
BRANCH  24  25
ATOM     25  C   UNL A   1      33.326  28.768  26.975  1.00  0.00     0.021 C 
BRANCH  25  26
ATOM     26  C   UNL A   1      34.835  28.814  27.215  1.00  0.00     0.116 C 
BRANCH  26  27
ATOM     27  N   UNL A   1      35.297  30.179  27.408  1.00  0.00    -0.352 N 
ATOM     28  C   UNL A   1      36.412  30.648  28.044  1.00  0.00     0.251 C 
ATOM     29  H   UNL A   1      34.717  30.873  27.020  1.00  0.00     0.163 HD
ATOM     30  O   UNL A   1      36.403  31.815  28.467  1.00  0.00    -0.269 OA
BRANCH  28  31
ATOM     31  C   UNL A   1      37.630  29.834  28.231  1.00  0.00     0.039 A 
ATOM     32  C   UNL A   1      38.551  29.771  27.174  1.00  0.00     0.014 A 
ATOM     33  C   UNL A   1      37.820  29.037  29.366  1.00  0.00     0.014 A 
ATOM     34  C   UNL A   1      39.672  28.954  27.270  1.00  0.00     0.010 A 
ATOM     35  C   UNL A   1      38.951  28.238  29.480  1.00  0.00     0.010 A 
ATOM     36  C   UNL A   1      39.881  28.207  28.436  1.00  0.00    -0.014 A 
BRANCH  36  37
ATOM     37  C   UNL A   1      41.204  27.583  28.657  1.00  0.00     0.031 A 
ATOM     38  C   UNL A   1      41.144  26.078  28.231  1.00  0.00     0.074 A 
ATOM     39  C   UNL A   1      42.184  28.401  29.165  1.00  0.00     0.049 A 
ATOM     40  N   UNL A   1      41.791  25.041  28.670  1.00  0.00    -0.248 NA
ATOM     41  C   UNL A   1      40.144  25.658  27.199  1.00  0.00     0.031 C 
ATOM     42  C   UNL A   1      42.032  29.853  29.443  1.00  0.00     0.029 A 
ATOM     43  N   UNL A   1      43.500  28.214  29.548  1.00  0.00    -0.354 N 
ATOM     44  C   UNL A   1      41.453  23.930  27.848  1.00  0.00     0.074 A 
ATOM     45  C   UNL A   1      40.341  24.344  27.055  1.00  0.00     0.031 C 
ATOM     46  C   UNL A   1      43.141  30.368  30.023  1.00  0.00     0.029 A 
ATOM     47  C   UNL A   1      44.133  29.326  30.184  1.00  0.00     0.049 A 
ATOM     48  H   UNL A   1      43.972  27.365  29.391  1.00  0.00     0.167 HD
ATOM     49  C   UNL A   1      42.223  22.800  27.762  1.00  0.00     0.037 A 
ATOM     50  C   UNL A   1      45.337  29.367  30.851  1.00  0.00     0.037 A 
ATOM     51  C   UNL A   1      43.325  22.921  28.652  1.00  0.00     0.049 A 
ATOM     52  C   UNL A   1      45.896  28.026  30.649  1.00  0.00     0.074 A 
ATOM     53  C   UNL A   1      43.421  22.869  30.015  1.00  0.00     0.029 A 
ATOM     54  N   UNL A   1      44.444  23.521  28.134  1.00  0.00    -0.354 N 
ATOM     55  N   UNL A   1      46.379  27.584  29.528  1.00  0.00    -0.248 NA
ATOM     56  C   UNL A   1      45.756  27.055  31.739  1.00  0.00     0.031 C 
ATOM     57  C   UNL A   1      44.311  23.928  30.290  1.00  0.00     0.029 A 
ATOM     58  C   UNL A   1      44.934  24.347  29.109  1.00  0.00     0.049 A 
ATOM     59  H   UNL A   1      44.822  23.385  27.235  1.00  0.00     0.167 HD
ATOM     60  C   UNL A   1      46.271  26.225  29.687  1.00  0.00     0.074 A 
ATOM     61  C   UNL A   1      46.194  25.971  31.111  1.00  0.00     0.031 C 
ATOM     62  C   UNL A   1      45.741  25.466  28.697  1.00  0.00     0.037 A 
BRANCH  49  63
ATOM     63  C   UNL A   1      42.323  21.675  26.758  1.00  0.00     0.057 A 
ATOM     64  C   UNL A   1      41.772  20.417  27.122  1.00  0.00     0.134 A 
ATOM     65  C   UNL A   1      43.252  21.645  25.716  1.00  0.00     0.134 A 
ATOM     66  F   UNL A   1      40.814  20.327  28.060  1.00  0.00    -0.206 F 
ATOM     67  C   UNL A   1      42.257  19.207  26.623  1.00  0.00     0.040 A 
ATOM     68  C   UNL A   1      43.704  20.434  25.166  1.00  0.00     0.040 A 
ATOM     69  F   UNL A   1      43.827  22.764  25.260  1.00  0.00    -0.206 F 
ATOM     70  C   UNL A   1      43.250  19.213  25.658  1.00  0.00     0.006 A 
ENDBRANCH  49  63
BRANCH  50  71
ATOM     71  C   UNL A   1      46.111  30.269  31.800  1.00  0.00     0.057 A 
ATOM     72  C   UNL A   1      47.444  30.663  31.674  1.00  0.00     0.134 A 
ATOM     73  C   UNL A   1      45.445  30.883  32.905  1.00  0.00     0.134 A 
ATOM     74  F   UNL A   1      48.259  30.071  30.794  1.00  0.00    -0.206 F 
ATOM     75  C   UNL A   1      48.011  31.684  32.476  1.00  0.00     0.040 A 
ATOM     76  C   UNL A   1      45.971  31.935  33.665  1.00  0.00     0.040 A 
ATOM     77  F   UNL A   1      44.232  30.488  33.312  1.00  0.00    -0.206 F 
ATOM     78  C   UNL A   1      47.260  32.361  33.434  1.00  0.00     0.006 A 
ENDBRANCH  50  71
BRANCH  62  79
ATOM     79  C   UNL A   1      45.782  26.086  27.309  1.00  0.00     0.057 A 
ATOM     80  C   UNL A   1      47.011  26.300  26.677  1.00  0.00     0.134 A 
ATOM     81  C   UNL A   1      44.661  26.567  26.612  1.00  0.00     0.134 A 
ATOM     82  F   UNL A   1      48.143  25.864  27.248  1.00  0.00    -0.206 F 
ATOM     83  C   UNL A   1      47.118  26.960  25.443  1.00  0.00     0.040 A 
ATOM     84  C   UNL A   1      44.746  27.227  25.378  1.00  0.00     0.040 A 
ATOM     85  F   UNL A   1      43.435  26.419  27.106  1.00  0.00    -0.206 F 
ATOM     86  C   UNL A   1      45.983  27.430  24.789  1.00  0.00     0.006 A 
ENDBRANCH  62  79
ENDBRANCH  36  37
ENDBRANCH  28  31
ENDBRANCH  26  27
ENDBRANCH  25  26
ENDBRANCH  24  25
ENDBRANCH   1  24
TORSDOF 15
ENDMDL
MODEL 2
REMARK VINA RESULT:     -11.4      1.707      2.278
REMARK SMILES O=C(Cc1cccn1-c1ccc2c(c1)OCCO2)NCCCCCCNC(=O)c1ccc(-c2c3nc(c(-c4c(F)cccc4F)c4ccc([nH]4)c(-c4c(F)cccc4F)c4nc(c(-c5c(F)cccc5F)c5ccc2[nH]5)C=C4)C=C3)cc1
REMARK SMILES IDX 22 1 21 2 20 3 19 4 1 5 2 6 3 8 4 9 5 10 8 11 6 12 7 13 9 14
REMARK SMILES IDX 10 15 14 16 11 17 13 18 12 19 15 20 18 21 16 22 17 23 23 24
REMARK SMILES IDX 24 25 25 26 26 27 27 28 28 30 29 31 30 32 82 33 31 34 81 35
REMARK SMILES IDX 32 36 33 37 34 38 75 39 35 40 80 41 74 42 76 43 36 44 79 45
REMARK SMILES IDX 73 46 72 47 37 49 63 50 46 51 62 52 47 53 50 54 61 55 77 56
REMARK SMILES IDX 48 57 49 58 60 60 78 61 51 62 38 63 39 64 44 65 40 66 41 67
REMARK SMILES IDX 43 68 45 69 42 70 64 71 65 72 70 73 66 74 67 75 69 76 71 77
REMARK SMILES IDX 68 78 52 79 53 80 58 81 54 82 55 83 57 84 59 85 56 86
REMARK H PARENT 19 7 26 29 76 48 50 59
REMARK Flexibility Score: inf
ROOT
ATOM      1  C   UNL A   1      34.053  27.727  24.632  1.00  0.00     0.002 C 
ENDROOT
BRANCH   1   2
ATOM      2  C   UNL A   1      34.042  28.715  23.459  1.00  0.00     0.021 C 
BRANCH   2   3
ATOM      3  C   UNL A   1      33.384  28.189  22.186  1.00  0.00     0.116 C 
BRANCH   3   4
ATOM      4  N   UNL A   1      32.398  27.167  22.468  1.00  0.00    -0.356 N 
ATOM      5  O   UNL A   1      33.467  25.471  21.349  1.00  0.00    -0.275 OA
ATOM      6  C   UNL A   1      32.534  25.860  22.046  1.00  0.00     0.225 C 
ATOM      7  H   UNL A   1      31.595  27.415  22.982  1.00  0.00     0.163 HD
BRANCH   6   8
ATOM      8  C   UNL A   1      31.393  24.936  22.458  1.00  0.00     0.154 C 
BRANCH   8   9
ATOM      9  C   UNL A   1      30.991  25.101  23.901  1.00  0.00     0.032 A 
ATOM     10  C   UNL A   1      29.944  25.825  24.453  1.00  0.00     0.024 A 
ATOM     11  N   UNL A   1      31.627  24.433  24.944  1.00  0.00    -0.320 N 
ATOM     12  C   UNL A   1      29.876  25.523  25.828  1.00  0.00     0.020 A 
ATOM     13  C   UNL A   1      30.892  24.638  26.095  1.00  0.00     0.091 A 
BRANCH  11  14
ATOM     14  C   UNL A   1      32.810  23.653  24.889  1.00  0.00     0.049 A 
ATOM     15  C   UNL A   1      32.724  22.299  24.542  1.00  0.00     0.031 A 
ATOM     16  C   UNL A   1      34.046  24.218  25.225  1.00  0.00     0.077 A 
ATOM     17  C   UNL A   1      33.882  21.520  24.495  1.00  0.00     0.052 A 
ATOM     18  C   UNL A   1      35.194  23.425  25.207  1.00  0.00     0.163 A 
ATOM     19  C   UNL A   1      35.110  22.077  24.846  1.00  0.00     0.161 A 
ATOM     20  O   UNL A   1      36.364  24.029  25.589  1.00  0.00    -0.486 OA
ATOM     21  O   UNL A   1      36.194  21.237  24.816  1.00  0.00    -0.486 OA
ATOM     22  C   UNL A   1      37.507  23.237  25.249  1.00  0.00     0.271 C 
ATOM     23  C   UNL A   1      37.281  21.770  25.580  1.00  0.00     0.271 C 
ENDBRANCH  11  14
ENDBRANCH   8   9
ENDBRANCH   6   8
ENDBRANCH   3   4
ENDBRANCH   2   3
ENDBRANCH   1   2
BRANCH   1  24
ATOM     24  C   UNL A   1      33.069  28.035  25.767  1.00  0.00     0.002 C 
BRANCH  24  25
ATOM     25  C   UNL A   1      33.471  29.184  26.703  1.00  0.00     0.021 C 
BRANCH  25  26
ATOM     26  C   UNL A   1      34.931  29.141  27.156  1.00  0.00     0.116 C 
BRANCH  26  27
ATOM     27  N   UNL A   1      35.399  30.459  27.555  1.00  0.00    -0.352 N 
ATOM     28  C   UNL A   1      36.421  30.813  28.390  1.00  0.00     0.251 C 
ATOM     29  H   UNL A   1      34.901  31.212  27.164  1.00  0.00     0.163 HD
ATOM     30  O   UNL A   1      36.383  31.931  28.927  1.00  0.00    -0.269 OA
BRANCH  28  31
ATOM     31  C   UNL A   1      37.575  29.932  28.662  1.00  0.00     0.039 A 
ATOM     32  C   UNL A   1      38.666  29.980  27.779  1.00  0.00     0.014 A 
ATOM     33  C   UNL A   1      37.552  28.978  29.685  1.00  0.00     0.014 A 
ATOM     34  C   UNL A   1      39.739  29.113  27.945  1.00  0.00     0.010 A 
ATOM     35  C   UNL A   1      38.633  28.126  29.874  1.00  0.00     0.010 A 
ATOM     36  C   UNL A   1      39.730  28.203  29.010  1.00  0.00    -0.014 A 
BRANCH  36  37
ATOM     37  C   UNL A   1      40.984  27.501  29.361  1.00  0.00     0.031 A 
ATOM     38  C   UNL A   1      41.184  26.286  28.395  1.00  0.00     0.074 A 
ATOM     39  C   UNL A   1      41.700  28.024  30.411  1.00  0.00     0.049 A 
ATOM     40  N   UNL A   1      41.768  25.140  28.576  1.00  0.00    -0.248 NA
ATOM     41  C   UNL A   1      40.565  26.334  27.033  1.00  0.00     0.031 C 
ATOM     42  C   UNL A   1      41.344  29.255  31.164  1.00  0.00     0.029 A 
ATOM     43  N   UNL A   1      42.861  27.661  31.068  1.00  0.00    -0.354 N 
ATOM     44  C   UNL A   1      41.782  24.451  27.332  1.00  0.00     0.074 A 
ATOM     45  C   UNL A   1      40.912  25.176  26.464  1.00  0.00     0.031 C 
ATOM     46  C   UNL A   1      42.189  29.467  32.200  1.00  0.00     0.029 A 
ATOM     47  C   UNL A   1      43.182  28.414  32.240  1.00  0.00     0.049 A 
ATOM     48  H   UNL A   1      43.433  26.926  30.748  1.00  0.00     0.167 HD
ATOM     49  C   UNL A   1      42.643  23.421  27.055  1.00  0.00     0.037 A 
ATOM     50  C   UNL A   1      44.134  28.154  33.198  1.00  0.00     0.037 A 
ATOM     51  C   UNL A   1      43.427  23.149  28.209  1.00  0.00     0.049 A 
ATOM     52  C   UNL A   1      44.847  26.982  32.676  1.00  0.00     0.074 A 
ATOM     53  C   UNL A   1      43.132  22.565  29.409  1.00  0.00     0.029 A 
ATOM     54  N   UNL A   1      44.590  23.869  28.321  1.00  0.00    -0.354 N 
ATOM     55  N   UNL A   1      45.669  27.000  31.672  1.00  0.00    -0.248 NA
ATOM     56  C   UNL A   1      44.488  25.667  33.216  1.00  0.00     0.031 C 
ATOM     57  C   UNL A   1      43.806  23.403  30.321  1.00  0.00     0.029 A 
ATOM     58  C   UNL A   1      44.702  24.231  29.636  1.00  0.00     0.049 A 
ATOM     59  H   UNL A   1      45.221  24.084  27.596  1.00  0.00     0.167 HD
ATOM     60  C   UNL A   1      45.642  25.691  31.259  1.00  0.00     0.074 A 
ATOM     61  C   UNL A   1      45.183  24.902  32.384  1.00  0.00     0.031 C 
ATOM     62  C   UNL A   1      45.489  25.397  29.945  1.00  0.00     0.037 A 
BRANCH  49  63
ATOM     63  C   UNL A   1      43.127  22.777  25.777  1.00  0.00     0.057 A 
ATOM     64  C   UNL A   1      43.286  21.365  25.771  1.00  0.00     0.134 A 
ATOM     65  C   UNL A   1      43.816  23.463  24.774  1.00  0.00     0.134 A 
ATOM     66  F   UNL A   1      42.616  20.589  26.639  1.00  0.00    -0.206 F 
ATOM     67  C   UNL A   1      44.214  20.712  24.956  1.00  0.00     0.040 A 
ATOM     68  C   UNL A   1      44.709  22.807  23.911  1.00  0.00     0.040 A 
ATOM     69  F   UNL A   1      43.732  24.793  24.654  1.00  0.00    -0.206 F 
ATOM     70  C   UNL A   1      44.951  21.441  24.038  1.00  0.00     0.006 A 
ENDBRANCH  49  63
BRANCH  50  71
ATOM     71  C   UNL A   1      44.519  28.587  34.604  1.00  0.00     0.057 A 
ATOM     72  C   UNL A   1      43.797  28.355  35.776  1.00  0.00     0.134 A 
ATOM     73  C   UNL A   1      45.778  29.223  34.838  1.00  0.00     0.134 A 
ATOM     74  F   UNL A   1      42.535  27.913  35.732  1.00  0.00    -0.206 F 
ATOM     75  C   UNL A   1      44.341  28.591  37.061  1.00  0.00     0.040 A 
ATOM     76  C   UNL A   1      46.353  29.406  36.100  1.00  0.00     0.040 A 
ATOM     77  F   UNL A   1      46.524  29.707  33.837  1.00  0.00    -0.206 F 
ATOM     78  C   UNL A   1      45.641  29.063  37.227  1.00  0.00     0.006 A 
ENDBRANCH  50  71
BRANCH  62  79
ATOM     79  C   UNL A   1      45.871  26.509  28.981  1.00  0.00     0.057 A 
ATOM     80  C   UNL A   1      47.202  26.932  28.896  1.00  0.00     0.134 A 
ATOM     81  C   UNL A   1      44.962  27.243  28.202  1.00  0.00     0.134 A 
ATOM     82  F   UNL A   1      48.155  26.288  29.586  1.00  0.00    -0.206 F 
ATOM     83  C   UNL A   1      47.597  28.020  28.102  1.00  0.00     0.040 A 
ATOM     84  C   UNL A   1      45.335  28.331  27.400  1.00  0.00     0.040 A 
ATOM     85  F   UNL A   1      43.668  26.935  28.192  1.00  0.00    -0.206 F 
ATOM     86  C   UNL A   1      46.662  28.727  27.352  1.00  0.00     0.006 A 
ENDBRANCH  62  79
ENDBRANCH  36  37
ENDBRANCH  28  31
ENDBRANCH  26  27
ENDBRANCH  25  26
ENDBRANCH  24  25
ENDBRANCH   1  24
TORSDOF 15
ENDMDL
MODEL 3
REMARK VINA RESULT:     -11.3      3.947      8.932
REMARK SMILES O=C(Cc1cccn1-c1ccc2c(c1)OCCO2)NCCCCCCNC(=O)c1ccc(-c2c3nc(c(-c4c(F)cccc4F)c4ccc([nH]4)c(-c4c(F)cccc4F)c4nc(c(-c5c(F)cccc5F)c5ccc2[nH]5)C=C4)C=C3)cc1
REMARK SMILES IDX 22 1 21 2 20 3 19 4 1 5 2 6 3 8 4 9 5 10 8 11 6 12 7 13 9 14
REMARK SMILES IDX 10 15 14 16 11 17 13 18 12 19 15 20 18 21 16 22 17 23 23 24
REMARK SMILES IDX 24 25 25 26 26 27 27 28 28 30 29 31 30 32 82 33 31 34 81 35
REMARK SMILES IDX 32 36 33 37 34 38 75 39 35 40 80 41 74 42 76 43 36 44 79 45
REMARK SMILES IDX 73 46 72 47 37 49 63 50 46 51 62 52 47 53 50 54 61 55 77 56
REMARK SMILES IDX 48 57 49 58 60 60 78 61 51 62 38 63 39 64 44 65 40 66 41 67
REMARK SMILES IDX 43 68 45 69 42 70 64 71 65 72 70 73 66 74 67 75 69 76 71 77
REMARK SMILES IDX 68 78 52 79 53 80 58 81 54 82 55 83 57 84 59 85 56 86
REMARK H PARENT 19 7 26 29 76 48 50 59
REMARK Flexibility Score: inf
ROOT
ATOM      1  C   UNL A   1      35.364  22.939  23.264  1.00  0.00     0.002 C 
ENDROOT
BRANCH   1   2
ATOM      2  C   UNL A   1      34.143  22.328  23.963  1.00  0.00     0.021 C 
BRANCH   2   3
ATOM      3  C   UNL A   1      33.050  23.329  24.329  1.00  0.00     0.116 C 
BRANCH   3   4
ATOM      4  N   UNL A   1      33.446  24.693  24.046  1.00  0.00    -0.356 N 
ATOM      5  O   UNL A   1      33.013  25.520  26.142  1.00  0.00    -0.275 OA
ATOM      6  C   UNL A   1      33.425  25.691  24.998  1.00  0.00     0.225 C 
ATOM      7  H   UNL A   1      33.742  24.918  23.134  1.00  0.00     0.163 HD
BRANCH   6   8
ATOM      8  C   UNL A   1      33.894  27.055  24.503  1.00  0.00     0.154 C 
BRANCH   8   9
ATOM      9  C   UNL A   1      33.708  28.149  25.523  1.00  0.00     0.032 A 
ATOM     10  C   UNL A   1      34.407  28.397  26.695  1.00  0.00     0.024 A 
ATOM     11  N   UNL A   1      32.784  29.179  25.366  1.00  0.00    -0.320 N 
ATOM     12  C   UNL A   1      33.978  29.636  27.210  1.00  0.00     0.020 A 
ATOM     13  C   UNL A   1      33.012  30.113  26.357  1.00  0.00     0.091 A 
BRANCH  11  14
ATOM     14  C   UNL A   1      31.777  29.306  24.376  1.00  0.00     0.049 A 
ATOM     15  C   UNL A   1      31.919  28.624  23.160  1.00  0.00     0.031 A 
ATOM     16  C   UNL A   1      30.675  30.141  24.592  1.00  0.00     0.077 A 
ATOM     17  C   UNL A   1      30.938  28.750  22.175  1.00  0.00     0.052 A 
ATOM     18  C   UNL A   1      29.715  30.288  23.589  1.00  0.00     0.163 A 
ATOM     19  C   UNL A   1      29.849  29.595  22.382  1.00  0.00     0.161 A 
ATOM     20  O   UNL A   1      28.685  31.154  23.848  1.00  0.00    -0.486 OA
ATOM     21  O   UNL A   1      28.951  29.699  21.351  1.00  0.00    -0.486 OA
ATOM     22  C   UNL A   1      27.615  31.004  22.907  1.00  0.00     0.271 C 
ATOM     23  C   UNL A   1      28.142  30.872  21.487  1.00  0.00     0.271 C 
ENDBRANCH  11  14
ENDBRANCH   8   9
ENDBRANCH   6   8
ENDBRANCH   3   4
ENDBRANCH   2   3
ENDBRANCH   1   2
BRANCH   1  24
ATOM     24  C   UNL A   1      36.684  22.853  24.040  1.00  0.00     0.002 C 
BRANCH  24  25
ATOM     25  C   UNL A   1      36.572  23.013  25.563  1.00  0.00     0.021 C 
BRANCH  25  26
ATOM     26  C   UNL A   1      37.501  24.075  26.151  1.00  0.00     0.116 C 
BRANCH  26  27
ATOM     27  N   UNL A   1      38.733  23.482  26.647  1.00  0.00    -0.352 N 
ATOM     28  C   UNL A   1      39.897  24.077  27.046  1.00  0.00     0.251 C 
ATOM     29  H   UNL A   1      38.728  22.499  26.704  1.00  0.00     0.163 HD
ATOM     30  O   UNL A   1      40.941  23.408  27.019  1.00  0.00    -0.269 OA
BRANCH  28  31
ATOM     31  C   UNL A   1      39.959  25.473  27.525  1.00  0.00     0.039 A 
ATOM     32  C   UNL A   1      39.586  25.732  28.854  1.00  0.00     0.014 A 
ATOM     33  C   UNL A   1      40.252  26.538  26.666  1.00  0.00     0.014 A 
ATOM     34  C   UNL A   1      39.550  27.039  29.328  1.00  0.00     0.010 A 
ATOM     35  C   UNL A   1      40.243  27.844  27.140  1.00  0.00     0.010 A 
ATOM     36  C   UNL A   1      39.903  28.091  28.474  1.00  0.00    -0.014 A 
BRANCH  36  37
ATOM     37  C   UNL A   1      40.152  29.429  29.053  1.00  0.00     0.031 A 
ATOM     38  C   UNL A   1      38.784  30.136  29.331  1.00  0.00     0.074 A 
ATOM     39  C   UNL A   1      41.470  29.778  29.232  1.00  0.00     0.049 A 
ATOM     40  N   UNL A   1      38.458  31.393  29.329  1.00  0.00    -0.248 NA
ATOM     41  C   UNL A   1      37.571  29.293  29.574  1.00  0.00     0.031 C 
ATOM     42  C   UNL A   1      42.636  28.901  28.950  1.00  0.00     0.029 A 
ATOM     43  N   UNL A   1      42.118  30.911  29.686  1.00  0.00    -0.354 N 
ATOM     44  C   UNL A   1      37.111  31.499  29.774  1.00  0.00     0.074 A 
ATOM     45  C   UNL A   1      36.585  30.172  29.777  1.00  0.00     0.031 C 
ATOM     46  C   UNL A   1      43.807  29.553  29.139  1.00  0.00     0.029 A 
ATOM     47  C   UNL A   1      43.543  30.912  29.564  1.00  0.00     0.049 A 
ATOM     48  H   UNL A   1      41.628  31.673  30.071  1.00  0.00     0.167 HD
ATOM     49  C   UNL A   1      36.574  32.660  30.270  1.00  0.00     0.037 A 
ATOM     50  C   UNL A   1      44.422  31.958  29.728  1.00  0.00     0.037 A 
ATOM     51  C   UNL A   1      37.550  33.690  30.194  1.00  0.00     0.049 A 
ATOM     52  C   UNL A   1      43.572  33.062  30.189  1.00  0.00     0.074 A 
ATOM     53  C   UNL A   1      38.072  34.393  29.143  1.00  0.00     0.029 A 
ATOM     54  N   UNL A   1      38.378  33.806  31.281  1.00  0.00    -0.354 N 
ATOM     55  N   UNL A   1      43.043  33.147  31.370  1.00  0.00    -0.248 NA
ATOM     56  C   UNL A   1      43.155  34.062  29.201  1.00  0.00     0.031 C 
ATOM     57  C   UNL A   1      39.444  34.430  29.462  1.00  0.00     0.029 A 
ATOM     58  C   UNL A   1      39.635  34.043  30.794  1.00  0.00     0.049 A 
ATOM     59  H   UNL A   1      38.119  33.733  32.229  1.00  0.00     0.167 HD
ATOM     60  C   UNL A   1      41.985  33.993  31.148  1.00  0.00     0.074 A 
ATOM     61  C   UNL A   1      42.285  34.738  29.943  1.00  0.00     0.031 C 
ATOM     62  C   UNL A   1      40.755  33.682  31.625  1.00  0.00     0.037 A 
BRANCH  49  63
ATOM     63  C   UNL A   1      35.364  32.974  31.117  1.00  0.00     0.057 A 
ATOM     64  C   UNL A   1      34.549  34.068  30.720  1.00  0.00     0.134 A 
ATOM     65  C   UNL A   1      35.221  32.570  32.446  1.00  0.00     0.134 A 
ATOM     66  F   UNL A   1      34.543  34.501  29.448  1.00  0.00    -0.206 F 
ATOM     67  C   UNL A   1      33.802  34.823  31.627  1.00  0.00     0.040 A 
ATOM     68  C   UNL A   1      34.426  33.289  33.354  1.00  0.00     0.040 A 
ATOM     69  F   UNL A   1      35.913  31.537  32.941  1.00  0.00    -0.206 F 
ATOM     70  C   UNL A   1      33.762  34.448  32.960  1.00  0.00     0.006 A 
ENDBRANCH  49  63
BRANCH  50  71
ATOM     71  C   UNL A   1      45.869  32.319  29.430  1.00  0.00     0.057 A 
ATOM     72  C   UNL A   1      46.877  32.564  30.364  1.00  0.00     0.134 A 
ATOM     73  C   UNL A   1      46.338  32.340  28.080  1.00  0.00     0.134 A 
ATOM     74  F   UNL A   1      46.590  32.737  31.659  1.00  0.00    -0.206 F 
ATOM     75  C   UNL A   1      48.241  32.665  29.998  1.00  0.00     0.040 A 
ATOM     76  C   UNL A   1      47.686  32.377  27.708  1.00  0.00     0.040 A 
ATOM     77  F   UNL A   1      45.498  32.325  27.037  1.00  0.00    -0.206 F 
ATOM     78  C   UNL A   1      48.654  32.516  28.677  1.00  0.00     0.006 A 
ENDBRANCH  50  71
BRANCH  62  79
ATOM     79  C   UNL A   1      40.737  32.704  32.788  1.00  0.00     0.057 A 
ATOM     80  C   UNL A   1      41.299  33.069  34.016  1.00  0.00     0.134 A 
ATOM     81  C   UNL A   1      40.270  31.381  32.716  1.00  0.00     0.134 A 
ATOM     82  F   UNL A   1      41.760  34.315  34.197  1.00  0.00    -0.206 F 
ATOM     83  C   UNL A   1      41.403  32.174  35.092  1.00  0.00     0.040 A 
ATOM     84  C   UNL A   1      40.361  30.472  33.780  1.00  0.00     0.040 A 
ATOM     85  F   UNL A   1      39.708  30.915  31.605  1.00  0.00    -0.206 F 
ATOM     86  C   UNL A   1      40.936  30.868  34.977  1.00  0.00     0.006 A 
ENDBRANCH  62  79
ENDBRANCH  36  37
ENDBRANCH  28  31
ENDBRANCH  26  27
ENDBRANCH  25  26
ENDBRANCH  24  25
ENDBRANCH   1  24
TORSDOF 15
ENDMDL
