MODEL 1
REMARK VINA RESULT:     -11.7      0.000      0.000
REMARK SMILES CSc1ccc([C@H](C)[N@H+]2CC[C@@H](C(=O)NCCCCCCNC(=O)c3ccc(-c4c5nc(c(-c6c(F)cccc6F)c6ccc([nH]6)c(-c6c(F)cccc6F)c6nc(c(-c7c(F)cccc7F)c7ccc4[nH]7)C=C6)C=C5)cc3)[C@H]2C)cc1
REMARK SMILES IDX 18 1 17 2 16 3 15 4 13 5 14 6 12 8 9 9 10 10 79 11 11 13
REMARK SMILES IDX 80 14 7 15 8 16 6 17 3 18 4 19 82 20 5 21 81 22 2 23 1 24
REMARK SMILES IDX 19 25 20 26 21 27 22 28 23 29 24 31 25 32 26 33 78 34 27 35
REMARK SMILES IDX 77 36 28 37 29 38 30 39 71 40 31 41 76 42 70 43 72 44 32 45
REMARK SMILES IDX 75 46 69 47 68 48 33 50 59 51 42 52 58 53 43 54 46 55 57 56
REMARK SMILES IDX 73 57 44 58 45 59 56 61 74 62 47 63 34 64 35 65 40 66 36 67
REMARK SMILES IDX 37 68 39 69 41 70 38 71 60 72 61 73 66 74 62 75 63 76 65 77
REMARK SMILES IDX 67 78 64 79 48 80 49 81 54 82 50 83 51 84 53 85 55 86 52 87
REMARK H PARENT 15 7 9 12 22 30 72 49 46 60
REMARK Flexibility Score: inf
ROOT
ATOM      1  C   UNL A   1      35.321  19.543  24.939  1.00  0.00     0.002 C 
ENDROOT
BRANCH   1   2
ATOM      2  C   UNL A   1      34.024  20.188  24.444  1.00  0.00     0.021 C 
BRANCH   2   3
ATOM      3  C   UNL A   1      32.884  20.190  25.462  1.00  0.00     0.116 C 
BRANCH   3   4
ATOM      4  N   UNL A   1      33.265  20.899  26.664  1.00  0.00    -0.356 N 
ATOM      5  C   UNL A   1      33.564  22.207  26.870  1.00  0.00     0.229 C 
ATOM      6  O   UNL A   1      33.978  22.509  27.994  1.00  0.00    -0.275 OA
ATOM      7  H   UNL A   1      33.317  20.337  27.470  1.00  0.00     0.163 HD
BRANCH   5   8
ATOM      8  C   UNL A   1      33.383  23.294  25.816  1.00  0.00     0.142 C 
ATOM      9  N   UNL A   1      32.585  25.521  25.683  1.00  0.00    -0.326 N 
ATOM     10  C   UNL A   1      33.949  25.561  25.201  1.00  0.00     0.264 C 
ATOM     11  C   UNL A   1      32.099  24.150  25.793  1.00  0.00     0.194 C 
ATOM     12  H   UNL A   1      31.830  25.969  25.164  1.00  0.00     0.348 HD
ATOM     13  C   UNL A   1      34.557  24.270  25.716  1.00  0.00     0.081 C 
ATOM     14  C   UNL A   1      31.026  23.836  26.825  1.00  0.00     0.076 C 
BRANCH   9  15
ATOM     15  C   UNL A   1      31.938  26.705  26.224  1.00  0.00     0.212 C 
ATOM     16  C   UNL A   1      32.957  27.603  26.944  1.00  0.00     0.081 C 
BRANCH  15  17
ATOM     17  C   UNL A   1      31.130  27.463  25.161  1.00  0.00     0.009 A 
ATOM     18  C   UNL A   1      29.675  28.935  23.207  1.00  0.00     0.007 A 
ATOM     19  C   UNL A   1      30.686  29.544  23.955  1.00  0.00     0.015 A 
ATOM     20  C   UNL A   1      29.402  27.585  23.440  1.00  0.00     0.015 A 
ATOM     21  C   UNL A   1      31.403  28.819  24.918  1.00  0.00     0.011 A 
ATOM     22  C   UNL A   1      30.110  26.862  24.405  1.00  0.00     0.011 A 
BRANCH  18  23
ATOM     23  S   UNL A   1      28.722  29.740  21.927  1.00  0.00    -0.130 SA
ATOM     24  C   UNL A   1      28.686  31.464  22.477  1.00  0.00     0.091 C 
ENDBRANCH  18  23
ENDBRANCH  15  17
ENDBRANCH   9  15
ENDBRANCH   5   8
ENDBRANCH   3   4
ENDBRANCH   2   3
ENDBRANCH   1   2
BRANCH   1  25
ATOM     25  C   UNL A   1      36.528  20.482  25.017  1.00  0.00     0.002 C 
BRANCH  25  26
ATOM     26  C   UNL A   1      37.890  19.823  24.782  1.00  0.00     0.021 C 
BRANCH  26  27
ATOM     27  C   UNL A   1      38.971  20.190  25.794  1.00  0.00     0.116 C 
BRANCH  27  28
ATOM     28  N   UNL A   1      40.008  19.177  25.885  1.00  0.00    -0.352 N 
ATOM     29  C   UNL A   1      41.355  19.322  26.107  1.00  0.00     0.251 C 
ATOM     30  H   UNL A   1      39.700  18.249  25.770  1.00  0.00     0.163 HD
ATOM     31  O   UNL A   1      42.111  18.369  25.956  1.00  0.00    -0.269 OA
BRANCH  29  32
ATOM     32  C   UNL A   1      41.896  20.636  26.513  1.00  0.00     0.039 A 
ATOM     33  C   UNL A   1      42.315  21.528  25.522  1.00  0.00     0.014 A 
ATOM     34  C   UNL A   1      42.009  20.980  27.863  1.00  0.00     0.014 A 
ATOM     35  C   UNL A   1      42.796  22.788  25.884  1.00  0.00     0.010 A 
ATOM     36  C   UNL A   1      42.423  22.260  28.220  1.00  0.00     0.010 A 
ATOM     37  C   UNL A   1      42.825  23.175  27.235  1.00  0.00    -0.014 A 
BRANCH  37  38
ATOM     38  C   UNL A   1      43.278  24.532  27.632  1.00  0.00     0.031 A 
ATOM     39  C   UNL A   1      42.275  25.580  28.024  1.00  0.00     0.074 A 
ATOM     40  C   UNL A   1      44.590  24.836  27.584  1.00  0.00     0.049 A 
ATOM     41  N   UNL A   1      42.470  26.836  28.335  1.00  0.00    -0.248 NA
ATOM     42  C   UNL A   1      40.862  25.169  28.044  1.00  0.00     0.031 C 
ATOM     43  C   UNL A   1      45.657  23.920  27.177  1.00  0.00     0.029 A 
ATOM     44  N   UNL A   1      45.248  26.007  27.868  1.00  0.00    -0.354 N 
ATOM     45  C   UNL A   1      41.209  27.365  28.579  1.00  0.00     0.074 A 
ATOM     46  C   UNL A   1      40.251  26.310  28.323  1.00  0.00     0.031 C 
ATOM     47  C   UNL A   1      46.836  24.558  27.254  1.00  0.00     0.029 A 
ATOM     48  C   UNL A   1      46.606  25.935  27.678  1.00  0.00     0.049 A 
ATOM     49  H   UNL A   1      44.789  26.821  28.179  1.00  0.00     0.167 HD
ATOM     50  C   UNL A   1      40.879  28.609  29.002  1.00  0.00     0.037 A 
ATOM     51  C   UNL A   1      47.558  26.877  27.822  1.00  0.00     0.037 A 
ATOM     52  C   UNL A   1      41.835  29.651  29.272  1.00  0.00     0.049 A 
ATOM     53  C   UNL A   1      47.166  28.253  28.281  1.00  0.00     0.074 A 
ATOM     54  C   UNL A   1      41.605  30.931  29.747  1.00  0.00     0.029 A 
ATOM     55  N   UNL A   1      43.204  29.534  29.087  1.00  0.00    -0.354 N 
ATOM     56  N   UNL A   1      45.975  28.721  28.568  1.00  0.00    -0.248 NA
ATOM     57  C   UNL A   1      48.250  29.231  28.445  1.00  0.00     0.031 C 
ATOM     58  C   UNL A   1      42.831  31.601  29.810  1.00  0.00     0.029 A 
ATOM     59  C   UNL A   1      43.830  30.724  29.422  1.00  0.00     0.049 A 
ATOM     60  H   UNL A   1      43.664  28.725  28.766  1.00  0.00     0.167 HD
ATOM     61  C   UNL A   1      46.170  30.035  28.971  1.00  0.00     0.074 A 
ATOM     62  C   UNL A   1      47.595  30.286  28.907  1.00  0.00     0.031 C 
ATOM     63  C   UNL A   1      45.251  30.954  29.359  1.00  0.00     0.037 A 
BRANCH  50  64
ATOM     64  C   UNL A   1      39.421  28.905  29.207  1.00  0.00     0.057 A 
ATOM     65  C   UNL A   1      38.607  29.360  28.161  1.00  0.00     0.134 A 
ATOM     66  C   UNL A   1      38.816  28.704  30.455  1.00  0.00     0.134 A 
ATOM     67  F   UNL A   1      39.126  29.584  26.944  1.00  0.00    -0.206 F 
ATOM     68  C   UNL A   1      37.251  29.630  28.355  1.00  0.00     0.040 A 
ATOM     69  C   UNL A   1      37.456  28.943  30.653  1.00  0.00     0.040 A 
ATOM     70  F   UNL A   1      39.536  28.265  31.498  1.00  0.00    -0.206 F 
ATOM     71  C   UNL A   1      36.670  29.415  29.603  1.00  0.00     0.006 A 
ENDBRANCH  50  64
BRANCH  51  72
ATOM     72  C   UNL A   1      48.978  26.546  27.542  1.00  0.00     0.057 A 
ATOM     73  C   UNL A   1      49.518  26.701  26.259  1.00  0.00     0.134 A 
ATOM     74  C   UNL A   1      49.827  26.059  28.543  1.00  0.00     0.134 A 
ATOM     75  F   UNL A   1      48.750  27.146  25.254  1.00  0.00    -0.206 F 
ATOM     76  C   UNL A   1      50.842  26.364  25.976  1.00  0.00     0.040 A 
ATOM     77  C   UNL A   1      51.161  25.743  28.281  1.00  0.00     0.040 A 
ATOM     78  F   UNL A   1      49.374  25.896  29.795  1.00  0.00    -0.206 F 
ATOM     79  C   UNL A   1      51.669  25.886  26.992  1.00  0.00     0.006 A 
ENDBRANCH  51  72
BRANCH  63  80
ATOM     80  C   UNL A   1      45.761  32.302  29.778  1.00  0.00     0.057 A 
ATOM     81  C   UNL A   1      46.144  32.571  31.098  1.00  0.00     0.134 A 
ATOM     82  C   UNL A   1      45.905  33.331  28.838  1.00  0.00     0.134 A 
ATOM     83  F   UNL A   1      46.018  31.634  32.048  1.00  0.00    -0.206 F 
ATOM     84  C   UNL A   1      46.631  33.825  31.472  1.00  0.00     0.040 A 
ATOM     85  C   UNL A   1      46.416  34.579  29.195  1.00  0.00     0.040 A 
ATOM     86  F   UNL A   1      45.565  33.135  27.556  1.00  0.00    -0.206 F 
ATOM     87  C   UNL A   1      46.774  34.831  30.519  1.00  0.00     0.006 A 
ENDBRANCH  63  80
ENDBRANCH  37  38
ENDBRANCH  29  32
ENDBRANCH  27  28
ENDBRANCH  26  27
ENDBRANCH  25  26
ENDBRANCH   1  25
TORSDOF 16
ENDMDL
MODEL 2
REMARK VINA RESULT:     -11.6      1.221      2.240
REMARK SMILES CSc1ccc([C@H](C)[N@H+]2CC[C@@H](C(=O)NCCCCCCNC(=O)c3ccc(-c4c5nc(c(-c6c(F)cccc6F)c6ccc([nH]6)c(-c6c(F)cccc6F)c6nc(c(-c7c(F)cccc7F)c7ccc4[nH]7)C=C6)C=C5)cc3)[C@H]2C)cc1
REMARK SMILES IDX 18 1 17 2 16 3 15 4 13 5 14 6 12 8 9 9 10 10 79 11 11 13
REMARK SMILES IDX 80 14 7 15 8 16 6 17 3 18 4 19 82 20 5 21 81 22 2 23 1 24
REMARK SMILES IDX 19 25 20 26 21 27 22 28 23 29 24 31 25 32 26 33 78 34 27 35
REMARK SMILES IDX 77 36 28 37 29 38 30 39 71 40 31 41 76 42 70 43 72 44 32 45
REMARK SMILES IDX 75 46 69 47 68 48 33 50 59 51 42 52 58 53 43 54 46 55 57 56
REMARK SMILES IDX 73 57 44 58 45 59 56 61 74 62 47 63 34 64 35 65 40 66 36 67
REMARK SMILES IDX 37 68 39 69 41 70 38 71 60 72 61 73 66 74 62 75 63 76 65 77
REMARK SMILES IDX 67 78 64 79 48 80 49 81 54 82 50 83 51 84 53 85 55 86 52 87
REMARK H PARENT 15 7 9 12 22 30 72 49 46 60
REMARK Flexibility Score: inf
ROOT
ATOM      1  C   UNL A   1      34.891  20.482  24.997  1.00  0.00     0.002 C 
ENDROOT
BRANCH   1   2
ATOM      2  C   UNL A   1      33.780  21.046  24.108  1.00  0.00     0.021 C 
BRANCH   2   3
ATOM      3  C   UNL A   1      32.669  21.777  24.863  1.00  0.00     0.116 C 
BRANCH   3   4
ATOM      4  N   UNL A   1      32.879  21.702  26.292  1.00  0.00    -0.356 N 
ATOM      5  C   UNL A   1      32.625  22.601  27.277  1.00  0.00     0.229 C 
ATOM      6  O   UNL A   1      33.024  22.307  28.409  1.00  0.00    -0.275 OA
ATOM      7  H   UNL A   1      33.274  20.856  26.603  1.00  0.00     0.163 HD
BRANCH   5   8
ATOM      8  C   UNL A   1      31.859  23.902  27.062  1.00  0.00     0.142 C 
ATOM      9  N   UNL A   1      31.508  25.488  25.337  1.00  0.00    -0.326 N 
ATOM     10  C   UNL A   1      30.193  25.011  25.708  1.00  0.00     0.264 C 
ATOM     11  C   UNL A   1      32.517  25.075  26.306  1.00  0.00     0.194 C 
ATOM     12  H   UNL A   1      31.700  26.486  25.248  1.00  0.00     0.348 HD
ATOM     13  C   UNL A   1      30.469  23.717  26.449  1.00  0.00     0.081 C 
ATOM     14  C   UNL A   1      33.952  24.891  25.832  1.00  0.00     0.076 C 
BRANCH   9  15
ATOM     15  C   UNL A   1      31.763  26.061  24.025  1.00  0.00     0.212 C 
ATOM     16  C   UNL A   1      31.507  25.026  22.918  1.00  0.00     0.081 C 
BRANCH  15  17
ATOM     17  C   UNL A   1      30.988  27.369  23.802  1.00  0.00     0.009 A 
ATOM     18  C   UNL A   1      29.608  29.831  23.437  1.00  0.00     0.007 A 
ATOM     19  C   UNL A   1      30.736  29.759  24.258  1.00  0.00     0.015 A 
ATOM     20  C   UNL A   1      29.179  28.665  22.798  1.00  0.00     0.015 A 
ATOM     21  C   UNL A   1      31.417  28.546  24.438  1.00  0.00     0.011 A 
ATOM     22  C   UNL A   1      29.851  27.453  22.982  1.00  0.00     0.011 A 
BRANCH  18  23
ATOM     23  S   UNL A   1      28.682  31.321  23.098  1.00  0.00    -0.130 SA
ATOM     24  C   UNL A   1      28.271  31.148  21.344  1.00  0.00     0.091 C 
ENDBRANCH  18  23
ENDBRANCH  15  17
ENDBRANCH   9  15
ENDBRANCH   5   8
ENDBRANCH   3   4
ENDBRANCH   2   3
ENDBRANCH   1   2
BRANCH   1  25
ATOM     25  C   UNL A   1      36.290  21.039  24.723  1.00  0.00     0.002 C 
BRANCH  25  26
ATOM     26  C   UNL A   1      37.435  20.028  24.839  1.00  0.00     0.021 C 
BRANCH  26  27
ATOM     27  C   UNL A   1      38.607  20.473  25.709  1.00  0.00     0.116 C 
BRANCH  27  28
ATOM     28  N   UNL A   1      39.667  19.480  25.755  1.00  0.00    -0.352 N 
ATOM     29  C   UNL A   1      40.997  19.635  26.055  1.00  0.00     0.251 C 
ATOM     30  H   UNL A   1      39.391  18.561  25.539  1.00  0.00     0.163 HD
ATOM     31  O   UNL A   1      41.786  18.719  25.854  1.00  0.00    -0.269 OA
BRANCH  29  32
ATOM     32  C   UNL A   1      41.482  20.917  26.608  1.00  0.00     0.039 A 
ATOM     33  C   UNL A   1      41.917  21.910  25.726  1.00  0.00     0.014 A 
ATOM     34  C   UNL A   1      41.527  21.133  27.989  1.00  0.00     0.014 A 
ATOM     35  C   UNL A   1      42.344  23.141  26.228  1.00  0.00     0.010 A 
ATOM     36  C   UNL A   1      41.887  22.383  28.483  1.00  0.00     0.010 A 
ATOM     37  C   UNL A   1      42.304  23.398  27.608  1.00  0.00    -0.014 A 
BRANCH  37  38
ATOM     38  C   UNL A   1      42.701  24.721  28.153  1.00  0.00     0.031 A 
ATOM     39  C   UNL A   1      41.667  25.791  28.367  1.00  0.00     0.074 A 
ATOM     40  C   UNL A   1      44.001  24.978  28.398  1.00  0.00     0.049 A 
ATOM     41  N   UNL A   1      41.827  27.027  28.768  1.00  0.00    -0.248 NA
ATOM     42  C   UNL A   1      40.272  25.433  28.067  1.00  0.00     0.031 C 
ATOM     43  C   UNL A   1      45.103  24.038  28.188  1.00  0.00     0.029 A 
ATOM     44  N   UNL A   1      44.615  26.112  28.868  1.00  0.00    -0.354 N 
ATOM     45  C   UNL A   1      40.558  27.593  28.761  1.00  0.00     0.074 A 
ATOM     46  C   UNL A   1      39.648  26.585  28.260  1.00  0.00     0.031 C 
ATOM     47  C   UNL A   1      46.256  24.628  28.543  1.00  0.00     0.029 A 
ATOM     48  C   UNL A   1      45.980  25.997  28.969  1.00  0.00     0.049 A 
ATOM     49  H   UNL A   1      44.124  26.930  29.110  1.00  0.00     0.167 HD
ATOM     50  C   UNL A   1      40.181  28.832  29.158  1.00  0.00     0.037 A 
ATOM     51  C   UNL A   1      46.905  26.896  29.354  1.00  0.00     0.037 A 
ATOM     52  C   UNL A   1      41.086  29.827  29.671  1.00  0.00     0.049 A 
ATOM     53  C   UNL A   1      46.463  28.268  29.779  1.00  0.00     0.074 A 
ATOM     54  C   UNL A   1      40.797  31.096  30.141  1.00  0.00     0.029 A 
ATOM     55  N   UNL A   1      42.459  29.666  29.777  1.00  0.00    -0.354 N 
ATOM     56  N   UNL A   1      45.252  28.770  29.825  1.00  0.00    -0.248 NA
ATOM     57  C   UNL A   1      47.515  29.199  30.213  1.00  0.00     0.031 C 
ATOM     58  C   UNL A   1      41.999  31.717  30.494  1.00  0.00     0.029 A 
ATOM     59  C   UNL A   1      43.033  30.818  30.290  1.00  0.00     0.049 A 
ATOM     60  H   UNL A   1      42.954  28.852  29.526  1.00  0.00     0.167 HD
ATOM     61  C   UNL A   1      45.394  30.060  30.318  1.00  0.00     0.074 A 
ATOM     62  C   UNL A   1      46.806  30.260  30.570  1.00  0.00     0.031 C 
ATOM     63  C   UNL A   1      44.440  30.997  30.542  1.00  0.00     0.037 A 
BRANCH  50  64
ATOM     64  C   UNL A   1      38.722  29.175  29.060  1.00  0.00     0.057 A 
ATOM     65  C   UNL A   1      37.867  29.080  30.167  1.00  0.00     0.134 A 
ATOM     66  C   UNL A   1      38.172  29.636  27.858  1.00  0.00     0.134 A 
ATOM     67  F   UNL A   1      38.328  28.636  31.346  1.00  0.00    -0.206 F 
ATOM     68  C   UNL A   1      36.512  29.404  30.073  1.00  0.00     0.040 A 
ATOM     69  C   UNL A   1      36.825  29.989  27.759  1.00  0.00     0.040 A 
ATOM     70  F   UNL A   1      38.935  29.756  26.761  1.00  0.00    -0.206 F 
ATOM     71  C   UNL A   1      35.989  29.867  28.867  1.00  0.00     0.006 A 
ENDBRANCH  50  64
BRANCH  51  72
ATOM     72  C   UNL A   1      48.343  26.523  29.368  1.00  0.00     0.057 A 
ATOM     73  C   UNL A   1      48.913  25.882  30.475  1.00  0.00     0.134 A 
ATOM     74  C   UNL A   1      49.182  26.804  28.284  1.00  0.00     0.134 A 
ATOM     75  F   UNL A   1      48.164  25.602  31.552  1.00  0.00    -0.206 F 
ATOM     76  C   UNL A   1      50.269  25.555  30.513  1.00  0.00     0.040 A 
ATOM     77  C   UNL A   1      50.534  26.459  28.297  1.00  0.00     0.040 A 
ATOM     78  F   UNL A   1      48.695  27.408  27.189  1.00  0.00    -0.206 F 
ATOM     79  C   UNL A   1      51.083  25.841  29.418  1.00  0.00     0.006 A 
ENDBRANCH  51  72
BRANCH  63  80
ATOM     80  C   UNL A   1      44.887  32.309  31.118  1.00  0.00     0.057 A 
ATOM     81  C   UNL A   1      45.216  33.401  30.306  1.00  0.00     0.134 A 
ATOM     82  C   UNL A   1      44.953  32.489  32.506  1.00  0.00     0.134 A 
ATOM     83  F   UNL A   1      45.186  33.289  28.970  1.00  0.00    -0.206 F 
ATOM     84  C   UNL A   1      45.617  34.620  30.854  1.00  0.00     0.040 A 
ATOM     85  C   UNL A   1      45.326  33.713  33.066  1.00  0.00     0.040 A 
ATOM     86  F   UNL A   1      44.643  31.486  33.340  1.00  0.00    -0.206 F 
ATOM     87  C   UNL A   1      45.666  34.781  32.238  1.00  0.00     0.006 A 
ENDBRANCH  63  80
ENDBRANCH  37  38
ENDBRANCH  29  32
ENDBRANCH  27  28
ENDBRANCH  26  27
ENDBRANCH  25  26
ENDBRANCH   1  25
TORSDOF 16
ENDMDL
MODEL 3
REMARK VINA RESULT:     -11.6      6.094     10.728
REMARK SMILES CSc1ccc([C@H](C)[N@H+]2CC[C@@H](C(=O)NCCCCCCNC(=O)c3ccc(-c4c5nc(c(-c6c(F)cccc6F)c6ccc([nH]6)c(-c6c(F)cccc6F)c6nc(c(-c7c(F)cccc7F)c7ccc4[nH]7)C=C6)C=C5)cc3)[C@H]2C)cc1
REMARK SMILES IDX 18 1 17 2 16 3 15 4 13 5 14 6 12 8 9 9 10 10 79 11 11 13
REMARK SMILES IDX 80 14 7 15 8 16 6 17 3 18 4 19 82 20 5 21 81 22 2 23 1 24
REMARK SMILES IDX 19 25 20 26 21 27 22 28 23 29 24 31 25 32 26 33 78 34 27 35
REMARK SMILES IDX 77 36 28 37 29 38 30 39 71 40 31 41 76 42 70 43 72 44 32 45
REMARK SMILES IDX 75 46 69 47 68 48 33 50 59 51 42 52 58 53 43 54 46 55 57 56
REMARK SMILES IDX 73 57 44 58 45 59 56 61 74 62 47 63 34 64 35 65 40 66 36 67
REMARK SMILES IDX 37 68 39 69 41 70 38 71 60 72 61 73 66 74 62 75 63 76 65 77
REMARK SMILES IDX 67 78 64 79 48 80 49 81 54 82 50 83 51 84 53 85 55 86 52 87
REMARK H PARENT 15 7 9 12 22 30 72 49 46 60
REMARK Flexibility Score: inf
ROOT
ATOM      1  C   UNL A   1      34.887  33.193  27.869  1.00  0.00     0.002 C 
ENDROOT
BRANCH   1   2
ATOM      2  C   UNL A   1      35.599  31.853  28.066  1.00  0.00     0.021 C 
BRANCH   2   3
ATOM      3  C   UNL A   1      34.711  30.624  27.873  1.00  0.00     0.116 C 
BRANCH   3   4
ATOM      4  N   UNL A   1      33.405  31.002  27.380  1.00  0.00    -0.356 N 
ATOM      5  C   UNL A   1      32.622  30.450  26.418  1.00  0.00     0.229 C 
ATOM      6  O   UNL A   1      31.593  31.066  26.121  1.00  0.00    -0.275 OA
ATOM      7  H   UNL A   1      33.017  31.796  27.815  1.00  0.00     0.163 HD
BRANCH   5   8
ATOM      8  C   UNL A   1      32.930  29.123  25.732  1.00  0.00     0.142 C 
ATOM      9  N   UNL A   1      31.814  27.104  25.192  1.00  0.00    -0.326 N 
ATOM     10  C   UNL A   1      32.298  27.635  23.937  1.00  0.00     0.264 C 
ATOM     11  C   UNL A   1      32.408  27.799  26.329  1.00  0.00     0.194 C 
ATOM     12  H   UNL A   1      31.964  26.127  25.444  1.00  0.00     0.348 HD
ATOM     13  C   UNL A   1      32.584  29.093  24.242  1.00  0.00     0.081 C 
ATOM     14  C   UNL A   1      31.622  27.876  27.631  1.00  0.00     0.076 C 
BRANCH   9  15
ATOM     15  C   UNL A   1      30.686  26.188  25.242  1.00  0.00     0.212 C 
ATOM     16  C   UNL A   1      29.640  26.550  24.176  1.00  0.00     0.081 C 
BRANCH  15  17
ATOM     17  C   UNL A   1      31.126  24.719  25.163  1.00  0.00     0.009 A 
ATOM     18  C   UNL A   1      31.961  22.007  24.938  1.00  0.00     0.007 A 
ATOM     19  C   UNL A   1      32.000  22.861  23.833  1.00  0.00     0.015 A 
ATOM     20  C   UNL A   1      31.507  22.520  26.155  1.00  0.00     0.015 A 
ATOM     21  C   UNL A   1      31.589  24.198  23.944  1.00  0.00     0.011 A 
ATOM     22  C   UNL A   1      31.089  23.850  26.266  1.00  0.00     0.011 A 
BRANCH  18  23
ATOM     23  S   UNL A   1      32.494  20.302  24.932  1.00  0.00    -0.130 SA
ATOM     24  C   UNL A   1      34.298  20.444  24.990  1.00  0.00     0.091 C 
ENDBRANCH  18  23
ENDBRANCH  15  17
ENDBRANCH   9  15
ENDBRANCH   5   8
ENDBRANCH   3   4
ENDBRANCH   2   3
ENDBRANCH   1   2
BRANCH   1  25
ATOM     25  C   UNL A   1      34.417  33.877  29.156  1.00  0.00     0.002 C 
BRANCH  25  26
ATOM     26  C   UNL A   1      33.163  34.745  29.020  1.00  0.00     0.021 C 
BRANCH  26  27
ATOM     27  C   UNL A   1      33.277  36.145  29.616  1.00  0.00     0.116 C 
BRANCH  27  28
ATOM     28  N   UNL A   1      32.382  36.337  30.745  1.00  0.00    -0.352 N 
ATOM     29  C   UNL A   1      32.450  35.814  32.012  1.00  0.00     0.251 C 
ATOM     30  H   UNL A   1      31.615  36.929  30.577  1.00  0.00     0.163 HD
ATOM     31  O   UNL A   1      31.500  35.928  32.778  1.00  0.00    -0.269 OA
BRANCH  29  32
ATOM     32  C   UNL A   1      33.666  35.096  32.448  1.00  0.00     0.039 A 
ATOM     33  C   UNL A   1      33.545  33.780  32.903  1.00  0.00     0.014 A 
ATOM     34  C   UNL A   1      34.916  35.721  32.427  1.00  0.00     0.014 A 
ATOM     35  C   UNL A   1      34.687  33.073  33.284  1.00  0.00     0.010 A 
ATOM     36  C   UNL A   1      36.060  34.993  32.742  1.00  0.00     0.010 A 
ATOM     37  C   UNL A   1      35.957  33.664  33.178  1.00  0.00    -0.014 A 
BRANCH  37  38
ATOM     38  C   UNL A   1      37.186  32.907  33.525  1.00  0.00     0.031 A 
ATOM     39  C   UNL A   1      37.917  33.197  34.805  1.00  0.00     0.074 A 
ATOM     40  C   UNL A   1      37.675  31.999  32.657  1.00  0.00     0.049 A 
ATOM     41  N   UNL A   1      39.039  32.691  35.250  1.00  0.00    -0.248 NA
ATOM     42  C   UNL A   1      37.320  34.207  35.694  1.00  0.00     0.031 C 
ATOM     43  C   UNL A   1      37.083  31.661  31.362  1.00  0.00     0.029 A 
ATOM     44  N   UNL A   1      38.792  31.204  32.731  1.00  0.00    -0.354 N 
ATOM     45  C   UNL A   1      39.287  33.326  36.461  1.00  0.00     0.074 A 
ATOM     46  C   UNL A   1      38.229  34.295  36.654  1.00  0.00     0.031 C 
ATOM     47  C   UNL A   1      37.831  30.716  30.771  1.00  0.00     0.029 A 
ATOM     48  C   UNL A   1      38.974  30.409  31.625  1.00  0.00     0.049 A 
ATOM     49  H   UNL A   1      39.403  31.202  33.503  1.00  0.00     0.167 HD
ATOM     50  C   UNL A   1      40.290  33.106  37.344  1.00  0.00     0.037 A 
ATOM     51  C   UNL A   1      39.957  29.538  31.331  1.00  0.00     0.037 A 
ATOM     52  C   UNL A   1      41.331  32.129  37.157  1.00  0.00     0.049 A 
ATOM     53  C   UNL A   1      41.066  29.318  32.321  1.00  0.00     0.074 A 
ATOM     54  C   UNL A   1      42.367  31.799  38.013  1.00  0.00     0.029 A 
ATOM     55  N   UNL A   1      41.471  31.329  36.033  1.00  0.00    -0.354 N 
ATOM     56  N   UNL A   1      41.253  29.882  33.491  1.00  0.00    -0.248 NA
ATOM     57  C   UNL A   1      42.097  28.336  31.957  1.00  0.00     0.031 C 
ATOM     58  C   UNL A   1      43.157  30.827  37.390  1.00  0.00     0.029 A 
ATOM     59  C   UNL A   1      42.586  30.517  36.167  1.00  0.00     0.049 A 
ATOM     60  H   UNL A   1      40.867  31.336  35.256  1.00  0.00     0.167 HD
ATOM     61  C   UNL A   1      42.403  29.304  34.011  1.00  0.00     0.074 A 
ATOM     62  C   UNL A   1      42.864  28.335  33.037  1.00  0.00     0.031 C 
ATOM     63  C   UNL A   1      43.025  29.553  35.190  1.00  0.00     0.037 A 
BRANCH  50  64
ATOM     64  C   UNL A   1      40.300  33.931  38.598  1.00  0.00     0.057 A 
ATOM     65  C   UNL A   1      41.034  35.122  38.690  1.00  0.00     0.134 A 
ATOM     66  C   UNL A   1      39.545  33.551  39.715  1.00  0.00     0.134 A 
ATOM     67  F   UNL A   1      41.787  35.538  37.661  1.00  0.00    -0.206 F 
ATOM     68  C   UNL A   1      41.038  35.889  39.857  1.00  0.00     0.040 A 
ATOM     69  C   UNL A   1      39.518  34.324  40.876  1.00  0.00     0.040 A 
ATOM     70  F   UNL A   1      38.815  32.425  39.693  1.00  0.00    -0.206 F 
ATOM     71  C   UNL A   1      40.272  35.494  40.952  1.00  0.00     0.006 A 
ENDBRANCH  50  64
BRANCH  51  72
ATOM     72  C   UNL A   1      39.931  28.795  30.044  1.00  0.00     0.057 A 
ATOM     73  C   UNL A   1      40.588  29.288  28.911  1.00  0.00     0.134 A 
ATOM     74  C   UNL A   1      39.243  27.583  29.914  1.00  0.00     0.134 A 
ATOM     75  F   UNL A   1      41.250  30.453  28.968  1.00  0.00    -0.206 F 
ATOM     76  C   UNL A   1      40.544  28.616  27.689  1.00  0.00     0.040 A 
ATOM     77  C   UNL A   1      39.212  26.886  28.705  1.00  0.00     0.040 A 
ATOM     78  F   UNL A   1      38.600  27.052  30.965  1.00  0.00    -0.206 F 
ATOM     79  C   UNL A   1      39.857  27.407  27.585  1.00  0.00     0.006 A 
ENDBRANCH  51  72
BRANCH  63  80
ATOM     80  C   UNL A   1      44.248  28.742  35.507  1.00  0.00     0.057 A 
ATOM     81  C   UNL A   1      44.173  27.532  36.206  1.00  0.00     0.134 A 
ATOM     82  C   UNL A   1      45.512  29.164  35.074  1.00  0.00     0.134 A 
ATOM     83  F   UNL A   1      42.995  27.080  36.661  1.00  0.00    -0.206 F 
ATOM     84  C   UNL A   1      45.315  26.779  36.483  1.00  0.00     0.040 A 
ATOM     85  C   UNL A   1      46.658  28.406  35.320  1.00  0.00     0.040 A 
ATOM     86  F   UNL A   1      45.652  30.310  34.391  1.00  0.00    -0.206 F 
ATOM     87  C   UNL A   1      46.562  27.213  36.034  1.00  0.00     0.006 A 
ENDBRANCH  63  80
ENDBRANCH  37  38
ENDBRANCH  29  32
ENDBRANCH  27  28
ENDBRANCH  26  27
ENDBRANCH  25  26
ENDBRANCH   1  25
TORSDOF 16
ENDMDL
