MODEL 1
REMARK VINA RESULT:     -12.3      0.000      0.000
REMARK SMILES O=C(NCCCCCCNC(=O)c1ccccc1NC(=O)c1ccncc1)c1ccc(-c2c3nc(c(-c4c(F)cccc4F)c4ccc([nH]4)c(-c4c(F)cccc4F)c4nc(c(-c5c(F)cccc5F)c5ccc2[nH]5)C=C4)C=C3)cc1
REMARK SMILES IDX 6 1 5 2 4 3 3 4 1 5 2 6 28 8 29 9 81 10 30 11 80 12 31 13
REMARK SMILES IDX 32 14 33 15 74 16 34 17 79 18 73 19 75 20 35 21 78 22 72 23
REMARK SMILES IDX 71 24 36 26 62 27 45 28 61 29 46 30 49 31 60 32 76 33 47 34
REMARK SMILES IDX 48 35 59 37 77 38 50 39 37 40 38 41 43 42 39 43 40 44 42 45
REMARK SMILES IDX 44 46 41 47 63 48 64 49 69 50 65 51 66 52 68 53 70 54 67 55
REMARK SMILES IDX 51 56 52 57 57 58 53 59 54 60 56 61 58 62 55 63 7 64 8 65
REMARK SMILES IDX 9 66 10 67 11 68 12 70 13 71 14 72 18 73 15 74 17 75 16 76
REMARK SMILES IDX 19 77 20 78 21 80 22 81 23 82 27 83 24 84 26 85 25 86
REMARK H PARENT 3 7 75 25 49 36 10 69 19 79
REMARK Flexibility Score: inf
ROOT
ATOM      1  C   UNL A   1      31.421  30.564  25.990  1.00  0.00     0.002 C 
ENDROOT
BRANCH   1   2
ATOM      2  C   UNL A   1      31.324  32.012  26.472  1.00  0.00     0.021 C 
BRANCH   2   3
ATOM      3  C   UNL A   1      32.572  32.539  27.170  1.00  0.00     0.116 C 
BRANCH   3   4
ATOM      4  N   UNL A   1      32.423  33.918  27.603  1.00  0.00    -0.352 N 
ATOM      5  O   UNL A   1      32.762  35.724  28.912  1.00  0.00    -0.269 OA
ATOM      6  C   UNL A   1      33.138  34.612  28.543  1.00  0.00     0.251 C 
ATOM      7  H   UNL A   1      31.707  34.425  27.156  1.00  0.00     0.163 HD
BRANCH   6   8
ATOM      8  C   UNL A   1      34.354  34.015  29.129  1.00  0.00     0.039 A 
ATOM      9  C   UNL A   1      35.625  34.465  28.758  1.00  0.00     0.014 A 
ATOM     10  C   UNL A   1      34.214  33.004  30.083  1.00  0.00     0.014 A 
ATOM     11  C   UNL A   1      36.758  33.829  29.256  1.00  0.00     0.010 A 
ATOM     12  C   UNL A   1      35.352  32.416  30.636  1.00  0.00     0.010 A 
ATOM     13  C   UNL A   1      36.632  32.810  30.211  1.00  0.00    -0.014 A 
BRANCH  13  14
ATOM     14  C   UNL A   1      37.837  32.195  30.817  1.00  0.00     0.031 A 
ATOM     15  C   UNL A   1      38.567  31.090  30.114  1.00  0.00     0.074 A 
ATOM     16  C   UNL A   1      38.237  32.604  32.035  1.00  0.00     0.049 A 
ATOM     17  N   UNL A   1      39.564  30.356  30.541  1.00  0.00    -0.248 NA
ATOM     18  C   UNL A   1      38.110  30.757  28.757  1.00  0.00     0.031 C 
ATOM     19  C   UNL A   1      37.601  33.667  32.815  1.00  0.00     0.029 A 
ATOM     20  N   UNL A   1      39.254  32.161  32.841  1.00  0.00    -0.354 N 
ATOM     21  C   UNL A   1      39.836  29.457  29.518  1.00  0.00     0.074 A 
ATOM     22  C   UNL A   1      38.885  29.722  28.460  1.00  0.00     0.031 C 
ATOM     23  C   UNL A   1      38.240  33.793  33.987  1.00  0.00     0.029 A 
ATOM     24  C   UNL A   1      39.285  32.778  34.066  1.00  0.00     0.049 A 
ATOM     25  H   UNL A   1      39.898  31.468  32.567  1.00  0.00     0.167 HD
ATOM     26  C   UNL A   1      40.795  28.500  29.470  1.00  0.00     0.037 A 
ATOM     27  C   UNL A   1      40.039  32.528  35.153  1.00  0.00     0.037 A 
ATOM     28  C   UNL A   1      41.733  28.245  30.533  1.00  0.00     0.049 A 
ATOM     29  C   UNL A   1      41.062  31.433  35.099  1.00  0.00     0.074 A 
ATOM     30  C   UNL A   1      42.771  27.329  30.567  1.00  0.00     0.029 A 
ATOM     31  N   UNL A   1      41.736  28.895  31.759  1.00  0.00    -0.354 N 
ATOM     32  N   UNL A   1      41.341  30.616  34.111  1.00  0.00    -0.248 NA
ATOM     33  C   UNL A   1      41.874  31.221  36.304  1.00  0.00     0.031 C 
ATOM     34  C   UNL A   1      43.359  27.381  31.834  1.00  0.00     0.029 A 
ATOM     35  C   UNL A   1      42.735  28.379  32.568  1.00  0.00     0.049 A 
ATOM     36  H   UNL A   1      41.119  29.619  32.016  1.00  0.00     0.167 HD
ATOM     37  C   UNL A   1      42.380  29.814  34.563  1.00  0.00     0.074 A 
ATOM     38  C   UNL A   1      42.680  30.242  35.914  1.00  0.00     0.031 C 
ATOM     39  C   UNL A   1      43.031  28.820  33.910  1.00  0.00     0.037 A 
BRANCH  26  40
ATOM     40  C   UNL A   1      40.843  27.632  28.244  1.00  0.00     0.057 A 
ATOM     41  C   UNL A   1      40.140  26.422  28.155  1.00  0.00     0.134 A 
ATOM     42  C   UNL A   1      41.602  28.015  27.130  1.00  0.00     0.134 A 
ATOM     43  F   UNL A   1      39.398  25.990  29.188  1.00  0.00    -0.206 F 
ATOM     44  C   UNL A   1      40.225  25.607  27.024  1.00  0.00     0.040 A 
ATOM     45  C   UNL A   1      41.669  27.225  25.982  1.00  0.00     0.040 A 
ATOM     46  F   UNL A   1      42.290  29.167  27.138  1.00  0.00    -0.206 F 
ATOM     47  C   UNL A   1      40.989  26.010  25.931  1.00  0.00     0.006 A 
ENDBRANCH  26  40
BRANCH  27  48
ATOM     48  C   UNL A   1      39.825  33.334  36.379  1.00  0.00     0.057 A 
ATOM     49  C   UNL A   1      40.538  34.516  36.603  1.00  0.00     0.134 A 
ATOM     50  C   UNL A   1      38.856  32.974  37.324  1.00  0.00     0.134 A 
ATOM     51  F   UNL A   1      41.486  34.906  35.740  1.00  0.00    -0.206 F 
ATOM     52  C   UNL A   1      40.298  35.311  37.725  1.00  0.00     0.040 A 
ATOM     53  C   UNL A   1      38.586  33.772  38.436  1.00  0.00     0.040 A 
ATOM     54  F   UNL A   1      38.128  31.859  37.157  1.00  0.00    -0.206 F 
ATOM     55  C   UNL A   1      39.311  34.944  38.639  1.00  0.00     0.006 A 
ENDBRANCH  27  48
BRANCH  39  56
ATOM     56  C   UNL A   1      44.170  28.151  34.621  1.00  0.00     0.057 A 
ATOM     57  C   UNL A   1      45.467  28.676  34.607  1.00  0.00     0.134 A 
ATOM     58  C   UNL A   1      43.941  27.008  35.400  1.00  0.00     0.134 A 
ATOM     59  F   UNL A   1      45.756  29.759  33.870  1.00  0.00    -0.206 F 
ATOM     60  C   UNL A   1      46.499  28.084  35.340  1.00  0.00     0.040 A 
ATOM     61  C   UNL A   1      44.957  26.425  36.157  1.00  0.00     0.040 A 
ATOM     62  F   UNL A   1      42.719  26.459  35.460  1.00  0.00    -0.206 F 
ATOM     63  C   UNL A   1      46.242  26.963  36.128  1.00  0.00     0.006 A 
ENDBRANCH  39  56
ENDBRANCH  13  14
ENDBRANCH   6   8
ENDBRANCH   3   4
ENDBRANCH   2   3
ENDBRANCH   1   2
BRANCH   1  64
ATOM     64  C   UNL A   1      32.261  29.636  26.871  1.00  0.00     0.002 C 
BRANCH  64  65
ATOM     65  C   UNL A   1      31.516  28.440  27.478  1.00  0.00     0.021 C 
BRANCH  65  66
ATOM     66  C   UNL A   1      31.975  27.073  26.979  1.00  0.00     0.116 C 
BRANCH  66  67
ATOM     67  N   UNL A   1      30.883  26.319  26.393  1.00  0.00    -0.352 N 
ATOM     68  C   UNL A   1      30.288  26.450  25.167  1.00  0.00     0.253 C 
ATOM     69  H   UNL A   1      30.514  25.606  26.962  1.00  0.00     0.163 HD
ATOM     70  O   UNL A   1      29.239  25.854  24.936  1.00  0.00    -0.269 OA
BRANCH  68  71
ATOM     71  C   UNL A   1      30.890  27.285  24.106  1.00  0.00     0.063 A 
ATOM     72  C   UNL A   1      32.289  27.236  24.009  1.00  0.00     0.016 A 
ATOM     73  C   UNL A   1      30.138  28.158  23.292  1.00  0.00     0.054 A 
ATOM     74  C   UNL A   1      32.959  28.060  23.110  1.00  0.00     0.001 A 
ATOM     75  C   UNL A   1      30.843  29.044  22.472  1.00  0.00     0.027 A 
ATOM     76  C   UNL A   1      32.236  28.980  22.359  1.00  0.00     0.002 A 
BRANCH  73  77
ATOM     77  N   UNL A   1      28.724  28.115  23.343  1.00  0.00    -0.321 N 
ATOM     78  C   UNL A   1      27.743  29.052  23.117  1.00  0.00     0.255 C 
ATOM     79  H   UNL A   1      28.370  27.231  23.590  1.00  0.00     0.170 HD
ATOM     80  O   UNL A   1      26.559  28.734  23.223  1.00  0.00    -0.269 OA
BRANCH  78  81
ATOM     81  C   UNL A   1      28.049  30.432  22.714  1.00  0.00     0.043 A 
ATOM     82  C   UNL A   1      28.366  31.419  23.646  1.00  0.00     0.034 A 
ATOM     83  C   UNL A   1      27.990  30.733  21.356  1.00  0.00     0.034 A 
ATOM     84  C   UNL A   1      28.510  32.710  23.174  1.00  0.00     0.112 A 
ATOM     85  C   UNL A   1      28.165  32.051  20.988  1.00  0.00     0.112 A 
ATOM     86  N   UNL A   1      28.401  33.047  21.870  1.00  0.00    -0.265 NA
ENDBRANCH  78  81
ENDBRANCH  73  77
ENDBRANCH  68  71
ENDBRANCH  66  67
ENDBRANCH  65  66
ENDBRANCH  64  65
ENDBRANCH   1  64
TORSDOF 15
ENDMDL
MODEL 2
REMARK VINA RESULT:     -11.9      0.452      6.137
REMARK SMILES O=C(NCCCCCCNC(=O)c1ccccc1NC(=O)c1ccncc1)c1ccc(-c2c3nc(c(-c4c(F)cccc4F)c4ccc([nH]4)c(-c4c(F)cccc4F)c4nc(c(-c5c(F)cccc5F)c5ccc2[nH]5)C=C4)C=C3)cc1
REMARK SMILES IDX 6 1 5 2 4 3 3 4 1 5 2 6 28 8 29 9 81 10 30 11 80 12 31 13
REMARK SMILES IDX 32 14 33 15 74 16 34 17 79 18 73 19 75 20 35 21 78 22 72 23
REMARK SMILES IDX 71 24 36 26 62 27 45 28 61 29 46 30 49 31 60 32 76 33 47 34
REMARK SMILES IDX 48 35 59 37 77 38 50 39 37 40 38 41 43 42 39 43 40 44 42 45
REMARK SMILES IDX 44 46 41 47 63 48 64 49 69 50 65 51 66 52 68 53 70 54 67 55
REMARK SMILES IDX 51 56 52 57 57 58 53 59 54 60 56 61 58 62 55 63 7 64 8 65
REMARK SMILES IDX 9 66 10 67 11 68 12 70 13 71 14 72 18 73 15 74 17 75 16 76
REMARK SMILES IDX 19 77 20 78 21 80 22 81 23 82 27 83 24 84 26 85 25 86
REMARK H PARENT 3 7 75 25 49 36 10 69 19 79
REMARK Flexibility Score: inf
ROOT
ATOM      1  C   UNL A   1      31.088  31.088  25.808  1.00  0.00     0.002 C 
ENDROOT
BRANCH   1   2
ATOM      2  C   UNL A   1      31.217  32.527  26.309  1.00  0.00     0.021 C 
BRANCH   2   3
ATOM      3  C   UNL A   1      32.389  32.774  27.250  1.00  0.00     0.116 C 
BRANCH   3   4
ATOM      4  N   UNL A   1      32.510  34.171  27.629  1.00  0.00    -0.352 N 
ATOM      5  O   UNL A   1      33.186  35.927  28.875  1.00  0.00    -0.269 OA
ATOM      6  C   UNL A   1      33.340  34.749  28.552  1.00  0.00     0.251 C 
ATOM      7  H   UNL A   1      31.909  34.790  27.155  1.00  0.00     0.163 HD
BRANCH   6   8
ATOM      8  C   UNL A   1      34.413  33.951  29.176  1.00  0.00     0.039 A 
ATOM      9  C   UNL A   1      34.120  32.991  30.150  1.00  0.00     0.014 A 
ATOM     10  C   UNL A   1      35.731  34.154  28.761  1.00  0.00     0.014 A 
ATOM     11  C   UNL A   1      35.154  32.312  30.789  1.00  0.00     0.010 A 
ATOM     12  C   UNL A   1      36.761  33.421  29.350  1.00  0.00     0.010 A 
ATOM     13  C   UNL A   1      36.482  32.510  30.383  1.00  0.00    -0.014 A 
BRANCH  13  14
ATOM     14  C   UNL A   1      37.578  31.720  30.993  1.00  0.00     0.031 A 
ATOM     15  C   UNL A   1      38.089  32.050  32.363  1.00  0.00     0.074 A 
ATOM     16  C   UNL A   1      38.150  30.734  30.275  1.00  0.00     0.049 A 
ATOM     17  N   UNL A   1      39.112  31.548  33.006  1.00  0.00    -0.248 NA
ATOM     18  C   UNL A   1      37.360  33.089  33.105  1.00  0.00     0.031 C 
ATOM     19  C   UNL A   1      37.739  30.328  28.930  1.00  0.00     0.029 A 
ATOM     20  N   UNL A   1      39.209  29.914  30.565  1.00  0.00    -0.354 N 
ATOM     21  C   UNL A   1      39.169  32.228  34.216  1.00  0.00     0.074 A 
ATOM     22  C   UNL A   1      38.090  33.193  34.207  1.00  0.00     0.031 C 
ATOM     23  C   UNL A   1      38.540  29.337  28.509  1.00  0.00     0.029 A 
ATOM     24  C   UNL A   1      39.555  29.086  29.526  1.00  0.00     0.049 A 
ATOM     25  H   UNL A   1      39.676  29.919  31.432  1.00  0.00     0.167 HD
ATOM     26  C   UNL A   1      40.042  32.058  35.239  1.00  0.00     0.037 A 
ATOM     27  C   UNL A   1      40.599  28.249  29.385  1.00  0.00     0.037 A 
ATOM     28  C   UNL A   1      41.114  31.095  35.232  1.00  0.00     0.049 A 
ATOM     29  C   UNL A   1      41.583  28.109  30.507  1.00  0.00     0.074 A 
ATOM     30  C   UNL A   1      42.026  30.812  36.234  1.00  0.00     0.029 A 
ATOM     31  N   UNL A   1      41.429  30.269  34.162  1.00  0.00    -0.354 N 
ATOM     32  N   UNL A   1      41.603  28.724  31.666  1.00  0.00    -0.248 NA
ATOM     33  C   UNL A   1      42.688  27.162  30.310  1.00  0.00     0.031 C 
ATOM     34  C   UNL A   1      42.930  29.864  35.748  1.00  0.00     0.029 A 
ATOM     35  C   UNL A   1      42.541  29.501  34.466  1.00  0.00     0.049 A 
ATOM     36  H   UNL A   1      40.934  30.234  33.311  1.00  0.00     0.167 HD
ATOM     37  C   UNL A   1      42.702  28.219  32.346  1.00  0.00     0.074 A 
ATOM     38  C   UNL A   1      43.325  27.247  31.471  1.00  0.00     0.031 C 
ATOM     39  C   UNL A   1      43.147  28.529  33.589  1.00  0.00     0.037 A 
BRANCH  26  40
ATOM     40  C   UNL A   1      39.897  32.965  36.429  1.00  0.00     0.057 A 
ATOM     41  C   UNL A   1      38.987  32.704  37.463  1.00  0.00     0.134 A 
ATOM     42  C   UNL A   1      40.686  34.117  36.545  1.00  0.00     0.134 A 
ATOM     43  F   UNL A   1      38.194  31.621  37.413  1.00  0.00    -0.206 F 
ATOM     44  C   UNL A   1      38.837  33.576  38.543  1.00  0.00     0.040 A 
ATOM     45  C   UNL A   1      40.568  34.979  37.636  1.00  0.00     0.040 A 
ATOM     46  F   UNL A   1      41.589  34.423  35.601  1.00  0.00    -0.206 F 
ATOM     47  C   UNL A   1      39.632  34.716  38.634  1.00  0.00     0.006 A 
ENDBRANCH  26  40
BRANCH  27  48
ATOM     48  C   UNL A   1      40.755  27.499  28.114  1.00  0.00     0.057 A 
ATOM     49  C   UNL A   1      41.515  28.012  27.059  1.00  0.00     0.134 A 
ATOM     50  C   UNL A   1      40.198  26.225  27.952  1.00  0.00     0.134 A 
ATOM     51  F   UNL A   1      42.063  29.232  27.152  1.00  0.00    -0.206 F 
ATOM     52  C   UNL A   1      41.716  27.285  25.884  1.00  0.00     0.040 A 
ATOM     53  C   UNL A   1      40.412  25.475  26.794  1.00  0.00     0.040 A 
ATOM     54  F   UNL A   1      39.470  25.672  28.935  1.00  0.00    -0.206 F 
ATOM     55  C   UNL A   1      41.172  26.007  25.755  1.00  0.00     0.006 A 
ENDBRANCH  27  48
BRANCH  39  56
ATOM     56  C   UNL A   1      44.337  27.777  34.108  1.00  0.00     0.057 A 
ATOM     57  C   UNL A   1      45.639  28.280  34.004  1.00  0.00     0.134 A 
ATOM     58  C   UNL A   1      44.162  26.569  34.797  1.00  0.00     0.134 A 
ATOM     59  F   UNL A   1      45.876  29.424  33.345  1.00  0.00    -0.206 F 
ATOM     60  C   UNL A   1      46.726  27.605  34.564  1.00  0.00     0.040 A 
ATOM     61  C   UNL A   1      45.236  25.899  35.383  1.00  0.00     0.040 A 
ATOM     62  F   UNL A   1      42.939  26.036  34.937  1.00  0.00    -0.206 F 
ATOM     63  C   UNL A   1      46.524  26.418  35.266  1.00  0.00     0.006 A 
ENDBRANCH  39  56
ENDBRANCH  13  14
ENDBRANCH   6   8
ENDBRANCH   3   4
ENDBRANCH   2   3
ENDBRANCH   1   2
BRANCH   1  64
ATOM     64  C   UNL A   1      32.096  30.097  26.397  1.00  0.00     0.002 C 
BRANCH  64  65
ATOM     65  C   UNL A   1      31.508  29.009  27.303  1.00  0.00     0.021 C 
BRANCH  65  66
ATOM     66  C   UNL A   1      32.054  27.604  27.063  1.00  0.00     0.116 C 
BRANCH  66  67
ATOM     67  N   UNL A   1      31.031  26.708  26.557  1.00  0.00    -0.352 N 
ATOM     68  C   UNL A   1      30.453  26.648  25.318  1.00  0.00     0.253 C 
ATOM     69  H   UNL A   1      30.703  26.041  27.203  1.00  0.00     0.163 HD
ATOM     70  O   UNL A   1      29.455  25.954  25.147  1.00  0.00    -0.269 OA
BRANCH  68  71
ATOM     71  C   UNL A   1      31.015  27.394  24.172  1.00  0.00     0.063 A 
ATOM     72  C   UNL A   1      32.415  27.383  24.062  1.00  0.00     0.016 A 
ATOM     73  C   UNL A   1      30.226  28.157  23.286  1.00  0.00     0.054 A 
ATOM     74  C   UNL A   1      33.047  28.137  23.077  1.00  0.00     0.001 A 
ATOM     75  C   UNL A   1      30.892  28.981  22.373  1.00  0.00     0.027 A 
ATOM     76  C   UNL A   1      32.285  28.953  22.249  1.00  0.00     0.002 A 
BRANCH  73  77
ATOM     77  N   UNL A   1      28.815  28.072  23.359  1.00  0.00    -0.321 N 
ATOM     78  C   UNL A   1      27.802  28.969  23.115  1.00  0.00     0.255 C 
ATOM     79  H   UNL A   1      28.493  27.187  23.643  1.00  0.00     0.170 HD
ATOM     80  O   UNL A   1      26.630  28.618  23.250  1.00  0.00    -0.269 OA
BRANCH  78  81
ATOM     81  C   UNL A   1      28.058  30.343  22.658  1.00  0.00     0.043 A 
ATOM     82  C   UNL A   1      28.299  31.384  23.554  1.00  0.00     0.034 A 
ATOM     83  C   UNL A   1      28.032  30.580  21.287  1.00  0.00     0.034 A 
ATOM     84  C   UNL A   1      28.399  32.658  23.028  1.00  0.00     0.112 A 
ATOM     85  C   UNL A   1      28.159  31.887  20.865  1.00  0.00     0.112 A 
ATOM     86  N   UNL A   1      28.319  32.931  21.707  1.00  0.00    -0.265 NA
ENDBRANCH  78  81
ENDBRANCH  73  77
ENDBRANCH  68  71
ENDBRANCH  66  67
ENDBRANCH  65  66
ENDBRANCH  64  65
ENDBRANCH   1  64
TORSDOF 15
ENDMDL
MODEL 3
REMARK VINA RESULT:     -11.8      5.446     10.126
REMARK SMILES O=C(NCCCCCCNC(=O)c1ccccc1NC(=O)c1ccncc1)c1ccc(-c2c3nc(c(-c4c(F)cccc4F)c4ccc([nH]4)c(-c4c(F)cccc4F)c4nc(c(-c5c(F)cccc5F)c5ccc2[nH]5)C=C4)C=C3)cc1
REMARK SMILES IDX 6 1 5 2 4 3 3 4 1 5 2 6 28 8 29 9 81 10 30 11 80 12 31 13
REMARK SMILES IDX 32 14 33 15 74 16 34 17 79 18 73 19 75 20 35 21 78 22 72 23
REMARK SMILES IDX 71 24 36 26 62 27 45 28 61 29 46 30 49 31 60 32 76 33 47 34
REMARK SMILES IDX 48 35 59 37 77 38 50 39 37 40 38 41 43 42 39 43 40 44 42 45
REMARK SMILES IDX 44 46 41 47 63 48 64 49 69 50 65 51 66 52 68 53 70 54 67 55
REMARK SMILES IDX 51 56 52 57 57 58 53 59 54 60 56 61 58 62 55 63 7 64 8 65
REMARK SMILES IDX 9 66 10 67 11 68 12 70 13 71 14 72 18 73 15 74 17 75 16 76
REMARK SMILES IDX 19 77 20 78 21 80 22 81 23 82 27 83 24 84 26 85 25 86
REMARK H PARENT 3 7 75 25 49 36 10 69 19 79
REMARK Flexibility Score: inf
ROOT
ATOM      1  C   UNL A   1      36.716  19.130  24.882  1.00  0.00     0.002 C 
ENDROOT
BRANCH   1   2
ATOM      2  C   UNL A   1      37.973  19.960  24.622  1.00  0.00     0.021 C 
BRANCH   2   3
ATOM      3  C   UNL A   1      38.880  20.143  25.833  1.00  0.00     0.116 C 
BRANCH   3   4
ATOM      4  N   UNL A   1      39.976  19.190  25.853  1.00  0.00    -0.352 N 
ATOM      5  O   UNL A   1      42.127  18.509  25.834  1.00  0.00    -0.269 OA
ATOM      6  C   UNL A   1      41.317  19.416  26.022  1.00  0.00     0.251 C 
ATOM      7  H   UNL A   1      39.719  18.248  25.727  1.00  0.00     0.163 HD
BRANCH   6   8
ATOM      8  C   UNL A   1      41.792  20.757  26.414  1.00  0.00     0.039 A 
ATOM      9  C   UNL A   1      42.078  21.728  25.448  1.00  0.00     0.014 A 
ATOM     10  C   UNL A   1      41.929  21.052  27.772  1.00  0.00     0.014 A 
ATOM     11  C   UNL A   1      42.609  22.954  25.834  1.00  0.00     0.010 A 
ATOM     12  C   UNL A   1      42.392  22.308  28.162  1.00  0.00     0.010 A 
ATOM     13  C   UNL A   1      42.755  23.262  27.195  1.00  0.00    -0.014 A 
BRANCH  13  14
ATOM     14  C   UNL A   1      43.228  24.602  27.616  1.00  0.00     0.031 A 
ATOM     15  C   UNL A   1      42.253  25.661  28.036  1.00  0.00     0.074 A 
ATOM     16  C   UNL A   1      44.545  24.876  27.561  1.00  0.00     0.049 A 
ATOM     17  N   UNL A   1      42.473  26.919  28.322  1.00  0.00    -0.248 NA
ATOM     18  C   UNL A   1      40.845  25.256  28.139  1.00  0.00     0.031 C 
ATOM     19  C   UNL A   1      45.585  23.925  27.162  1.00  0.00     0.029 A 
ATOM     20  N   UNL A   1      45.231  26.035  27.817  1.00  0.00    -0.354 N 
ATOM     21  C   UNL A   1      41.229  27.464  28.611  1.00  0.00     0.074 A 
ATOM     22  C   UNL A   1      40.257  26.405  28.444  1.00  0.00     0.031 C 
ATOM     23  C   UNL A   1      46.777  24.540  27.198  1.00  0.00     0.029 A 
ATOM     24  C   UNL A   1      46.575  25.940  27.556  1.00  0.00     0.049 A 
ATOM     25  H   UNL A   1      44.802  26.854  28.153  1.00  0.00     0.167 HD
ATOM     26  C   UNL A   1      40.930  28.732  28.983  1.00  0.00     0.037 A 
ATOM     27  C   UNL A   1      47.536  26.882  27.561  1.00  0.00     0.037 A 
ATOM     28  C   UNL A   1      41.909  29.778  29.141  1.00  0.00     0.049 A 
ATOM     29  C   UNL A   1      47.179  28.291  27.928  1.00  0.00     0.074 A 
ATOM     30  C   UNL A   1      41.716  31.085  29.556  1.00  0.00     0.029 A 
ATOM     31  N   UNL A   1      43.264  29.641  28.872  1.00  0.00    -0.354 N 
ATOM     32  N   UNL A   1      46.006  28.787  28.243  1.00  0.00    -0.248 NA
ATOM     33  C   UNL A   1      48.271  29.273  27.942  1.00  0.00     0.031 C 
ATOM     34  C   UNL A   1      42.941  31.754  29.478  1.00  0.00     0.029 A 
ATOM     35  C   UNL A   1      43.913  30.847  29.081  1.00  0.00     0.049 A 
ATOM     36  H   UNL A   1      43.700  28.809  28.578  1.00  0.00     0.167 HD
ATOM     37  C   UNL A   1      46.223  30.130  28.521  1.00  0.00     0.074 A 
ATOM     38  C   UNL A   1      47.640  30.371  28.337  1.00  0.00     0.031 C 
ATOM     39  C   UNL A   1      45.327  31.073  28.903  1.00  0.00     0.037 A 
BRANCH  26  40
ATOM     40  C   UNL A   1      39.480  29.065  29.199  1.00  0.00     0.057 A 
ATOM     41  C   UNL A   1      38.876  28.992  30.462  1.00  0.00     0.134 A 
ATOM     42  C   UNL A   1      38.676  29.473  28.126  1.00  0.00     0.134 A 
ATOM     43  F   UNL A   1      39.585  28.602  31.533  1.00  0.00    -0.206 F 
ATOM     44  C   UNL A   1      37.518  29.267  30.640  1.00  0.00     0.040 A 
ATOM     45  C   UNL A   1      37.326  29.782  28.297  1.00  0.00     0.040 A 
ATOM     46  F   UNL A   1      39.190  29.579  26.891  1.00  0.00    -0.206 F 
ATOM     47  C   UNL A   1      36.740  29.668  29.556  1.00  0.00     0.006 A 
ENDBRANCH  26  40
BRANCH  27  48
ATOM     48  C   UNL A   1      48.920  26.501  27.188  1.00  0.00     0.057 A 
ATOM     49  C   UNL A   1      49.813  25.994  28.136  1.00  0.00     0.134 A 
ATOM     50  C   UNL A   1      49.360  26.577  25.860  1.00  0.00     0.134 A 
ATOM     51  F   UNL A   1      49.453  25.908  29.424  1.00  0.00    -0.206 F 
ATOM     52  C   UNL A   1      51.097  25.577  27.779  1.00  0.00     0.040 A 
ATOM     53  C   UNL A   1      50.630  26.139  25.484  1.00  0.00     0.040 A 
ATOM     54  F   UNL A   1      48.544  27.042  24.901  1.00  0.00    -0.206 F 
ATOM     55  C   UNL A   1      51.504  25.639  26.447  1.00  0.00     0.006 A 
ENDBRANCH  27  48
BRANCH  39  56
ATOM     56  C   UNL A   1      45.850  32.447  29.202  1.00  0.00     0.057 A 
ATOM     57  C   UNL A   1      46.346  32.797  30.463  1.00  0.00     0.134 A 
ATOM     58  C   UNL A   1      45.932  33.406  28.183  1.00  0.00     0.134 A 
ATOM     59  F   UNL A   1      46.282  31.931  31.484  1.00  0.00    -0.206 F 
ATOM     60  C   UNL A   1      46.902  34.057  30.701  1.00  0.00     0.040 A 
ATOM     61  C   UNL A   1      46.510  34.656  28.402  1.00  0.00     0.040 A 
ATOM     62  F   UNL A   1      45.480  33.131  26.950  1.00  0.00    -0.206 F 
ATOM     63  C   UNL A   1      46.997  34.985  29.666  1.00  0.00     0.006 A 
ENDBRANCH  39  56
ENDBRANCH  13  14
ENDBRANCH   6   8
ENDBRANCH   3   4
ENDBRANCH   2   3
ENDBRANCH   1   2
BRANCH   1  64
ATOM     64  C   UNL A   1      35.424  19.935  25.053  1.00  0.00     0.002 C 
BRANCH  64  65
ATOM     65  C   UNL A   1      34.135  19.226  24.618  1.00  0.00     0.021 C 
BRANCH  65  66
ATOM     66  C   UNL A   1      32.845  19.873  25.112  1.00  0.00     0.116 C 
BRANCH  66  67
ATOM     67  N   UNL A   1      32.187  20.632  24.064  1.00  0.00    -0.352 N 
ATOM     68  C   UNL A   1      32.302  21.957  23.739  1.00  0.00     0.253 C 
ATOM     69  H   UNL A   1      31.565  20.117  23.502  1.00  0.00     0.163 HD
ATOM     70  O   UNL A   1      31.505  22.459  22.952  1.00  0.00    -0.269 OA
BRANCH  68  71
ATOM     71  C   UNL A   1      33.379  22.797  24.307  1.00  0.00     0.063 A 
ATOM     72  C   UNL A   1      34.515  22.963  23.500  1.00  0.00     0.016 A 
ATOM     73  C   UNL A   1      33.333  23.330  25.612  1.00  0.00     0.054 A 
ATOM     74  C   UNL A   1      35.623  23.652  23.983  1.00  0.00     0.001 A 
ATOM     75  C   UNL A   1      34.497  23.928  26.106  1.00  0.00     0.027 A 
ATOM     76  C   UNL A   1      35.621  24.114  25.293  1.00  0.00     0.002 A 
BRANCH  73  77
ATOM     77  N   UNL A   1      32.140  23.231  26.365  1.00  0.00    -0.321 N 
ATOM     78  C   UNL A   1      31.051  24.056  26.521  1.00  0.00     0.255 C 
ATOM     79  H   UNL A   1      32.076  22.398  26.886  1.00  0.00     0.170 HD
ATOM     80  O   UNL A   1      30.121  23.710  27.249  1.00  0.00    -0.269 OA
BRANCH  78  81
ATOM     81  C   UNL A   1      30.928  25.340  25.816  1.00  0.00     0.043 A 
ATOM     82  C   UNL A   1      30.365  25.431  24.544  1.00  0.00     0.034 A 
ATOM     83  C   UNL A   1      31.418  26.475  26.456  1.00  0.00     0.034 A 
ATOM     84  C   UNL A   1      30.415  26.662  23.918  1.00  0.00     0.112 A 
ATOM     85  C   UNL A   1      31.407  27.659  25.749  1.00  0.00     0.112 A 
ATOM     86  N   UNL A   1      30.937  27.771  24.487  1.00  0.00    -0.265 NA
ENDBRANCH  78  81
ENDBRANCH  73  77
ENDBRANCH  68  71
ENDBRANCH  66  67
ENDBRANCH  65  66
ENDBRANCH  64  65
ENDBRANCH   1  64
TORSDOF 15
ENDMDL
