MODEL 1
REMARK VINA RESULT:     -10.9      0.000      0.000
REMARK SMILES O=C(CCC(=O)Nc1ccc(C(=O)N2CCOCC2)cc1)NCCCCCCNC(=O)c1ccc(-c2c3nc(c(-c4c(F)cccc4F)c4ccc([nH]4)c(-c4c(F)cccc4F)c4nc(c(-c5c(F)cccc5F)c5ccc2[nH]5)C=C4)C=C3)cc1
REMARK SMILES IDX 24 1 23 2 22 3 1 4 2 5 3 7 4 8 5 9 6 10 7 11 8 13 9 14 21 15
REMARK SMILES IDX 10 16 20 17 11 18 12 19 13 20 14 21 15 22 19 23 16 24 18 25
REMARK SMILES IDX 17 26 25 27 26 28 27 29 28 30 29 31 30 32 31 34 32 35 33 36
REMARK SMILES IDX 85 37 34 38 84 39 35 40 36 41 37 42 78 43 38 44 83 45 77 46
REMARK SMILES IDX 79 47 39 48 82 49 76 50 75 51 40 53 66 54 49 55 65 56 50 57
REMARK SMILES IDX 53 58 64 59 80 60 51 61 52 62 63 64 81 65 54 66 41 67 42 68
REMARK SMILES IDX 47 69 43 70 44 71 46 72 48 73 45 74 67 75 68 76 73 77 69 78
REMARK SMILES IDX 70 79 72 80 74 81 71 82 55 83 56 84 61 85 57 86 58 87 60 88
REMARK SMILES IDX 62 89 59 90
REMARK H PARENT 22 6 7 12 29 33 79 52 53 63
REMARK Flexibility Score: inf
ROOT
ATOM      1  C   UNL A   1      35.370  31.182  27.766  1.00  0.00     0.021 C 
ENDROOT
BRANCH   1   2
ATOM      2  C   UNL A   1      34.017  30.513  27.553  1.00  0.00     0.116 C 
BRANCH   2   3
ATOM      3  N   UNL A   1      33.765  30.158  26.173  1.00  0.00    -0.356 N 
ATOM      4  O   UNL A   1      33.301  27.940  26.555  1.00  0.00    -0.275 OA
ATOM      5  C   UNL A   1      33.352  28.902  25.794  1.00  0.00     0.220 C 
ATOM      6  H   UNL A   1      33.894  30.843  25.477  1.00  0.00     0.163 HD
BRANCH   5   7
ATOM      7  C   UNL A   1      32.941  28.803  24.340  1.00  0.00     0.110 C 
BRANCH   7   8
ATOM      8  C   UNL A   1      31.519  28.309  24.088  1.00  0.00     0.110 C 
BRANCH   8   9
ATOM      9  C   UNL A   1      31.156  28.099  22.635  1.00  0.00     0.224 C 
ATOM     10  O   UNL A   1      30.575  29.012  22.033  1.00  0.00    -0.275 OA
ATOM     11  N   UNL A   1      31.357  26.947  21.937  1.00  0.00    -0.326 N 
ATOM     12  H   UNL A   1      31.248  27.059  20.965  1.00  0.00     0.169 HD
BRANCH  11  13
ATOM     13  C   UNL A   1      31.686  25.630  22.305  1.00  0.00     0.041 A 
ATOM     14  C   UNL A   1      30.721  24.923  23.049  1.00  0.00     0.027 A 
ATOM     15  C   UNL A   1      32.923  25.035  22.110  1.00  0.00     0.027 A 
ATOM     16  C   UNL A   1      31.060  23.749  23.739  1.00  0.00     0.016 A 
ATOM     17  C   UNL A   1      33.270  23.879  22.803  1.00  0.00     0.016 A 
ATOM     18  C   UNL A   1      32.367  23.271  23.673  1.00  0.00     0.040 A 
BRANCH  18  19
ATOM     19  C   UNL A   1      32.803  22.085  24.458  1.00  0.00     0.254 C 
ATOM     20  O   UNL A   1      32.109  21.077  24.493  1.00  0.00    -0.269 OA
ATOM     21  N   UNL A   1      34.073  22.172  24.994  1.00  0.00    -0.334 N 
ATOM     22  C   UNL A   1      34.410  23.076  26.094  1.00  0.00     0.148 C 
ATOM     23  C   UNL A   1      35.070  21.158  24.699  1.00  0.00     0.148 C 
ATOM     24  C   UNL A   1      35.827  23.640  25.936  1.00  0.00     0.181 C 
ATOM     25  C   UNL A   1      36.433  21.839  24.519  1.00  0.00     0.181 C 
ATOM     26  O   UNL A   1      36.786  22.594  25.690  1.00  0.00    -0.378 OA
ENDBRANCH  18  19
ENDBRANCH  11  13
ENDBRANCH   8   9
ENDBRANCH   7   8
ENDBRANCH   5   7
ENDBRANCH   2   3
ENDBRANCH   1   2
BRANCH   1  27
ATOM     27  C   UNL A   1      35.324  32.695  28.010  1.00  0.00     0.002 C 
BRANCH  27  28
ATOM     28  C   UNL A   1      34.413  33.167  29.146  1.00  0.00     0.002 C 
BRANCH  28  29
ATOM     29  C   UNL A   1      33.340  34.189  28.763  1.00  0.00     0.021 C 
BRANCH  29  30
ATOM     30  C   UNL A   1      33.547  35.603  29.300  1.00  0.00     0.116 C 
BRANCH  30  31
ATOM     31  N   UNL A   1      32.619  35.965  30.358  1.00  0.00    -0.352 N 
ATOM     32  C   UNL A   1      32.702  35.743  31.710  1.00  0.00     0.251 C 
ATOM     33  H   UNL A   1      31.809  36.441  30.060  1.00  0.00     0.163 HD
ATOM     34  O   UNL A   1      31.772  36.066  32.445  1.00  0.00    -0.269 OA
BRANCH  32  35
ATOM     35  C   UNL A   1      33.888  35.074  32.284  1.00  0.00     0.039 A 
ATOM     36  C   UNL A   1      33.730  33.804  32.848  1.00  0.00     0.014 A 
ATOM     37  C   UNL A   1      35.150  35.676  32.257  1.00  0.00     0.014 A 
ATOM     38  C   UNL A   1      34.847  33.104  33.306  1.00  0.00     0.010 A 
ATOM     39  C   UNL A   1      36.271  34.951  32.654  1.00  0.00     0.010 A 
ATOM     40  C   UNL A   1      36.132  33.653  33.169  1.00  0.00    -0.014 A 
BRANCH  40  41
ATOM     41  C   UNL A   1      37.342  32.865  33.515  1.00  0.00     0.031 A 
ATOM     42  C   UNL A   1      38.111  33.154  34.772  1.00  0.00     0.074 A 
ATOM     43  C   UNL A   1      37.793  31.938  32.648  1.00  0.00     0.049 A 
ATOM     44  N   UNL A   1      39.225  32.617  35.200  1.00  0.00    -0.248 NA
ATOM     45  C   UNL A   1      37.570  34.200  35.651  1.00  0.00     0.031 C 
ATOM     46  C   UNL A   1      37.170  31.606  31.366  1.00  0.00     0.029 A 
ATOM     47  N   UNL A   1      38.892  31.119  32.706  1.00  0.00    -0.354 N 
ATOM     48  C   UNL A   1      39.522  33.263  36.391  1.00  0.00     0.074 A 
ATOM     49  C   UNL A   1      38.501  34.269  36.590  1.00  0.00     0.031 C 
ATOM     50  C   UNL A   1      37.889  30.647  30.764  1.00  0.00     0.029 A 
ATOM     51  C   UNL A   1      39.041  30.322  31.597  1.00  0.00     0.049 A 
ATOM     52  H   UNL A   1      39.514  31.104  33.468  1.00  0.00     0.167 HD
ATOM     53  C   UNL A   1      40.541  33.026  37.253  1.00  0.00     0.037 A 
ATOM     54  C   UNL A   1      40.005  29.438  31.279  1.00  0.00     0.037 A 
ATOM     55  C   UNL A   1      41.553  32.021  37.055  1.00  0.00     0.049 A 
ATOM     56  C   UNL A   1      41.133  29.199  32.241  1.00  0.00     0.074 A 
ATOM     57  C   UNL A   1      42.590  31.661  37.900  1.00  0.00     0.029 A 
ATOM     58  N   UNL A   1      41.664  31.222  35.926  1.00  0.00    -0.354 N 
ATOM     59  N   UNL A   1      41.360  29.762  33.403  1.00  0.00    -0.248 NA
ATOM     60  C   UNL A   1      42.138  28.199  31.851  1.00  0.00     0.031 C 
ATOM     61  C   UNL A   1      43.353  30.676  37.262  1.00  0.00     0.029 A 
ATOM     62  C   UNL A   1      42.767  30.390  36.039  1.00  0.00     0.049 A 
ATOM     63  H   UNL A   1      41.048  31.242  35.158  1.00  0.00     0.167 HD
ATOM     64  C   UNL A   1      42.522  29.179  33.888  1.00  0.00     0.074 A 
ATOM     65  C   UNL A   1      42.943  28.203  32.904  1.00  0.00     0.031 C 
ATOM     66  C   UNL A   1      43.182  29.432  35.046  1.00  0.00     0.037 A 
BRANCH  53  67
ATOM     67  C   UNL A   1      40.605  33.876  38.489  1.00  0.00     0.057 A 
ATOM     68  C   UNL A   1      39.868  33.564  39.639  1.00  0.00     0.134 A 
ATOM     69  C   UNL A   1      41.420  35.014  38.536  1.00  0.00     0.134 A 
ATOM     70  F   UNL A   1      39.059  32.492  39.657  1.00  0.00    -0.206 F 
ATOM     71  C   UNL A   1      39.911  34.371  40.777  1.00  0.00     0.040 A 
ATOM     72  C   UNL A   1      41.493  35.813  39.678  1.00  0.00     0.040 A 
ATOM     73  F   UNL A   1      42.160  35.368  37.473  1.00  0.00    -0.206 F 
ATOM     74  C   UNL A   1      40.729  35.498  40.800  1.00  0.00     0.006 A 
ENDBRANCH  53  67
BRANCH  54  75
ATOM     75  C   UNL A   1      39.932  28.709  29.989  1.00  0.00     0.057 A 
ATOM     76  C   UNL A   1      40.578  29.194  28.846  1.00  0.00     0.134 A 
ATOM     77  C   UNL A   1      39.238  27.499  29.874  1.00  0.00     0.134 A 
ATOM     78  F   UNL A   1      41.243  30.359  28.891  1.00  0.00    -0.206 F 
ATOM     79  C   UNL A   1      40.532  28.506  27.633  1.00  0.00     0.040 A 
ATOM     80  C   UNL A   1      39.202  26.789  28.673  1.00  0.00     0.040 A 
ATOM     81  F   UNL A   1      38.605  26.977  30.936  1.00  0.00    -0.206 F 
ATOM     82  C   UNL A   1      39.848  27.295  27.547  1.00  0.00     0.006 A 
ENDBRANCH  54  75
BRANCH  66  83
ATOM     83  C   UNL A   1      44.427  28.637  35.309  1.00  0.00     0.057 A 
ATOM     84  C   UNL A   1      45.692  29.099  34.927  1.00  0.00     0.134 A 
ATOM     85  C   UNL A   1      44.363  27.412  35.987  1.00  0.00     0.134 A 
ATOM     86  F   UNL A   1      45.819  30.258  34.262  1.00  0.00    -0.206 F 
ATOM     87  C   UNL A   1      46.849  28.363  35.190  1.00  0.00     0.040 A 
ATOM     88  C   UNL A   1      45.515  26.679  36.277  1.00  0.00     0.040 A 
ATOM     89  F   UNL A   1      43.184  26.915  36.387  1.00  0.00    -0.206 F 
ATOM     90  C   UNL A   1      46.762  27.152  35.873  1.00  0.00     0.006 A 
ENDBRANCH  66  83
ENDBRANCH  40  41
ENDBRANCH  32  35
ENDBRANCH  30  31
ENDBRANCH  29  30
ENDBRANCH  28  29
ENDBRANCH  27  28
ENDBRANCH   1  27
TORSDOF 17
ENDMDL
MODEL 2
REMARK VINA RESULT:     -10.8      1.747      4.145
REMARK SMILES O=C(CCC(=O)Nc1ccc(C(=O)N2CCOCC2)cc1)NCCCCCCNC(=O)c1ccc(-c2c3nc(c(-c4c(F)cccc4F)c4ccc([nH]4)c(-c4c(F)cccc4F)c4nc(c(-c5c(F)cccc5F)c5ccc2[nH]5)C=C4)C=C3)cc1
REMARK SMILES IDX 24 1 23 2 22 3 1 4 2 5 3 7 4 8 5 9 6 10 7 11 8 13 9 14 21 15
REMARK SMILES IDX 10 16 20 17 11 18 12 19 13 20 14 21 15 22 19 23 16 24 18 25
REMARK SMILES IDX 17 26 25 27 26 28 27 29 28 30 29 31 30 32 31 34 32 35 33 36
REMARK SMILES IDX 85 37 34 38 84 39 35 40 36 41 37 42 78 43 38 44 83 45 77 46
REMARK SMILES IDX 79 47 39 48 82 49 76 50 75 51 40 53 66 54 49 55 65 56 50 57
REMARK SMILES IDX 53 58 64 59 80 60 51 61 52 62 63 64 81 65 54 66 41 67 42 68
REMARK SMILES IDX 47 69 43 70 44 71 46 72 48 73 45 74 67 75 68 76 73 77 69 78
REMARK SMILES IDX 70 79 72 80 74 81 71 82 55 83 56 84 61 85 57 86 58 87 60 88
REMARK SMILES IDX 62 89 59 90
REMARK H PARENT 22 6 7 12 29 33 79 52 53 63
REMARK Flexibility Score: inf
ROOT
ATOM      1  C   UNL A   1      35.668  31.861  27.967  1.00  0.00     0.021 C 
ENDROOT
BRANCH   1   2
ATOM      2  C   UNL A   1      34.281  31.378  28.375  1.00  0.00     0.116 C 
BRANCH   2   3
ATOM      3  N   UNL A   1      33.608  30.626  27.338  1.00  0.00    -0.356 N 
ATOM      4  O   UNL A   1      35.006  28.803  27.388  1.00  0.00    -0.275 OA
ATOM      5  C   UNL A   1      33.989  29.356  26.978  1.00  0.00     0.220 C 
ATOM      6  H   UNL A   1      32.846  31.041  26.871  1.00  0.00     0.163 HD
BRANCH   5   7
ATOM      7  C   UNL A   1      33.026  28.670  26.030  1.00  0.00     0.110 C 
BRANCH   7   8
ATOM      8  C   UNL A   1      32.825  27.175  26.261  1.00  0.00     0.110 C 
BRANCH   8   9
ATOM      9  C   UNL A   1      33.165  26.289  25.083  1.00  0.00     0.224 C 
ATOM     10  O   UNL A   1      34.314  25.836  24.995  1.00  0.00    -0.275 OA
ATOM     11  N   UNL A   1      32.318  25.993  24.057  1.00  0.00    -0.326 N 
ATOM     12  H   UNL A   1      32.636  25.250  23.495  1.00  0.00     0.169 HD
BRANCH  11  13
ATOM     13  C   UNL A   1      31.088  26.523  23.626  1.00  0.00     0.041 A 
ATOM     14  C   UNL A   1      31.140  27.731  22.906  1.00  0.00     0.027 A 
ATOM     15  C   UNL A   1      29.843  26.021  23.970  1.00  0.00     0.027 A 
ATOM     16  C   UNL A   1      29.985  28.507  22.714  1.00  0.00     0.016 A 
ATOM     17  C   UNL A   1      28.697  26.791  23.797  1.00  0.00     0.016 A 
ATOM     18  C   UNL A   1      28.772  28.064  23.234  1.00  0.00     0.040 A 
BRANCH  18  19
ATOM     19  C   UNL A   1      27.537  28.889  23.141  1.00  0.00     0.254 C 
ATOM     20  O   UNL A   1      26.485  28.485  23.619  1.00  0.00    -0.269 OA
ATOM     21  N   UNL A   1      27.718  30.157  22.623  1.00  0.00    -0.334 N 
ATOM     22  C   UNL A   1      28.037  30.401  21.216  1.00  0.00     0.148 C 
ATOM     23  C   UNL A   1      27.305  31.329  23.376  1.00  0.00     0.148 C 
ATOM     24  C   UNL A   1      28.989  31.594  21.061  1.00  0.00     0.181 C 
ATOM     25  C   UNL A   1      28.348  32.437  23.181  1.00  0.00     0.181 C 
ATOM     26  O   UNL A   1      28.514  32.744  21.787  1.00  0.00    -0.378 OA
ENDBRANCH  18  19
ENDBRANCH  11  13
ENDBRANCH   8   9
ENDBRANCH   7   8
ENDBRANCH   5   7
ENDBRANCH   2   3
ENDBRANCH   1   2
BRANCH   1  27
ATOM     27  C   UNL A   1      35.836  33.382  27.886  1.00  0.00     0.002 C 
BRANCH  27  28
ATOM     28  C   UNL A   1      35.571  34.160  29.178  1.00  0.00     0.002 C 
BRANCH  28  29
ATOM     29  C   UNL A   1      34.422  35.169  29.128  1.00  0.00     0.021 C 
BRANCH  29  30
ATOM     30  C   UNL A   1      33.074  34.666  29.636  1.00  0.00     0.116 C 
BRANCH  30  31
ATOM     31  N   UNL A   1      32.474  35.526  30.644  1.00  0.00    -0.352 N 
ATOM     32  C   UNL A   1      32.838  35.728  31.952  1.00  0.00     0.251 C 
ATOM     33  H   UNL A   1      31.689  36.040  30.343  1.00  0.00     0.163 HD
ATOM     34  O   UNL A   1      32.156  36.449  32.676  1.00  0.00    -0.269 OA
BRANCH  32  35
ATOM     35  C   UNL A   1      34.024  35.043  32.510  1.00  0.00     0.039 A 
ATOM     36  C   UNL A   1      33.875  33.739  32.992  1.00  0.00     0.014 A 
ATOM     37  C   UNL A   1      35.275  35.666  32.547  1.00  0.00     0.014 A 
ATOM     38  C   UNL A   1      34.994  33.031  33.431  1.00  0.00     0.010 A 
ATOM     39  C   UNL A   1      36.400  34.937  32.924  1.00  0.00     0.010 A 
ATOM     40  C   UNL A   1      36.272  33.607  33.356  1.00  0.00    -0.014 A 
BRANCH  40  41
ATOM     41  C   UNL A   1      37.488  32.819  33.680  1.00  0.00     0.031 A 
ATOM     42  C   UNL A   1      38.272  33.099  34.929  1.00  0.00     0.074 A 
ATOM     43  C   UNL A   1      37.930  31.901  32.799  1.00  0.00     0.049 A 
ATOM     44  N   UNL A   1      39.393  32.560  35.338  1.00  0.00    -0.248 NA
ATOM     45  C   UNL A   1      37.740  34.136  35.824  1.00  0.00     0.031 C 
ATOM     46  C   UNL A   1      37.291  31.578  31.522  1.00  0.00     0.029 A 
ATOM     47  N   UNL A   1      39.032  31.083  32.836  1.00  0.00    -0.354 N 
ATOM     48  C   UNL A   1      39.704  33.198  36.531  1.00  0.00     0.074 A 
ATOM     49  C   UNL A   1      38.683  34.199  36.752  1.00  0.00     0.031 C 
ATOM     50  C   UNL A   1      38.005  30.625  30.903  1.00  0.00     0.029 A 
ATOM     51  C   UNL A   1      39.168  30.296  31.719  1.00  0.00     0.049 A 
ATOM     52  H   UNL A   1      39.663  31.063  33.590  1.00  0.00     0.167 HD
ATOM     53  C   UNL A   1      40.734  32.955  37.378  1.00  0.00     0.037 A 
ATOM     54  C   UNL A   1      40.130  29.417  31.381  1.00  0.00     0.037 A 
ATOM     55  C   UNL A   1      41.746  31.954  37.158  1.00  0.00     0.049 A 
ATOM     56  C   UNL A   1      41.271  29.172  32.326  1.00  0.00     0.074 A 
ATOM     57  C   UNL A   1      42.794  31.589  37.987  1.00  0.00     0.029 A 
ATOM     58  N   UNL A   1      41.844  31.165  36.021  1.00  0.00    -0.354 N 
ATOM     59  N   UNL A   1      41.511  29.726  33.490  1.00  0.00    -0.248 NA
ATOM     60  C   UNL A   1      42.272  28.177  31.915  1.00  0.00     0.031 C 
ATOM     61  C   UNL A   1      43.551  30.612  37.331  1.00  0.00     0.029 A 
ATOM     62  C   UNL A   1      42.950  30.334  36.113  1.00  0.00     0.049 A 
ATOM     63  H   UNL A   1      41.218  31.190  35.262  1.00  0.00     0.167 HD
ATOM     64  C   UNL A   1      42.680  29.141  33.956  1.00  0.00     0.074 A 
ATOM     65  C   UNL A   1      43.090  28.174  32.958  1.00  0.00     0.031 C 
ATOM     66  C   UNL A   1      43.355  29.386  35.106  1.00  0.00     0.037 A 
BRANCH  53  67
ATOM     67  C   UNL A   1      40.813  33.794  38.620  1.00  0.00     0.057 A 
ATOM     68  C   UNL A   1      41.629  34.931  38.693  1.00  0.00     0.134 A 
ATOM     69  C   UNL A   1      40.057  33.471  39.754  1.00  0.00     0.134 A 
ATOM     70  F   UNL A   1      42.387  35.291  37.645  1.00  0.00    -0.206 F 
ATOM     71  C   UNL A   1      41.719  35.694  39.858  1.00  0.00     0.040 A 
ATOM     72  C   UNL A   1      40.117  34.243  40.915  1.00  0.00     0.040 A 
ATOM     73  F   UNL A   1      39.248  32.400  39.752  1.00  0.00    -0.206 F 
ATOM     74  C   UNL A   1      40.957  35.352  40.973  1.00  0.00     0.006 A 
ENDBRANCH  53  67
BRANCH  54  75
ATOM     75  C   UNL A   1      40.042  28.699  30.085  1.00  0.00     0.057 A 
ATOM     76  C   UNL A   1      39.310  27.512  29.964  1.00  0.00     0.134 A 
ATOM     77  C   UNL A   1      40.664  29.195  28.934  1.00  0.00     0.134 A 
ATOM     78  F   UNL A   1      38.707  26.979  31.038  1.00  0.00    -0.206 F 
ATOM     79  C   UNL A   1      39.204  26.841  28.746  1.00  0.00     0.040 A 
ATOM     80  C   UNL A   1      40.548  28.546  27.704  1.00  0.00     0.040 A 
ATOM     81  F   UNL A   1      41.372  30.333  28.984  1.00  0.00    -0.206 F 
ATOM     82  C   UNL A   1      39.818  27.362  27.609  1.00  0.00     0.006 A 
ENDBRANCH  54  75
BRANCH  66  83
ATOM     83  C   UNL A   1      44.604  28.591  35.348  1.00  0.00     0.057 A 
ATOM     84  C   UNL A   1      44.564  27.308  35.907  1.00  0.00     0.134 A 
ATOM     85  C   UNL A   1      45.858  29.099  34.982  1.00  0.00     0.134 A 
ATOM     86  F   UNL A   1      43.396  26.770  36.291  1.00  0.00    -0.206 F 
ATOM     87  C   UNL A   1      45.728  26.565  36.113  1.00  0.00     0.040 A 
ATOM     88  C   UNL A   1      47.025  28.355  35.161  1.00  0.00     0.040 A 
ATOM     89  F   UNL A   1      45.966  30.318  34.435  1.00  0.00    -0.206 F 
ATOM     90  C   UNL A   1      46.963  27.086  35.733  1.00  0.00     0.006 A 
ENDBRANCH  66  83
ENDBRANCH  40  41
ENDBRANCH  32  35
ENDBRANCH  30  31
ENDBRANCH  29  30
ENDBRANCH  28  29
ENDBRANCH  27  28
ENDBRANCH   1  27
TORSDOF 17
ENDMDL
MODEL 3
REMARK VINA RESULT:     -10.8      6.241     11.784
REMARK SMILES O=C(CCC(=O)Nc1ccc(C(=O)N2CCOCC2)cc1)NCCCCCCNC(=O)c1ccc(-c2c3nc(c(-c4c(F)cccc4F)c4ccc([nH]4)c(-c4c(F)cccc4F)c4nc(c(-c5c(F)cccc5F)c5ccc2[nH]5)C=C4)C=C3)cc1
REMARK SMILES IDX 24 1 23 2 22 3 1 4 2 5 3 7 4 8 5 9 6 10 7 11 8 13 9 14 21 15
REMARK SMILES IDX 10 16 20 17 11 18 12 19 13 20 14 21 15 22 19 23 16 24 18 25
REMARK SMILES IDX 17 26 25 27 26 28 27 29 28 30 29 31 30 32 31 34 32 35 33 36
REMARK SMILES IDX 85 37 34 38 84 39 35 40 36 41 37 42 78 43 38 44 83 45 77 46
REMARK SMILES IDX 79 47 39 48 82 49 76 50 75 51 40 53 66 54 49 55 65 56 50 57
REMARK SMILES IDX 53 58 64 59 80 60 51 61 52 62 63 64 81 65 54 66 41 67 42 68
REMARK SMILES IDX 47 69 43 70 44 71 46 72 48 73 45 74 67 75 68 76 73 77 69 78
REMARK SMILES IDX 70 79 72 80 74 81 71 82 55 83 56 84 61 85 57 86 58 87 60 88
REMARK SMILES IDX 62 89 59 90
REMARK H PARENT 22 6 7 12 29 33 79 52 53 63
REMARK Flexibility Score: inf
ROOT
ATOM      1  C   UNL A   1      39.350  22.974  26.871  1.00  0.00     0.021 C 
ENDROOT
BRANCH   1   2
ATOM      2  C   UNL A   1      38.563  22.336  25.732  1.00  0.00     0.116 C 
BRANCH   2   3
ATOM      3  N   UNL A   1      37.225  21.937  26.114  1.00  0.00    -0.356 N 
ATOM      4  O   UNL A   1      36.257  22.263  24.056  1.00  0.00    -0.275 OA
ATOM      5  C   UNL A   1      36.188  21.864  25.215  1.00  0.00     0.220 C 
ATOM      6  H   UNL A   1      37.051  21.708  27.056  1.00  0.00     0.163 HD
BRANCH   5   7
ATOM      7  C   UNL A   1      34.934  21.223  25.774  1.00  0.00     0.110 C 
BRANCH   7   8
ATOM      8  C   UNL A   1      34.288  20.158  24.892  1.00  0.00     0.110 C 
BRANCH   8   9
ATOM      9  C   UNL A   1      32.791  20.010  25.049  1.00  0.00     0.224 C 
ATOM     10  O   UNL A   1      32.339  18.914  25.405  1.00  0.00    -0.275 OA
ATOM     11  N   UNL A   1      31.876  20.978  24.763  1.00  0.00    -0.326 N 
ATOM     12  H   UNL A   1      30.979  20.777  25.114  1.00  0.00     0.169 HD
BRANCH  11  13
ATOM     13  C   UNL A   1      31.937  22.202  24.073  1.00  0.00     0.041 A 
ATOM     14  C   UNL A   1      32.725  22.230  22.906  1.00  0.00     0.027 A 
ATOM     15  C   UNL A   1      31.396  23.396  24.523  1.00  0.00     0.027 A 
ATOM     16  C   UNL A   1      33.118  23.448  22.330  1.00  0.00     0.016 A 
ATOM     17  C   UNL A   1      31.793  24.608  23.966  1.00  0.00     0.016 A 
ATOM     18  C   UNL A   1      32.709  24.644  22.916  1.00  0.00     0.040 A 
BRANCH  18  19
ATOM     19  C   UNL A   1      33.172  25.961  22.402  1.00  0.00     0.254 C 
ATOM     20  O   UNL A   1      33.596  26.065  21.258  1.00  0.00    -0.269 OA
ATOM     21  N   UNL A   1      32.948  27.030  23.247  1.00  0.00    -0.334 N 
ATOM     22  C   UNL A   1      33.677  27.217  24.502  1.00  0.00     0.148 C 
ATOM     23  C   UNL A   1      32.194  28.186  22.792  1.00  0.00     0.148 C 
ATOM     24  C   UNL A   1      32.775  27.822  25.584  1.00  0.00     0.181 C 
ATOM     25  C   UNL A   1      31.299  28.677  23.938  1.00  0.00     0.181 C 
ATOM     26  O   UNL A   1      32.084  28.990  25.102  1.00  0.00    -0.378 OA
ENDBRANCH  18  19
ENDBRANCH  11  13
ENDBRANCH   8   9
ENDBRANCH   7   8
ENDBRANCH   5   7
ENDBRANCH   2   3
ENDBRANCH   1   2
BRANCH   1  27
ATOM     27  C   UNL A   1      40.645  22.251  27.259  1.00  0.00     0.002 C 
BRANCH  27  28
ATOM     28  C   UNL A   1      41.411  21.579  26.116  1.00  0.00     0.002 C 
BRANCH  28  29
ATOM     29  C   UNL A   1      41.382  20.050  26.098  1.00  0.00     0.021 C 
BRANCH  29  30
ATOM     30  C   UNL A   1      42.700  19.355  26.430  1.00  0.00     0.116 C 
BRANCH  30  31
ATOM     31  N   UNL A   1      43.438  18.915  25.256  1.00  0.00    -0.352 N 
ATOM     32  C   UNL A   1      44.356  19.594  24.494  1.00  0.00     0.251 C 
ATOM     33  H   UNL A   1      43.251  17.993  24.966  1.00  0.00     0.163 HD
ATOM     34  O   UNL A   1      44.825  19.071  23.486  1.00  0.00    -0.269 OA
BRANCH  32  35
ATOM     35  C   UNL A   1      44.749  20.973  24.853  1.00  0.00     0.039 A 
ATOM     36  C   UNL A   1      44.496  21.999  23.937  1.00  0.00     0.014 A 
ATOM     37  C   UNL A   1      45.347  21.264  26.083  1.00  0.00     0.014 A 
ATOM     38  C   UNL A   1      44.763  23.323  24.286  1.00  0.00     0.010 A 
ATOM     39  C   UNL A   1      45.552  22.591  26.456  1.00  0.00     0.010 A 
ATOM     40  C   UNL A   1      45.248  23.633  25.567  1.00  0.00    -0.014 A 
BRANCH  40  41
ATOM     41  C   UNL A   1      45.400  25.043  26.007  1.00  0.00     0.031 A 
ATOM     42  C   UNL A   1      46.744  25.710  25.993  1.00  0.00     0.074 A 
ATOM     43  C   UNL A   1      44.329  25.697  26.498  1.00  0.00     0.049 A 
ATOM     44  N   UNL A   1      47.076  26.908  26.406  1.00  0.00    -0.248 NA
ATOM     45  C   UNL A   1      47.868  24.920  25.470  1.00  0.00     0.031 C 
ATOM     46  C   UNL A   1      42.981  25.139  26.620  1.00  0.00     0.029 A 
ATOM     47  N   UNL A   1      44.210  26.967  27.004  1.00  0.00    -0.354 N 
ATOM     48  C   UNL A   1      48.445  27.011  26.199  1.00  0.00     0.074 A 
ATOM     49  C   UNL A   1      48.890  25.737  25.676  1.00  0.00     0.031 C 
ATOM     50  C   UNL A   1      42.170  26.064  27.155  1.00  0.00     0.029 A 
ATOM     51  C   UNL A   1      42.945  27.265  27.447  1.00  0.00     0.049 A 
ATOM     52  H   UNL A   1      44.960  27.603  27.045  1.00  0.00     0.167 HD
ATOM     53  C   UNL A   1      49.254  28.079  26.406  1.00  0.00     0.037 A 
ATOM     54  C   UNL A   1      42.465  28.376  28.035  1.00  0.00     0.037 A 
ATOM     55  C   UNL A   1      48.808  29.347  26.922  1.00  0.00     0.049 A 
ATOM     56  C   UNL A   1      43.380  29.543  28.269  1.00  0.00     0.074 A 
ATOM     57  C   UNL A   1      49.538  30.509  27.107  1.00  0.00     0.029 A 
ATOM     58  N   UNL A   1      47.515  29.617  27.346  1.00  0.00    -0.354 N 
ATOM     59  N   UNL A   1      44.658  29.656  27.996  1.00  0.00    -0.248 NA
ATOM     60  C   UNL A   1      42.789  30.739  28.886  1.00  0.00     0.031 C 
ATOM     61  C   UNL A   1      48.698  31.466  27.686  1.00  0.00     0.029 A 
ATOM     62  C   UNL A   1      47.433  30.917  27.820  1.00  0.00     0.049 A 
ATOM     63  H   UNL A   1      46.766  28.980  27.314  1.00  0.00     0.167 HD
ATOM     64  C   UNL A   1      45.020  30.935  28.396  1.00  0.00     0.074 A 
ATOM     65  C   UNL A   1      43.823  31.567  28.911  1.00  0.00     0.031 C 
ATOM     66  C   UNL A   1      46.238  31.530  28.343  1.00  0.00     0.037 A 
BRANCH  53  67
ATOM     67  C   UNL A   1      50.708  27.911  26.072  1.00  0.00     0.057 A 
ATOM     68  C   UNL A   1      51.189  28.066  24.765  1.00  0.00     0.134 A 
ATOM     69  C   UNL A   1      51.643  27.600  27.069  1.00  0.00     0.134 A 
ATOM     70  F   UNL A   1      50.345  28.353  23.761  1.00  0.00    -0.206 F 
ATOM     71  C   UNL A   1      52.537  27.883  24.454  1.00  0.00     0.040 A 
ATOM     72  C   UNL A   1      52.998  27.444  26.774  1.00  0.00     0.040 A 
ATOM     73  F   UNL A   1      51.254  27.445  28.344  1.00  0.00    -0.206 F 
ATOM     74  C   UNL A   1      53.447  27.575  25.462  1.00  0.00     0.006 A 
ENDBRANCH  53  67
BRANCH  54  75
ATOM     75  C   UNL A   1      41.036  28.432  28.436  1.00  0.00     0.057 A 
ATOM     76  C   UNL A   1      40.629  28.046  29.718  1.00  0.00     0.134 A 
ATOM     77  C   UNL A   1      40.051  28.896  27.557  1.00  0.00     0.134 A 
ATOM     78  F   UNL A   1      41.527  27.575  30.597  1.00  0.00    -0.206 F 
ATOM     79  C   UNL A   1      39.292  28.113  30.111  1.00  0.00     0.040 A 
ATOM     80  C   UNL A   1      38.713  28.990  27.943  1.00  0.00     0.040 A 
ATOM     81  F   UNL A   1      40.380  29.289  26.317  1.00  0.00    -0.206 F 
ATOM     82  C   UNL A   1      38.331  28.594  29.224  1.00  0.00     0.006 A 
ENDBRANCH  54  75
BRANCH  66  83
ATOM     83  C   UNL A   1      46.332  32.938  28.853  1.00  0.00     0.057 A 
ATOM     84  C   UNL A   1      46.093  34.039  28.021  1.00  0.00     0.134 A 
ATOM     85  C   UNL A   1      46.627  33.195  30.198  1.00  0.00     0.134 A 
ATOM     86  F   UNL A   1      45.819  33.862  26.719  1.00  0.00    -0.206 F 
ATOM     87  C   UNL A   1      46.164  35.348  28.504  1.00  0.00     0.040 A 
ATOM     88  C   UNL A   1      46.677  34.497  30.697  1.00  0.00     0.040 A 
ATOM     89  F   UNL A   1      46.859  32.185  31.049  1.00  0.00    -0.206 F 
ATOM     90  C   UNL A   1      46.450  35.578  29.848  1.00  0.00     0.006 A 
ENDBRANCH  66  83
ENDBRANCH  40  41
ENDBRANCH  32  35
ENDBRANCH  30  31
ENDBRANCH  29  30
ENDBRANCH  28  29
ENDBRANCH  27  28
ENDBRANCH   1  27
TORSDOF 17
ENDMDL
