MODEL 1
REMARK VINA RESULT:     -11.0      0.000      0.000
REMARK SMILES CC(C)[C@H](NC(=O)Cn1ccc2c(Br)cccc21)C(=O)NCCCCCCNC(=O)c1ccc(-c2c3nc(c(-c4c(F)cccc4F)c4ccc([nH]4)c(-c4c(F)cccc4F)c4nc(c(-c5c(F)cccc5F)c5ccc2[nH]5)C=C4)C=C3)cc1
REMARK SMILES IDX 24 1 23 2 22 3 21 4 19 5 20 6 4 8 2 9 1 10 3 11 5 12 6 13
REMARK SMILES IDX 7 15 8 16 9 17 10 18 18 19 11 20 12 21 17 22 13 23 16 24
REMARK SMILES IDX 14 25 15 26 25 27 26 28 27 29 28 30 29 31 30 33 31 34 32 35
REMARK SMILES IDX 84 36 33 37 83 38 34 39 35 40 36 41 77 42 37 43 82 44 76 45
REMARK SMILES IDX 78 46 38 47 81 48 75 49 74 50 39 52 65 53 48 54 64 55 49 56
REMARK SMILES IDX 52 57 63 58 79 59 50 60 51 61 62 63 80 64 53 65 40 66 41 67
REMARK SMILES IDX 46 68 42 69 43 70 45 71 47 72 44 73 66 74 67 75 72 76 68 77
REMARK SMILES IDX 69 78 71 79 73 80 70 81 54 82 55 83 60 84 56 85 57 86 59 87
REMARK SMILES IDX 61 88 58 89
REMARK H PARENT 21 7 5 14 28 32 78 51 52 62
REMARK Flexibility Score: inf
ROOT
ATOM      1  C   UNL A   1      40.012  22.014  26.414  1.00  0.00     0.002 C 
ENDROOT
BRANCH   1   2
ATOM      2  C   UNL A   1      39.502  23.448  26.571  1.00  0.00     0.021 C 
BRANCH   2   3
ATOM      3  C   UNL A   1      38.052  23.677  26.153  1.00  0.00     0.116 C 
BRANCH   3   4
ATOM      4  N   UNL A   1      37.772  23.427  24.751  1.00  0.00    -0.354 N 
ATOM      5  C   UNL A   1      36.746  22.718  24.195  1.00  0.00     0.242 C 
ATOM      6  O   UNL A   1      36.403  22.993  23.043  1.00  0.00    -0.273 OA
ATOM      7  H   UNL A   1      38.408  23.824  24.114  1.00  0.00     0.163 HD
BRANCH   5   8
ATOM      8  C   UNL A   1      35.894  21.796  25.049  1.00  0.00     0.173 C 
BRANCH   8   9
ATOM      9  C   UNL A   1      36.214  20.318  24.561  1.00  0.00     0.015 C 
ATOM     10  C   UNL A   1      37.565  19.739  24.979  1.00  0.00     0.010 C 
ATOM     11  C   UNL A   1      35.141  19.234  24.850  1.00  0.00     0.010 C 
ENDBRANCH   8   9
BRANCH   8  12
ATOM     12  N   UNL A   1      34.478  22.211  25.152  1.00  0.00    -0.343 N 
ATOM     13  C   UNL A   1      33.959  23.314  25.811  1.00  0.00     0.240 C 
ATOM     14  H   UNL A   1      33.823  21.633  24.697  1.00  0.00     0.164 HD
ATOM     15  O   UNL A   1      32.875  23.141  26.382  1.00  0.00    -0.273 OA
BRANCH  13  16
ATOM     16  C   UNL A   1      34.533  24.732  25.674  1.00  0.00     0.222 C 
BRANCH  16  17
ATOM     17  N   UNL A   1      33.779  25.696  24.884  1.00  0.00    -0.338 N 
ATOM     18  C   UNL A   1      33.490  25.556  23.551  1.00  0.00     0.087 A 
ATOM     19  C   UNL A   1      33.401  26.965  25.286  1.00  0.00     0.050 A 
ATOM     20  C   UNL A   1      32.640  26.583  23.203  1.00  0.00     0.029 A 
ATOM     21  C   UNL A   1      32.485  27.429  24.337  1.00  0.00     0.014 A 
ATOM     22  C   UNL A   1      33.741  27.749  26.396  1.00  0.00     0.027 A 
ATOM     23  C   UNL A   1      31.720  28.576  24.646  1.00  0.00     0.027 A 
ATOM     24  C   UNL A   1      32.945  28.856  26.704  1.00  0.00     0.003 A 
ATOM     25  Br  UNL A   1      30.401  29.214  23.450  1.00  0.00    -0.050 Br
ATOM     26  C   UNL A   1      31.911  29.241  25.862  1.00  0.00     0.016 A 
ENDBRANCH  16  17
ENDBRANCH  13  16
ENDBRANCH   8  12
ENDBRANCH   5   8
ENDBRANCH   3   4
ENDBRANCH   2   3
ENDBRANCH   1   2
BRANCH   1  27
ATOM     27  C   UNL A   1      40.785  21.456  27.615  1.00  0.00     0.002 C 
BRANCH  27  28
ATOM     28  C   UNL A   1      41.703  20.266  27.319  1.00  0.00     0.021 C 
BRANCH  28  29
ATOM     29  C   UNL A   1      41.866  19.992  25.836  1.00  0.00     0.116 C 
BRANCH  29  30
ATOM     30  N   UNL A   1      43.261  19.806  25.479  1.00  0.00    -0.352 N 
ATOM     31  C   UNL A   1      44.193  20.784  25.220  1.00  0.00     0.251 C 
ATOM     32  H   UNL A   1      43.576  18.875  25.416  1.00  0.00     0.163 HD
ATOM     33  O   UNL A   1      45.201  20.543  24.582  1.00  0.00    -0.269 OA
BRANCH  31  34
ATOM     34  C   UNL A   1      43.951  22.133  25.756  1.00  0.00     0.039 A 
ATOM     35  C   UNL A   1      43.212  23.058  25.017  1.00  0.00     0.014 A 
ATOM     36  C   UNL A   1      44.516  22.474  26.989  1.00  0.00     0.014 A 
ATOM     37  C   UNL A   1      43.027  24.331  25.538  1.00  0.00     0.010 A 
ATOM     38  C   UNL A   1      44.244  23.696  27.552  1.00  0.00     0.010 A 
ATOM     39  C   UNL A   1      43.555  24.639  26.800  1.00  0.00    -0.014 A 
BRANCH  39  40
ATOM     40  C   UNL A   1      43.326  25.947  27.386  1.00  0.00     0.031 A 
ATOM     41  C   UNL A   1      44.313  26.973  26.971  1.00  0.00     0.074 A 
ATOM     42  C   UNL A   1      42.208  26.234  28.082  1.00  0.00     0.049 A 
ATOM     43  N   UNL A   1      45.264  27.485  27.678  1.00  0.00    -0.248 NA
ATOM     44  C   UNL A   1      44.355  27.359  25.551  1.00  0.00     0.031 C 
ATOM     45  C   UNL A   1      41.014  25.399  28.263  1.00  0.00     0.029 A 
ATOM     46  N   UNL A   1      41.866  27.390  28.712  1.00  0.00    -0.354 N 
ATOM     47  C   UNL A   1      45.877  28.432  26.859  1.00  0.00     0.074 A 
ATOM     48  C   UNL A   1      45.422  28.160  25.524  1.00  0.00     0.031 C 
ATOM     49  C   UNL A   1      40.008  26.148  28.765  1.00  0.00     0.029 A 
ATOM     50  C   UNL A   1      40.533  27.458  29.098  1.00  0.00     0.049 A 
ATOM     51  H   UNL A   1      42.509  28.117  28.880  1.00  0.00     0.167 HD
ATOM     52  C   UNL A   1      46.464  29.536  27.400  1.00  0.00     0.037 A 
ATOM     53  C   UNL A   1      39.909  28.531  29.639  1.00  0.00     0.037 A 
ATOM     54  C   UNL A   1      46.623  29.372  28.825  1.00  0.00     0.049 A 
ATOM     55  C   UNL A   1      40.960  29.408  30.203  1.00  0.00     0.074 A 
ATOM     56  C   UNL A   1      47.384  28.593  29.668  1.00  0.00     0.029 A 
ATOM     57  N   UNL A   1      45.580  29.864  29.566  1.00  0.00    -0.354 N 
ATOM     58  N   UNL A   1      41.714  29.074  31.214  1.00  0.00    -0.248 NA
ATOM     59  C   UNL A   1      41.458  30.513  29.396  1.00  0.00     0.031 C 
ATOM     60  C   UNL A   1      46.583  28.394  30.834  1.00  0.00     0.029 A 
ATOM     61  C   UNL A   1      45.387  29.097  30.681  1.00  0.00     0.049 A 
ATOM     62  H   UNL A   1      45.047  30.657  29.330  1.00  0.00     0.167 HD
ATOM     63  C   UNL A   1      42.954  29.616  30.924  1.00  0.00     0.074 A 
ATOM     64  C   UNL A   1      42.695  30.616  29.893  1.00  0.00     0.031 C 
ATOM     65  C   UNL A   1      44.097  28.989  31.330  1.00  0.00     0.037 A 
BRANCH  52  66
ATOM     66  C   UNL A   1      46.419  30.928  26.793  1.00  0.00     0.057 A 
ATOM     67  C   UNL A   1      45.242  31.659  26.536  1.00  0.00     0.134 A 
ATOM     68  C   UNL A   1      47.602  31.698  26.795  1.00  0.00     0.134 A 
ATOM     69  F   UNL A   1      44.027  31.101  26.540  1.00  0.00    -0.206 F 
ATOM     70  C   UNL A   1      45.231  33.046  26.359  1.00  0.00     0.040 A 
ATOM     71  C   UNL A   1      47.596  33.093  26.665  1.00  0.00     0.040 A 
ATOM     72  F   UNL A   1      48.795  31.127  27.018  1.00  0.00    -0.206 F 
ATOM     73  C   UNL A   1      46.403  33.775  26.462  1.00  0.00     0.006 A 
ENDBRANCH  52  66
BRANCH  53  74
ATOM     74  C   UNL A   1      38.516  28.984  29.435  1.00  0.00     0.057 A 
ATOM     75  C   UNL A   1      38.127  29.603  28.235  1.00  0.00     0.134 A 
ATOM     76  C   UNL A   1      37.613  29.081  30.502  1.00  0.00     0.134 A 
ATOM     77  F   UNL A   1      38.950  29.633  27.175  1.00  0.00    -0.206 F 
ATOM     78  C   UNL A   1      36.920  30.298  28.107  1.00  0.00     0.040 A 
ATOM     79  C   UNL A   1      36.401  29.777  30.388  1.00  0.00     0.040 A 
ATOM     80  F   UNL A   1      37.916  28.558  31.699  1.00  0.00    -0.206 F 
ATOM     81  C   UNL A   1      36.057  30.399  29.191  1.00  0.00     0.006 A 
ENDBRANCH  53  74
BRANCH  65  82
ATOM     82  C   UNL A   1      43.968  27.967  32.424  1.00  0.00     0.057 A 
ATOM     83  C   UNL A   1      44.035  28.404  33.750  1.00  0.00     0.134 A 
ATOM     84  C   UNL A   1      43.886  26.582  32.214  1.00  0.00     0.134 A 
ATOM     85  F   UNL A   1      44.164  29.712  34.023  1.00  0.00    -0.206 F 
ATOM     86  C   UNL A   1      44.016  27.511  34.823  1.00  0.00     0.040 A 
ATOM     87  C   UNL A   1      43.833  25.679  33.281  1.00  0.00     0.040 A 
ATOM     88  F   UNL A   1      43.901  26.065  30.980  1.00  0.00    -0.206 F 
ATOM     89  C   UNL A   1      43.904  26.143  34.590  1.00  0.00     0.006 A 
ENDBRANCH  65  82
ENDBRANCH  39  40
ENDBRANCH  31  34
ENDBRANCH  29  30
ENDBRANCH  28  29
ENDBRANCH  27  28
ENDBRANCH   1  27
TORSDOF 17
ENDMDL
MODEL 2
REMARK VINA RESULT:     -10.9      2.309      3.281
REMARK SMILES CC(C)[C@H](NC(=O)Cn1ccc2c(Br)cccc21)C(=O)NCCCCCCNC(=O)c1ccc(-c2c3nc(c(-c4c(F)cccc4F)c4ccc([nH]4)c(-c4c(F)cccc4F)c4nc(c(-c5c(F)cccc5F)c5ccc2[nH]5)C=C4)C=C3)cc1
REMARK SMILES IDX 24 1 23 2 22 3 21 4 19 5 20 6 4 8 2 9 1 10 3 11 5 12 6 13
REMARK SMILES IDX 7 15 8 16 9 17 10 18 18 19 11 20 12 21 17 22 13 23 16 24
REMARK SMILES IDX 14 25 15 26 25 27 26 28 27 29 28 30 29 31 30 33 31 34 32 35
REMARK SMILES IDX 84 36 33 37 83 38 34 39 35 40 36 41 77 42 37 43 82 44 76 45
REMARK SMILES IDX 78 46 38 47 81 48 75 49 74 50 39 52 65 53 48 54 64 55 49 56
REMARK SMILES IDX 52 57 63 58 79 59 50 60 51 61 62 63 80 64 53 65 40 66 41 67
REMARK SMILES IDX 46 68 42 69 43 70 45 71 47 72 44 73 66 74 67 75 72 76 68 77
REMARK SMILES IDX 69 78 71 79 73 80 70 81 54 82 55 83 60 84 56 85 57 86 59 87
REMARK SMILES IDX 61 88 58 89
REMARK H PARENT 21 7 5 14 28 32 78 51 52 62
REMARK Flexibility Score: inf
ROOT
ATOM      1  C   UNL A   1      37.032  21.898  24.146  1.00  0.00     0.002 C 
ENDROOT
BRANCH   1   2
ATOM      2  C   UNL A   1      36.291  22.983  23.360  1.00  0.00     0.021 C 
BRANCH   2   3
ATOM      3  C   UNL A   1      34.994  23.481  23.993  1.00  0.00     0.116 C 
BRANCH   3   4
ATOM      4  N   UNL A   1      33.806  23.297  23.180  1.00  0.00    -0.354 N 
ATOM      5  C   UNL A   1      32.579  22.827  23.550  1.00  0.00     0.242 C 
ATOM      6  O   UNL A   1      31.598  23.169  22.885  1.00  0.00    -0.273 OA
ATOM      7  H   UNL A   1      33.897  23.547  22.233  1.00  0.00     0.163 HD
BRANCH   5   8
ATOM      8  C   UNL A   1      32.395  22.111  24.876  1.00  0.00     0.173 C 
BRANCH   8   9
ATOM      9  C   UNL A   1      32.612  20.565  24.579  1.00  0.00     0.015 C 
ATOM     10  C   UNL A   1      32.259  20.084  23.173  1.00  0.00     0.010 C 
ATOM     11  C   UNL A   1      34.002  19.969  24.933  1.00  0.00     0.010 C 
ENDBRANCH   8   9
BRANCH   8  12
ATOM     12  N   UNL A   1      31.182  22.522  25.616  1.00  0.00    -0.343 N 
ATOM     13  C   UNL A   1      31.063  23.517  26.573  1.00  0.00     0.240 C 
ATOM     14  H   UNL A   1      30.357  22.027  25.404  1.00  0.00     0.164 HD
ATOM     15  O   UNL A   1      30.301  23.271  27.517  1.00  0.00    -0.273 OA
BRANCH  13  16
ATOM     16  C   UNL A   1      31.633  24.932  26.400  1.00  0.00     0.222 C 
BRANCH  16  17
ATOM     17  N   UNL A   1      31.101  25.751  25.318  1.00  0.00    -0.338 N 
ATOM     18  C   UNL A   1      29.816  25.678  24.845  1.00  0.00     0.087 A 
ATOM     19  C   UNL A   1      31.832  26.582  24.486  1.00  0.00     0.050 A 
ATOM     20  C   UNL A   1      29.652  26.702  23.938  1.00  0.00     0.029 A 
ATOM     21  C   UNL A   1      30.905  27.360  23.786  1.00  0.00     0.014 A 
ATOM     22  C   UNL A   1      33.207  26.756  24.290  1.00  0.00     0.027 A 
ATOM     23  C   UNL A   1      31.375  28.489  23.079  1.00  0.00     0.027 A 
ATOM     24  C   UNL A   1      33.649  27.902  23.624  1.00  0.00     0.003 A 
ATOM     25  Br  UNL A   1      30.173  29.640  22.178  1.00  0.00    -0.050 Br
ATOM     26  C   UNL A   1      32.742  28.789  23.062  1.00  0.00     0.016 A 
ENDBRANCH  16  17
ENDBRANCH  13  16
ENDBRANCH   8  12
ENDBRANCH   5   8
ENDBRANCH   3   4
ENDBRANCH   2   3
ENDBRANCH   1   2
BRANCH   1  27
ATOM     27  C   UNL A   1      37.712  22.370  25.436  1.00  0.00     0.002 C 
BRANCH  27  28
ATOM     28  C   UNL A   1      38.904  21.530  25.904  1.00  0.00     0.021 C 
BRANCH  28  29
ATOM     29  C   UNL A   1      39.941  22.336  26.662  1.00  0.00     0.116 C 
BRANCH  29  30
ATOM     30  N   UNL A   1      41.253  22.226  26.049  1.00  0.00    -0.352 N 
ATOM     31  C   UNL A   1      42.136  23.247  25.782  1.00  0.00     0.251 C 
ATOM     32  H   UNL A   1      41.544  21.320  25.796  1.00  0.00     0.163 HD
ATOM     33  O   UNL A   1      43.017  23.120  24.953  1.00  0.00    -0.269 OA
BRANCH  31  34
ATOM     34  C   UNL A   1      42.002  24.499  26.545  1.00  0.00     0.039 A 
ATOM     35  C   UNL A   1      42.563  24.605  27.819  1.00  0.00     0.014 A 
ATOM     36  C   UNL A   1      41.265  25.547  25.987  1.00  0.00     0.014 A 
ATOM     37  C   UNL A   1      42.394  25.789  28.524  1.00  0.00     0.010 A 
ATOM     38  C   UNL A   1      41.188  26.753  26.638  1.00  0.00     0.010 A 
ATOM     39  C   UNL A   1      41.698  26.849  27.926  1.00  0.00    -0.014 A 
BRANCH  39  40
ATOM     40  C   UNL A   1      41.558  28.114  28.625  1.00  0.00     0.031 A 
ATOM     41  C   UNL A   1      42.651  29.078  28.350  1.00  0.00     0.074 A 
ATOM     42  C   UNL A   1      40.437  28.438  29.299  1.00  0.00     0.049 A 
ATOM     43  N   UNL A   1      43.608  29.433  29.140  1.00  0.00    -0.248 NA
ATOM     44  C   UNL A   1      42.795  29.586  26.976  1.00  0.00     0.031 C 
ATOM     45  C   UNL A   1      39.167  27.704  29.352  1.00  0.00     0.029 A 
ATOM     46  N   UNL A   1      40.168  29.559  30.023  1.00  0.00    -0.354 N 
ATOM     47  C   UNL A   1      44.341  30.390  28.441  1.00  0.00     0.074 A 
ATOM     48  C   UNL A   1      43.930  30.285  27.068  1.00  0.00     0.031 C 
ATOM     49  C   UNL A   1      38.207  28.494  29.882  1.00  0.00     0.029 A 
ATOM     50  C   UNL A   1      38.829  29.714  30.360  1.00  0.00     0.049 A 
ATOM     51  H   UNL A   1      40.864  30.204  30.285  1.00  0.00     0.167 HD
ATOM     52  C   UNL A   1      44.997  31.381  29.108  1.00  0.00     0.037 A 
ATOM     53  C   UNL A   1      38.277  30.786  30.975  1.00  0.00     0.037 A 
ATOM     54  C   UNL A   1      45.070  31.073  30.516  1.00  0.00     0.049 A 
ATOM     55  C   UNL A   1      39.373  31.506  31.663  1.00  0.00     0.074 A 
ATOM     56  C   UNL A   1      45.718  30.153  31.311  1.00  0.00     0.029 A 
ATOM     57  N   UNL A   1      44.040  31.590  31.258  1.00  0.00    -0.354 N 
ATOM     58  N   UNL A   1      40.044  31.013  32.666  1.00  0.00    -0.248 NA
ATOM     59  C   UNL A   1      40.005  32.630  30.986  1.00  0.00     0.031 C 
ATOM     60  C   UNL A   1      44.846  29.923  32.419  1.00  0.00     0.029 A 
ATOM     61  C   UNL A   1      43.726  30.746  32.286  1.00  0.00     0.049 A 
ATOM     62  H   UNL A   1      43.591  32.447  31.077  1.00  0.00     0.167 HD
ATOM     63  C   UNL A   1      41.339  31.462  32.479  1.00  0.00     0.074 A 
ATOM     64  C   UNL A   1      41.220  32.572  31.539  1.00  0.00     0.031 C 
ATOM     65  C   UNL A   1      42.402  30.698  32.870  1.00  0.00     0.037 A 
BRANCH  52  66
ATOM     66  C   UNL A   1      45.104  32.821  28.635  1.00  0.00     0.057 A 
ATOM     67  C   UNL A   1      46.260  33.402  28.076  1.00  0.00     0.134 A 
ATOM     68  C   UNL A   1      43.913  33.542  28.408  1.00  0.00     0.134 A 
ATOM     69  F   UNL A   1      47.467  32.835  28.154  1.00  0.00    -0.206 F 
ATOM     70  C   UNL A   1      46.228  34.568  27.303  1.00  0.00     0.040 A 
ATOM     71  C   UNL A   1      43.863  34.683  27.597  1.00  0.00     0.040 A 
ATOM     72  F   UNL A   1      42.741  33.106  28.893  1.00  0.00    -0.206 F 
ATOM     73  C   UNL A   1      45.023  35.191  27.026  1.00  0.00     0.006 A 
ENDBRANCH  52  66
BRANCH  53  74
ATOM     74  C   UNL A   1      36.941  31.382  30.759  1.00  0.00     0.057 A 
ATOM     75  C   UNL A   1      36.628  32.036  29.555  1.00  0.00     0.134 A 
ATOM     76  C   UNL A   1      36.045  31.576  31.819  1.00  0.00     0.134 A 
ATOM     77  F   UNL A   1      37.458  31.977  28.502  1.00  0.00    -0.206 F 
ATOM     78  C   UNL A   1      35.502  32.854  29.417  1.00  0.00     0.040 A 
ATOM     79  C   UNL A   1      34.913  32.395  31.695  1.00  0.00     0.040 A 
ATOM     80  F   UNL A   1      36.282  31.026  33.019  1.00  0.00    -0.206 F 
ATOM     81  C   UNL A   1      34.647  33.047  30.495  1.00  0.00     0.006 A 
ENDBRANCH  53  74
BRANCH  65  82
ATOM     82  C   UNL A   1      42.129  29.596  33.854  1.00  0.00     0.057 A 
ATOM     83  C   UNL A   1      42.253  29.881  35.217  1.00  0.00     0.134 A 
ATOM     84  C   UNL A   1      41.857  28.265  33.505  1.00  0.00     0.134 A 
ATOM     85  F   UNL A   1      42.562  31.123  35.621  1.00  0.00    -0.206 F 
ATOM     86  C   UNL A   1      42.109  28.893  36.193  1.00  0.00     0.040 A 
ATOM     87  C   UNL A   1      41.677  27.273  34.474  1.00  0.00     0.040 A 
ATOM     88  F   UNL A   1      41.803  27.881  32.225  1.00  0.00    -0.206 F 
ATOM     89  C   UNL A   1      41.809  27.586  35.823  1.00  0.00     0.006 A 
ENDBRANCH  65  82
ENDBRANCH  39  40
ENDBRANCH  31  34
ENDBRANCH  29  30
ENDBRANCH  28  29
ENDBRANCH  27  28
ENDBRANCH   1  27
TORSDOF 17
ENDMDL
MODEL 3
REMARK VINA RESULT:     -10.8      2.981      8.288
REMARK SMILES CC(C)[C@H](NC(=O)Cn1ccc2c(Br)cccc21)C(=O)NCCCCCCNC(=O)c1ccc(-c2c3nc(c(-c4c(F)cccc4F)c4ccc([nH]4)c(-c4c(F)cccc4F)c4nc(c(-c5c(F)cccc5F)c5ccc2[nH]5)C=C4)C=C3)cc1
REMARK SMILES IDX 24 1 23 2 22 3 21 4 19 5 20 6 4 8 2 9 1 10 3 11 5 12 6 13
REMARK SMILES IDX 7 15 8 16 9 17 10 18 18 19 11 20 12 21 17 22 13 23 16 24
REMARK SMILES IDX 14 25 15 26 25 27 26 28 27 29 28 30 29 31 30 33 31 34 32 35
REMARK SMILES IDX 84 36 33 37 83 38 34 39 35 40 36 41 77 42 37 43 82 44 76 45
REMARK SMILES IDX 78 46 38 47 81 48 75 49 74 50 39 52 65 53 48 54 64 55 49 56
REMARK SMILES IDX 52 57 63 58 79 59 50 60 51 61 62 63 80 64 53 65 40 66 41 67
REMARK SMILES IDX 46 68 42 69 43 70 45 71 47 72 44 73 66 74 67 75 72 76 68 77
REMARK SMILES IDX 69 78 71 79 73 80 70 81 54 82 55 83 60 84 56 85 57 86 59 87
REMARK SMILES IDX 61 88 58 89
REMARK H PARENT 21 7 5 14 28 32 78 51 52 62
REMARK Flexibility Score: inf
ROOT
ATOM      1  C   UNL A   1      31.799  29.799  26.859  1.00  0.00     0.002 C 
ENDROOT
BRANCH   1   2
ATOM      2  C   UNL A   1      31.492  28.452  27.518  1.00  0.00     0.021 C 
BRANCH   2   3
ATOM      3  C   UNL A   1      32.099  27.232  26.830  1.00  0.00     0.116 C 
BRANCH   3   4
ATOM      4  N   UNL A   1      31.136  26.321  26.239  1.00  0.00    -0.354 N 
ATOM      5  C   UNL A   1      30.861  26.101  24.920  1.00  0.00     0.242 C 
ATOM      6  O   UNL A   1      30.386  25.009  24.597  1.00  0.00    -0.273 OA
ATOM      7  H   UNL A   1      30.609  25.788  26.877  1.00  0.00     0.163 HD
BRANCH   5   8
ATOM      8  C   UNL A   1      31.354  27.067  23.858  1.00  0.00     0.173 C 
BRANCH   8   9
ATOM      9  C   UNL A   1      30.224  28.174  23.708  1.00  0.00     0.015 C 
ATOM     10  C   UNL A   1      30.505  29.306  22.721  1.00  0.00     0.010 C 
ATOM     11  C   UNL A   1      28.780  27.674  23.434  1.00  0.00     0.010 C 
ENDBRANCH   8   9
BRANCH   8  12
ATOM     12  N   UNL A   1      31.859  26.407  22.634  1.00  0.00    -0.343 N 
ATOM     13  C   UNL A   1      33.138  25.936  22.385  1.00  0.00     0.240 C 
ATOM     14  H   UNL A   1      31.206  26.289  21.906  1.00  0.00     0.164 HD
ATOM     15  O   UNL A   1      33.556  26.090  21.231  1.00  0.00    -0.273 OA
BRANCH  13  16
ATOM     16  C   UNL A   1      33.929  25.068  23.374  1.00  0.00     0.222 C 
BRANCH  16  17
ATOM     17  N   UNL A   1      33.431  23.726  23.648  1.00  0.00    -0.338 N 
ATOM     18  C   UNL A   1      32.753  22.946  22.747  1.00  0.00     0.087 A 
ATOM     19  C   UNL A   1      33.394  23.104  24.885  1.00  0.00     0.050 A 
ATOM     20  C   UNL A   1      32.587  21.703  23.318  1.00  0.00     0.029 A 
ATOM     21  C   UNL A   1      33.096  21.759  24.647  1.00  0.00     0.014 A 
ATOM     22  C   UNL A   1      33.616  23.569  26.187  1.00  0.00     0.027 A 
ATOM     23  C   UNL A   1      33.277  20.835  25.700  1.00  0.00     0.027 A 
ATOM     24  C   UNL A   1      33.832  22.635  27.204  1.00  0.00     0.003 A 
ATOM     25  Br  UNL A   1      32.977  18.986  25.431  1.00  0.00    -0.050 Br
ATOM     26  C   UNL A   1      33.711  21.275  26.955  1.00  0.00     0.016 A 
ENDBRANCH  16  17
ENDBRANCH  13  16
ENDBRANCH   8  12
ENDBRANCH   5   8
ENDBRANCH   3   4
ENDBRANCH   2   3
ENDBRANCH   1   2
BRANCH   1  27
ATOM     27  C   UNL A   1      33.261  30.014  26.451  1.00  0.00     0.002 C 
BRANCH  27  28
ATOM     28  C   UNL A   1      34.256  30.176  27.605  1.00  0.00     0.021 C 
BRANCH  28  29
ATOM     29  C   UNL A   1      34.942  31.528  27.614  1.00  0.00     0.116 C 
BRANCH  29  30
ATOM     30  N   UNL A   1      34.736  32.222  28.873  1.00  0.00    -0.352 N 
ATOM     31  C   UNL A   1      35.298  31.921  30.092  1.00  0.00     0.251 C 
ATOM     32  H   UNL A   1      34.125  32.994  28.853  1.00  0.00     0.163 HD
ATOM     33  O   UNL A   1      34.796  32.304  31.131  1.00  0.00    -0.269 OA
BRANCH  31  34
ATOM     34  C   UNL A   1      36.546  31.138  30.107  1.00  0.00     0.039 A 
ATOM     35  C   UNL A   1      36.511  29.772  30.396  1.00  0.00     0.014 A 
ATOM     36  C   UNL A   1      37.754  31.801  29.874  1.00  0.00     0.014 A 
ATOM     37  C   UNL A   1      37.707  29.069  30.432  1.00  0.00     0.010 A 
ATOM     38  C   UNL A   1      38.924  31.087  29.804  1.00  0.00     0.010 A 
ATOM     39  C   UNL A   1      38.905  29.739  30.142  1.00  0.00    -0.014 A 
BRANCH  39  40
ATOM     40  C   UNL A   1      40.160  29.011  30.120  1.00  0.00     0.031 A 
ATOM     41  C   UNL A   1      40.779  28.837  31.458  1.00  0.00     0.074 A 
ATOM     42  C   UNL A   1      40.608  28.388  29.012  1.00  0.00     0.049 A 
ATOM     43  N   UNL A   1      41.822  29.433  31.927  1.00  0.00    -0.248 NA
ATOM     44  C   UNL A   1      40.057  28.029  32.453  1.00  0.00     0.031 C 
ATOM     45  C   UNL A   1      39.912  28.209  27.731  1.00  0.00     0.029 A 
ATOM     46  N   UNL A   1      41.766  27.700  28.826  1.00  0.00    -0.354 N 
ATOM     47  C   UNL A   1      42.026  28.896  33.198  1.00  0.00     0.074 A 
ATOM     48  C   UNL A   1      40.810  28.212  33.541  1.00  0.00     0.031 C 
ATOM     49  C   UNL A   1      40.563  27.287  26.987  1.00  0.00     0.029 A 
ATOM     50  C   UNL A   1      41.802  26.946  27.660  1.00  0.00     0.049 A 
ATOM     51  H   UNL A   1      42.515  27.733  29.464  1.00  0.00     0.167 HD
ATOM     52  C   UNL A   1      43.282  28.812  33.718  1.00  0.00     0.037 A 
ATOM     53  C   UNL A   1      42.781  26.087  27.290  1.00  0.00     0.037 A 
ATOM     54  C   UNL A   1      44.200  29.614  32.946  1.00  0.00     0.049 A 
ATOM     55  C   UNL A   1      43.996  26.459  28.051  1.00  0.00     0.074 A 
ATOM     56  C   UNL A   1      44.418  30.955  32.722  1.00  0.00     0.029 A 
ATOM     57  N   UNL A   1      44.835  28.931  31.942  1.00  0.00    -0.354 N 
ATOM     58  N   UNL A   1      44.634  27.585  27.888  1.00  0.00    -0.248 NA
ATOM     59  C   UNL A   1      44.291  25.752  29.289  1.00  0.00     0.031 C 
ATOM     60  C   UNL A   1      44.928  31.043  31.391  1.00  0.00     0.029 A 
ATOM     61  C   UNL A   1      45.050  29.752  30.872  1.00  0.00     0.049 A 
ATOM     62  H   UNL A   1      45.099  27.983  31.986  1.00  0.00     0.167 HD
ATOM     63  C   UNL A   1      45.062  27.934  29.157  1.00  0.00     0.074 A 
ATOM     64  C   UNL A   1      44.969  26.704  29.936  1.00  0.00     0.031 C 
ATOM     65  C   UNL A   1      45.159  29.248  29.519  1.00  0.00     0.037 A 
BRANCH  52  66
ATOM     66  C   UNL A   1      43.799  27.651  34.553  1.00  0.00     0.057 A 
ATOM     67  C   UNL A   1      44.035  27.699  35.942  1.00  0.00     0.134 A 
ATOM     68  C   UNL A   1      43.719  26.350  34.013  1.00  0.00     0.134 A 
ATOM     69  F   UNL A   1      44.096  28.844  36.628  1.00  0.00    -0.206 F 
ATOM     70  C   UNL A   1      44.123  26.552  36.739  1.00  0.00     0.040 A 
ATOM     71  C   UNL A   1      43.759  25.198  34.809  1.00  0.00     0.040 A 
ATOM     72  F   UNL A   1      43.506  26.161  32.703  1.00  0.00    -0.206 F 
ATOM     73  C   UNL A   1      43.945  25.298  36.182  1.00  0.00     0.006 A 
ENDBRANCH  52  66
BRANCH  53  74
ATOM     74  C   UNL A   1      42.654  24.804  26.565  1.00  0.00     0.057 A 
ATOM     75  C   UNL A   1      42.048  23.690  27.170  1.00  0.00     0.134 A 
ATOM     76  C   UNL A   1      43.369  24.555  25.386  1.00  0.00     0.134 A 
ATOM     77  F   UNL A   1      41.402  23.807  28.341  1.00  0.00    -0.206 F 
ATOM     78  C   UNL A   1      42.162  22.398  26.647  1.00  0.00     0.040 A 
ATOM     79  C   UNL A   1      43.494  23.265  24.852  1.00  0.00     0.040 A 
ATOM     80  F   UNL A   1      44.018  25.549  24.761  1.00  0.00    -0.206 F 
ATOM     81  C   UNL A   1      42.900  22.180  25.490  1.00  0.00     0.006 A 
ENDBRANCH  53  74
BRANCH  65  82
ATOM     82  C   UNL A   1      45.198  30.264  28.413  1.00  0.00     0.057 A 
ATOM     83  C   UNL A   1      44.002  30.883  28.040  1.00  0.00     0.134 A 
ATOM     84  C   UNL A   1      46.335  30.565  27.649  1.00  0.00     0.134 A 
ATOM     85  F   UNL A   1      42.865  30.603  28.696  1.00  0.00    -0.206 F 
ATOM     86  C   UNL A   1      43.934  31.768  26.963  1.00  0.00     0.040 A 
ATOM     87  C   UNL A   1      46.288  31.475  26.587  1.00  0.00     0.040 A 
ATOM     88  F   UNL A   1      47.506  29.959  27.877  1.00  0.00    -0.206 F 
ATOM     89  C   UNL A   1      45.082  32.075  26.239  1.00  0.00     0.006 A 
ENDBRANCH  65  82
ENDBRANCH  39  40
ENDBRANCH  31  34
ENDBRANCH  29  30
ENDBRANCH  28  29
ENDBRANCH  27  28
ENDBRANCH   1  27
TORSDOF 17
ENDMDL
