MODEL 1
REMARK VINA RESULT:     -12.0      0.000      0.000
REMARK SMILES O=C(NCCCCCCNC(=O)c1ccc(-c2c3nc(c(-c4c(F)cccc4F)c4ccc([nH]4)c(-c4c(F)cccc4F)c4nc(c(-c5c(F)cccc5F)c5ccc2[nH]5)C=C4)C=C3)cc1)C1=NN(c2ccc(S(=O)(=O)[O-])cc2)C(=O)/C1=C\Nc1ccccc1
REMARK SMILES IDX 6 1 5 2 4 3 3 4 1 5 2 6 67 8 68 9 82 10 69 11 80 12 83 13
REMARK SMILES IDX 81 14 70 15 71 16 79 17 72 18 78 19 73 20 74 21 75 22 76 23
REMARK SMILES IDX 77 24 84 25 85 27 86 28 90 29 87 30 89 31 88 32 7 33 8 34
REMARK SMILES IDX 9 35 10 36 11 37 12 39 13 40 14 41 66 42 15 43 65 44 16 45
REMARK SMILES IDX 17 46 18 47 59 48 19 49 64 50 58 51 60 52 20 53 63 54 57 55
REMARK SMILES IDX 56 56 21 58 47 59 30 60 46 61 31 62 34 63 45 64 61 65 32 66
REMARK SMILES IDX 33 67 44 69 62 70 35 71 22 72 23 73 28 74 24 75 25 76 27 77
REMARK SMILES IDX 29 78 26 79 48 80 49 81 54 82 50 83 51 84 53 85 55 86 52 87
REMARK SMILES IDX 36 88 37 89 42 90 38 91 39 92 41 93 43 94 40 95
REMARK H PARENT 3 7 84 26 10 38 60 57 34 68
REMARK Flexibility Score: inf
ROOT
ATOM      1  C   UNL A   1      37.825  23.508  25.422  1.00  0.00     0.002 C 
ENDROOT
BRANCH   1   2
ATOM      2  C   UNL A   1      36.457  23.699  26.084  1.00  0.00     0.021 C 
BRANCH   2   3
ATOM      3  C   UNL A   1      35.694  22.416  26.386  1.00  0.00     0.116 C 
BRANCH   3   4
ATOM      4  N   UNL A   1      34.831  22.529  27.547  1.00  0.00    -0.351 N 
ATOM      5  O   UNL A   1      32.861  22.864  28.627  1.00  0.00    -0.267 OA
ATOM      6  C   UNL A   1      33.507  22.900  27.589  1.00  0.00     0.272 C 
ATOM      7  H   UNL A   1      35.244  22.313  28.414  1.00  0.00     0.163 HD
BRANCH   6   8
ATOM      8  C   UNL A   1      32.824  23.314  26.323  1.00  0.00     0.163 C 
ATOM      9  N   UNL A   1      32.579  24.557  25.989  1.00  0.00    -0.158 NA
ATOM     10  C   UNL A   1      32.365  22.357  25.313  1.00  0.00     0.091 C 
ATOM     11  N   UNL A   1      31.905  24.482  24.768  1.00  0.00    -0.196 N 
ATOM     12  C   UNL A   1      31.804  23.188  24.240  1.00  0.00     0.282 C 
ATOM     13  C   UNL A   1      32.423  21.024  25.298  1.00  0.00     0.099 C 
ATOM     14  O   UNL A   1      31.370  22.777  23.177  1.00  0.00    -0.267 OA
BRANCH  11  15
ATOM     15  C   UNL A   1      31.231  25.620  24.279  1.00  0.00     0.069 A 
ATOM     16  C   UNL A   1      31.929  26.765  23.873  1.00  0.00     0.030 A 
ATOM     17  C   UNL A   1      29.827  25.636  24.252  1.00  0.00     0.030 A 
ATOM     18  C   UNL A   1      31.234  27.890  23.410  1.00  0.00     0.021 A 
ATOM     19  C   UNL A   1      29.127  26.766  23.836  1.00  0.00     0.021 A 
ATOM     20  C   UNL A   1      29.835  27.883  23.400  1.00  0.00     0.054 A 
BRANCH  20  21
ATOM     21  S   UNL A   1      28.961  29.320  22.853  1.00  0.00     0.124 S 
ATOM     22  O   UNL A   1      27.559  28.981  22.751  1.00  0.00    -0.237 OA
ATOM     23  O   UNL A   1      29.418  30.441  23.641  1.00  0.00    -0.237 OA
ATOM     24  O   UNL A   1      29.474  29.594  21.346  1.00  0.00    -0.744 OA
ENDBRANCH  20  21
ENDBRANCH  11  15
BRANCH  13  25
ATOM     25  N   UNL A   1      32.148  20.208  24.231  1.00  0.00    -0.361 N 
ATOM     26  H   UNL A   1      31.417  20.496  23.638  1.00  0.00     0.166 HD
BRANCH  25  27
ATOM     27  C   UNL A   1      32.788  19.012  23.889  1.00  0.00     0.038 A 
ATOM     28  C   UNL A   1      33.676  18.426  24.799  1.00  0.00     0.026 A 
ATOM     29  C   UNL A   1      32.525  18.347  22.687  1.00  0.00     0.026 A 
ATOM     30  C   UNL A   1      34.308  17.217  24.504  1.00  0.00     0.002 A 
ATOM     31  C   UNL A   1      33.175  17.152  22.376  1.00  0.00     0.002 A 
ATOM     32  C   UNL A   1      34.067  16.586  23.286  1.00  0.00     0.000 A 
ENDBRANCH  25  27
ENDBRANCH  13  25
ENDBRANCH   6   8
ENDBRANCH   3   4
ENDBRANCH   2   3
ENDBRANCH   1   2
BRANCH   1  33
ATOM     33  C   UNL A   1      38.772  22.518  26.109  1.00  0.00     0.002 C 
BRANCH  33  34
ATOM     34  C   UNL A   1      38.945  21.167  25.412  1.00  0.00     0.021 C 
BRANCH  34  35
ATOM     35  C   UNL A   1      39.229  19.986  26.333  1.00  0.00     0.116 C 
BRANCH  35  36
ATOM     36  N   UNL A   1      40.414  19.238  25.946  1.00  0.00    -0.352 N 
ATOM     37  C   UNL A   1      41.730  19.631  25.935  1.00  0.00     0.251 C 
ATOM     38  H   UNL A   1      40.249  18.315  25.648  1.00  0.00     0.163 HD
ATOM     39  O   UNL A   1      42.584  18.905  25.438  1.00  0.00    -0.269 OA
BRANCH  37  40
ATOM     40  C   UNL A   1      42.118  20.944  26.496  1.00  0.00     0.039 A 
ATOM     41  C   UNL A   1      42.491  21.966  25.619  1.00  0.00     0.014 A 
ATOM     42  C   UNL A   1      42.122  21.170  27.876  1.00  0.00     0.014 A 
ATOM     43  C   UNL A   1      42.804  23.232  26.120  1.00  0.00     0.010 A 
ATOM     44  C   UNL A   1      42.361  22.451  28.368  1.00  0.00     0.010 A 
ATOM     45  C   UNL A   1      42.705  23.495  27.496  1.00  0.00    -0.014 A 
BRANCH  45  46
ATOM     46  C   UNL A   1      42.953  24.857  28.038  1.00  0.00     0.031 A 
ATOM     47  C   UNL A   1      44.329  25.254  28.497  1.00  0.00     0.074 A 
ATOM     48  C   UNL A   1      41.924  25.715  28.176  1.00  0.00     0.049 A 
ATOM     49  N   UNL A   1      44.724  26.368  29.058  1.00  0.00    -0.248 NA
ATOM     50  C   UNL A   1      45.395  24.255  28.326  1.00  0.00     0.031 C 
ATOM     51  C   UNL A   1      40.534  25.435  27.816  1.00  0.00     0.029 A 
ATOM     52  N   UNL A   1      41.887  26.996  28.671  1.00  0.00    -0.354 N 
ATOM     53  C   UNL A   1      46.080  26.203  29.311  1.00  0.00     0.074 A 
ATOM     54  C   UNL A   1      46.424  24.859  28.902  1.00  0.00     0.031 C 
ATOM     55  C   UNL A   1      39.784  26.515  28.085  1.00  0.00     0.029 A 
ATOM     56  C   UNL A   1      40.630  27.548  28.673  1.00  0.00     0.049 A 
ATOM     57  H   UNL A   1      42.687  27.472  28.993  1.00  0.00     0.167 HD
ATOM     58  C   UNL A   1      46.964  27.098  29.815  1.00  0.00     0.037 A 
ATOM     59  C   UNL A   1      40.203  28.749  29.110  1.00  0.00     0.037 A 
ATOM     60  C   UNL A   1      46.621  28.438  30.215  1.00  0.00     0.049 A 
ATOM     61  C   UNL A   1      41.198  29.720  29.683  1.00  0.00     0.074 A 
ATOM     62  C   UNL A   1      47.451  29.434  30.697  1.00  0.00     0.029 A 
ATOM     63  N   UNL A   1      45.339  28.968  30.185  1.00  0.00    -0.354 N 
ATOM     64  N   UNL A   1      42.489  29.573  29.858  1.00  0.00    -0.248 NA
ATOM     65  C   UNL A   1      40.678  31.027  30.109  1.00  0.00     0.031 C 
ATOM     66  C   UNL A   1      46.666  30.550  31.004  1.00  0.00     0.029 A 
ATOM     67  C   UNL A   1      45.353  30.269  30.661  1.00  0.00     0.049 A 
ATOM     68  H   UNL A   1      44.537  28.489  29.872  1.00  0.00     0.167 HD
ATOM     69  C   UNL A   1      42.940  30.774  30.390  1.00  0.00     0.074 A 
ATOM     70  C   UNL A   1      41.787  31.644  30.495  1.00  0.00     0.031 C 
ATOM     71  C   UNL A   1      44.197  31.125  30.759  1.00  0.00     0.037 A 
BRANCH  58  72
ATOM     72  C   UNL A   1      48.391  26.649  29.958  1.00  0.00     0.057 A 
ATOM     73  C   UNL A   1      49.345  26.894  28.960  1.00  0.00     0.134 A 
ATOM     74  C   UNL A   1      48.823  25.981  31.111  1.00  0.00     0.134 A 
ATOM     75  F   UNL A   1      48.997  27.519  27.825  1.00  0.00    -0.206 F 
ATOM     76  C   UNL A   1      50.666  26.459  29.088  1.00  0.00     0.040 A 
ATOM     77  C   UNL A   1      50.147  25.570  31.265  1.00  0.00     0.040 A 
ATOM     78  F   UNL A   1      47.965  25.721  32.109  1.00  0.00    -0.206 F 
ATOM     79  C   UNL A   1      51.071  25.799  30.247  1.00  0.00     0.006 A 
ENDBRANCH  58  72
BRANCH  59  80
ATOM     80  C   UNL A   1      38.765  29.101  29.011  1.00  0.00     0.057 A 
ATOM     81  C   UNL A   1      38.212  29.559  27.808  1.00  0.00     0.134 A 
ATOM     82  C   UNL A   1      37.906  28.985  30.110  1.00  0.00     0.134 A 
ATOM     83  F   UNL A   1      38.987  29.709  26.724  1.00  0.00    -0.206 F 
ATOM     84  C   UNL A   1      36.863  29.904  27.707  1.00  0.00     0.040 A 
ATOM     85  C   UNL A   1      36.549  29.300  30.017  1.00  0.00     0.040 A 
ATOM     86  F   UNL A   1      38.371  28.542  31.289  1.00  0.00    -0.206 F 
ATOM     87  C   UNL A   1      36.027  29.768  28.813  1.00  0.00     0.006 A 
ENDBRANCH  59  80
BRANCH  71  88
ATOM     88  C   UNL A   1      44.398  32.518  31.282  1.00  0.00     0.057 A 
ATOM     89  C   UNL A   1      44.336  32.814  32.650  1.00  0.00     0.134 A 
ATOM     90  C   UNL A   1      44.693  33.571  30.406  1.00  0.00     0.134 A 
ATOM     91  F   UNL A   1      44.043  31.854  33.540  1.00  0.00    -0.206 F 
ATOM     92  C   UNL A   1      44.537  34.110  33.125  1.00  0.00     0.040 A 
ATOM     93  C   UNL A   1      44.925  34.865  30.872  1.00  0.00     0.040 A 
ATOM     94  F   UNL A   1      44.776  33.356  29.084  1.00  0.00    -0.206 F 
ATOM     95  C   UNL A   1      44.841  35.139  32.235  1.00  0.00     0.006 A 
ENDBRANCH  71  88
ENDBRANCH  45  46
ENDBRANCH  37  40
ENDBRANCH  35  36
ENDBRANCH  34  35
ENDBRANCH  33  34
ENDBRANCH   1  33
TORSDOF 17
ENDMDL
MODEL 2
REMARK VINA RESULT:     -11.8      3.715      8.311
REMARK SMILES O=C(NCCCCCCNC(=O)c1ccc(-c2c3nc(c(-c4c(F)cccc4F)c4ccc([nH]4)c(-c4c(F)cccc4F)c4nc(c(-c5c(F)cccc5F)c5ccc2[nH]5)C=C4)C=C3)cc1)C1=NN(c2ccc(S(=O)(=O)[O-])cc2)C(=O)/C1=C\Nc1ccccc1
REMARK SMILES IDX 6 1 5 2 4 3 3 4 1 5 2 6 67 8 68 9 82 10 69 11 80 12 83 13
REMARK SMILES IDX 81 14 70 15 71 16 79 17 72 18 78 19 73 20 74 21 75 22 76 23
REMARK SMILES IDX 77 24 84 25 85 27 86 28 90 29 87 30 89 31 88 32 7 33 8 34
REMARK SMILES IDX 9 35 10 36 11 37 12 39 13 40 14 41 66 42 15 43 65 44 16 45
REMARK SMILES IDX 17 46 18 47 59 48 19 49 64 50 58 51 60 52 20 53 63 54 57 55
REMARK SMILES IDX 56 56 21 58 47 59 30 60 46 61 31 62 34 63 45 64 61 65 32 66
REMARK SMILES IDX 33 67 44 69 62 70 35 71 22 72 23 73 28 74 24 75 25 76 27 77
REMARK SMILES IDX 29 78 26 79 48 80 49 81 54 82 50 83 51 84 53 85 55 86 52 87
REMARK SMILES IDX 36 88 37 89 42 90 38 91 39 92 41 93 43 94 40 95
REMARK H PARENT 3 7 84 26 10 38 60 57 34 68
REMARK Flexibility Score: inf
ROOT
ATOM      1  C   UNL A   1      30.976  25.162  25.856  1.00  0.00     0.002 C 
ENDROOT
BRANCH   1   2
ATOM      2  C   UNL A   1      30.802  24.003  26.842  1.00  0.00     0.021 C 
BRANCH   2   3
ATOM      3  C   UNL A   1      31.909  22.959  26.823  1.00  0.00     0.116 C 
BRANCH   3   4
ATOM      4  N   UNL A   1      31.547  21.760  26.090  1.00  0.00    -0.351 N 
ATOM      5  O   UNL A   1      31.921  19.994  24.712  1.00  0.00    -0.267 OA
ATOM      6  C   UNL A   1      32.310  21.048  25.195  1.00  0.00     0.272 C 
ATOM      7  H   UNL A   1      30.641  21.412  26.254  1.00  0.00     0.163 HD
BRANCH   6   8
ATOM      8  C   UNL A   1      33.674  21.551  24.836  1.00  0.00     0.163 C 
ATOM      9  N   UNL A   1      34.793  21.002  25.242  1.00  0.00    -0.158 NA
ATOM     10  C   UNL A   1      33.896  22.715  23.974  1.00  0.00     0.091 C 
ATOM     11  N   UNL A   1      35.807  21.803  24.710  1.00  0.00    -0.196 N 
ATOM     12  C   UNL A   1      35.356  22.819  23.857  1.00  0.00     0.282 C 
ATOM     13  C   UNL A   1      33.020  23.532  23.385  1.00  0.00     0.099 C 
ATOM     14  O   UNL A   1      35.957  23.625  23.167  1.00  0.00    -0.267 OA
BRANCH  11  15
ATOM     15  C   UNL A   1      37.121  21.671  25.202  1.00  0.00     0.069 A 
ATOM     16  C   UNL A   1      37.785  22.742  25.814  1.00  0.00     0.030 A 
ATOM     17  C   UNL A   1      37.809  20.459  25.024  1.00  0.00     0.030 A 
ATOM     18  C   UNL A   1      39.099  22.590  26.276  1.00  0.00     0.021 A 
ATOM     19  C   UNL A   1      39.130  20.312  25.440  1.00  0.00     0.021 A 
ATOM     20  C   UNL A   1      39.764  21.374  26.080  1.00  0.00     0.054 A 
BRANCH  20  21
ATOM     21  S   UNL A   1      41.436  21.199  26.628  1.00  0.00     0.124 S 
ATOM     22  O   UNL A   1      42.308  21.529  25.523  1.00  0.00    -0.237 OA
ATOM     23  O   UNL A   1      41.551  21.854  27.911  1.00  0.00    -0.237 OA
ATOM     24  O   UNL A   1      41.637  19.621  26.913  1.00  0.00    -0.744 OA
ENDBRANCH  20  21
ENDBRANCH  11  15
BRANCH  13  25
ATOM     25  N   UNL A   1      33.301  24.481  22.437  1.00  0.00    -0.361 N 
ATOM     26  H   UNL A   1      33.887  24.199  21.697  1.00  0.00     0.166 HD
BRANCH  25  27
ATOM     27  C   UNL A   1      32.851  25.805  22.400  1.00  0.00     0.038 A 
ATOM     28  C   UNL A   1      31.475  26.060  22.370  1.00  0.00     0.026 A 
ATOM     29  C   UNL A   1      33.733  26.889  22.453  1.00  0.00     0.026 A 
ATOM     30  C   UNL A   1      30.990  27.369  22.364  1.00  0.00     0.002 A 
ATOM     31  C   UNL A   1      33.254  28.200  22.420  1.00  0.00     0.002 A 
ATOM     32  C   UNL A   1      31.881  28.440  22.377  1.00  0.00     0.000 A 
ENDBRANCH  25  27
ENDBRANCH  13  25
ENDBRANCH   6   8
ENDBRANCH   3   4
ENDBRANCH   2   3
ENDBRANCH   1   2
BRANCH   1  33
ATOM     33  C   UNL A   1      32.007  26.227  26.244  1.00  0.00     0.002 C 
BRANCH  33  34
ATOM     34  C   UNL A   1      31.561  27.681  26.077  1.00  0.00     0.021 C 
BRANCH  34  35
ATOM     35  C   UNL A   1      32.687  28.701  25.952  1.00  0.00     0.116 C 
BRANCH  35  36
ATOM     36  N   UNL A   1      32.242  30.066  26.182  1.00  0.00    -0.352 N 
ATOM     37  C   UNL A   1      32.816  31.056  26.941  1.00  0.00     0.251 C 
ATOM     38  H   UNL A   1      31.406  30.317  25.726  1.00  0.00     0.163 HD
ATOM     39  O   UNL A   1      32.217  32.109  27.132  1.00  0.00    -0.269 OA
BRANCH  37  40
ATOM     40  C   UNL A   1      34.145  30.845  27.555  1.00  0.00     0.039 A 
ATOM     41  C   UNL A   1      34.996  31.943  27.709  1.00  0.00     0.014 A 
ATOM     42  C   UNL A   1      34.557  29.577  27.974  1.00  0.00     0.014 A 
ATOM     43  C   UNL A   1      36.231  31.782  28.340  1.00  0.00     0.010 A 
ATOM     44  C   UNL A   1      35.756  29.432  28.670  1.00  0.00     0.010 A 
ATOM     45  C   UNL A   1      36.605  30.532  28.859  1.00  0.00    -0.014 A 
BRANCH  45  46
ATOM     46  C   UNL A   1      37.878  30.360  29.607  1.00  0.00     0.031 A 
ATOM     47  C   UNL A   1      39.005  29.560  29.016  1.00  0.00     0.074 A 
ATOM     48  C   UNL A   1      37.995  30.872  30.848  1.00  0.00     0.049 A 
ATOM     49  N   UNL A   1      40.161  29.244  29.544  1.00  0.00    -0.248 NA
ATOM     50  C   UNL A   1      38.793  29.021  27.664  1.00  0.00     0.031 C 
ATOM     51  C   UNL A   1      36.958  31.626  31.554  1.00  0.00     0.029 A 
ATOM     52  N   UNL A   1      39.037  30.824  31.741  1.00  0.00    -0.354 N 
ATOM     53  C   UNL A   1      40.810  28.467  28.592  1.00  0.00     0.074 A 
ATOM     54  C   UNL A   1      39.895  28.307  27.483  1.00  0.00     0.031 C 
ATOM     55  C   UNL A   1      37.420  31.983  32.762  1.00  0.00     0.029 A 
ATOM     56  C   UNL A   1      38.769  31.452  32.933  1.00  0.00     0.049 A 
ATOM     57  H   UNL A   1      39.894  30.382  31.545  1.00  0.00     0.167 HD
ATOM     58  C   UNL A   1      42.064  27.955  28.628  1.00  0.00     0.037 A 
ATOM     59  C   UNL A   1      39.520  31.576  34.044  1.00  0.00     0.037 A 
ATOM     60  C   UNL A   1      42.977  28.122  29.729  1.00  0.00     0.049 A 
ATOM     61  C   UNL A   1      40.902  30.986  34.069  1.00  0.00     0.074 A 
ATOM     62  C   UNL A   1      44.282  27.679  29.843  1.00  0.00     0.029 A 
ATOM     63  N   UNL A   1      42.674  28.781  30.912  1.00  0.00    -0.354 N 
ATOM     64  N   UNL A   1      41.527  30.308  33.137  1.00  0.00    -0.248 NA
ATOM     65  C   UNL A   1      41.686  31.185  35.295  1.00  0.00     0.031 C 
ATOM     66  C   UNL A   1      44.755  28.028  31.113  1.00  0.00     0.029 A 
ATOM     67  C   UNL A   1      43.762  28.736  31.770  1.00  0.00     0.049 A 
ATOM     68  H   UNL A   1      41.814  29.215  31.113  1.00  0.00     0.167 HD
ATOM     69  C   UNL A   1      42.784  30.021  33.653  1.00  0.00     0.074 A 
ATOM     70  C   UNL A   1      42.838  30.613  34.973  1.00  0.00     0.031 C 
ATOM     71  C   UNL A   1      43.802  29.331  33.083  1.00  0.00     0.037 A 
BRANCH  58  72
ATOM     72  C   UNL A   1      42.519  27.167  27.432  1.00  0.00     0.057 A 
ATOM     73  C   UNL A   1      43.135  27.782  26.333  1.00  0.00     0.134 A 
ATOM     74  C   UNL A   1      42.357  25.777  27.383  1.00  0.00     0.134 A 
ATOM     75  F   UNL A   1      43.311  29.112  26.308  1.00  0.00    -0.206 F 
ATOM     76  C   UNL A   1      43.540  27.049  25.215  1.00  0.00     0.040 A 
ATOM     77  C   UNL A   1      42.786  25.029  26.286  1.00  0.00     0.040 A 
ATOM     78  F   UNL A   1      41.783  25.122  28.404  1.00  0.00    -0.206 F 
ATOM     79  C   UNL A   1      43.370  25.666  25.193  1.00  0.00     0.006 A 
ENDBRANCH  58  72
BRANCH  59  80
ATOM     80  C   UNL A   1      38.980  32.303  35.221  1.00  0.00     0.057 A 
ATOM     81  C   UNL A   1      38.363  31.618  36.275  1.00  0.00     0.134 A 
ATOM     82  C   UNL A   1      39.071  33.696  35.324  1.00  0.00     0.134 A 
ATOM     83  F   UNL A   1      38.229  30.285  36.226  1.00  0.00    -0.206 F 
ATOM     84  C   UNL A   1      37.841  32.293  37.380  1.00  0.00     0.040 A 
ATOM     85  C   UNL A   1      38.578  34.382  36.436  1.00  0.00     0.040 A 
ATOM     86  F   UNL A   1      39.660  34.410  34.353  1.00  0.00    -0.206 F 
ATOM     87  C   UNL A   1      37.955  33.679  37.465  1.00  0.00     0.006 A 
ENDBRANCH  59  80
BRANCH  71  88
ATOM     88  C   UNL A   1      45.074  29.203  33.872  1.00  0.00     0.057 A 
ATOM     89  C   UNL A   1      45.311  28.118  34.727  1.00  0.00     0.134 A 
ATOM     90  C   UNL A   1      46.089  30.160  33.746  1.00  0.00     0.134 A 
ATOM     91  F   UNL A   1      44.374  27.174  34.903  1.00  0.00    -0.206 F 
ATOM     92  C   UNL A   1      46.502  28.002  35.445  1.00  0.00     0.040 A 
ATOM     93  C   UNL A   1      47.295  30.040  34.437  1.00  0.00     0.040 A 
ATOM     94  F   UNL A   1      45.931  31.219  32.938  1.00  0.00    -0.206 F 
ATOM     95  C   UNL A   1      47.502  28.961  35.294  1.00  0.00     0.006 A 
ENDBRANCH  71  88
ENDBRANCH  45  46
ENDBRANCH  37  40
ENDBRANCH  35  36
ENDBRANCH  34  35
ENDBRANCH  33  34
ENDBRANCH   1  33
TORSDOF 17
ENDMDL
MODEL 3
REMARK VINA RESULT:     -11.8      1.705      6.193
REMARK SMILES O=C(NCCCCCCNC(=O)c1ccc(-c2c3nc(c(-c4c(F)cccc4F)c4ccc([nH]4)c(-c4c(F)cccc4F)c4nc(c(-c5c(F)cccc5F)c5ccc2[nH]5)C=C4)C=C3)cc1)C1=NN(c2ccc(S(=O)(=O)[O-])cc2)C(=O)/C1=C\Nc1ccccc1
REMARK SMILES IDX 6 1 5 2 4 3 3 4 1 5 2 6 67 8 68 9 82 10 69 11 80 12 83 13
REMARK SMILES IDX 81 14 70 15 71 16 79 17 72 18 78 19 73 20 74 21 75 22 76 23
REMARK SMILES IDX 77 24 84 25 85 27 86 28 90 29 87 30 89 31 88 32 7 33 8 34
REMARK SMILES IDX 9 35 10 36 11 37 12 39 13 40 14 41 66 42 15 43 65 44 16 45
REMARK SMILES IDX 17 46 18 47 59 48 19 49 64 50 58 51 60 52 20 53 63 54 57 55
REMARK SMILES IDX 56 56 21 58 47 59 30 60 46 61 31 62 34 63 45 64 61 65 32 66
REMARK SMILES IDX 33 67 44 69 62 70 35 71 22 72 23 73 28 74 24 75 25 76 27 77
REMARK SMILES IDX 29 78 26 79 48 80 49 81 54 82 50 83 51 84 53 85 55 86 52 87
REMARK SMILES IDX 36 88 37 89 42 90 38 91 39 92 41 93 43 94 40 95
REMARK H PARENT 3 7 84 26 10 38 60 57 34 68
REMARK Flexibility Score: inf
ROOT
ATOM      1  C   UNL A   1      37.501  21.964  25.123  1.00  0.00     0.002 C 
ENDROOT
BRANCH   1   2
ATOM      2  C   UNL A   1      36.075  22.012  25.679  1.00  0.00     0.021 C 
BRANCH   2   3
ATOM      3  C   UNL A   1      35.733  23.253  26.492  1.00  0.00     0.116 C 
BRANCH   3   4
ATOM      4  N   UNL A   1      34.802  22.985  27.572  1.00  0.00    -0.351 N 
ATOM      5  O   UNL A   1      32.751  22.676  28.497  1.00  0.00    -0.267 OA
ATOM      6  C   UNL A   1      33.427  23.016  27.537  1.00  0.00     0.272 C 
ATOM      7  H   UNL A   1      35.204  22.754  28.440  1.00  0.00     0.163 HD
BRANCH   6   8
ATOM      8  C   UNL A   1      32.738  23.429  26.274  1.00  0.00     0.163 C 
ATOM      9  N   UNL A   1      32.444  24.669  25.966  1.00  0.00    -0.158 NA
ATOM     10  C   UNL A   1      32.329  22.478  25.238  1.00  0.00     0.091 C 
ATOM     11  N   UNL A   1      31.784  24.593  24.737  1.00  0.00    -0.196 N 
ATOM     12  C   UNL A   1      31.742  23.309  24.179  1.00  0.00     0.282 C 
ATOM     13  C   UNL A   1      32.443  21.149  25.194  1.00  0.00     0.099 C 
ATOM     14  O   UNL A   1      31.335  22.904  23.103  1.00  0.00    -0.267 OA
BRANCH  11  15
ATOM     15  C   UNL A   1      31.067  25.713  24.268  1.00  0.00     0.069 A 
ATOM     16  C   UNL A   1      29.674  25.797  24.395  1.00  0.00     0.030 A 
ATOM     17  C   UNL A   1      31.751  26.745  23.604  1.00  0.00     0.030 A 
ATOM     18  C   UNL A   1      28.984  26.911  23.901  1.00  0.00     0.021 A 
ATOM     19  C   UNL A   1      31.068  27.836  23.071  1.00  0.00     0.021 A 
ATOM     20  C   UNL A   1      29.688  27.922  23.238  1.00  0.00     0.054 A 
BRANCH  20  21
ATOM     21  S   UNL A   1      28.808  29.309  22.581  1.00  0.00     0.124 S 
ATOM     22  O   UNL A   1      29.401  29.654  21.308  1.00  0.00    -0.237 OA
ATOM     23  O   UNL A   1      27.395  29.038  22.715  1.00  0.00    -0.237 OA
ATOM     24  O   UNL A   1      29.125  30.538  23.580  1.00  0.00    -0.744 OA
ENDBRANCH  20  21
ENDBRANCH  11  15
BRANCH  13  25
ATOM     25  N   UNL A   1      32.212  20.347  24.106  1.00  0.00    -0.361 N 
ATOM     26  H   UNL A   1      31.505  20.643  23.488  1.00  0.00     0.166 HD
BRANCH  25  27
ATOM     27  C   UNL A   1      32.866  19.155  23.775  1.00  0.00     0.038 A 
ATOM     28  C   UNL A   1      33.978  18.753  24.525  1.00  0.00     0.026 A 
ATOM     29  C   UNL A   1      32.409  18.318  22.752  1.00  0.00     0.026 A 
ATOM     30  C   UNL A   1      34.636  17.554  24.242  1.00  0.00     0.002 A 
ATOM     31  C   UNL A   1      33.080  17.132  22.448  1.00  0.00     0.002 A 
ATOM     32  C   UNL A   1      34.193  16.750  23.195  1.00  0.00     0.000 A 
ENDBRANCH  25  27
ENDBRANCH  13  25
ENDBRANCH   6   8
ENDBRANCH   3   4
ENDBRANCH   2   3
ENDBRANCH   1   2
BRANCH   1  33
ATOM     33  C   UNL A   1      38.619  22.319  26.108  1.00  0.00     0.002 C 
BRANCH  33  34
ATOM     34  C   UNL A   1      39.577  21.182  26.469  1.00  0.00     0.021 C 
BRANCH  34  35
ATOM     35  C   UNL A   1      39.616  20.020  25.482  1.00  0.00     0.116 C 
BRANCH  35  36
ATOM     36  N   UNL A   1      40.551  18.978  25.871  1.00  0.00    -0.352 N 
ATOM     37  C   UNL A   1      41.841  19.088  26.329  1.00  0.00     0.251 C 
ATOM     38  H   UNL A   1      40.209  18.058  25.795  1.00  0.00     0.163 HD
ATOM     39  O   UNL A   1      42.530  18.083  26.474  1.00  0.00    -0.269 OA
BRANCH  37  40
ATOM     40  C   UNL A   1      42.415  20.420  26.622  1.00  0.00     0.039 A 
ATOM     41  C   UNL A   1      42.958  21.163  25.570  1.00  0.00     0.014 A 
ATOM     42  C   UNL A   1      42.425  20.935  27.921  1.00  0.00     0.014 A 
ATOM     43  C   UNL A   1      43.452  22.448  25.810  1.00  0.00     0.010 A 
ATOM     44  C   UNL A   1      42.848  22.244  28.145  1.00  0.00     0.010 A 
ATOM     45  C   UNL A   1      43.366  23.013  27.093  1.00  0.00    -0.014 A 
BRANCH  45  46
ATOM     46  C   UNL A   1      43.809  24.408  27.348  1.00  0.00     0.031 A 
ATOM     47  C   UNL A   1      42.813  25.462  27.746  1.00  0.00     0.074 A 
ATOM     48  C   UNL A   1      45.101  24.741  27.161  1.00  0.00     0.049 A 
ATOM     49  N   UNL A   1      42.998  26.742  27.944  1.00  0.00    -0.248 NA
ATOM     50  C   UNL A   1      41.420  25.022  27.915  1.00  0.00     0.031 C 
ATOM     51  C   UNL A   1      46.157  23.825  26.729  1.00  0.00     0.029 A 
ATOM     52  N   UNL A   1      45.744  25.947  27.297  1.00  0.00    -0.354 N 
ATOM     53  C   UNL A   1      41.747  27.260  28.257  1.00  0.00     0.074 A 
ATOM     54  C   UNL A   1      40.803  26.169  28.158  1.00  0.00     0.031 C 
ATOM     55  C   UNL A   1      47.317  24.496  26.652  1.00  0.00     0.029 A 
ATOM     56  C   UNL A   1      47.081  25.896  26.989  1.00  0.00     0.049 A 
ATOM     57  H   UNL A   1      45.288  26.770  27.588  1.00  0.00     0.167 HD
ATOM     58  C   UNL A   1      41.419  28.525  28.618  1.00  0.00     0.037 A 
ATOM     59  C   UNL A   1      48.012  26.869  26.969  1.00  0.00     0.037 A 
ATOM     60  C   UNL A   1      42.362  29.608  28.723  1.00  0.00     0.049 A 
ATOM     61  C   UNL A   1      47.623  28.268  27.356  1.00  0.00     0.074 A 
ATOM     62  C   UNL A   1      42.136  30.913  29.122  1.00  0.00     0.029 A 
ATOM     63  N   UNL A   1      43.712  29.512  28.420  1.00  0.00    -0.354 N 
ATOM     64  N   UNL A   1      46.448  28.731  27.710  1.00  0.00    -0.248 NA
ATOM     65  C   UNL A   1      48.689  29.279  27.349  1.00  0.00     0.031 C 
ATOM     66  C   UNL A   1      43.339  31.619  29.015  1.00  0.00     0.029 A 
ATOM     67  C   UNL A   1      44.327  30.741  28.602  1.00  0.00     0.049 A 
ATOM     68  H   UNL A   1      44.167  28.692  28.120  1.00  0.00     0.167 HD
ATOM     69  C   UNL A   1      46.638  30.077  27.992  1.00  0.00     0.074 A 
ATOM     70  C   UNL A   1      48.044  30.354  27.783  1.00  0.00     0.031 C 
ATOM     71  C   UNL A   1      45.729  31.001  28.391  1.00  0.00     0.037 A 
BRANCH  58  72
ATOM     72  C   UNL A   1      39.974  28.798  28.928  1.00  0.00     0.057 A 
ATOM     73  C   UNL A   1      39.456  28.648  30.222  1.00  0.00     0.134 A 
ATOM     74  C   UNL A   1      39.094  29.232  27.929  1.00  0.00     0.134 A 
ATOM     75  F   UNL A   1      40.241  28.224  31.225  1.00  0.00    -0.206 F 
ATOM     76  C   UNL A   1      38.109  28.884  30.503  1.00  0.00     0.040 A 
ATOM     77  C   UNL A   1      37.753  29.502  28.204  1.00  0.00     0.040 A 
ATOM     78  F   UNL A   1      39.524  29.405  26.670  1.00  0.00    -0.206 F 
ATOM     79  C   UNL A   1      37.254  29.319  29.492  1.00  0.00     0.006 A 
ENDBRANCH  58  72
BRANCH  59  80
ATOM     80  C   UNL A   1      49.407  26.547  26.578  1.00  0.00     0.057 A 
ATOM     81  C   UNL A   1      50.304  25.983  27.494  1.00  0.00     0.134 A 
ATOM     82  C   UNL A   1      49.877  26.788  25.282  1.00  0.00     0.134 A 
ATOM     83  F   UNL A   1      49.919  25.745  28.756  1.00  0.00    -0.206 F 
ATOM     84  C   UNL A   1      51.622  25.687  27.140  1.00  0.00     0.040 A 
ATOM     85  C   UNL A   1      51.184  26.473  24.906  1.00  0.00     0.040 A 
ATOM     86  F   UNL A   1      49.065  27.317  24.354  1.00  0.00    -0.206 F 
ATOM     87  C   UNL A   1      52.063  25.927  25.840  1.00  0.00     0.006 A 
ENDBRANCH  59  80
BRANCH  71  88
ATOM     88  C   UNL A   1      46.231  32.392  28.655  1.00  0.00     0.057 A 
ATOM     89  C   UNL A   1      46.245  33.378  27.659  1.00  0.00     0.134 A 
ATOM     90  C   UNL A   1      46.673  32.758  29.933  1.00  0.00     0.134 A 
ATOM     91  F   UNL A   1      45.848  33.089  26.411  1.00  0.00    -0.206 F 
ATOM     92  C   UNL A   1      46.701  34.671  27.920  1.00  0.00     0.040 A 
ATOM     93  C   UNL A   1      47.105  34.055  30.212  1.00  0.00     0.040 A 
ATOM     94  F   UNL A   1      46.679  31.865  30.934  1.00  0.00    -0.206 F 
ATOM     95  C   UNL A   1      47.126  35.014  29.203  1.00  0.00     0.006 A 
ENDBRANCH  71  88
ENDBRANCH  45  46
ENDBRANCH  37  40
ENDBRANCH  35  36
ENDBRANCH  34  35
ENDBRANCH  33  34
ENDBRANCH   1  33
TORSDOF 17
ENDMDL
