MODEL 1
REMARK VINA RESULT:     -13.3      0.000      0.000
REMARK SMILES Cc1ccc(S(=O)(=O)n2cc(C(=O)C(=O)N[C@@H](Cc3c[nH]c4ccccc34)C(=O)NCCCCCCNC(=O)c3ccc(-c4c5nc(c(-c6c(F)cccc6F)c6ccc([nH]6)c(-c6c(F)cccc6F)c6nc(c(-c7c(F)cccc7F)c7ccc4[nH]7)C=C6)C=C5)cc3)c3ccccc32)cc1
REMARK SMILES IDX 32 1 31 2 30 3 28 4 29 5 17 7 16 8 14 9 15 10 12 12 13 13
REMARK SMILES IDX 11 14 9 15 10 16 99 17 94 18 98 19 95 20 97 21 96 22 6 23
REMARK SMILES IDX 7 24 8 25 5 26 1 27 2 28 3 29 101 30 4 31 100 32 18 33 19 34
REMARK SMILES IDX 20 35 27 36 21 37 22 38 26 39 23 41 25 42 24 43 33 44 34 45
REMARK SMILES IDX 35 46 36 47 37 48 38 49 39 51 40 52 41 53 93 54 42 55 92 56
REMARK SMILES IDX 43 57 44 58 45 59 86 60 46 61 91 62 85 63 87 64 47 65 90 66
REMARK SMILES IDX 84 67 83 68 48 70 74 71 57 72 73 73 58 74 61 75 72 76 88 77
REMARK SMILES IDX 59 78 60 79 71 81 89 82 62 83 49 84 50 85 55 86 51 87 52 88
REMARK SMILES IDX 54 89 56 90 53 91 75 92 76 93 81 94 77 95 78 96 80 97 82 98
REMARK SMILES IDX 79 99 63 100 64 101 69 102 65 103 66 104 68 105 70 106
REMARK SMILES IDX 67 107
REMARK H PARENT 30 6 16 11 21 40 37 50 87 69 61 80
REMARK Flexibility Score: inf
ROOT
ATOM      1  C   UNL A   1      34.450  28.369  25.986  1.00  0.00     0.021 C 
ENDROOT
BRANCH   1   2
ATOM      2  C   UNL A   1      33.606  27.776  24.864  1.00  0.00     0.116 C 
BRANCH   2   3
ATOM      3  N   UNL A   1      34.028  26.502  24.335  1.00  0.00    -0.354 N 
ATOM      4  C   UNL A   1      33.286  25.633  23.576  1.00  0.00     0.242 C 
ATOM      5  O   UNL A   1      33.906  24.994  22.717  1.00  0.00    -0.273 OA
ATOM      6  H   UNL A   1      34.949  26.226  24.541  1.00  0.00     0.163 HD
BRANCH   4   7
ATOM      7  C   UNL A   1      31.730  25.527  23.643  1.00  0.00     0.176 C 
BRANCH   7   8
ATOM      8  N   UNL A   1      31.093  25.909  24.923  1.00  0.00    -0.337 N 
ATOM      9  C   UNL A   1      30.634  25.124  25.976  1.00  0.00     0.293 C 
ATOM     10  O   UNL A   1      29.987  25.630  26.889  1.00  0.00    -0.265 OA
ATOM     11  H   UNL A   1      30.974  26.878  25.051  1.00  0.00     0.164 HD
BRANCH   9  12
ATOM     12  C   UNL A   1      30.959  23.626  26.034  1.00  0.00     0.252 C 
ATOM     13  O   UNL A   1      29.995  22.885  26.223  1.00  0.00    -0.283 OA
BRANCH  12  14
ATOM     14  C   UNL A   1      32.338  23.094  25.989  1.00  0.00     0.054 A 
ATOM     15  N   UNL A   1      34.568  22.683  26.164  1.00  0.00    -0.240 N 
ATOM     16  C   UNL A   1      33.560  23.610  26.452  1.00  0.00     0.117 A 
ATOM     17  C   UNL A   1      33.940  21.509  25.714  1.00  0.00     0.065 A 
ATOM     18  C   UNL A   1      32.674  21.894  25.285  1.00  0.00     0.012 A 
ATOM     19  C   UNL A   1      34.470  20.243  25.392  1.00  0.00     0.028 A 
ATOM     20  C   UNL A   1      32.006  21.080  24.346  1.00  0.00     0.011 A 
ATOM     21  C   UNL A   1      33.824  19.490  24.414  1.00  0.00     0.002 A 
ATOM     22  C   UNL A   1      32.627  19.924  23.863  1.00  0.00     0.001 A 
BRANCH  15  23
ATOM     23  S   UNL A   1      36.046  22.995  25.272  1.00  0.00     0.268 S 
ATOM     24  O   UNL A   1      36.218  24.431  25.412  1.00  0.00    -0.201 OA
ATOM     25  O   UNL A   1      35.756  22.396  23.975  1.00  0.00    -0.201 OA
BRANCH  23  26
ATOM     26  C   UNL A   1      37.630  22.307  25.601  1.00  0.00     0.088 A 
ATOM     27  C   UNL A   1      41.021  19.701  26.247  1.00  0.00     0.044 C 
ATOM     28  C   UNL A   1      39.881  20.648  26.000  1.00  0.00    -0.051 A 
ATOM     29  C   UNL A   1      38.797  20.166  25.281  1.00  0.00     0.005 A 
ATOM     30  C   UNL A   1      39.834  21.968  26.503  1.00  0.00     0.005 A 
ATOM     31  C   UNL A   1      37.703  20.990  25.079  1.00  0.00     0.022 A 
ATOM     32  C   UNL A   1      38.704  22.810  26.312  1.00  0.00     0.022 A 
ENDBRANCH  23  26
ENDBRANCH  15  23
ENDBRANCH  12  14
ENDBRANCH   9  12
ENDBRANCH   7   8
BRANCH   7  33
ATOM     33  C   UNL A   1      31.025  26.128  22.386  1.00  0.00     0.072 C 
BRANCH  33  34
ATOM     34  C   UNL A   1      30.807  27.622  22.318  1.00  0.00    -0.020 A 
ATOM     35  C   UNL A   1      31.771  28.565  22.002  1.00  0.00     0.087 A 
ATOM     36  C   UNL A   1      29.595  28.359  22.559  1.00  0.00     0.003 A 
ATOM     37  N   UNL A   1      31.226  29.816  22.139  1.00  0.00    -0.361 N 
ATOM     38  C   UNL A   1      29.928  29.717  22.578  1.00  0.00     0.046 A 
ATOM     39  C   UNL A   1      28.264  28.002  22.852  1.00  0.00     0.010 A 
ATOM     40  H   UNL A   1      31.696  30.659  21.950  1.00  0.00     0.166 HD
ATOM     41  C   UNL A   1      29.034  30.714  22.989  1.00  0.00     0.026 A 
ATOM     42  C   UNL A   1      27.365  28.979  23.293  1.00  0.00     0.001 A 
ATOM     43  C   UNL A   1      27.755  30.313  23.383  1.00  0.00     0.002 A 
ENDBRANCH  33  34
ENDBRANCH   7  33
ENDBRANCH   4   7
ENDBRANCH   2   3
ENDBRANCH   1   2
BRANCH   1  44
ATOM     44  C   UNL A   1      33.740  28.786  27.280  1.00  0.00     0.002 C 
BRANCH  44  45
ATOM     45  C   UNL A   1      32.609  29.826  27.204  1.00  0.00     0.002 C 
BRANCH  45  46
ATOM     46  C   UNL A   1      32.958  31.286  27.490  1.00  0.00     0.021 C 
BRANCH  46  47
ATOM     47  C   UNL A   1      34.438  31.601  27.649  1.00  0.00     0.116 C 
BRANCH  47  48
ATOM     48  N   UNL A   1      34.826  32.069  28.975  1.00  0.00    -0.352 N 
ATOM     49  C   UNL A   1      35.751  31.529  29.860  1.00  0.00     0.251 C 
ATOM     50  H   UNL A   1      34.368  32.883  29.285  1.00  0.00     0.163 HD
ATOM     51  O   UNL A   1      35.953  32.053  30.938  1.00  0.00    -0.269 OA
BRANCH  49  52
ATOM     52  C   UNL A   1      36.596  30.390  29.412  1.00  0.00     0.039 A 
ATOM     53  C   UNL A   1      36.780  29.332  30.310  1.00  0.00     0.014 A 
ATOM     54  C   UNL A   1      37.377  30.481  28.265  1.00  0.00     0.014 A 
ATOM     55  C   UNL A   1      37.927  28.549  30.207  1.00  0.00     0.010 A 
ATOM     56  C   UNL A   1      38.565  29.780  28.219  1.00  0.00     0.010 A 
ATOM     57  C   UNL A   1      38.873  28.873  29.237  1.00  0.00    -0.014 A 
BRANCH  57  58
ATOM     58  C   UNL A   1      40.256  28.421  29.300  1.00  0.00     0.031 A 
ATOM     59  C   UNL A   1      40.660  27.138  28.704  1.00  0.00     0.074 A 
ATOM     60  C   UNL A   1      41.196  29.222  29.850  1.00  0.00     0.049 A 
ATOM     61  N   UNL A   1      41.685  26.461  29.096  1.00  0.00    -0.248 NA
ATOM     62  C   UNL A   1      39.918  26.494  27.629  1.00  0.00     0.031 C 
ATOM     63  C   UNL A   1      42.646  29.072  29.767  1.00  0.00     0.029 A 
ATOM     64  N   UNL A   1      41.003  30.233  30.800  1.00  0.00    -0.354 N 
ATOM     65  C   UNL A   1      41.913  25.476  28.166  1.00  0.00     0.074 A 
ATOM     66  C   UNL A   1      40.744  25.491  27.315  1.00  0.00     0.031 C 
ATOM     67  C   UNL A   1      43.207  29.713  30.803  1.00  0.00     0.029 A 
ATOM     68  C   UNL A   1      42.128  30.178  31.653  1.00  0.00     0.049 A 
ATOM     69  H   UNL A   1      40.242  30.855  30.861  1.00  0.00     0.167 HD
ATOM     70  C   UNL A   1      43.129  24.857  28.136  1.00  0.00     0.037 A 
ATOM     71  C   UNL A   1      42.004  29.900  32.981  1.00  0.00     0.037 A 
ATOM     72  C   UNL A   1      44.011  25.351  29.194  1.00  0.00     0.049 A 
ATOM     73  C   UNL A   1      42.794  28.703  33.448  1.00  0.00     0.074 A 
ATOM     74  C   UNL A   1      45.066  26.250  29.203  1.00  0.00     0.029 A 
ATOM     75  N   UNL A   1      43.680  25.135  30.525  1.00  0.00    -0.354 N 
ATOM     76  N   UNL A   1      43.295  27.788  32.665  1.00  0.00    -0.248 NA
ATOM     77  C   UNL A   1      43.048  28.425  34.854  1.00  0.00     0.031 C 
ATOM     78  C   UNL A   1      45.398  26.538  30.552  1.00  0.00     0.029 A 
ATOM     79  C   UNL A   1      44.539  25.820  31.365  1.00  0.00     0.049 A 
ATOM     80  H   UNL A   1      42.933  24.570  30.831  1.00  0.00     0.167 HD
ATOM     81  C   UNL A   1      43.891  26.797  33.417  1.00  0.00     0.074 A 
ATOM     82  C   UNL A   1      43.728  27.269  34.779  1.00  0.00     0.031 C 
ATOM     83  C   UNL A   1      44.428  25.686  32.816  1.00  0.00     0.037 A 
BRANCH  70  84
ATOM     84  C   UNL A   1      43.607  24.023  26.966  1.00  0.00     0.057 A 
ATOM     85  C   UNL A   1      43.532  22.616  26.992  1.00  0.00     0.134 A 
ATOM     86  C   UNL A   1      44.193  24.546  25.802  1.00  0.00     0.134 A 
ATOM     87  F   UNL A   1      42.889  21.957  27.963  1.00  0.00    -0.206 F 
ATOM     88  C   UNL A   1      44.119  21.801  26.015  1.00  0.00     0.040 A 
ATOM     89  C   UNL A   1      44.833  23.745  24.843  1.00  0.00     0.040 A 
ATOM     90  F   UNL A   1      44.128  25.852  25.514  1.00  0.00    -0.206 F 
ATOM     91  C   UNL A   1      44.813  22.364  24.957  1.00  0.00     0.006 A 
ENDBRANCH  70  84
BRANCH  71  92
ATOM     92  C   UNL A   1      40.710  30.342  33.560  1.00  0.00     0.057 A 
ATOM     93  C   UNL A   1      40.547  31.698  33.895  1.00  0.00     0.134 A 
ATOM     94  C   UNL A   1      39.550  29.573  33.429  1.00  0.00     0.134 A 
ATOM     95  F   UNL A   1      41.623  32.490  34.035  1.00  0.00    -0.206 F 
ATOM     96  C   UNL A   1      39.286  32.290  33.979  1.00  0.00     0.040 A 
ATOM     97  C   UNL A   1      38.281  30.154  33.524  1.00  0.00     0.040 A 
ATOM     98  F   UNL A   1      39.625  28.278  33.090  1.00  0.00    -0.206 F 
ATOM     99  C   UNL A   1      38.147  31.523  33.759  1.00  0.00     0.006 A 
ENDBRANCH  71  92
BRANCH  83 100
ATOM    100  C   UNL A   1      44.949  24.388  33.446  1.00  0.00     0.057 A 
ATOM    101  C   UNL A   1      46.282  24.087  33.761  1.00  0.00     0.134 A 
ATOM    102  C   UNL A   1      44.040  23.362  33.829  1.00  0.00     0.134 A 
ATOM    103  F   UNL A   1      47.287  24.922  33.503  1.00  0.00    -0.206 F 
ATOM    104  C   UNL A   1      46.676  22.893  34.393  1.00  0.00     0.040 A 
ATOM    105  C   UNL A   1      44.417  22.183  34.486  1.00  0.00     0.040 A 
ATOM    106  F   UNL A   1      42.723  23.445  33.602  1.00  0.00    -0.206 F 
ATOM    107  C   UNL A   1      45.744  21.940  34.770  1.00  0.00     0.006 A 
ENDBRANCH  83 100
ENDBRANCH  57  58
ENDBRANCH  49  52
ENDBRANCH  47  48
ENDBRANCH  46  47
ENDBRANCH  45  46
ENDBRANCH  44  45
ENDBRANCH   1  44
TORSDOF 20
ENDMDL
MODEL 2
REMARK VINA RESULT:     -13.0      1.738      2.438
REMARK SMILES Cc1ccc(S(=O)(=O)n2cc(C(=O)C(=O)N[C@@H](Cc3c[nH]c4ccccc34)C(=O)NCCCCCCNC(=O)c3ccc(-c4c5nc(c(-c6c(F)cccc6F)c6ccc([nH]6)c(-c6c(F)cccc6F)c6nc(c(-c7c(F)cccc7F)c7ccc4[nH]7)C=C6)C=C5)cc3)c3ccccc32)cc1
REMARK SMILES IDX 32 1 31 2 30 3 28 4 29 5 17 7 16 8 14 9 15 10 12 12 13 13
REMARK SMILES IDX 11 14 9 15 10 16 99 17 94 18 98 19 95 20 97 21 96 22 6 23
REMARK SMILES IDX 7 24 8 25 5 26 1 27 2 28 3 29 101 30 4 31 100 32 18 33 19 34
REMARK SMILES IDX 20 35 27 36 21 37 22 38 26 39 23 41 25 42 24 43 33 44 34 45
REMARK SMILES IDX 35 46 36 47 37 48 38 49 39 51 40 52 41 53 93 54 42 55 92 56
REMARK SMILES IDX 43 57 44 58 45 59 86 60 46 61 91 62 85 63 87 64 47 65 90 66
REMARK SMILES IDX 84 67 83 68 48 70 74 71 57 72 73 73 58 74 61 75 72 76 88 77
REMARK SMILES IDX 59 78 60 79 71 81 89 82 62 83 49 84 50 85 55 86 51 87 52 88
REMARK SMILES IDX 54 89 56 90 53 91 75 92 76 93 81 94 77 95 78 96 80 97 82 98
REMARK SMILES IDX 79 99 63 100 64 101 69 102 65 103 66 104 68 105 70 106
REMARK SMILES IDX 67 107
REMARK H PARENT 30 6 16 11 21 40 37 50 87 69 61 80
REMARK Flexibility Score: inf
ROOT
ATOM      1  C   UNL A   1      32.147  30.483  26.761  1.00  0.00     0.021 C 
ENDROOT
BRANCH   1   2
ATOM      2  C   UNL A   1      31.959  29.938  25.350  1.00  0.00     0.116 C 
BRANCH   2   3
ATOM      3  N   UNL A   1      33.154  29.578  24.627  1.00  0.00    -0.354 N 
ATOM      4  C   UNL A   1      33.342  28.477  23.830  1.00  0.00     0.242 C 
ATOM      5  O   UNL A   1      34.073  28.636  22.845  1.00  0.00    -0.273 OA
ATOM      6  H   UNL A   1      33.920  30.189  24.715  1.00  0.00     0.163 HD
BRANCH   4   7
ATOM      7  C   UNL A   1      32.582  27.126  24.018  1.00  0.00     0.176 C 
BRANCH   7   8
ATOM      8  N   UNL A   1      32.083  26.829  25.379  1.00  0.00    -0.337 N 
ATOM      9  C   UNL A   1      31.684  25.626  25.954  1.00  0.00     0.293 C 
ATOM     10  O   UNL A   1      31.148  25.617  27.059  1.00  0.00    -0.265 OA
ATOM     11  H   UNL A   1      32.023  27.609  25.976  1.00  0.00     0.164 HD
BRANCH   9  12
ATOM     12  C   UNL A   1      31.941  24.294  25.239  1.00  0.00     0.252 C 
ATOM     13  O   UNL A   1      30.997  23.861  24.577  1.00  0.00    -0.283 OA
BRANCH  12  14
ATOM     14  C   UNL A   1      33.180  23.506  25.412  1.00  0.00     0.054 A 
ATOM     15  N   UNL A   1      35.263  22.711  25.861  1.00  0.00    -0.240 N 
ATOM     16  C   UNL A   1      34.452  23.850  25.898  1.00  0.00     0.117 A 
ATOM     17  C   UNL A   1      34.434  21.619  25.549  1.00  0.00     0.065 A 
ATOM     18  C   UNL A   1      33.303  22.159  24.946  1.00  0.00     0.012 A 
ATOM     19  C   UNL A   1      34.710  20.237  25.488  1.00  0.00     0.028 A 
ATOM     20  C   UNL A   1      32.539  21.335  24.091  1.00  0.00     0.011 A 
ATOM     21  C   UNL A   1      33.983  19.462  24.587  1.00  0.00     0.002 A 
ATOM     22  C   UNL A   1      32.936  20.014  23.863  1.00  0.00     0.001 A 
BRANCH  15  23
ATOM     23  S   UNL A   1      36.824  22.568  25.075  1.00  0.00     0.268 S 
ATOM     24  O   UNL A   1      37.415  23.881  25.275  1.00  0.00    -0.201 OA
ATOM     25  O   UNL A   1      36.457  22.105  23.742  1.00  0.00    -0.201 OA
BRANCH  23  26
ATOM     26  C   UNL A   1      38.097  21.424  25.478  1.00  0.00     0.088 A 
ATOM     27  C   UNL A   1      41.809  19.489  26.565  1.00  0.00     0.044 C 
ATOM     28  C   UNL A   1      40.489  20.117  26.216  1.00  0.00    -0.051 A 
ATOM     29  C   UNL A   1      40.318  21.457  26.534  1.00  0.00     0.005 A 
ATOM     30  C   UNL A   1      39.451  19.438  25.540  1.00  0.00     0.005 A 
ATOM     31  C   UNL A   1      39.137  22.087  26.180  1.00  0.00     0.022 A 
ATOM     32  C   UNL A   1      38.245  20.087  25.160  1.00  0.00     0.022 A 
ENDBRANCH  23  26
ENDBRANCH  15  23
ENDBRANCH  12  14
ENDBRANCH   9  12
ENDBRANCH   7   8
BRANCH   7  33
ATOM     33  C   UNL A   1      31.535  26.856  22.892  1.00  0.00     0.072 C 
BRANCH  33  34
ATOM     34  C   UNL A   1      30.121  27.354  23.077  1.00  0.00    -0.020 A 
ATOM     35  C   UNL A   1      29.078  26.634  23.636  1.00  0.00     0.087 A 
ATOM     36  C   UNL A   1      29.572  28.638  22.726  1.00  0.00     0.003 A 
ATOM     37  N   UNL A   1      27.929  27.376  23.544  1.00  0.00    -0.361 N 
ATOM     38  C   UNL A   1      28.187  28.562  22.898  1.00  0.00     0.046 A 
ATOM     39  C   UNL A   1      30.107  29.827  22.192  1.00  0.00     0.010 A 
ATOM     40  H   UNL A   1      27.050  27.101  23.890  1.00  0.00     0.166 HD
ATOM     41  C   UNL A   1      27.310  29.560  22.456  1.00  0.00     0.026 A 
ATOM     42  C   UNL A   1      29.246  30.821  21.717  1.00  0.00     0.001 A 
ATOM     43  C   UNL A   1      27.865  30.677  21.827  1.00  0.00     0.002 A 
ENDBRANCH  33  34
ENDBRANCH   7  33
ENDBRANCH   4   7
ENDBRANCH   2   3
ENDBRANCH   1   2
BRANCH   1  44
ATOM     44  C   UNL A   1      32.018  31.996  26.974  1.00  0.00     0.002 C 
BRANCH  44  45
ATOM     45  C   UNL A   1      33.170  32.750  27.660  1.00  0.00     0.002 C 
BRANCH  45  46
ATOM     46  C   UNL A   1      32.952  34.219  28.017  1.00  0.00     0.021 C 
BRANCH  46  47
ATOM     47  C   UNL A   1      34.173  34.974  28.523  1.00  0.00     0.116 C 
BRANCH  47  48
ATOM     48  N   UNL A   1      34.305  35.021  29.974  1.00  0.00    -0.352 N 
ATOM     49  C   UNL A   1      34.970  34.145  30.824  1.00  0.00     0.251 C 
ATOM     50  H   UNL A   1      33.861  35.782  30.414  1.00  0.00     0.163 HD
ATOM     51  O   UNL A   1      34.979  34.336  32.024  1.00  0.00    -0.269 OA
BRANCH  49  52
ATOM     52  C   UNL A   1      35.791  33.055  30.234  1.00  0.00     0.039 A 
ATOM     53  C   UNL A   1      35.800  31.822  30.898  1.00  0.00     0.014 A 
ATOM     54  C   UNL A   1      36.710  33.313  29.223  1.00  0.00     0.014 A 
ATOM     55  C   UNL A   1      36.899  30.982  30.751  1.00  0.00     0.010 A 
ATOM     56  C   UNL A   1      37.850  32.537  29.154  1.00  0.00     0.010 A 
ATOM     57  C   UNL A   1      37.975  31.417  29.980  1.00  0.00    -0.014 A 
BRANCH  57  58
ATOM     58  C   UNL A   1      39.309  30.845  30.091  1.00  0.00     0.031 A 
ATOM     59  C   UNL A   1      39.662  29.604  29.383  1.00  0.00     0.074 A 
ATOM     60  C   UNL A   1      40.260  31.499  30.795  1.00  0.00     0.049 A 
ATOM     61  N   UNL A   1      40.597  28.803  29.769  1.00  0.00    -0.248 NA
ATOM     62  C   UNL A   1      38.962  29.144  28.191  1.00  0.00     0.031 C 
ATOM     63  C   UNL A   1      41.697  31.235  30.800  1.00  0.00     0.029 A 
ATOM     64  N   UNL A   1      40.069  32.415  31.838  1.00  0.00    -0.354 N 
ATOM     65  C   UNL A   1      40.823  27.908  28.751  1.00  0.00     0.074 A 
ATOM     66  C   UNL A   1      39.732  28.114  27.825  1.00  0.00     0.031 C 
ATOM     67  C   UNL A   1      42.219  31.712  31.940  1.00  0.00     0.029 A 
ATOM     68  C   UNL A   1      41.113  32.172  32.757  1.00  0.00     0.049 A 
ATOM     69  H   UNL A   1      39.356  33.089  31.913  1.00  0.00     0.167 HD
ATOM     70  C   UNL A   1      41.987  27.195  28.739  1.00  0.00     0.037 A 
ATOM     71  C   UNL A   1      40.861  31.765  34.033  1.00  0.00     0.037 A 
ATOM     72  C   UNL A   1      42.815  27.496  29.907  1.00  0.00     0.049 A 
ATOM     73  C   UNL A   1      41.517  30.461  34.416  1.00  0.00     0.074 A 
ATOM     74  C   UNL A   1      43.932  28.295  30.095  1.00  0.00     0.029 A 
ATOM     75  N   UNL A   1      42.361  27.166  31.178  1.00  0.00    -0.354 N 
ATOM     76  N   UNL A   1      42.008  29.597  33.572  1.00  0.00    -0.248 NA
ATOM     77  C   UNL A   1      41.634  30.014  35.797  1.00  0.00     0.031 C 
ATOM     78  C   UNL A   1      44.174  28.407  31.488  1.00  0.00     0.029 A 
ATOM     79  C   UNL A   1      43.199  27.681  32.150  1.00  0.00     0.049 A 
ATOM     80  H   UNL A   1      41.551  26.638  31.363  1.00  0.00     0.167 HD
ATOM     81  C   UNL A   1      42.463  28.484  34.248  1.00  0.00     0.074 A 
ATOM     82  C   UNL A   1      42.227  28.819  35.639  1.00  0.00     0.031 C 
ATOM     83  C   UNL A   1      42.961  27.402  33.564  1.00  0.00     0.037 A 
BRANCH  70  84
ATOM     84  C   UNL A   1      42.493  26.454  27.519  1.00  0.00     0.057 A 
ATOM     85  C   UNL A   1      42.233  25.081  27.338  1.00  0.00     0.134 A 
ATOM     86  C   UNL A   1      43.281  27.029  26.509  1.00  0.00     0.134 A 
ATOM     87  F   UNL A   1      41.395  24.406  28.133  1.00  0.00    -0.206 F 
ATOM     88  C   UNL A   1      42.826  24.319  26.322  1.00  0.00     0.040 A 
ATOM     89  C   UNL A   1      43.925  26.270  25.519  1.00  0.00     0.040 A 
ATOM     90  F   UNL A   1      43.423  28.356  26.404  1.00  0.00    -0.206 F 
ATOM     91  C   UNL A   1      43.712  24.904  25.433  1.00  0.00     0.006 A 
ENDBRANCH  70  84
BRANCH  71  92
ATOM     92  C   UNL A   1      39.562  32.250  34.563  1.00  0.00     0.057 A 
ATOM     93  C   UNL A   1      39.484  33.562  35.064  1.00  0.00     0.134 A 
ATOM     94  C   UNL A   1      38.358  31.618  34.239  1.00  0.00     0.134 A 
ATOM     95  F   UNL A   1      40.605  34.224  35.392  1.00  0.00    -0.206 F 
ATOM     96  C   UNL A   1      38.275  34.256  35.129  1.00  0.00     0.040 A 
ATOM     97  C   UNL A   1      37.138  32.300  34.313  1.00  0.00     0.040 A 
ATOM     98  F   UNL A   1      38.354  30.375  33.736  1.00  0.00    -0.206 F 
ATOM     99  C   UNL A   1      37.100  33.634  34.719  1.00  0.00     0.006 A 
ENDBRANCH  71  92
BRANCH  83 100
ATOM    100  C   UNL A   1      43.328  26.005  34.079  1.00  0.00     0.057 A 
ATOM    101  C   UNL A   1      44.556  25.348  33.914  1.00  0.00     0.134 A 
ATOM    102  C   UNL A   1      42.398  25.260  34.858  1.00  0.00     0.134 A 
ATOM    103  F   UNL A   1      45.570  25.880  33.232  1.00  0.00    -0.206 F 
ATOM    104  C   UNL A   1      44.838  24.085  34.467  1.00  0.00     0.040 A 
ATOM    105  C   UNL A   1      42.678  24.016  35.439  1.00  0.00     0.040 A 
ATOM    106  F   UNL A   1      41.161  25.702  35.119  1.00  0.00    -0.206 F 
ATOM    107  C   UNL A   1      43.905  23.417  35.243  1.00  0.00     0.006 A 
ENDBRANCH  83 100
ENDBRANCH  57  58
ENDBRANCH  49  52
ENDBRANCH  47  48
ENDBRANCH  46  47
ENDBRANCH  45  46
ENDBRANCH  44  45
ENDBRANCH   1  44
TORSDOF 20
ENDMDL
MODEL 3
REMARK VINA RESULT:     -12.9      1.544      5.908
REMARK SMILES Cc1ccc(S(=O)(=O)n2cc(C(=O)C(=O)N[C@@H](Cc3c[nH]c4ccccc34)C(=O)NCCCCCCNC(=O)c3ccc(-c4c5nc(c(-c6c(F)cccc6F)c6ccc([nH]6)c(-c6c(F)cccc6F)c6nc(c(-c7c(F)cccc7F)c7ccc4[nH]7)C=C6)C=C5)cc3)c3ccccc32)cc1
REMARK SMILES IDX 32 1 31 2 30 3 28 4 29 5 17 7 16 8 14 9 15 10 12 12 13 13
REMARK SMILES IDX 11 14 9 15 10 16 99 17 94 18 98 19 95 20 97 21 96 22 6 23
REMARK SMILES IDX 7 24 8 25 5 26 1 27 2 28 3 29 101 30 4 31 100 32 18 33 19 34
REMARK SMILES IDX 20 35 27 36 21 37 22 38 26 39 23 41 25 42 24 43 33 44 34 45
REMARK SMILES IDX 35 46 36 47 37 48 38 49 39 51 40 52 41 53 93 54 42 55 92 56
REMARK SMILES IDX 43 57 44 58 45 59 86 60 46 61 91 62 85 63 87 64 47 65 90 66
REMARK SMILES IDX 84 67 83 68 48 70 74 71 57 72 73 73 58 74 61 75 72 76 88 77
REMARK SMILES IDX 59 78 60 79 71 81 89 82 62 83 49 84 50 85 55 86 51 87 52 88
REMARK SMILES IDX 54 89 56 90 53 91 75 92 76 93 81 94 77 95 78 96 80 97 82 98
REMARK SMILES IDX 79 99 63 100 64 101 69 102 65 103 66 104 68 105 70 106
REMARK SMILES IDX 67 107
REMARK H PARENT 30 6 16 11 21 40 37 50 87 69 61 80
REMARK Flexibility Score: inf
ROOT
ATOM      1  C   UNL A   1      34.027  25.959  25.224  1.00  0.00     0.021 C 
ENDROOT
BRANCH   1   2
ATOM      2  C   UNL A   1      35.020  24.812  25.376  1.00  0.00     0.116 C 
BRANCH   2   3
ATOM      3  N   UNL A   1      35.726  24.401  24.188  1.00  0.00    -0.354 N 
ATOM      4  C   UNL A   1      35.843  23.127  23.691  1.00  0.00     0.242 C 
ATOM      5  O   UNL A   1      35.874  23.023  22.459  1.00  0.00    -0.273 OA
ATOM      6  H   UNL A   1      36.173  25.112  23.676  1.00  0.00     0.163 HD
BRANCH   4   7
ATOM      7  C   UNL A   1      35.788  21.840  24.574  1.00  0.00     0.176 C 
BRANCH   7   8
ATOM      8  N   UNL A   1      34.711  20.872  24.270  1.00  0.00    -0.337 N 
ATOM      9  C   UNL A   1      33.353  20.903  24.575  1.00  0.00     0.293 C 
ATOM     10  O   UNL A   1      32.651  19.918  24.369  1.00  0.00    -0.265 OA
ATOM     11  H   UNL A   1      35.001  20.076  23.770  1.00  0.00     0.164 HD
BRANCH   9  12
ATOM     12  C   UNL A   1      32.707  22.176  25.137  1.00  0.00     0.252 C 
ATOM     13  O   UNL A   1      32.650  22.239  26.365  1.00  0.00    -0.283 OA
BRANCH  12  14
ATOM     14  C   UNL A   1      32.081  23.211  24.286  1.00  0.00     0.054 A 
ATOM     15  N   UNL A   1      31.419  24.628  22.635  1.00  0.00    -0.240 N 
ATOM     16  C   UNL A   1      32.307  23.594  22.954  1.00  0.00     0.117 A 
ATOM     17  C   UNL A   1      30.508  24.739  23.700  1.00  0.00     0.065 A 
ATOM     18  C   UNL A   1      31.130  24.149  24.796  1.00  0.00     0.012 A 
ATOM     19  C   UNL A   1      29.357  25.539  23.851  1.00  0.00     0.028 A 
ATOM     20  C   UNL A   1      30.714  24.531  26.090  1.00  0.00     0.011 A 
ATOM     21  C   UNL A   1      29.009  25.953  25.135  1.00  0.00     0.002 A 
ATOM     22  C   UNL A   1      29.708  25.490  26.241  1.00  0.00     0.001 A 
BRANCH  15  23
ATOM     23  S   UNL A   1      31.844  26.205  21.994  1.00  0.00     0.268 S 
ATOM     24  O   UNL A   1      31.499  26.091  20.587  1.00  0.00    -0.201 OA
ATOM     25  O   UNL A   1      33.231  26.347  22.420  1.00  0.00    -0.201 OA
BRANCH  23  26
ATOM     26  C   UNL A   1      31.186  27.753  22.506  1.00  0.00     0.088 A 
ATOM     27  C   UNL A   1      29.999  31.290  24.693  1.00  0.00     0.044 C 
ATOM     28  C   UNL A   1      30.416  30.095  23.883  1.00  0.00    -0.051 A 
ATOM     29  C   UNL A   1      31.473  29.337  24.365  1.00  0.00     0.005 A 
ATOM     30  C   UNL A   1      29.760  29.679  22.703  1.00  0.00     0.005 A 
ATOM     31  C   UNL A   1      31.853  28.197  23.677  1.00  0.00     0.022 A 
ATOM     32  C   UNL A   1      30.136  28.500  22.005  1.00  0.00     0.022 A 
ENDBRANCH  23  26
ENDBRANCH  15  23
ENDBRANCH  12  14
ENDBRANCH   9  12
ENDBRANCH   7   8
BRANCH   7  33
ATOM     33  C   UNL A   1      37.189  21.180  24.772  1.00  0.00     0.072 C 
BRANCH  33  34
ATOM     34  C   UNL A   1      38.163  21.815  25.737  1.00  0.00    -0.020 A 
ATOM     35  C   UNL A   1      38.014  23.056  26.334  1.00  0.00     0.087 A 
ATOM     36  C   UNL A   1      39.411  21.289  26.224  1.00  0.00     0.003 A 
ATOM     37  N   UNL A   1      39.141  23.334  27.064  1.00  0.00    -0.361 N 
ATOM     38  C   UNL A   1      40.051  22.313  26.927  1.00  0.00     0.046 A 
ATOM     39  C   UNL A   1      40.099  20.070  26.059  1.00  0.00     0.010 A 
ATOM     40  H   UNL A   1      39.278  24.143  27.605  1.00  0.00     0.166 HD
ATOM     41  C   UNL A   1      41.379  22.220  27.364  1.00  0.00     0.026 A 
ATOM     42  C   UNL A   1      41.435  19.970  26.462  1.00  0.00     0.001 A 
ATOM     43  C   UNL A   1      42.071  21.040  27.084  1.00  0.00     0.002 A 
ENDBRANCH  33  34
ENDBRANCH   7  33
ENDBRANCH   4   7
ENDBRANCH   2   3
ENDBRANCH   1   2
BRANCH   1  44
ATOM     44  C   UNL A   1      33.710  26.807  26.462  1.00  0.00     0.002 C 
BRANCH  44  45
ATOM     45  C   UNL A   1      34.310  28.219  26.569  1.00  0.00     0.002 C 
BRANCH  45  46
ATOM     46  C   UNL A   1      33.596  29.236  27.457  1.00  0.00     0.021 C 
BRANCH  46  47
ATOM     47  C   UNL A   1      33.908  30.700  27.183  1.00  0.00     0.116 C 
BRANCH  47  48
ATOM     48  N   UNL A   1      34.303  31.472  28.355  1.00  0.00    -0.352 N 
ATOM     49  C   UNL A   1      35.404  31.304  29.186  1.00  0.00     0.251 C 
ATOM     50  H   UNL A   1      33.706  32.219  28.590  1.00  0.00     0.163 HD
ATOM     51  O   UNL A   1      35.584  32.046  30.131  1.00  0.00    -0.269 OA
BRANCH  49  52
ATOM     52  C   UNL A   1      36.436  30.298  28.819  1.00  0.00     0.039 A 
ATOM     53  C   UNL A   1      36.584  29.189  29.660  1.00  0.00     0.014 A 
ATOM     54  C   UNL A   1      37.385  30.567  27.838  1.00  0.00     0.014 A 
ATOM     55  C   UNL A   1      37.812  28.536  29.709  1.00  0.00     0.010 A 
ATOM     56  C   UNL A   1      38.635  29.994  27.956  1.00  0.00     0.010 A 
ATOM     57  C   UNL A   1      38.867  29.036  28.948  1.00  0.00    -0.014 A 
BRANCH  57  58
ATOM     58  C   UNL A   1      40.261  28.721  29.225  1.00  0.00     0.031 A 
ATOM     59  C   UNL A   1      40.894  27.524  28.649  1.00  0.00     0.074 A 
ATOM     60  C   UNL A   1      41.005  29.575  29.963  1.00  0.00     0.049 A 
ATOM     61  N   UNL A   1      41.908  26.928  29.179  1.00  0.00    -0.248 NA
ATOM     62  C   UNL A   1      40.413  26.878  27.436  1.00  0.00     0.031 C 
ATOM     63  C   UNL A   1      42.457  29.574  30.122  1.00  0.00     0.029 A 
ATOM     64  N   UNL A   1      40.551  30.500  30.911  1.00  0.00    -0.354 N 
ATOM     65  C   UNL A   1      42.391  26.031  28.258  1.00  0.00     0.074 A 
ATOM     66  C   UNL A   1      41.384  25.983  27.222  1.00  0.00     0.031 C 
ATOM     67  C   UNL A   1      42.767  30.202  31.265  1.00  0.00     0.029 A 
ATOM     68  C   UNL A   1      41.519  30.503  31.940  1.00  0.00     0.049 A 
ATOM     69  H   UNL A   1      39.728  31.038  30.869  1.00  0.00     0.167 HD
ATOM     70  C   UNL A   1      43.655  25.539  28.408  1.00  0.00     0.037 A 
ATOM     71  C   UNL A   1      41.209  30.131  33.213  1.00  0.00     0.037 A 
ATOM     72  C   UNL A   1      44.293  26.051  29.621  1.00  0.00     0.049 A 
ATOM     73  C   UNL A   1      42.036  28.991  33.753  1.00  0.00     0.074 A 
ATOM     74  C   UNL A   1      45.228  27.047  29.851  1.00  0.00     0.029 A 
ATOM     75  N   UNL A   1      43.772  25.719  30.865  1.00  0.00    -0.354 N 
ATOM     76  N   UNL A   1      42.755  28.181  33.026  1.00  0.00    -0.248 NA
ATOM     77  C   UNL A   1      42.084  28.653  35.168  1.00  0.00     0.031 C 
ATOM     78  C   UNL A   1      45.300  27.281  31.248  1.00  0.00     0.029 A 
ATOM     79  C   UNL A   1      44.402  26.432  31.869  1.00  0.00     0.049 A 
ATOM     80  H   UNL A   1      43.051  25.065  31.014  1.00  0.00     0.167 HD
ATOM     81  C   UNL A   1      43.322  27.209  33.823  1.00  0.00     0.074 A 
ATOM     82  C   UNL A   1      42.888  27.577  35.158  1.00  0.00     0.031 C 
ATOM     83  C   UNL A   1      44.068  26.196  33.273  1.00  0.00     0.037 A 
BRANCH  70  84
ATOM     84  C   UNL A   1      44.407  24.831  27.300  1.00  0.00     0.057 A 
ATOM     85  C   UNL A   1      44.689  25.476  26.079  1.00  0.00     0.134 A 
ATOM     86  C   UNL A   1      44.840  23.496  27.358  1.00  0.00     0.134 A 
ATOM     87  F   UNL A   1      44.463  26.783  25.898  1.00  0.00    -0.206 F 
ATOM     88  C   UNL A   1      45.222  24.809  24.968  1.00  0.00     0.040 A 
ATOM     89  C   UNL A   1      45.324  22.800  26.239  1.00  0.00     0.040 A 
ATOM     90  F   UNL A   1      44.863  22.819  28.514  1.00  0.00    -0.206 F 
ATOM     91  C   UNL A   1      45.500  23.454  25.030  1.00  0.00     0.006 A 
ENDBRANCH  70  84
BRANCH  71  92
ATOM     92  C   UNL A   1      39.797  30.405  33.582  1.00  0.00     0.057 A 
ATOM     93  C   UNL A   1      39.444  31.706  33.983  1.00  0.00     0.134 A 
ATOM     94  C   UNL A   1      38.760  29.555  33.190  1.00  0.00     0.134 A 
ATOM     95  F   UNL A   1      40.394  32.572  34.370  1.00  0.00    -0.206 F 
ATOM     96  C   UNL A   1      38.133  32.178  33.884  1.00  0.00     0.040 A 
ATOM     97  C   UNL A   1      37.441  30.012  33.099  1.00  0.00     0.040 A 
ATOM     98  F   UNL A   1      39.022  28.307  32.775  1.00  0.00    -0.206 F 
ATOM     99  C   UNL A   1      37.132  31.338  33.407  1.00  0.00     0.006 A 
ENDBRANCH  71  92
BRANCH  83 100
ATOM    100  C   UNL A   1      44.616  24.920  33.923  1.00  0.00     0.057 A 
ATOM    101  C   UNL A   1      45.954  24.502  33.950  1.00  0.00     0.134 A 
ATOM    102  C   UNL A   1      43.746  24.050  34.639  1.00  0.00     0.134 A 
ATOM    103  F   UNL A   1      46.932  25.184  33.356  1.00  0.00    -0.206 F 
ATOM    104  C   UNL A   1      46.388  23.342  34.619  1.00  0.00     0.040 A 
ATOM    105  C   UNL A   1      44.171  22.910  35.334  1.00  0.00     0.040 A 
ATOM    106  F   UNL A   1      42.425  24.260  34.721  1.00  0.00    -0.206 F 
ATOM    107  C   UNL A   1      45.501  22.547  35.325  1.00  0.00     0.006 A 
ENDBRANCH  83 100
ENDBRANCH  57  58
ENDBRANCH  49  52
ENDBRANCH  47  48
ENDBRANCH  46  47
ENDBRANCH  45  46
ENDBRANCH  44  45
ENDBRANCH   1  44
TORSDOF 20
ENDMDL
