MODEL 1
REMARK VINA RESULT:     -11.8      0.000      0.000
REMARK SMILES Cc1cc(Cl)cc2c1O[C@H](C(F)(F)F)C(C(=O)NCCCCCCNC(=O)c1ccc(-c3c4nc(c(-c5c(F)cccc5F)c5ccc([nH]5)c(-c5c(F)cccc5F)c5nc(c(-c6c(F)cccc6F)c6ccc3[nH]6)C=C5)C=C4)cc1)=C2
REMARK SMILES IDX 22 1 21 2 20 3 19 4 18 5 16 6 17 7 15 9 1 10 2 11 3 12 8 13
REMARK SMILES IDX 4 14 7 15 9 16 5 17 6 18 82 19 10 20 11 21 12 22 13 23 14 24
REMARK SMILES IDX 23 25 24 26 25 27 26 28 27 30 28 31 29 32 81 33 30 34 80 35
REMARK SMILES IDX 31 36 32 37 33 38 74 39 34 40 79 41 73 42 75 43 35 44 78 45
REMARK SMILES IDX 72 46 71 47 36 49 62 50 45 51 61 52 46 53 49 54 60 55 76 56
REMARK SMILES IDX 47 57 48 58 59 60 77 61 50 62 37 63 38 64 43 65 39 66 40 67
REMARK SMILES IDX 42 68 44 69 41 70 63 71 64 72 69 73 65 74 66 75 68 76 70 77
REMARK SMILES IDX 67 78 51 79 52 80 57 81 53 82 54 83 56 84 58 85 55 86
REMARK H PARENT 18 8 25 29 75 48 49 59
REMARK Flexibility Score: inf
ROOT
ATOM      1  C   UNL A   1      31.657  28.666  25.892  1.00  0.00     0.002 C 
ENDROOT
BRANCH   1   2
ATOM      2  C   UNL A   1      31.704  28.290  24.404  1.00  0.00     0.002 C 
BRANCH   2   3
ATOM      3  C   UNL A   1      30.468  27.550  23.886  1.00  0.00     0.021 C 
BRANCH   3   4
ATOM      4  C   UNL A   1      30.747  26.104  23.489  1.00  0.00     0.116 C 
BRANCH   4   5
ATOM      5  N   UNL A   1      31.608  26.021  22.324  1.00  0.00    -0.352 N 
ATOM      6  C   UNL A   1      32.649  25.260  21.911  1.00  0.00     0.251 C 
ATOM      7  O   UNL A   1      33.081  25.524  20.785  1.00  0.00    -0.270 OA
ATOM      8  H   UNL A   1      31.373  26.702  21.652  1.00  0.00     0.163 HD
BRANCH   6   9
ATOM      9  C   UNL A   1      33.280  24.164  22.705  1.00  0.00     0.067 C 
ATOM     10  C   UNL A   1      36.432  21.045  25.292  1.00  0.00     0.048 C 
ATOM     11  C   UNL A   1      35.043  20.925  24.732  1.00  0.00    -0.007 A 
ATOM     12  C   UNL A   1      34.323  19.733  24.868  1.00  0.00     0.027 A 
ATOM     13  C   UNL A   1      34.461  21.984  24.021  1.00  0.00     0.131 A 
ATOM     14  C   UNL A   1      33.047  19.618  24.317  1.00  0.00     0.042 A 
ATOM     15  C   UNL A   1      33.183  21.872  23.464  1.00  0.00     0.019 A 
ATOM     16  O   UNL A   1      35.226  23.101  23.856  1.00  0.00    -0.475 OA
ATOM     17  Cl  UNL A   1      32.177  18.143  24.491  1.00  0.00    -0.084 Cl
ATOM     18  C   UNL A   1      32.472  20.679  23.616  1.00  0.00     0.032 A 
ATOM     19  C   UNL A   1      32.633  22.983  22.696  1.00  0.00     0.025 C 
ATOM     20  C   UNL A   1      34.538  24.326  23.505  1.00  0.00     0.314 C 
BRANCH  20  21
ATOM     21  C   UNL A   1      34.335  25.171  24.777  1.00  0.00     0.429 C 
ATOM     22  F   UNL A   1      34.334  26.493  24.470  1.00  0.00    -0.167 F 
ATOM     23  F   UNL A   1      33.153  24.924  25.388  1.00  0.00    -0.167 F 
ATOM     24  F   UNL A   1      35.305  24.968  25.696  1.00  0.00    -0.167 F 
ENDBRANCH  20  21
ENDBRANCH   6   9
ENDBRANCH   4   5
ENDBRANCH   3   4
ENDBRANCH   2   3
ENDBRANCH   1   2
BRANCH   1  25
ATOM     25  C   UNL A   1      32.548  27.822  26.807  1.00  0.00     0.021 C 
BRANCH  25  26
ATOM     26  C   UNL A   1      33.889  28.462  27.144  1.00  0.00     0.116 C 
BRANCH  26  27
ATOM     27  N   UNL A   1      33.735  29.849  27.550  1.00  0.00    -0.352 N 
ATOM     28  C   UNL A   1      34.596  30.648  28.249  1.00  0.00     0.251 C 
ATOM     29  H   UNL A   1      32.888  30.275  27.282  1.00  0.00     0.163 HD
ATOM     30  O   UNL A   1      34.209  31.725  28.708  1.00  0.00    -0.269 OA
BRANCH  28  31
ATOM     31  C   UNL A   1      35.991  30.218  28.461  1.00  0.00     0.039 A 
ATOM     32  C   UNL A   1      36.355  29.686  29.700  1.00  0.00     0.014 A 
ATOM     33  C   UNL A   1      36.944  30.369  27.448  1.00  0.00     0.014 A 
ATOM     34  C   UNL A   1      37.669  29.268  29.910  1.00  0.00     0.010 A 
ATOM     35  C   UNL A   1      38.234  29.887  27.635  1.00  0.00     0.010 A 
ATOM     36  C   UNL A   1      38.612  29.346  28.873  1.00  0.00    -0.014 A 
BRANCH  36  37
ATOM     37  C   UNL A   1      40.011  28.903  29.078  1.00  0.00     0.031 A 
ATOM     38  C   UNL A   1      41.005  29.833  29.714  1.00  0.00     0.074 A 
ATOM     39  C   UNL A   1      40.392  27.681  28.659  1.00  0.00     0.049 A 
ATOM     40  N   UNL A   1      42.282  29.653  29.931  1.00  0.00    -0.248 NA
ATOM     41  C   UNL A   1      40.501  31.146  30.147  1.00  0.00     0.031 C 
ATOM     42  C   UNL A   1      39.521  26.701  28.007  1.00  0.00     0.029 A 
ATOM     43  N   UNL A   1      41.611  27.056  28.718  1.00  0.00    -0.354 N 
ATOM     44  C   UNL A   1      42.732  30.827  30.522  1.00  0.00     0.074 A 
ATOM     45  C   UNL A   1      41.608  31.735  30.573  1.00  0.00     0.031 C 
ATOM     46  C   UNL A   1      40.227  25.588  27.755  1.00  0.00     0.029 A 
ATOM     47  C   UNL A   1      41.606  25.788  28.189  1.00  0.00     0.049 A 
ATOM     48  H   UNL A   1      42.414  27.475  29.104  1.00  0.00     0.167 HD
ATOM     49  C   UNL A   1      43.965  31.110  31.003  1.00  0.00     0.037 A 
ATOM     50  C   UNL A   1      42.604  24.892  28.065  1.00  0.00     0.037 A 
ATOM     51  C   UNL A   1      45.075  30.195  30.966  1.00  0.00     0.049 A 
ATOM     52  C   UNL A   1      43.973  25.246  28.573  1.00  0.00     0.074 A 
ATOM     53  C   UNL A   1      46.355  30.375  31.458  1.00  0.00     0.029 A 
ATOM     54  N   UNL A   1      45.035  28.927  30.405  1.00  0.00    -0.354 N 
ATOM     55  N   UNL A   1      44.377  26.345  29.166  1.00  0.00    -0.248 NA
ATOM     56  C   UNL A   1      45.027  24.238  28.396  1.00  0.00     0.031 C 
ATOM     57  C   UNL A   1      47.103  29.234  31.154  1.00  0.00     0.029 A 
ATOM     58  C   UNL A   1      46.275  28.322  30.519  1.00  0.00     0.049 A 
ATOM     59  H   UNL A   1      44.242  28.518  29.988  1.00  0.00     0.167 HD
ATOM     60  C   UNL A   1      45.721  26.152  29.453  1.00  0.00     0.074 A 
ATOM     61  C   UNL A   1      46.061  24.824  28.985  1.00  0.00     0.031 C 
ATOM     62  C   UNL A   1      46.596  26.999  30.048  1.00  0.00     0.037 A 
BRANCH  49  63
ATOM     63  C   UNL A   1      44.176  32.459  31.628  1.00  0.00     0.057 A 
ATOM     64  C   UNL A   1      44.588  33.563  30.870  1.00  0.00     0.134 A 
ATOM     65  C   UNL A   1      43.911  32.670  32.986  1.00  0.00     0.134 A 
ATOM     66  F   UNL A   1      44.871  33.425  29.565  1.00  0.00    -0.206 F 
ATOM     67  C   UNL A   1      44.744  34.826  31.445  1.00  0.00     0.040 A 
ATOM     68  C   UNL A   1      44.036  33.933  33.566  1.00  0.00     0.040 A 
ATOM     69  F   UNL A   1      43.510  31.657  33.768  1.00  0.00    -0.206 F 
ATOM     70  C   UNL A   1      44.457  35.015  32.795  1.00  0.00     0.006 A 
ENDBRANCH  49  63
BRANCH  50  71
ATOM     71  C   UNL A   1      42.331  23.562  27.463  1.00  0.00     0.057 A 
ATOM     72  C   UNL A   1      42.393  23.375  26.077  1.00  0.00     0.134 A 
ATOM     73  C   UNL A   1      42.018  22.449  28.251  1.00  0.00     0.134 A 
ATOM     74  F   UNL A   1      42.670  24.408  25.269  1.00  0.00    -0.206 F 
ATOM     75  C   UNL A   1      42.145  22.131  25.495  1.00  0.00     0.040 A 
ATOM     76  C   UNL A   1      41.792  21.193  27.685  1.00  0.00     0.040 A 
ATOM     77  F   UNL A   1      41.950  22.560  29.585  1.00  0.00    -0.206 F 
ATOM     78  C   UNL A   1      41.850  21.033  26.302  1.00  0.00     0.006 A 
ENDBRANCH  50  71
BRANCH  62  79
ATOM     79  C   UNL A   1      48.004  26.515  30.245  1.00  0.00     0.057 A 
ATOM     80  C   UNL A   1      48.393  25.838  31.407  1.00  0.00     0.134 A 
ATOM     81  C   UNL A   1      48.960  26.667  29.232  1.00  0.00     0.134 A 
ATOM     82  F   UNL A   1      47.529  25.671  32.419  1.00  0.00    -0.206 F 
ATOM     83  C   UNL A   1      49.689  25.344  31.562  1.00  0.00     0.040 A 
ATOM     84  C   UNL A   1      50.250  26.150  29.363  1.00  0.00     0.040 A 
ATOM     85  F   UNL A   1      48.648  27.294  28.088  1.00  0.00    -0.206 F 
ATOM     86  C   UNL A   1      50.618  25.490  30.534  1.00  0.00     0.006 A 
ENDBRANCH  62  79
ENDBRANCH  36  37
ENDBRANCH  28  31
ENDBRANCH  26  27
ENDBRANCH  25  26
ENDBRANCH   1  25
TORSDOF 14
ENDMDL
MODEL 2
REMARK VINA RESULT:     -11.7      3.177      7.949
REMARK SMILES Cc1cc(Cl)cc2c1O[C@H](C(F)(F)F)C(C(=O)NCCCCCCNC(=O)c1ccc(-c3c4nc(c(-c5c(F)cccc5F)c5ccc([nH]5)c(-c5c(F)cccc5F)c5nc(c(-c6c(F)cccc6F)c6ccc3[nH]6)C=C5)C=C4)cc1)=C2
REMARK SMILES IDX 22 1 21 2 20 3 19 4 18 5 16 6 17 7 15 9 1 10 2 11 3 12 8 13
REMARK SMILES IDX 4 14 7 15 9 16 5 17 6 18 82 19 10 20 11 21 12 22 13 23 14 24
REMARK SMILES IDX 23 25 24 26 25 27 26 28 27 30 28 31 29 32 81 33 30 34 80 35
REMARK SMILES IDX 31 36 32 37 33 38 74 39 34 40 79 41 73 42 75 43 35 44 78 45
REMARK SMILES IDX 72 46 71 47 36 49 62 50 45 51 61 52 46 53 49 54 60 55 76 56
REMARK SMILES IDX 47 57 48 58 59 60 77 61 50 62 37 63 38 64 43 65 39 66 40 67
REMARK SMILES IDX 42 68 44 69 41 70 63 71 64 72 69 73 65 74 66 75 68 76 70 77
REMARK SMILES IDX 67 78 51 79 52 80 57 81 53 82 54 83 56 84 58 85 55 86
REMARK H PARENT 18 8 25 29 75 48 49 59
REMARK Flexibility Score: inf
ROOT
ATOM      1  C   UNL A   1      35.857  22.448  23.858  1.00  0.00     0.002 C 
ENDROOT
BRANCH   1   2
ATOM      2  C   UNL A   1      34.383  22.699  23.505  1.00  0.00     0.002 C 
BRANCH   2   3
ATOM      3  C   UNL A   1      33.373  22.018  24.431  1.00  0.00     0.021 C 
BRANCH   3   4
ATOM      4  C   UNL A   1      31.939  22.495  24.222  1.00  0.00     0.116 C 
BRANCH   4   5
ATOM      5  N   UNL A   1      31.246  22.691  25.482  1.00  0.00    -0.352 N 
ATOM      6  C   UNL A   1      30.797  23.736  26.216  1.00  0.00     0.251 C 
ATOM      7  O   UNL A   1      30.209  23.434  27.258  1.00  0.00    -0.270 OA
ATOM      8  H   UNL A   1      31.051  21.832  25.924  1.00  0.00     0.163 HD
BRANCH   6   9
ATOM      9  C   UNL A   1      30.964  25.175  25.853  1.00  0.00     0.067 C 
ATOM     10  C   UNL A   1      32.093  30.179  25.654  1.00  0.00     0.048 C 
ATOM     11  C   UNL A   1      31.183  29.264  24.884  1.00  0.00    -0.007 A 
ATOM     12  C   UNL A   1      30.389  29.761  23.845  1.00  0.00     0.027 A 
ATOM     13  C   UNL A   1      31.072  27.908  25.224  1.00  0.00     0.131 A 
ATOM     14  C   UNL A   1      29.522  28.912  23.157  1.00  0.00     0.042 A 
ATOM     15  C   UNL A   1      30.201  27.054  24.540  1.00  0.00     0.019 A 
ATOM     16  O   UNL A   1      31.814  27.484  26.287  1.00  0.00    -0.475 OA
ATOM     17  Cl  UNL A   1      28.550  29.542  21.884  1.00  0.00    -0.084 Cl
ATOM     18  C   UNL A   1      29.423  27.563  23.498  1.00  0.00     0.032 A 
ATOM     19  C   UNL A   1      30.088  25.660  24.954  1.00  0.00     0.025 C 
ATOM     20  C   UNL A   1      32.043  26.059  26.405  1.00  0.00     0.314 C 
BRANCH  20  21
ATOM     21  C   UNL A   1      33.437  25.724  25.843  1.00  0.00     0.429 C 
ATOM     22  F   UNL A   1      34.304  26.738  26.094  1.00  0.00    -0.167 F 
ATOM     23  F   UNL A   1      33.977  24.617  26.404  1.00  0.00    -0.167 F 
ATOM     24  F   UNL A   1      33.424  25.524  24.506  1.00  0.00    -0.167 F 
ENDBRANCH  20  21
ENDBRANCH   6   9
ENDBRANCH   4   5
ENDBRANCH   3   4
ENDBRANCH   2   3
ENDBRANCH   1   2
BRANCH   1  25
ATOM     25  C   UNL A   1      36.555  23.595  24.595  1.00  0.00     0.021 C 
BRANCH  25  26
ATOM     26  C   UNL A   1      36.921  23.283  26.041  1.00  0.00     0.116 C 
BRANCH  26  27
ATOM     27  N   UNL A   1      38.057  22.382  26.125  1.00  0.00    -0.352 N 
ATOM     28  C   UNL A   1      39.375  22.668  26.356  1.00  0.00     0.251 C 
ATOM     29  H   UNL A   1      37.849  21.428  25.997  1.00  0.00     0.163 HD
ATOM     30  O   UNL A   1      40.238  21.810  26.163  1.00  0.00    -0.269 OA
BRANCH  28  31
ATOM     31  C   UNL A   1      39.763  24.008  26.833  1.00  0.00     0.039 A 
ATOM     32  C   UNL A   1      39.732  24.274  28.204  1.00  0.00     0.014 A 
ATOM     33  C   UNL A   1      40.128  25.009  25.926  1.00  0.00     0.014 A 
ATOM     34  C   UNL A   1      40.105  25.535  28.669  1.00  0.00     0.010 A 
ATOM     35  C   UNL A   1      40.567  26.241  26.396  1.00  0.00     0.010 A 
ATOM     36  C   UNL A   1      40.545  26.520  27.770  1.00  0.00    -0.014 A 
BRANCH  36  37
ATOM     37  C   UNL A   1      40.948  27.864  28.248  1.00  0.00     0.031 A 
ATOM     38  C   UNL A   1      42.403  28.238  28.290  1.00  0.00     0.074 A 
ATOM     39  C   UNL A   1      40.009  28.730  28.674  1.00  0.00     0.049 A 
ATOM     40  N   UNL A   1      42.960  29.339  28.722  1.00  0.00    -0.248 NA
ATOM     41  C   UNL A   1      43.360  27.233  27.799  1.00  0.00     0.031 C 
ATOM     42  C   UNL A   1      38.569  28.470  28.702  1.00  0.00     0.029 A 
ATOM     43  N   UNL A   1      40.128  30.004  29.169  1.00  0.00    -0.354 N 
ATOM     44  C   UNL A   1      44.328  29.159  28.557  1.00  0.00     0.074 A 
ATOM     45  C   UNL A   1      44.522  27.821  28.044  1.00  0.00     0.031 C 
ATOM     46  C   UNL A   1      37.936  29.562  29.158  1.00  0.00     0.029 A 
ATOM     47  C   UNL A   1      38.924  30.582  29.493  1.00  0.00     0.049 A 
ATOM     48  H   UNL A   1      40.992  30.461  29.279  1.00  0.00     0.167 HD
ATOM     49  C   UNL A   1      45.328  30.040  28.787  1.00  0.00     0.037 A 
ATOM     50  C   UNL A   1      38.652  31.797  30.007  1.00  0.00     0.037 A 
ATOM     51  C   UNL A   1      45.128  31.377  29.280  1.00  0.00     0.049 A 
ATOM     52  C   UNL A   1      39.785  32.743  30.289  1.00  0.00     0.074 A 
ATOM     53  C   UNL A   1      46.074  32.359  29.513  1.00  0.00     0.029 A 
ATOM     54  N   UNL A   1      43.895  31.919  29.615  1.00  0.00    -0.354 N 
ATOM     55  N   UNL A   1      41.071  32.575  30.091  1.00  0.00    -0.248 NA
ATOM     56  C   UNL A   1      39.432  34.047  30.865  1.00  0.00     0.031 C 
ATOM     57  C   UNL A   1      45.420  33.479  30.033  1.00  0.00     0.029 A 
ATOM     58  C   UNL A   1      44.060  33.215  30.074  1.00  0.00     0.049 A 
ATOM     59  H   UNL A   1      43.032  31.452  29.537  1.00  0.00     0.167 HD
ATOM     60  C   UNL A   1      41.677  33.758  30.496  1.00  0.00     0.074 A 
ATOM     61  C   UNL A   1      40.616  34.641  30.934  1.00  0.00     0.031 C 
ATOM     62  C   UNL A   1      42.993  34.081  30.506  1.00  0.00     0.037 A 
BRANCH  49  63
ATOM     63  C   UNL A   1      46.731  29.595  28.491  1.00  0.00     0.057 A 
ATOM     64  C   UNL A   1      47.314  29.789  27.232  1.00  0.00     0.134 A 
ATOM     65  C   UNL A   1      47.526  29.019  29.490  1.00  0.00     0.134 A 
ATOM     66  F   UNL A   1      46.602  30.324  26.228  1.00  0.00    -0.206 F 
ATOM     67  C   UNL A   1      48.633  29.412  26.972  1.00  0.00     0.040 A 
ATOM     68  C   UNL A   1      48.854  28.663  29.249  1.00  0.00     0.040 A 
ATOM     69  F   UNL A   1      47.032  28.807  30.718  1.00  0.00    -0.206 F 
ATOM     70  C   UNL A   1      49.410  28.857  27.986  1.00  0.00     0.006 A 
ENDBRANCH  49  63
BRANCH  50  71
ATOM     71  C   UNL A   1      37.243  32.195  30.254  1.00  0.00     0.057 A 
ATOM     72  C   UNL A   1      36.607  31.874  31.459  1.00  0.00     0.134 A 
ATOM     73  C   UNL A   1      36.505  32.913  29.307  1.00  0.00     0.134 A 
ATOM     74  F   UNL A   1      37.257  31.172  32.399  1.00  0.00    -0.206 F 
ATOM     75  C   UNL A   1      35.285  32.245  31.711  1.00  0.00     0.040 A 
ATOM     76  C   UNL A   1      35.190  33.312  29.554  1.00  0.00     0.040 A 
ATOM     77  F   UNL A   1      37.058  33.256  28.135  1.00  0.00    -0.206 F 
ATOM     78  C   UNL A   1      34.575  32.973  30.757  1.00  0.00     0.006 A 
ENDBRANCH  50  71
BRANCH  62  79
ATOM     79  C   UNL A   1      43.365  35.453  30.989  1.00  0.00     0.057 A 
ATOM     80  C   UNL A   1      43.605  35.716  32.343  1.00  0.00     0.134 A 
ATOM     81  C   UNL A   1      43.554  36.504  30.082  1.00  0.00     0.134 A 
ATOM     82  F   UNL A   1      43.432  34.755  33.263  1.00  0.00    -0.206 F 
ATOM     83  C   UNL A   1      44.003  36.980  32.780  1.00  0.00     0.040 A 
ATOM     84  C   UNL A   1      43.980  37.764  30.503  1.00  0.00     0.040 A 
ATOM     85  F   UNL A   1      43.353  36.316  28.769  1.00  0.00    -0.206 F 
ATOM     86  C   UNL A   1      44.201  38.005  31.858  1.00  0.00     0.006 A 
ENDBRANCH  62  79
ENDBRANCH  36  37
ENDBRANCH  28  31
ENDBRANCH  26  27
ENDBRANCH  25  26
ENDBRANCH   1  25
TORSDOF 14
ENDMDL
MODEL 3
REMARK VINA RESULT:     -11.7      1.593      2.115
REMARK SMILES Cc1cc(Cl)cc2c1O[C@H](C(F)(F)F)C(C(=O)NCCCCCCNC(=O)c1ccc(-c3c4nc(c(-c5c(F)cccc5F)c5ccc([nH]5)c(-c5c(F)cccc5F)c5nc(c(-c6c(F)cccc6F)c6ccc3[nH]6)C=C5)C=C4)cc1)=C2
REMARK SMILES IDX 22 1 21 2 20 3 19 4 18 5 16 6 17 7 15 9 1 10 2 11 3 12 8 13
REMARK SMILES IDX 4 14 7 15 9 16 5 17 6 18 82 19 10 20 11 21 12 22 13 23 14 24
REMARK SMILES IDX 23 25 24 26 25 27 26 28 27 30 28 31 29 32 81 33 30 34 80 35
REMARK SMILES IDX 31 36 32 37 33 38 74 39 34 40 79 41 73 42 75 43 35 44 78 45
REMARK SMILES IDX 72 46 71 47 36 49 62 50 45 51 61 52 46 53 49 54 60 55 76 56
REMARK SMILES IDX 47 57 48 58 59 60 77 61 50 62 37 63 38 64 43 65 39 66 40 67
REMARK SMILES IDX 42 68 44 69 41 70 63 71 64 72 69 73 65 74 66 75 68 76 70 77
REMARK SMILES IDX 67 78 51 79 52 80 57 81 53 82 54 83 56 84 58 85 55 86
REMARK H PARENT 18 8 25 29 75 48 49 59
REMARK Flexibility Score: inf
ROOT
ATOM      1  C   UNL A   1      33.002  29.483  25.025  1.00  0.00     0.002 C 
ENDROOT
BRANCH   1   2
ATOM      2  C   UNL A   1      31.538  29.175  24.677  1.00  0.00     0.002 C 
BRANCH   2   3
ATOM      3  C   UNL A   1      31.328  28.468  23.337  1.00  0.00     0.021 C 
BRANCH   3   4
ATOM      4  C   UNL A   1      31.222  26.951  23.460  1.00  0.00     0.116 C 
BRANCH   4   5
ATOM      5  N   UNL A   1      30.738  26.548  24.767  1.00  0.00    -0.352 N 
ATOM      6  C   UNL A   1      30.993  25.561  25.659  1.00  0.00     0.251 C 
ATOM      7  O   UNL A   1      30.342  25.618  26.707  1.00  0.00    -0.270 OA
ATOM      8  H   UNL A   1      30.034  27.154  25.094  1.00  0.00     0.163 HD
BRANCH   6   9
ATOM      9  C   UNL A   1      31.975  24.454  25.459  1.00  0.00     0.067 C 
ATOM     10  C   UNL A   1      34.377  19.967  24.789  1.00  0.00     0.048 C 
ATOM     11  C   UNL A   1      34.810  21.362  25.143  1.00  0.00    -0.007 A 
ATOM     12  C   UNL A   1      36.159  21.647  25.383  1.00  0.00     0.027 A 
ATOM     13  C   UNL A   1      33.870  22.391  25.290  1.00  0.00     0.131 A 
ATOM     14  C   UNL A   1      36.550  22.937  25.744  1.00  0.00     0.042 A 
ATOM     15  C   UNL A   1      34.257  23.685  25.655  1.00  0.00     0.019 A 
ATOM     16  O   UNL A   1      32.562  22.050  25.113  1.00  0.00    -0.475 OA
ATOM     17  Cl  UNL A   1      38.212  23.269  26.039  1.00  0.00    -0.084 Cl
ATOM     18  C   UNL A   1      35.608  23.957  25.881  1.00  0.00     0.032 A 
ATOM     19  C   UNL A   1      33.240  24.714  25.837  1.00  0.00     0.025 C 
ATOM     20  C   UNL A   1      31.629  23.127  24.851  1.00  0.00     0.314 C 
BRANCH  20  21
ATOM     21  C   UNL A   1      31.370  23.212  23.336  1.00  0.00     0.429 C 
ATOM     22  F   UNL A   1      32.282  24.025  22.745  1.00  0.00    -0.167 F 
ATOM     23  F   UNL A   1      31.477  22.013  22.717  1.00  0.00    -0.167 F 
ATOM     24  F   UNL A   1      30.143  23.699  23.044  1.00  0.00    -0.167 F 
ENDBRANCH  20  21
ENDBRANCH   6   9
ENDBRANCH   4   5
ENDBRANCH   3   4
ENDBRANCH   2   3
ENDBRANCH   1   2
BRANCH   1  25
ATOM     25  C   UNL A   1      33.763  28.346  25.712  1.00  0.00     0.021 C 
BRANCH  25  26
ATOM     26  C   UNL A   1      33.884  28.494  27.224  1.00  0.00     0.116 C 
BRANCH  26  27
ATOM     27  N   UNL A   1      33.764  29.881  27.639  1.00  0.00    -0.352 N 
ATOM     28  C   UNL A   1      34.651  30.659  28.331  1.00  0.00     0.251 C 
ATOM     29  H   UNL A   1      32.923  30.326  27.384  1.00  0.00     0.163 HD
ATOM     30  O   UNL A   1      34.292  31.740  28.800  1.00  0.00    -0.269 OA
BRANCH  28  31
ATOM     31  C   UNL A   1      36.039  30.199  28.521  1.00  0.00     0.039 A 
ATOM     32  C   UNL A   1      36.937  30.295  27.456  1.00  0.00     0.014 A 
ATOM     33  C   UNL A   1      36.444  29.644  29.740  1.00  0.00     0.014 A 
ATOM     34  C   UNL A   1      38.255  29.871  27.626  1.00  0.00     0.010 A 
ATOM     35  C   UNL A   1      37.775  29.288  29.929  1.00  0.00     0.010 A 
ATOM     36  C   UNL A   1      38.688  29.384  28.869  1.00  0.00    -0.014 A 
BRANCH  36  37
ATOM     37  C   UNL A   1      40.085  28.933  29.068  1.00  0.00     0.031 A 
ATOM     38  C   UNL A   1      41.089  29.859  29.695  1.00  0.00     0.074 A 
ATOM     39  C   UNL A   1      40.455  27.706  28.652  1.00  0.00     0.049 A 
ATOM     40  N   UNL A   1      42.366  29.672  29.905  1.00  0.00    -0.248 NA
ATOM     41  C   UNL A   1      40.596  31.177  30.124  1.00  0.00     0.031 C 
ATOM     42  C   UNL A   1      39.575  26.730  28.010  1.00  0.00     0.029 A 
ATOM     43  N   UNL A   1      41.671  27.074  28.707  1.00  0.00    -0.354 N 
ATOM     44  C   UNL A   1      42.827  30.845  30.488  1.00  0.00     0.074 A 
ATOM     45  C   UNL A   1      41.710  31.761  30.542  1.00  0.00     0.031 C 
ATOM     46  C   UNL A   1      40.271  25.610  27.759  1.00  0.00     0.029 A 
ATOM     47  C   UNL A   1      41.655  25.804  28.184  1.00  0.00     0.049 A 
ATOM     48  H   UNL A   1      42.478  27.489  29.086  1.00  0.00     0.167 HD
ATOM     49  C   UNL A   1      44.064  31.122  30.961  1.00  0.00     0.037 A 
ATOM     50  C   UNL A   1      42.645  24.900  28.058  1.00  0.00     0.037 A 
ATOM     51  C   UNL A   1      45.168  30.199  30.921  1.00  0.00     0.049 A 
ATOM     52  C   UNL A   1      44.020  25.248  28.556  1.00  0.00     0.074 A 
ATOM     53  C   UNL A   1      46.452  30.373  31.406  1.00  0.00     0.029 A 
ATOM     54  N   UNL A   1      45.116  28.929  30.366  1.00  0.00    -0.354 N 
ATOM     55  N   UNL A   1      44.434  26.346  29.142  1.00  0.00    -0.248 NA
ATOM     56  C   UNL A   1      45.066  24.232  28.378  1.00  0.00     0.031 C 
ATOM     57  C   UNL A   1      47.191  29.226  31.102  1.00  0.00     0.029 A 
ATOM     58  C   UNL A   1      46.354  28.316  30.476  1.00  0.00     0.049 A 
ATOM     59  H   UNL A   1      44.318  28.524  29.955  1.00  0.00     0.167 HD
ATOM     60  C   UNL A   1      45.779  26.145  29.422  1.00  0.00     0.074 A 
ATOM     61  C   UNL A   1      46.108  24.814  28.958  1.00  0.00     0.031 C 
ATOM     62  C   UNL A   1      46.663  26.989  30.009  1.00  0.00     0.037 A 
BRANCH  49  63
ATOM     63  C   UNL A   1      44.288  32.472  31.578  1.00  0.00     0.057 A 
ATOM     64  C   UNL A   1      44.694  33.572  30.812  1.00  0.00     0.134 A 
ATOM     65  C   UNL A   1      44.041  32.688  32.939  1.00  0.00     0.134 A 
ATOM     66  F   UNL A   1      44.961  33.430  29.504  1.00  0.00    -0.206 F 
ATOM     67  C   UNL A   1      44.861  34.836  31.380  1.00  0.00     0.040 A 
ATOM     68  C   UNL A   1      44.178  33.953  33.513  1.00  0.00     0.040 A 
ATOM     69  F   UNL A   1      43.646  31.680  33.730  1.00  0.00    -0.206 F 
ATOM     70  C   UNL A   1      44.592  35.031  32.733  1.00  0.00     0.006 A 
ENDBRANCH  49  63
BRANCH  50  71
ATOM     71  C   UNL A   1      42.361  23.570  27.463  1.00  0.00     0.057 A 
ATOM     72  C   UNL A   1      42.411  23.376  26.078  1.00  0.00     0.134 A 
ATOM     73  C   UNL A   1      42.046  22.462  28.258  1.00  0.00     0.134 A 
ATOM     74  F   UNL A   1      42.689  24.405  25.263  1.00  0.00    -0.206 F 
ATOM     75  C   UNL A   1      42.152  22.131  25.503  1.00  0.00     0.040 A 
ATOM     76  C   UNL A   1      41.809  21.205  27.699  1.00  0.00     0.040 A 
ATOM     77  F   UNL A   1      41.988  22.579  29.592  1.00  0.00    -0.206 F 
ATOM     78  C   UNL A   1      41.856  21.039  26.316  1.00  0.00     0.006 A 
ENDBRANCH  50  71
BRANCH  62  79
ATOM     79  C   UNL A   1      48.068  26.497  30.200  1.00  0.00     0.057 A 
ATOM     80  C   UNL A   1      48.459  25.819  31.361  1.00  0.00     0.134 A 
ATOM     81  C   UNL A   1      49.021  26.642  29.182  1.00  0.00     0.134 A 
ATOM     82  F   UNL A   1      47.598  25.658  32.377  1.00  0.00    -0.206 F 
ATOM     83  C   UNL A   1      49.753  25.316  31.510  1.00  0.00     0.040 A 
ATOM     84  C   UNL A   1      50.308  26.117  29.308  1.00  0.00     0.040 A 
ATOM     85  F   UNL A   1      48.708  27.270  28.040  1.00  0.00    -0.206 F 
ATOM     86  C   UNL A   1      50.678  25.457  30.478  1.00  0.00     0.006 A 
ENDBRANCH  62  79
ENDBRANCH  36  37
ENDBRANCH  28  31
ENDBRANCH  26  27
ENDBRANCH  25  26
ENDBRANCH   1  25
TORSDOF 14
ENDMDL
