MODEL 1
REMARK VINA RESULT:     -12.2      0.000      0.000
REMARK SMILES O=C(NCCCCCCNC(=O)[C@H]1CN(S(=O)(=O)c2ccc(Cl)nc2)c2ccccc21)c1ccc(-c2c3nc(c(-c4c(F)cccc4F)c4ccc([nH]4)c(-c4c(F)cccc4F)c4nc(c(-c5c(F)cccc5F)c5ccc2[nH]5)C=C4)C=C3)cc1
REMARK SMILES IDX 6 1 5 2 4 3 3 4 1 5 2 6 32 8 33 9 85 10 34 11 84 12 35 13
REMARK SMILES IDX 36 14 37 15 78 16 38 17 83 18 77 19 79 20 39 21 82 22 76 23
REMARK SMILES IDX 75 24 40 26 66 27 49 28 65 29 50 30 53 31 64 32 80 33 51 34
REMARK SMILES IDX 52 35 63 37 81 38 54 39 41 40 42 41 47 42 43 43 44 44 46 45
REMARK SMILES IDX 48 46 45 47 67 48 68 49 73 50 69 51 70 52 72 53 74 54 71 55
REMARK SMILES IDX 55 56 56 57 61 58 57 59 58 60 60 61 62 62 59 63 7 64 8 65
REMARK SMILES IDX 9 66 10 67 11 68 12 70 13 71 14 72 31 73 15 74 26 75 30 76
REMARK SMILES IDX 27 77 29 78 28 79 16 80 17 81 18 82 19 83 20 84 25 85 21 86
REMARK SMILES IDX 24 87 22 88 23 89
REMARK H PARENT 3 7 79 25 53 36 10 69
REMARK Flexibility Score: inf
ROOT
ATOM      1  C   UNL A   1      34.048  33.365  29.056  1.00  0.00     0.002 C 
ENDROOT
BRANCH   1   2
ATOM      2  C   UNL A   1      33.016  34.460  28.805  1.00  0.00     0.021 C 
BRANCH   2   3
ATOM      3  C   UNL A   1      33.412  35.820  29.355  1.00  0.00     0.116 C 
BRANCH   3   4
ATOM      4  N   UNL A   1      32.529  36.276  30.418  1.00  0.00    -0.352 N 
ATOM      5  O   UNL A   1      31.654  36.294  32.506  1.00  0.00    -0.269 OA
ATOM      6  C   UNL A   1      32.560  35.953  31.755  1.00  0.00     0.251 C 
ATOM      7  H   UNL A   1      31.816  36.898  30.145  1.00  0.00     0.163 HD
BRANCH   6   8
ATOM      8  C   UNL A   1      33.697  35.161  32.269  1.00  0.00     0.039 A 
ATOM      9  C   UNL A   1      34.983  35.700  32.240  1.00  0.00     0.014 A 
ATOM     10  C   UNL A   1      33.488  33.860  32.734  1.00  0.00     0.014 A 
ATOM     11  C   UNL A   1      36.072  34.884  32.498  1.00  0.00     0.010 A 
ATOM     12  C   UNL A   1      34.583  33.079  33.120  1.00  0.00     0.010 A 
ATOM     13  C   UNL A   1      35.888  33.576  32.978  1.00  0.00    -0.014 A 
BRANCH  13  14
ATOM     14  C   UNL A   1      37.087  32.815  33.410  1.00  0.00     0.031 A 
ATOM     15  C   UNL A   1      37.743  31.790  32.529  1.00  0.00     0.074 A 
ATOM     16  C   UNL A   1      37.624  33.124  34.608  1.00  0.00     0.049 A 
ATOM     17  N   UNL A   1      38.836  31.102  32.747  1.00  0.00    -0.248 NA
ATOM     18  C   UNL A   1      37.094  31.489  31.243  1.00  0.00     0.031 C 
ATOM     19  C   UNL A   1      37.058  34.087  35.559  1.00  0.00     0.029 A 
ATOM     20  N   UNL A   1      38.774  32.697  35.219  1.00  0.00    -0.354 N 
ATOM     21  C   UNL A   1      39.006  30.286  31.637  1.00  0.00     0.074 A 
ATOM     22  C   UNL A   1      37.882  30.537  30.758  1.00  0.00     0.031 C 
ATOM     23  C   UNL A   1      37.894  34.229  36.594  1.00  0.00     0.029 A 
ATOM     24  C   UNL A   1      39.008  33.308  36.427  1.00  0.00     0.049 A 
ATOM     25  H   UNL A   1      39.373  32.021  34.830  1.00  0.00     0.167 HD
ATOM     26  C   UNL A   1      40.011  29.416  31.373  1.00  0.00     0.037 A 
ATOM     27  C   UNL A   1      39.997  33.130  37.321  1.00  0.00     0.037 A 
ATOM     28  C   UNL A   1      41.125  29.170  32.257  1.00  0.00     0.049 A 
ATOM     29  C   UNL A   1      41.076  32.137  37.011  1.00  0.00     0.074 A 
ATOM     30  C   UNL A   1      42.199  28.315  32.075  1.00  0.00     0.029 A 
ATOM     31  N   UNL A   1      41.308  29.777  33.492  1.00  0.00    -0.354 N 
ATOM     32  N   UNL A   1      41.235  31.395  35.942  1.00  0.00    -0.248 NA
ATOM     33  C   UNL A   1      42.114  31.955  38.033  1.00  0.00     0.031 C 
ATOM     34  C   UNL A   1      43.003  28.368  33.218  1.00  0.00     0.029 A 
ATOM     35  C   UNL A   1      42.465  29.300  34.089  1.00  0.00     0.049 A 
ATOM     36  H   UNL A   1      40.703  30.448  33.886  1.00  0.00     0.167 HD
ATOM     37  C   UNL A   1      42.396  30.666  36.157  1.00  0.00     0.074 A 
ATOM     38  C   UNL A   1      42.920  31.087  37.441  1.00  0.00     0.031 C 
ATOM     39  C   UNL A   1      42.970  29.724  35.370  1.00  0.00     0.037 A 
BRANCH  26  40
ATOM     40  C   UNL A   1      39.961  28.655  30.078  1.00  0.00     0.057 A 
ATOM     41  C   UNL A   1      39.226  27.469  29.946  1.00  0.00     0.134 A 
ATOM     42  C   UNL A   1      40.590  29.152  28.928  1.00  0.00     0.134 A 
ATOM     43  F   UNL A   1      38.606  26.933  31.009  1.00  0.00    -0.206 F 
ATOM     44  C   UNL A   1      39.128  26.801  28.723  1.00  0.00     0.040 A 
ATOM     45  C   UNL A   1      40.479  28.507  27.695  1.00  0.00     0.040 A 
ATOM     46  F   UNL A   1      41.303  30.287  28.979  1.00  0.00    -0.206 F 
ATOM     47  C   UNL A   1      39.748  27.324  27.591  1.00  0.00     0.006 A 
ENDBRANCH  26  40
BRANCH  27  48
ATOM     48  C   UNL A   1      39.987  33.881  38.602  1.00  0.00     0.057 A 
ATOM     49  C   UNL A   1      39.236  33.448  39.699  1.00  0.00     0.134 A 
ATOM     50  C   UNL A   1      40.719  35.067  38.750  1.00  0.00     0.134 A 
ATOM     51  F   UNL A   1      38.504  32.327  39.617  1.00  0.00    -0.206 F 
ATOM     52  C   UNL A   1      39.188  34.180  40.886  1.00  0.00     0.040 A 
ATOM     53  C   UNL A   1      40.711  35.789  39.942  1.00  0.00     0.040 A 
ATOM     54  F   UNL A   1      41.470  35.531  37.740  1.00  0.00    -0.206 F 
ATOM     55  C   UNL A   1      39.932  35.352  41.011  1.00  0.00     0.006 A 
ENDBRANCH  27  48
BRANCH  39  56
ATOM     56  C   UNL A   1      44.243  29.111  35.876  1.00  0.00     0.057 A 
ATOM     57  C   UNL A   1      44.246  27.953  36.666  1.00  0.00     0.134 A 
ATOM     58  C   UNL A   1      45.482  29.694  35.581  1.00  0.00     0.134 A 
ATOM     59  F   UNL A   1      43.091  27.356  37.000  1.00  0.00    -0.206 F 
ATOM     60  C   UNL A   1      45.430  27.422  37.178  1.00  0.00     0.040 A 
ATOM     61  C   UNL A   1      46.676  29.151  36.058  1.00  0.00     0.040 A 
ATOM     62  F   UNL A   1      45.553  30.798  34.823  1.00  0.00    -0.206 F 
ATOM     63  C   UNL A   1      46.651  28.020  36.871  1.00  0.00     0.006 A 
ENDBRANCH  39  56
ENDBRANCH  13  14
ENDBRANCH   6   8
ENDBRANCH   3   4
ENDBRANCH   2   3
ENDBRANCH   1   2
BRANCH   1  64
ATOM     64  C   UNL A   1      34.488  32.605  27.801  1.00  0.00     0.002 C 
BRANCH  64  65
ATOM     65  C   UNL A   1      34.543  31.077  27.953  1.00  0.00     0.021 C 
BRANCH  65  66
ATOM     66  C   UNL A   1      33.650  30.329  26.965  1.00  0.00     0.116 C 
BRANCH  66  67
ATOM     67  N   UNL A   1      32.779  29.413  27.674  1.00  0.00    -0.356 N 
ATOM     68  C   UNL A   1      32.099  28.327  27.209  1.00  0.00     0.229 C 
ATOM     69  H   UNL A   1      32.662  29.603  28.632  1.00  0.00     0.163 HD
ATOM     70  O   UNL A   1      31.253  27.825  27.948  1.00  0.00    -0.274 OA
BRANCH  68  71
ATOM     71  C   UNL A   1      32.471  27.775  25.847  1.00  0.00     0.131 C 
ATOM     72  C   UNL A   1      32.372  26.246  25.927  1.00  0.00     0.154 C 
ATOM     73  C   UNL A   1      31.478  28.089  24.769  1.00  0.00    -0.009 A 
ATOM     74  N   UNL A   1      31.029  25.875  25.332  1.00  0.00    -0.265 N 
ATOM     75  C   UNL A   1      30.651  26.994  24.512  1.00  0.00     0.056 A 
ATOM     76  C   UNL A   1      31.283  29.324  24.161  1.00  0.00     0.007 A 
ATOM     77  C   UNL A   1      29.516  27.178  23.743  1.00  0.00     0.027 A 
ATOM     78  C   UNL A   1      30.195  29.474  23.307  1.00  0.00     0.000 A 
ATOM     79  C   UNL A   1      29.306  28.413  23.115  1.00  0.00     0.002 A 
BRANCH  74  80
ATOM     80  S   UNL A   1      31.026  24.265  24.787  1.00  0.00     0.265 S 
ATOM     81  O   UNL A   1      30.660  23.417  25.908  1.00  0.00    -0.201 OA
ATOM     82  O   UNL A   1      30.231  24.230  23.578  1.00  0.00    -0.201 OA
BRANCH  80  83
ATOM     83  C   UNL A   1      32.670  23.854  24.347  1.00  0.00     0.106 A 
ATOM     84  C   UNL A   1      33.434  23.032  25.179  1.00  0.00     0.027 A 
ATOM     85  C   UNL A   1      33.209  24.297  23.154  1.00  0.00     0.135 A 
ATOM     86  C   UNL A   1      34.744  22.741  24.820  1.00  0.00     0.042 A 
ATOM     87  N   UNL A   1      34.483  24.020  22.779  1.00  0.00    -0.243 NA
ATOM     88  C   UNL A   1      35.215  23.259  23.623  1.00  0.00     0.129 A 
ATOM     89  Cl  UNL A   1      36.830  22.975  23.126  1.00  0.00    -0.062 Cl
ENDBRANCH  80  83
ENDBRANCH  74  80
ENDBRANCH  68  71
ENDBRANCH  66  67
ENDBRANCH  65  66
ENDBRANCH  64  65
ENDBRANCH   1  64
TORSDOF 15
ENDMDL
MODEL 2
REMARK VINA RESULT:     -12.0      0.762      6.157
REMARK SMILES O=C(NCCCCCCNC(=O)[C@H]1CN(S(=O)(=O)c2ccc(Cl)nc2)c2ccccc21)c1ccc(-c2c3nc(c(-c4c(F)cccc4F)c4ccc([nH]4)c(-c4c(F)cccc4F)c4nc(c(-c5c(F)cccc5F)c5ccc2[nH]5)C=C4)C=C3)cc1
REMARK SMILES IDX 6 1 5 2 4 3 3 4 1 5 2 6 32 8 33 9 85 10 34 11 84 12 35 13
REMARK SMILES IDX 36 14 37 15 78 16 38 17 83 18 77 19 79 20 39 21 82 22 76 23
REMARK SMILES IDX 75 24 40 26 66 27 49 28 65 29 50 30 53 31 64 32 80 33 51 34
REMARK SMILES IDX 52 35 63 37 81 38 54 39 41 40 42 41 47 42 43 43 44 44 46 45
REMARK SMILES IDX 48 46 45 47 67 48 68 49 73 50 69 51 70 52 72 53 74 54 71 55
REMARK SMILES IDX 55 56 56 57 61 58 57 59 58 60 60 61 62 62 59 63 7 64 8 65
REMARK SMILES IDX 9 66 10 67 11 68 12 70 13 71 14 72 31 73 15 74 26 75 30 76
REMARK SMILES IDX 27 77 29 78 28 79 16 80 17 81 18 82 19 83 20 84 25 85 21 86
REMARK SMILES IDX 24 87 22 88 23 89
REMARK H PARENT 3 7 79 25 53 36 10 69
REMARK Flexibility Score: inf
ROOT
ATOM      1  C   UNL A   1      34.514  33.440  28.479  1.00  0.00     0.002 C 
ENDROOT
BRANCH   1   2
ATOM      2  C   UNL A   1      33.268  34.309  28.626  1.00  0.00     0.021 C 
BRANCH   2   3
ATOM      3  C   UNL A   1      33.538  35.678  29.226  1.00  0.00     0.116 C 
BRANCH   3   4
ATOM      4  N   UNL A   1      32.638  35.999  30.323  1.00  0.00    -0.352 N 
ATOM      5  O   UNL A   1      31.802  35.832  32.420  1.00  0.00    -0.269 OA
ATOM      6  C   UNL A   1      32.721  35.611  31.640  1.00  0.00     0.251 C 
ATOM      7  H   UNL A   1      31.869  36.569  30.093  1.00  0.00     0.163 HD
BRANCH   6   8
ATOM      8  C   UNL A   1      33.932  34.897  32.096  1.00  0.00     0.039 A 
ATOM      9  C   UNL A   1      35.125  35.599  32.266  1.00  0.00     0.014 A 
ATOM     10  C   UNL A   1      33.890  33.516  32.306  1.00  0.00     0.014 A 
ATOM     11  C   UNL A   1      36.306  34.902  32.463  1.00  0.00     0.010 A 
ATOM     12  C   UNL A   1      35.064  32.831  32.635  1.00  0.00     0.010 A 
ATOM     13  C   UNL A   1      36.288  33.515  32.689  1.00  0.00    -0.014 A 
BRANCH  13  14
ATOM     14  C   UNL A   1      37.561  32.855  33.075  1.00  0.00     0.031 A 
ATOM     15  C   UNL A   1      38.240  33.136  34.386  1.00  0.00     0.074 A 
ATOM     16  C   UNL A   1      38.063  31.927  32.235  1.00  0.00     0.049 A 
ATOM     17  N   UNL A   1      39.316  32.581  34.885  1.00  0.00    -0.248 NA
ATOM     18  C   UNL A   1      37.649  34.173  35.245  1.00  0.00     0.031 C 
ATOM     19  C   UNL A   1      37.499  31.589  30.924  1.00  0.00     0.029 A 
ATOM     20  N   UNL A   1      39.129  31.076  32.364  1.00  0.00    -0.354 N 
ATOM     21  C   UNL A   1      39.536  33.199  36.110  1.00  0.00     0.074 A 
ATOM     22  C   UNL A   1      38.500  34.200  36.264  1.00  0.00     0.031 C 
ATOM     23  C   UNL A   1      38.179  30.559  30.404  1.00  0.00     0.029 A 
ATOM     24  C   UNL A   1      39.276  30.222  31.298  1.00  0.00     0.049 A 
ATOM     25  H   UNL A   1      39.729  31.075  33.144  1.00  0.00     0.167 HD
ATOM     26  C   UNL A   1      40.505  32.946  37.022  1.00  0.00     0.037 A 
ATOM     27  C   UNL A   1      40.208  29.284  31.049  1.00  0.00     0.037 A 
ATOM     28  C   UNL A   1      41.536  31.949  36.857  1.00  0.00     0.049 A 
ATOM     29  C   UNL A   1      41.284  29.053  32.066  1.00  0.00     0.074 A 
ATOM     30  C   UNL A   1      42.558  31.612  37.729  1.00  0.00     0.029 A 
ATOM     31  N   UNL A   1      41.678  31.131  35.745  1.00  0.00    -0.354 N 
ATOM     32  N   UNL A   1      41.458  29.627  33.232  1.00  0.00    -0.248 NA
ATOM     33  C   UNL A   1      42.296  28.043  31.733  1.00  0.00     0.031 C 
ATOM     34  C   UNL A   1      43.345  30.626  37.124  1.00  0.00     0.029 A 
ATOM     35  C   UNL A   1      42.781  30.305  35.901  1.00  0.00     0.049 A 
ATOM     36  H   UNL A   1      41.083  31.136  34.960  1.00  0.00     0.167 HD
ATOM     37  C   UNL A   1      42.592  29.042  33.775  1.00  0.00     0.074 A 
ATOM     38  C   UNL A   1      43.038  28.039  32.830  1.00  0.00     0.031 C 
ATOM     39  C   UNL A   1      43.216  29.317  34.947  1.00  0.00     0.037 A 
BRANCH  26  40
ATOM     40  C   UNL A   1      40.512  33.760  38.285  1.00  0.00     0.057 A 
ATOM     41  C   UNL A   1      41.299  34.912  38.418  1.00  0.00     0.134 A 
ATOM     42  C   UNL A   1      39.664  33.435  39.353  1.00  0.00     0.134 A 
ATOM     43  F   UNL A   1      42.140  35.277  37.438  1.00  0.00    -0.206 F 
ATOM     44  C   UNL A   1      41.252  35.703  39.569  1.00  0.00     0.040 A 
ATOM     45  C   UNL A   1      39.589  34.231  40.498  1.00  0.00     0.040 A 
ATOM     46  F   UNL A   1      38.876  32.351  39.290  1.00  0.00    -0.206 F 
ATOM     47  C   UNL A   1      40.388  35.368  40.609  1.00  0.00     0.006 A 
ENDBRANCH  26  40
BRANCH  27  48
ATOM     48  C   UNL A   1      40.179  28.528  29.772  1.00  0.00     0.057 A 
ATOM     49  C   UNL A   1      40.885  28.963  28.647  1.00  0.00     0.134 A 
ATOM     50  C   UNL A   1      39.425  27.353  29.645  1.00  0.00     0.134 A 
ATOM     51  F   UNL A   1      41.616  30.087  28.701  1.00  0.00    -0.206 F 
ATOM     52  C   UNL A   1      40.819  28.279  27.433  1.00  0.00     0.040 A 
ATOM     53  C   UNL A   1      39.380  26.637  28.449  1.00  0.00     0.040 A 
ATOM     54  F   UNL A   1      38.735  26.873  30.690  1.00  0.00    -0.206 F 
ATOM     55  C   UNL A   1      40.069  27.108  27.333  1.00  0.00     0.006 A 
ENDBRANCH  27  48
BRANCH  39  56
ATOM     56  C   UNL A   1      44.431  28.497  35.269  1.00  0.00     0.057 A 
ATOM     57  C   UNL A   1      44.344  27.282  35.962  1.00  0.00     0.134 A 
ATOM     58  C   UNL A   1      45.708  28.935  34.894  1.00  0.00     0.134 A 
ATOM     59  F   UNL A   1      43.153  26.815  36.367  1.00  0.00    -0.206 F 
ATOM     60  C   UNL A   1      45.483  26.554  36.306  1.00  0.00     0.040 A 
ATOM     61  C   UNL A   1      46.852  28.198  35.201  1.00  0.00     0.040 A 
ATOM     62  F   UNL A   1      45.863  30.085  34.221  1.00  0.00    -0.206 F 
ATOM     63  C   UNL A   1      46.743  27.011  35.922  1.00  0.00     0.006 A 
ENDBRANCH  39  56
ENDBRANCH  13  14
ENDBRANCH   6   8
ENDBRANCH   3   4
ENDBRANCH   2   3
ENDBRANCH   1   2
BRANCH   1  64
ATOM     64  C   UNL A   1      34.292  31.954  28.777  1.00  0.00     0.002 C 
BRANCH  64  65
ATOM     65  C   UNL A   1      34.930  30.987  27.767  1.00  0.00     0.021 C 
BRANCH  65  66
ATOM     66  C   UNL A   1      33.920  30.299  26.851  1.00  0.00     0.116 C 
BRANCH  66  67
ATOM     67  N   UNL A   1      32.906  29.629  27.640  1.00  0.00    -0.356 N 
ATOM     68  C   UNL A   1      32.135  28.549  27.326  1.00  0.00     0.229 C 
ATOM     69  H   UNL A   1      32.752  30.009  28.535  1.00  0.00     0.163 HD
ATOM     70  O   UNL A   1      31.192  28.287  28.071  1.00  0.00    -0.274 OA
BRANCH  68  71
ATOM     71  C   UNL A   1      32.526  27.713  26.123  1.00  0.00     0.131 C 
ATOM     72  C   UNL A   1      32.673  26.262  26.600  1.00  0.00     0.154 C 
ATOM     73  C   UNL A   1      31.447  27.587  25.091  1.00  0.00    -0.009 A 
ATOM     74  N   UNL A   1      31.379  25.562  26.237  1.00  0.00    -0.265 N 
ATOM     75  C   UNL A   1      30.791  26.358  25.194  1.00  0.00     0.056 A 
ATOM     76  C   UNL A   1      31.032  28.577  24.206  1.00  0.00     0.007 A 
ATOM     77  C   UNL A   1      29.608  26.172  24.505  1.00  0.00     0.027 A 
ATOM     78  C   UNL A   1      29.895  28.341  23.440  1.00  0.00     0.000 A 
ATOM     79  C   UNL A   1      29.176  27.153  23.603  1.00  0.00     0.002 A 
BRANCH  74  80
ATOM     80  S   UNL A   1      31.604  23.882  26.125  1.00  0.00     0.265 S 
ATOM     81  O   UNL A   1      31.844  23.374  27.464  1.00  0.00    -0.201 OA
ATOM     82  O   UNL A   1      30.498  23.358  25.352  1.00  0.00    -0.201 OA
BRANCH  80  83
ATOM     83  C   UNL A   1      33.067  23.606  25.201  1.00  0.00     0.106 A 
ATOM     84  C   UNL A   1      33.139  24.011  23.866  1.00  0.00     0.027 A 
ATOM     85  C   UNL A   1      34.175  23.034  25.796  1.00  0.00     0.135 A 
ATOM     86  C   UNL A   1      34.301  23.759  23.148  1.00  0.00     0.042 A 
ATOM     87  N   UNL A   1      35.322  22.784  25.117  1.00  0.00    -0.243 NA
ATOM     88  C   UNL A   1      35.351  23.146  23.814  1.00  0.00     0.129 A 
ATOM     89  Cl  UNL A   1      36.804  22.769  22.990  1.00  0.00    -0.062 Cl
ENDBRANCH  80  83
ENDBRANCH  74  80
ENDBRANCH  68  71
ENDBRANCH  66  67
ENDBRANCH  65  66
ENDBRANCH  64  65
ENDBRANCH   1  64
TORSDOF 15
ENDMDL
MODEL 3
REMARK VINA RESULT:     -11.9      5.853     10.488
REMARK SMILES O=C(NCCCCCCNC(=O)[C@H]1CN(S(=O)(=O)c2ccc(Cl)nc2)c2ccccc21)c1ccc(-c2c3nc(c(-c4c(F)cccc4F)c4ccc([nH]4)c(-c4c(F)cccc4F)c4nc(c(-c5c(F)cccc5F)c5ccc2[nH]5)C=C4)C=C3)cc1
REMARK SMILES IDX 6 1 5 2 4 3 3 4 1 5 2 6 32 8 33 9 85 10 34 11 84 12 35 13
REMARK SMILES IDX 36 14 37 15 78 16 38 17 83 18 77 19 79 20 39 21 82 22 76 23
REMARK SMILES IDX 75 24 40 26 66 27 49 28 65 29 50 30 53 31 64 32 80 33 51 34
REMARK SMILES IDX 52 35 63 37 81 38 54 39 41 40 42 41 47 42 43 43 44 44 46 45
REMARK SMILES IDX 48 46 45 47 67 48 68 49 73 50 69 51 70 52 72 53 74 54 71 55
REMARK SMILES IDX 55 56 56 57 61 58 57 59 58 60 60 61 62 62 59 63 7 64 8 65
REMARK SMILES IDX 9 66 10 67 11 68 12 70 13 71 14 72 31 73 15 74 26 75 30 76
REMARK SMILES IDX 27 77 29 78 28 79 16 80 17 81 18 82 19 83 20 84 25 85 21 86
REMARK SMILES IDX 24 87 22 88 23 89
REMARK H PARENT 3 7 79 25 53 36 10 69
REMARK Flexibility Score: inf
ROOT
ATOM      1  C   UNL A   1      36.799  20.283  24.706  1.00  0.00     0.002 C 
ENDROOT
BRANCH   1   2
ATOM      2  C   UNL A   1      37.880  19.248  25.004  1.00  0.00     0.021 C 
BRANCH   2   3
ATOM      3  C   UNL A   1      39.063  19.798  25.781  1.00  0.00     0.116 C 
BRANCH   3   4
ATOM      4  N   UNL A   1      40.201  18.890  25.791  1.00  0.00    -0.352 N 
ATOM      5  O   UNL A   1      42.394  18.334  25.859  1.00  0.00    -0.269 OA
ATOM      6  C   UNL A   1      41.523  19.176  26.038  1.00  0.00     0.251 C 
ATOM      7  H   UNL A   1      39.997  17.946  25.596  1.00  0.00     0.163 HD
BRANCH   6   8
ATOM      8  C   UNL A   1      41.882  20.533  26.502  1.00  0.00     0.039 A 
ATOM      9  C   UNL A   1      42.059  21.557  25.571  1.00  0.00     0.014 A 
ATOM     10  C   UNL A   1      42.092  20.772  27.863  1.00  0.00     0.014 A 
ATOM     11  C   UNL A   1      42.619  22.758  25.975  1.00  0.00     0.010 A 
ATOM     12  C   UNL A   1      42.534  22.031  28.283  1.00  0.00     0.010 A 
ATOM     13  C   UNL A   1      42.828  23.027  27.339  1.00  0.00    -0.014 A 
BRANCH  13  14
ATOM     14  C   UNL A   1      43.258  24.395  27.723  1.00  0.00     0.031 A 
ATOM     15  C   UNL A   1      44.692  24.835  27.638  1.00  0.00     0.074 A 
ATOM     16  C   UNL A   1      42.300  25.270  28.089  1.00  0.00     0.049 A 
ATOM     17  N   UNL A   1      45.200  26.020  27.872  1.00  0.00    -0.248 NA
ATOM     18  C   UNL A   1      45.688  23.824  27.249  1.00  0.00     0.031 C 
ATOM     19  C   UNL A   1      40.875  24.947  28.230  1.00  0.00     0.029 A 
ATOM     20  N   UNL A   1      42.362  26.609  28.374  1.00  0.00    -0.354 N 
ATOM     21  C   UNL A   1      46.568  25.900  27.666  1.00  0.00     0.074 A 
ATOM     22  C   UNL A   1      46.819  24.516  27.321  1.00  0.00     0.031 C 
ATOM     23  C   UNL A   1      40.194  26.065  28.503  1.00  0.00     0.029 A 
ATOM     24  C   UNL A   1      41.135  27.166  28.645  1.00  0.00     0.049 A 
ATOM     25  H   UNL A   1      43.201  27.122  28.384  1.00  0.00     0.167 HD
ATOM     26  C   UNL A   1      47.522  26.859  27.747  1.00  0.00     0.037 A 
ATOM     27  C   UNL A   1      40.801  28.421  28.995  1.00  0.00     0.037 A 
ATOM     28  C   UNL A   1      47.262  28.235  28.095  1.00  0.00     0.049 A 
ATOM     29  C   UNL A   1      41.886  29.449  29.106  1.00  0.00     0.074 A 
ATOM     30  C   UNL A   1      48.161  29.284  28.195  1.00  0.00     0.029 A 
ATOM     31  N   UNL A   1      46.013  28.754  28.403  1.00  0.00    -0.354 N 
ATOM     32  N   UNL A   1      43.171  29.323  28.879  1.00  0.00    -0.248 NA
ATOM     33  C   UNL A   1      41.474  30.795  29.525  1.00  0.00     0.031 C 
ATOM     34  C   UNL A   1      47.463  30.423  28.610  1.00  0.00     0.029 A 
ATOM     35  C   UNL A   1      46.120  30.102  28.712  1.00  0.00     0.049 A 
ATOM     36  H   UNL A   1      45.172  28.240  28.402  1.00  0.00     0.167 HD
ATOM     37  C   UNL A   1      43.720  30.575  29.116  1.00  0.00     0.074 A 
ATOM     38  C   UNL A   1      42.622  31.453  29.464  1.00  0.00     0.031 C 
ATOM     39  C   UNL A   1      45.019  30.961  29.062  1.00  0.00     0.037 A 
BRANCH  26  40
ATOM     40  C   UNL A   1      48.944  26.463  27.461  1.00  0.00     0.057 A 
ATOM     41  C   UNL A   1      49.800  26.006  28.472  1.00  0.00     0.134 A 
ATOM     42  C   UNL A   1      49.439  26.463  26.150  1.00  0.00     0.134 A 
ATOM     43  F   UNL A   1      49.394  25.988  29.751  1.00  0.00    -0.206 F 
ATOM     44  C   UNL A   1      51.100  25.577  28.191  1.00  0.00     0.040 A 
ATOM     45  C   UNL A   1      50.727  26.013  25.854  1.00  0.00     0.040 A 
ATOM     46  F   UNL A   1      48.670  26.878  25.132  1.00  0.00    -0.206 F 
ATOM     47  C   UNL A   1      51.563  25.570  26.877  1.00  0.00     0.006 A 
ENDBRANCH  26  40
BRANCH  27  48
ATOM     48  C   UNL A   1      39.387  28.757  29.299  1.00  0.00     0.057 A 
ATOM     49  C   UNL A   1      38.531  29.276  28.323  1.00  0.00     0.134 A 
ATOM     50  C   UNL A   1      38.864  28.581  30.588  1.00  0.00     0.134 A 
ATOM     51  F   UNL A   1      38.976  29.480  27.074  1.00  0.00    -0.206 F 
ATOM     52  C   UNL A   1      37.217  29.638  28.622  1.00  0.00     0.040 A 
ATOM     53  C   UNL A   1      37.542  28.902  30.892  1.00  0.00     0.040 A 
ATOM     54  F   UNL A   1      39.628  28.075  31.567  1.00  0.00    -0.206 F 
ATOM     55  C   UNL A   1      36.717  29.445  29.909  1.00  0.00     0.006 A 
ENDBRANCH  27  48
BRANCH  39  56
ATOM     56  C   UNL A   1      45.304  32.403  29.366  1.00  0.00     0.057 A 
ATOM     57  C   UNL A   1      45.513  32.857  30.675  1.00  0.00     0.134 A 
ATOM     58  C   UNL A   1      45.356  33.352  28.337  1.00  0.00     0.134 A 
ATOM     59  F   UNL A   1      45.458  32.003  31.708  1.00  0.00    -0.206 F 
ATOM     60  C   UNL A   1      45.722  34.208  30.954  1.00  0.00     0.040 A 
ATOM     61  C   UNL A   1      45.600  34.701  28.600  1.00  0.00     0.040 A 
ATOM     62  F   UNL A   1      45.174  32.984  27.060  1.00  0.00    -0.206 F 
ATOM     63  C   UNL A   1      45.770  35.134  29.913  1.00  0.00     0.006 A 
ENDBRANCH  39  56
ENDBRANCH  13  14
ENDBRANCH   6   8
ENDBRANCH   3   4
ENDBRANCH   2   3
ENDBRANCH   1   2
BRANCH   1  64
ATOM     64  C   UNL A   1      36.727  21.437  25.711  1.00  0.00     0.002 C 
BRANCH  64  65
ATOM     65  C   UNL A   1      37.397  22.741  25.252  1.00  0.00     0.021 C 
BRANCH  65  66
ATOM     66  C   UNL A   1      36.531  23.982  25.459  1.00  0.00     0.116 C 
BRANCH  66  67
ATOM     67  N   UNL A   1      35.539  24.079  24.407  1.00  0.00    -0.356 N 
ATOM     68  C   UNL A   1      34.245  24.505  24.470  1.00  0.00     0.229 C 
ATOM     69  H   UNL A   1      35.844  23.796  23.515  1.00  0.00     0.163 HD
ATOM     70  O   UNL A   1      33.528  24.299  23.492  1.00  0.00    -0.274 OA
BRANCH  68  71
ATOM     71  C   UNL A   1      33.796  25.254  25.709  1.00  0.00     0.131 C 
ATOM     72  C   UNL A   1      33.814  26.751  25.373  1.00  0.00     0.154 C 
ATOM     73  C   UNL A   1      32.356  25.038  26.064  1.00  0.00    -0.009 A 
ATOM     74  N   UNL A   1      32.384  27.130  25.042  1.00  0.00    -0.265 N 
ATOM     75  C   UNL A   1      31.568  26.114  25.650  1.00  0.00     0.056 A 
ATOM     76  C   UNL A   1      31.807  23.888  26.621  1.00  0.00     0.007 A 
ATOM     77  C   UNL A   1      30.192  25.977  25.656  1.00  0.00     0.027 A 
ATOM     78  C   UNL A   1      30.422  23.799  26.717  1.00  0.00     0.000 A 
ATOM     79  C   UNL A   1      29.619  24.830  26.219  1.00  0.00     0.002 A 
BRANCH  74  80
ATOM     80  S   UNL A   1      32.128  28.796  25.256  1.00  0.00     0.265 S 
ATOM     81  O   UNL A   1      31.537  28.991  26.567  1.00  0.00    -0.201 OA
ATOM     82  O   UNL A   1      33.373  29.459  24.930  1.00  0.00    -0.201 OA
BRANCH  80  83
ATOM     83  C   UNL A   1      30.938  29.303  24.075  1.00  0.00     0.106 A 
ATOM     84  C   UNL A   1      30.156  30.436  24.310  1.00  0.00     0.027 A 
ATOM     85  C   UNL A   1      30.797  28.618  22.883  1.00  0.00     0.135 A 
ATOM     86  C   UNL A   1      29.202  30.803  23.369  1.00  0.00     0.042 A 
ATOM     87  N   UNL A   1      29.877  28.962  21.947  1.00  0.00    -0.243 NA
ATOM     88  C   UNL A   1      29.103  30.036  22.218  1.00  0.00     0.129 A 
ATOM     89  Cl  UNL A   1      27.928  30.402  21.026  1.00  0.00    -0.062 Cl
ENDBRANCH  80  83
ENDBRANCH  74  80
ENDBRANCH  68  71
ENDBRANCH  66  67
ENDBRANCH  65  66
ENDBRANCH  64  65
ENDBRANCH   1  64
TORSDOF 15
ENDMDL
