MODEL 1
REMARK VINA RESULT:     -11.8      0.000      0.000
REMARK SMILES O=C(NCCCCCCNC(=O)c1nc2cc3c(cc2[nH]1)OCO3)c1ccc(-c2c3nc(c(-c4c(F)cccc4F)c4ccc([nH]4)c(-c4c(F)cccc4F)c4nc(c(-c5c(F)cccc5F)c5ccc2[nH]5)C=C4)C=C3)cc1
REMARK SMILES IDX 5 1 4 2 3 3 1 4 2 5 25 7 26 8 78 9 27 10 77 11 28 12 29 13
REMARK SMILES IDX 30 14 71 15 31 16 76 17 70 18 72 19 32 20 75 21 69 22 68 23
REMARK SMILES IDX 33 25 59 26 42 27 58 28 43 29 46 30 57 31 73 32 44 33 45 34
REMARK SMILES IDX 56 36 74 37 47 38 34 39 35 40 40 41 36 42 37 43 39 44 41 45
REMARK SMILES IDX 38 46 60 47 61 48 66 49 62 50 63 51 65 52 67 53 64 54 48 55
REMARK SMILES IDX 49 56 54 57 50 58 51 59 53 60 55 61 52 62 6 63 7 64 8 65
REMARK SMILES IDX 9 66 10 67 11 68 12 70 13 71 14 72 21 73 15 74 20 75 16 77
REMARK SMILES IDX 19 78 17 79 18 80 24 81 22 82 23 83
REMARK H PARENT 3 6 72 24 46 35 10 69 21 76
REMARK Flexibility Score: inf
ROOT
ATOM      1  C   UNL A   1      42.057  20.166  27.273  1.00  0.00     0.021 C 
ENDROOT
BRANCH   1   2
ATOM      2  C   UNL A   1      42.407  19.919  25.819  1.00  0.00     0.116 C 
BRANCH   2   3
ATOM      3  N   UNL A   1      43.835  19.684  25.557  1.00  0.00    -0.352 N 
ATOM      4  O   UNL A   1      45.847  20.287  24.643  1.00  0.00    -0.269 OA
ATOM      5  C   UNL A   1      44.795  20.619  25.160  1.00  0.00     0.251 C 
ATOM      6  H   UNL A   1      44.152  18.760  25.676  1.00  0.00     0.163 HD
BRANCH   5   7
ATOM      7  C   UNL A   1      44.496  22.042  25.417  1.00  0.00     0.039 A 
ATOM      8  C   UNL A   1      43.660  22.843  24.638  1.00  0.00     0.014 A 
ATOM      9  C   UNL A   1      45.011  22.524  26.602  1.00  0.00     0.014 A 
ATOM     10  C   UNL A   1      43.341  24.110  25.131  1.00  0.00     0.010 A 
ATOM     11  C   UNL A   1      44.296  23.476  27.244  1.00  0.00     0.010 A 
ATOM     12  C   UNL A   1      43.676  24.414  26.460  1.00  0.00    -0.014 A 
BRANCH  12  13
ATOM     13  C   UNL A   1      43.389  25.675  27.125  1.00  0.00     0.031 A 
ATOM     14  C   UNL A   1      44.342  26.749  26.789  1.00  0.00     0.074 A 
ATOM     15  C   UNL A   1      42.263  25.896  27.849  1.00  0.00     0.049 A 
ATOM     16  N   UNL A   1      45.276  27.210  27.547  1.00  0.00    -0.248 NA
ATOM     17  C   UNL A   1      44.398  27.229  25.401  1.00  0.00     0.031 C 
ATOM     18  C   UNL A   1      41.079  25.042  28.049  1.00  0.00     0.029 A 
ATOM     19  N   UNL A   1      41.916  27.019  28.536  1.00  0.00    -0.354 N 
ATOM     20  C   UNL A   1      45.902  28.204  26.810  1.00  0.00     0.074 A 
ATOM     21  C   UNL A   1      45.458  28.039  25.450  1.00  0.00     0.031 C 
ATOM     22  C   UNL A   1      40.071  25.760  28.596  1.00  0.00     0.029 A 
ATOM     23  C   UNL A   1      40.588  27.059  28.963  1.00  0.00     0.049 A 
ATOM     24  H   UNL A   1      42.553  27.746  28.717  1.00  0.00     0.167 HD
ATOM     25  C   UNL A   1      46.541  29.225  27.441  1.00  0.00     0.037 A 
ATOM     26  C   UNL A   1      39.979  28.106  29.577  1.00  0.00     0.037 A 
ATOM     27  C   UNL A   1      46.770  28.911  28.832  1.00  0.00     0.049 A 
ATOM     28  C   UNL A   1      41.060  28.944  30.161  1.00  0.00     0.074 A 
ATOM     29  C   UNL A   1      47.463  27.912  29.490  1.00  0.00     0.029 A 
ATOM     30  N   UNL A   1      45.888  29.421  29.756  1.00  0.00    -0.354 N 
ATOM     31  N   UNL A   1      41.826  28.544  31.141  1.00  0.00    -0.248 NA
ATOM     32  C   UNL A   1      41.620  29.986  29.312  1.00  0.00     0.031 C 
ATOM     33  C   UNL A   1      46.622  27.538  30.579  1.00  0.00     0.029 A 
ATOM     34  C   UNL A   1      45.517  28.390  30.584  1.00  0.00     0.049 A 
ATOM     35  H   UNL A   1      45.579  30.354  29.813  1.00  0.00     0.167 HD
ATOM     36  C   UNL A   1      43.102  28.956  30.784  1.00  0.00     0.074 A 
ATOM     37  C   UNL A   1      42.904  29.882  29.667  1.00  0.00     0.031 C 
ATOM     38  C   UNL A   1      44.215  28.287  31.208  1.00  0.00     0.037 A 
BRANCH  25  39
ATOM     39  C   UNL A   1      46.618  30.628  26.907  1.00  0.00     0.057 A 
ATOM     40  C   UNL A   1      47.854  31.296  26.914  1.00  0.00     0.134 A 
ATOM     41  C   UNL A   1      45.495  31.442  26.656  1.00  0.00     0.134 A 
ATOM     42  F   UNL A   1      48.994  30.631  27.159  1.00  0.00    -0.206 F 
ATOM     43  C   UNL A   1      47.956  32.682  26.749  1.00  0.00     0.040 A 
ATOM     44  C   UNL A   1      45.590  32.818  26.441  1.00  0.00     0.040 A 
ATOM     45  F   UNL A   1      44.242  30.974  26.708  1.00  0.00    -0.206 F 
ATOM     46  C   UNL A   1      46.821  33.448  26.519  1.00  0.00     0.006 A 
ENDBRANCH  25  39
BRANCH  26  47
ATOM     47  C   UNL A   1      38.611  28.634  29.336  1.00  0.00     0.057 A 
ATOM     48  C   UNL A   1      37.690  28.768  30.388  1.00  0.00     0.134 A 
ATOM     49  C   UNL A   1      38.279  29.301  28.144  1.00  0.00     0.134 A 
ATOM     50  F   UNL A   1      37.931  28.198  31.578  1.00  0.00    -0.206 F 
ATOM     51  C   UNL A   1      36.531  29.550  30.273  1.00  0.00     0.040 A 
ATOM     52  C   UNL A   1      37.125  30.083  28.016  1.00  0.00     0.040 A 
ATOM     53  F   UNL A   1      39.111  29.294  27.091  1.00  0.00    -0.206 F 
ATOM     54  C   UNL A   1      36.254  30.225  29.088  1.00  0.00     0.006 A 
ENDBRANCH  26  47
BRANCH  38  55
ATOM     55  C   UNL A   1      44.050  27.205  32.245  1.00  0.00     0.057 A 
ATOM     56  C   UNL A   1      44.006  25.830  31.961  1.00  0.00     0.134 A 
ATOM     57  C   UNL A   1      44.125  27.560  33.597  1.00  0.00     0.134 A 
ATOM     58  F   UNL A   1      44.024  25.381  30.700  1.00  0.00    -0.206 F 
ATOM     59  C   UNL A   1      44.012  24.861  32.972  1.00  0.00     0.040 A 
ATOM     60  C   UNL A   1      44.161  26.603  34.614  1.00  0.00     0.040 A 
ATOM     61  F   UNL A   1      44.221  28.852  33.949  1.00  0.00    -0.206 F 
ATOM     62  C   UNL A   1      44.100  25.248  34.305  1.00  0.00     0.006 A 
ENDBRANCH  38  55
ENDBRANCH  12  13
ENDBRANCH   5   7
ENDBRANCH   2   3
ENDBRANCH   1   2
BRANCH   1  63
ATOM     63  C   UNL A   1      41.033  21.288  27.490  1.00  0.00     0.002 C 
BRANCH  63  64
ATOM     64  C   UNL A   1      40.272  21.801  26.255  1.00  0.00     0.002 C 
BRANCH  64  65
ATOM     65  C   UNL A   1      38.875  21.218  26.014  1.00  0.00     0.021 C 
BRANCH  65  66
ATOM     66  C   UNL A   1      37.766  22.249  25.814  1.00  0.00     0.116 C 
BRANCH  66  67
ATOM     67  N   UNL A   1      37.732  22.759  24.456  1.00  0.00    -0.349 N 
ATOM     68  C   UNL A   1      36.649  22.979  23.629  1.00  0.00     0.287 C 
ATOM     69  H   UNL A   1      38.610  22.981  24.068  1.00  0.00     0.163 HD
ATOM     70  O   UNL A   1      36.878  23.180  22.441  1.00  0.00    -0.266 OA
BRANCH  68  71
ATOM     71  C   UNL A   1      35.327  22.995  24.224  1.00  0.00     0.197 A 
ATOM     72  N   UNL A   1      34.433  22.031  24.094  1.00  0.00    -0.224 NA
ATOM     73  N   UNL A   1      34.812  24.029  24.967  1.00  0.00    -0.334 N 
ATOM     74  C   UNL A   1      33.351  22.417  24.846  1.00  0.00     0.093 A 
ATOM     75  C   UNL A   1      33.578  23.664  25.434  1.00  0.00     0.070 A 
ATOM     76  H   UNL A   1      35.255  24.892  25.135  1.00  0.00     0.168 HD
ATOM     77  C   UNL A   1      32.142  21.742  25.080  1.00  0.00     0.081 A 
ATOM     78  C   UNL A   1      32.674  24.305  26.286  1.00  0.00     0.079 A 
ATOM     79  C   UNL A   1      31.242  22.382  25.915  1.00  0.00     0.168 A 
ATOM     80  C   UNL A   1      31.501  23.605  26.495  1.00  0.00     0.168 A 
ATOM     81  O   UNL A   1      30.019  21.894  26.265  1.00  0.00    -0.454 OA
ATOM     82  O   UNL A   1      30.476  24.031  27.282  1.00  0.00    -0.454 OA
ATOM     83  C   UNL A   1      29.526  22.961  27.099  1.00  0.00     0.468 C 
ENDBRANCH  68  71
ENDBRANCH  66  67
ENDBRANCH  65  66
ENDBRANCH  64  65
ENDBRANCH  63  64
ENDBRANCH   1  63
TORSDOF 13
ENDMDL
MODEL 2
REMARK VINA RESULT:     -11.2      4.915     10.110
REMARK SMILES O=C(NCCCCCCNC(=O)c1nc2cc3c(cc2[nH]1)OCO3)c1ccc(-c2c3nc(c(-c4c(F)cccc4F)c4ccc([nH]4)c(-c4c(F)cccc4F)c4nc(c(-c5c(F)cccc5F)c5ccc2[nH]5)C=C4)C=C3)cc1
REMARK SMILES IDX 5 1 4 2 3 3 1 4 2 5 25 7 26 8 78 9 27 10 77 11 28 12 29 13
REMARK SMILES IDX 30 14 71 15 31 16 76 17 70 18 72 19 32 20 75 21 69 22 68 23
REMARK SMILES IDX 33 25 59 26 42 27 58 28 43 29 46 30 57 31 73 32 44 33 45 34
REMARK SMILES IDX 56 36 74 37 47 38 34 39 35 40 40 41 36 42 37 43 39 44 41 45
REMARK SMILES IDX 38 46 60 47 61 48 66 49 62 50 63 51 65 52 67 53 64 54 48 55
REMARK SMILES IDX 49 56 54 57 50 58 51 59 53 60 55 61 52 62 6 63 7 64 8 65
REMARK SMILES IDX 9 66 10 67 11 68 12 70 13 71 14 72 21 73 15 74 20 75 16 77
REMARK SMILES IDX 19 78 17 79 18 80 24 81 22 82 23 83
REMARK H PARENT 3 6 72 24 46 35 10 69 21 76
REMARK Flexibility Score: inf
ROOT
ATOM      1  C   UNL A   1      34.283  35.496  28.999  1.00  0.00     0.021 C 
ENDROOT
BRANCH   1   2
ATOM      2  C   UNL A   1      32.980  35.269  29.741  1.00  0.00     0.116 C 
BRANCH   2   3
ATOM      3  N   UNL A   1      32.831  36.043  30.982  1.00  0.00    -0.352 N 
ATOM      4  O   UNL A   1      32.828  36.216  33.266  1.00  0.00    -0.269 OA
ATOM      5  C   UNL A   1      33.282  35.701  32.260  1.00  0.00     0.251 C 
ATOM      6  H   UNL A   1      32.360  36.903  30.904  1.00  0.00     0.163 HD
BRANCH   5   7
ATOM      7  C   UNL A   1      34.362  34.698  32.347  1.00  0.00     0.039 A 
ATOM      8  C   UNL A   1      34.207  33.327  32.137  1.00  0.00     0.014 A 
ATOM      9  C   UNL A   1      35.620  35.234  32.529  1.00  0.00     0.014 A 
ATOM     10  C   UNL A   1      35.367  32.551  32.074  1.00  0.00     0.010 A 
ATOM     11  C   UNL A   1      36.659  34.576  31.965  1.00  0.00     0.010 A 
ATOM     12  C   UNL A   1      36.606  33.206  31.990  1.00  0.00    -0.014 A 
BRANCH  12  13
ATOM     13  C   UNL A   1      37.896  32.541  31.891  1.00  0.00     0.031 A 
ATOM     14  C   UNL A   1      38.633  32.494  33.167  1.00  0.00     0.074 A 
ATOM     15  C   UNL A   1      38.311  31.880  30.782  1.00  0.00     0.049 A 
ATOM     16  N   UNL A   1      39.657  33.206  33.488  1.00  0.00    -0.248 NA
ATOM     17  C   UNL A   1      38.061  31.722  34.281  1.00  0.00     0.031 C 
ATOM     18  C   UNL A   1      37.594  31.583  29.529  1.00  0.00     0.029 A 
ATOM     19  N   UNL A   1      39.504  31.259  30.574  1.00  0.00    -0.354 N 
ATOM     20  C   UNL A   1      40.005  32.810  34.771  1.00  0.00     0.074 A 
ATOM     21  C   UNL A   1      38.889  32.051  35.275  1.00  0.00     0.031 C 
ATOM     22  C   UNL A   1      38.270  30.657  28.811  1.00  0.00     0.029 A 
ATOM     23  C   UNL A   1      39.551  30.438  29.446  1.00  0.00     0.049 A 
ATOM     24  H   UNL A   1      40.275  31.380  31.173  1.00  0.00     0.167 HD
ATOM     25  C   UNL A   1      41.286  32.941  35.206  1.00  0.00     0.037 A 
ATOM     26  C   UNL A   1      40.588  29.641  29.082  1.00  0.00     0.037 A 
ATOM     27  C   UNL A   1      42.037  33.826  34.346  1.00  0.00     0.049 A 
ATOM     28  C   UNL A   1      41.796  30.179  29.763  1.00  0.00     0.074 A 
ATOM     29  C   UNL A   1      41.899  35.152  33.978  1.00  0.00     0.029 A 
ATOM     30  N   UNL A   1      42.841  33.256  33.387  1.00  0.00    -0.354 N 
ATOM     31  N   UNL A   1      42.318  31.343  29.481  1.00  0.00    -0.248 NA
ATOM     32  C   UNL A   1      42.089  29.665  31.092  1.00  0.00     0.031 C 
ATOM     33  C   UNL A   1      42.189  35.177  32.582  1.00  0.00     0.029 A 
ATOM     34  C   UNL A   1      42.580  33.894  32.198  1.00  0.00     0.049 A 
ATOM     35  H   UNL A   1      43.485  32.525  33.527  1.00  0.00     0.167 HD
ATOM     36  C   UNL A   1      42.632  31.897  30.714  1.00  0.00     0.074 A 
ATOM     37  C   UNL A   1      42.510  30.794  31.669  1.00  0.00     0.031 C 
ATOM     38  C   UNL A   1      42.660  33.250  30.905  1.00  0.00     0.037 A 
BRANCH  25  39
ATOM     39  C   UNL A   1      41.951  31.994  36.165  1.00  0.00     0.057 A 
ATOM     40  C   UNL A   1      42.578  32.509  37.312  1.00  0.00     0.134 A 
ATOM     41  C   UNL A   1      42.245  30.647  35.871  1.00  0.00     0.134 A 
ATOM     42  F   UNL A   1      42.390  33.785  37.684  1.00  0.00    -0.206 F 
ATOM     43  C   UNL A   1      43.484  31.759  38.069  1.00  0.00     0.040 A 
ATOM     44  C   UNL A   1      43.109  29.874  36.649  1.00  0.00     0.040 A 
ATOM     45  F   UNL A   1      41.801  30.038  34.766  1.00  0.00    -0.206 F 
ATOM     46  C   UNL A   1      43.756  30.438  37.735  1.00  0.00     0.006 A 
ENDBRANCH  25  39
BRANCH  26  47
ATOM     47  C   UNL A   1      40.529  28.256  28.550  1.00  0.00     0.057 A 
ATOM     48  C   UNL A   1      39.867  27.236  29.253  1.00  0.00     0.134 A 
ATOM     49  C   UNL A   1      40.849  27.968  27.211  1.00  0.00     0.134 A 
ATOM     50  F   UNL A   1      39.488  27.425  30.525  1.00  0.00    -0.206 F 
ATOM     51  C   UNL A   1      39.509  26.021  28.649  1.00  0.00     0.040 A 
ATOM     52  C   UNL A   1      40.499  26.758  26.597  1.00  0.00     0.040 A 
ATOM     53  F   UNL A   1      41.428  28.886  26.423  1.00  0.00    -0.206 F 
ATOM     54  C   UNL A   1      39.811  25.786  27.311  1.00  0.00     0.006 A 
ENDBRANCH  26  47
BRANCH  38  55
ATOM     55  C   UNL A   1      42.544  34.147  29.698  1.00  0.00     0.057 A 
ATOM     56  C   UNL A   1      41.350  34.746  29.265  1.00  0.00     0.134 A 
ATOM     57  C   UNL A   1      43.718  34.566  29.064  1.00  0.00     0.134 A 
ATOM     58  F   UNL A   1      40.183  34.483  29.865  1.00  0.00    -0.206 F 
ATOM     59  C   UNL A   1      41.326  35.696  28.235  1.00  0.00     0.040 A 
ATOM     60  C   UNL A   1      43.713  35.534  28.057  1.00  0.00     0.040 A 
ATOM     61  F   UNL A   1      44.907  34.078  29.456  1.00  0.00    -0.206 F 
ATOM     62  C   UNL A   1      42.513  36.100  27.634  1.00  0.00     0.006 A 
ENDBRANCH  38  55
ENDBRANCH  12  13
ENDBRANCH   5   7
ENDBRANCH   2   3
ENDBRANCH   1   2
BRANCH   1  63
ATOM     63  C   UNL A   1      34.962  34.207  28.516  1.00  0.00     0.002 C 
BRANCH  63  64
ATOM     64  C   UNL A   1      34.081  32.955  28.366  1.00  0.00     0.002 C 
BRANCH  64  65
ATOM     65  C   UNL A   1      34.756  31.698  27.806  1.00  0.00     0.021 C 
BRANCH  65  66
ATOM     66  C   UNL A   1      33.803  30.597  27.347  1.00  0.00     0.116 C 
BRANCH  66  67
ATOM     67  N   UNL A   1      32.499  31.120  26.981  1.00  0.00    -0.349 N 
ATOM     68  C   UNL A   1      31.686  30.781  25.919  1.00  0.00     0.287 C 
ATOM     69  H   UNL A   1      32.144  31.819  27.577  1.00  0.00     0.163 HD
ATOM     70  O   UNL A   1      30.744  31.526  25.669  1.00  0.00    -0.266 OA
BRANCH  68  71
ATOM     71  C   UNL A   1      31.975  29.555  25.200  1.00  0.00     0.197 A 
ATOM     72  N   UNL A   1      31.475  28.370  25.505  1.00  0.00    -0.224 NA
ATOM     73  N   UNL A   1      32.836  29.453  24.134  1.00  0.00    -0.334 N 
ATOM     74  C   UNL A   1      31.957  27.503  24.555  1.00  0.00     0.093 A 
ATOM     75  C   UNL A   1      32.796  28.170  23.659  1.00  0.00     0.070 A 
ATOM     76  H   UNL A   1      33.391  30.180  23.773  1.00  0.00     0.168 HD
ATOM     77  C   UNL A   1      31.709  26.130  24.395  1.00  0.00     0.081 A 
ATOM     78  C   UNL A   1      33.411  27.561  22.561  1.00  0.00     0.079 A 
ATOM     79  C   UNL A   1      32.326  25.525  23.313  1.00  0.00     0.168 A 
ATOM     80  C   UNL A   1      33.134  26.212  22.435  1.00  0.00     0.168 A 
ATOM     81  O   UNL A   1      32.211  24.208  22.986  1.00  0.00    -0.454 OA
ATOM     82  O   UNL A   1      33.622  25.412  21.447  1.00  0.00    -0.454 OA
ATOM     83  C   UNL A   1      33.064  24.138  21.827  1.00  0.00     0.468 C 
ENDBRANCH  68  71
ENDBRANCH  66  67
ENDBRANCH  65  66
ENDBRANCH  64  65
ENDBRANCH  63  64
ENDBRANCH   1  63
TORSDOF 13
ENDMDL
MODEL 3
REMARK VINA RESULT:     -11.0      4.512      9.881
REMARK SMILES O=C(NCCCCCCNC(=O)c1nc2cc3c(cc2[nH]1)OCO3)c1ccc(-c2c3nc(c(-c4c(F)cccc4F)c4ccc([nH]4)c(-c4c(F)cccc4F)c4nc(c(-c5c(F)cccc5F)c5ccc2[nH]5)C=C4)C=C3)cc1
REMARK SMILES IDX 5 1 4 2 3 3 1 4 2 5 25 7 26 8 78 9 27 10 77 11 28 12 29 13
REMARK SMILES IDX 30 14 71 15 31 16 76 17 70 18 72 19 32 20 75 21 69 22 68 23
REMARK SMILES IDX 33 25 59 26 42 27 58 28 43 29 46 30 57 31 73 32 44 33 45 34
REMARK SMILES IDX 56 36 74 37 47 38 34 39 35 40 40 41 36 42 37 43 39 44 41 45
REMARK SMILES IDX 38 46 60 47 61 48 66 49 62 50 63 51 65 52 67 53 64 54 48 55
REMARK SMILES IDX 49 56 54 57 50 58 51 59 53 60 55 61 52 62 6 63 7 64 8 65
REMARK SMILES IDX 9 66 10 67 11 68 12 70 13 71 14 72 21 73 15 74 20 75 16 77
REMARK SMILES IDX 19 78 17 79 18 80 24 81 22 82 23 83
REMARK H PARENT 3 6 72 24 46 35 10 69 21 76
REMARK Flexibility Score: inf
ROOT
ATOM      1  C   UNL A   1      36.500  33.040  28.700  1.00  0.00     0.021 C 
ENDROOT
BRANCH   1   2
ATOM      2  C   UNL A   1      36.415  31.793  29.559  1.00  0.00     0.116 C 
BRANCH   2   3
ATOM      3  N   UNL A   1      35.704  30.663  28.941  1.00  0.00    -0.352 N 
ATOM      4  O   UNL A   1      35.616  28.859  27.533  1.00  0.00    -0.269 OA
ATOM      5  C   UNL A   1      36.260  29.554  28.300  1.00  0.00     0.251 C 
ATOM      6  H   UNL A   1      34.721  30.692  28.986  1.00  0.00     0.163 HD
BRANCH   5   7
ATOM      7  C   UNL A   1      37.668  29.233  28.608  1.00  0.00     0.039 A 
ATOM      8  C   UNL A   1      38.098  28.419  29.657  1.00  0.00     0.014 A 
ATOM      9  C   UNL A   1      38.572  29.700  27.677  1.00  0.00     0.014 A 
ATOM     10  C   UNL A   1      39.450  28.070  29.687  1.00  0.00     0.010 A 
ATOM     11  C   UNL A   1      39.680  28.953  27.462  1.00  0.00     0.010 A 
ATOM     12  C   UNL A   1      40.240  28.354  28.561  1.00  0.00    -0.014 A 
BRANCH  12  13
ATOM     13  C   UNL A   1      41.652  28.030  28.429  1.00  0.00     0.031 A 
ATOM     14  C   UNL A   1      41.906  26.816  27.633  1.00  0.00     0.074 A 
ATOM     15  C   UNL A   1      42.647  28.851  28.850  1.00  0.00     0.049 A 
ATOM     16  N   UNL A   1      42.262  25.663  28.084  1.00  0.00    -0.248 NA
ATOM     17  C   UNL A   1      41.537  26.819  26.209  1.00  0.00     0.031 C 
ATOM     18  C   UNL A   1      42.583  30.217  29.400  1.00  0.00     0.029 A 
ATOM     19  N   UNL A   1      43.989  28.630  28.807  1.00  0.00    -0.354 N 
ATOM     20  C   UNL A   1      42.385  24.844  26.972  1.00  0.00     0.074 A 
ATOM     21  C   UNL A   1      41.745  25.541  25.886  1.00  0.00     0.031 C 
ATOM     22  C   UNL A   1      43.816  30.773  29.413  1.00  0.00     0.029 A 
ATOM     23  C   UNL A   1      44.778  29.753  29.061  1.00  0.00     0.049 A 
ATOM     24  H   UNL A   1      44.373  27.746  28.611  1.00  0.00     0.167 HD
ATOM     25  C   UNL A   1      43.220  23.772  26.999  1.00  0.00     0.037 A 
ATOM     26  C   UNL A   1      46.132  29.811  28.980  1.00  0.00     0.037 A 
ATOM     27  C   UNL A   1      43.600  23.445  28.354  1.00  0.00     0.049 A 
ATOM     28  C   UNL A   1      46.625  28.412  29.094  1.00  0.00     0.074 A 
ATOM     29  C   UNL A   1      42.896  23.078  29.486  1.00  0.00     0.029 A 
ATOM     30  N   UNL A   1      44.817  23.902  28.804  1.00  0.00    -0.354 N 
ATOM     31  N   UNL A   1      46.511  27.699  30.183  1.00  0.00    -0.248 NA
ATOM     32  C   UNL A   1      46.753  27.655  27.857  1.00  0.00     0.031 C 
ATOM     33  C   UNL A   1      43.512  23.800  30.551  1.00  0.00     0.029 A 
ATOM     34  C   UNL A   1      44.609  24.487  30.030  1.00  0.00     0.049 A 
ATOM     35  H   UNL A   1      45.678  23.824  28.333  1.00  0.00     0.167 HD
ATOM     36  C   UNL A   1      46.122  26.442  29.742  1.00  0.00     0.074 A 
ATOM     37  C   UNL A   1      46.333  26.463  28.293  1.00  0.00     0.031 C 
ATOM     38  C   UNL A   1      45.379  25.607  30.528  1.00  0.00     0.037 A 
BRANCH  25  39
ATOM     39  C   UNL A   1      43.979  23.266  25.805  1.00  0.00     0.057 A 
ATOM     40  C   UNL A   1      43.903  21.902  25.473  1.00  0.00     0.134 A 
ATOM     41  C   UNL A   1      44.992  23.991  25.145  1.00  0.00     0.134 A 
ATOM     42  F   UNL A   1      42.991  21.104  26.049  1.00  0.00    -0.206 F 
ATOM     43  C   UNL A   1      44.813  21.294  24.601  1.00  0.00     0.040 A 
ATOM     44  C   UNL A   1      45.873  23.404  24.235  1.00  0.00     0.040 A 
ATOM     45  F   UNL A   1      45.252  25.274  25.419  1.00  0.00    -0.206 F 
ATOM     46  C   UNL A   1      45.806  22.044  23.984  1.00  0.00     0.006 A 
ENDBRANCH  25  39
BRANCH  26  47
ATOM     47  C   UNL A   1      46.965  30.900  28.409  1.00  0.00     0.057 A 
ATOM     48  C   UNL A   1      46.780  31.337  27.087  1.00  0.00     0.134 A 
ATOM     49  C   UNL A   1      47.741  31.740  29.228  1.00  0.00     0.134 A 
ATOM     50  F   UNL A   1      46.028  30.624  26.236  1.00  0.00    -0.206 F 
ATOM     51  C   UNL A   1      47.302  32.553  26.621  1.00  0.00     0.040 A 
ATOM     52  C   UNL A   1      48.268  32.955  28.774  1.00  0.00     0.040 A 
ATOM     53  F   UNL A   1      47.935  31.456  30.525  1.00  0.00    -0.206 F 
ATOM     54  C   UNL A   1      48.035  33.375  27.471  1.00  0.00     0.006 A 
ENDBRANCH  26  47
BRANCH  38  55
ATOM     55  C   UNL A   1      45.156  25.988  31.970  1.00  0.00     0.057 A 
ATOM     56  C   UNL A   1      46.089  25.782  33.000  1.00  0.00     0.134 A 
ATOM     57  C   UNL A   1      44.033  26.758  32.290  1.00  0.00     0.134 A 
ATOM     58  F   UNL A   1      47.240  25.136  32.776  1.00  0.00    -0.206 F 
ATOM     59  C   UNL A   1      45.899  26.298  34.288  1.00  0.00     0.040 A 
ATOM     60  C   UNL A   1      43.846  27.304  33.562  1.00  0.00     0.040 A 
ATOM     61  F   UNL A   1      43.121  27.043  31.346  1.00  0.00    -0.206 F 
ATOM     62  C   UNL A   1      44.777  27.070  34.570  1.00  0.00     0.006 A 
ENDBRANCH  38  55
ENDBRANCH  12  13
ENDBRANCH   5   7
ENDBRANCH   2   3
ENDBRANCH   1   2
BRANCH   1  63
ATOM     63  C   UNL A   1      35.437  34.099  29.024  1.00  0.00     0.002 C 
BRANCH  63  64
ATOM     64  C   UNL A   1      33.966  33.728  28.764  1.00  0.00     0.002 C 
BRANCH  64  65
ATOM     65  C   UNL A   1      32.949  34.874  28.797  1.00  0.00     0.021 C 
BRANCH  65  66
ATOM     66  C   UNL A   1      33.513  36.232  29.207  1.00  0.00     0.116 C 
BRANCH  66  67
ATOM     67  N   UNL A   1      32.807  36.798  30.342  1.00  0.00    -0.349 N 
ATOM     68  C   UNL A   1      32.828  36.413  31.667  1.00  0.00     0.287 C 
ATOM     69  H   UNL A   1      32.228  37.567  30.136  1.00  0.00     0.163 HD
ATOM     70  O   UNL A   1      31.964  36.878  32.404  1.00  0.00    -0.266 OA
BRANCH  68  71
ATOM     71  C   UNL A   1      33.885  35.522  32.104  1.00  0.00     0.197 A 
ATOM     72  N   UNL A   1      33.730  34.231  32.341  1.00  0.00    -0.224 NA
ATOM     73  N   UNL A   1      35.177  35.906  32.369  1.00  0.00    -0.334 N 
ATOM     74  C   UNL A   1      34.974  33.759  32.680  1.00  0.00     0.093 A 
ATOM     75  C   UNL A   1      35.913  34.793  32.675  1.00  0.00     0.070 A 
ATOM     76  H   UNL A   1      35.518  36.829  32.345  1.00  0.00     0.168 HD
ATOM     77  C   UNL A   1      35.375  32.450  32.994  1.00  0.00     0.081 A 
ATOM     78  C   UNL A   1      37.274  34.618  32.944  1.00  0.00     0.079 A 
ATOM     79  C   UNL A   1      36.720  32.277  33.271  1.00  0.00     0.168 A 
ATOM     80  C   UNL A   1      37.627  33.315  33.241  1.00  0.00     0.168 A 
ATOM     81  O   UNL A   1      37.304  31.091  33.596  1.00  0.00    -0.454 OA
ATOM     82  O   UNL A   1      38.891  32.905  33.539  1.00  0.00    -0.454 OA
ATOM     83  C   UNL A   1      38.670  31.504  33.801  1.00  0.00     0.468 C 
ENDBRANCH  68  71
ENDBRANCH  66  67
ENDBRANCH  65  66
ENDBRANCH  64  65
ENDBRANCH  63  64
ENDBRANCH   1  63
TORSDOF 13
ENDMDL
