MODEL 1
REMARK VINA RESULT:     -12.7      0.000      0.000
REMARK SMILES Cc1cc2c(=O)c3ccccc3oc2c(C(=O)NCCCCCCNC(=O)c2ccc(-c3c4nc(c(-c5c(F)cccc5F)c5ccc([nH]5)c(-c5c(F)cccc5F)c5nc(c(-c6c(F)cccc6F)c6ccc3[nH]6)C=C5)C=C4)cc2)c1C
REMARK SMILES IDX 22 1 21 2 20 3 19 4 18 5 16 6 17 7 15 9 1 10 2 11 3 12 82 13
REMARK SMILES IDX 4 14 83 15 5 16 14 17 6 18 7 19 13 20 8 21 12 22 9 23 11 24
REMARK SMILES IDX 10 25 23 26 24 27 25 28 26 29 27 31 28 32 29 33 81 34 30 35
REMARK SMILES IDX 80 36 31 37 32 38 33 39 74 40 34 41 79 42 73 43 75 44 35 45
REMARK SMILES IDX 78 46 72 47 71 48 36 50 62 51 45 52 61 53 46 54 49 55 60 56
REMARK SMILES IDX 76 57 47 58 48 59 59 61 77 62 50 63 37 64 38 65 43 66 39 67
REMARK SMILES IDX 40 68 42 69 44 70 41 71 63 72 64 73 69 74 65 75 66 76 68 77
REMARK SMILES IDX 70 78 67 79 51 80 52 81 57 82 53 83 54 84 56 85 58 86 55 87
REMARK H PARENT 18 8 25 30 75 49 49 60
REMARK Flexibility Score: inf
ROOT
ATOM      1  C   UNL A   1      31.627  30.671  26.130  1.00  0.00     0.002 C 
ENDROOT
BRANCH   1   2
ATOM      2  C   UNL A   1      32.135  29.740  27.234  1.00  0.00     0.002 C 
BRANCH   2   3
ATOM      3  C   UNL A   1      32.942  28.541  26.727  1.00  0.00     0.021 C 
BRANCH   3   4
ATOM      4  C   UNL A   1      34.268  28.910  26.036  1.00  0.00     0.116 C 
BRANCH   4   5
ATOM      5  N   UNL A   1      34.066  28.965  24.602  1.00  0.00    -0.352 N 
ATOM      6  C   UNL A   1      33.324  28.344  23.636  1.00  0.00     0.255 C 
ATOM      7  O   UNL A   1      33.757  28.582  22.501  1.00  0.00    -0.269 OA
ATOM      8  H   UNL A   1      34.636  29.661  24.203  1.00  0.00     0.163 HD
BRANCH   6   9
ATOM      9  C   UNL A   1      32.090  27.475  23.769  1.00  0.00     0.086 A 
ATOM     10  C   UNL A   1      28.229  27.215  23.529  1.00  0.00     0.044 C 
ATOM     11  C   UNL A   1      29.682  26.911  23.814  1.00  0.00    -0.046 A 
ATOM     12  C   UNL A   1      29.969  25.680  24.403  1.00  0.00     0.019 A 
ATOM     13  C   UNL A   1      30.729  27.851  23.566  1.00  0.00    -0.032 A 
ATOM     14  C   UNL A   1      31.285  25.327  24.668  1.00  0.00     0.066 A 
ATOM     15  C   UNL A   1      30.297  29.223  23.146  1.00  0.00     0.045 C 
ATOM     16  C   UNL A   1      31.557  24.060  25.368  1.00  0.00     0.200 A 
ATOM     17  C   UNL A   1      32.339  26.173  24.312  1.00  0.00     0.151 A 
ATOM     18  O   UNL A   1      30.652  23.315  25.725  1.00  0.00    -0.288 OA
ATOM     19  C   UNL A   1      32.957  23.745  25.647  1.00  0.00     0.065 A 
ATOM     20  O   UNL A   1      33.650  25.758  24.466  1.00  0.00    -0.455 OA
ATOM     21  C   UNL A   1      33.311  22.596  26.362  1.00  0.00     0.016 A 
ATOM     22  C   UNL A   1      33.927  24.619  25.176  1.00  0.00     0.138 A 
ATOM     23  C   UNL A   1      34.657  22.321  26.599  1.00  0.00     0.001 A 
ATOM     24  C   UNL A   1      35.273  24.343  25.417  1.00  0.00     0.048 A 
ATOM     25  C   UNL A   1      35.639  23.195  26.126  1.00  0.00     0.004 A 
ENDBRANCH   6   9
ENDBRANCH   4   5
ENDBRANCH   3   4
ENDBRANCH   2   3
ENDBRANCH   1   2
BRANCH   1  26
ATOM     26  C   UNL A   1      31.405  32.122  26.561  1.00  0.00     0.021 C 
BRANCH  26  27
ATOM     27  C   UNL A   1      32.574  32.749  27.311  1.00  0.00     0.116 C 
BRANCH  27  28
ATOM     28  N   UNL A   1      32.343  34.154  27.613  1.00  0.00    -0.352 N 
ATOM     29  C   UNL A   1      32.945  34.963  28.550  1.00  0.00     0.251 C 
ATOM     30  H   UNL A   1      31.653  34.592  27.064  1.00  0.00     0.163 HD
ATOM     31  O   UNL A   1      32.478  36.056  28.819  1.00  0.00    -0.269 OA
BRANCH  29  32
ATOM     32  C   UNL A   1      34.156  34.479  29.247  1.00  0.00     0.039 A 
ATOM     33  C   UNL A   1      35.411  34.612  28.651  1.00  0.00     0.014 A 
ATOM     34  C   UNL A   1      34.028  33.870  30.498  1.00  0.00     0.014 A 
ATOM     35  C   UNL A   1      36.511  33.982  29.220  1.00  0.00     0.010 A 
ATOM     36  C   UNL A   1      35.153  33.314  31.111  1.00  0.00     0.010 A 
ATOM     37  C   UNL A   1      36.394  33.320  30.453  1.00  0.00    -0.014 A 
BRANCH  37  38
ATOM     38  C   UNL A   1      37.574  32.622  31.022  1.00  0.00     0.031 A 
ATOM     39  C   UNL A   1      38.175  33.079  32.325  1.00  0.00     0.074 A 
ATOM     40  C   UNL A   1      38.073  31.543  30.390  1.00  0.00     0.049 A 
ATOM     41  N   UNL A   1      39.216  32.608  32.966  1.00  0.00    -0.248 NA
ATOM     42  C   UNL A   1      37.524  34.216  32.996  1.00  0.00     0.031 C 
ATOM     43  C   UNL A   1      37.563  30.989  29.135  1.00  0.00     0.029 A 
ATOM     44  N   UNL A   1      39.109  30.710  30.725  1.00  0.00    -0.354 N 
ATOM     45  C   UNL A   1      39.355  33.399  34.100  1.00  0.00     0.074 A 
ATOM     46  C   UNL A   1      38.312  34.400  34.046  1.00  0.00     0.031 C 
ATOM     47  C   UNL A   1      38.260  29.886  28.826  1.00  0.00     0.029 A 
ATOM     48  C   UNL A   1      39.308  29.694  29.821  1.00  0.00     0.049 A 
ATOM     49  H   UNL A   1      39.657  30.827  31.534  1.00  0.00     0.167 HD
ATOM     50  C   UNL A   1      40.261  33.292  35.102  1.00  0.00     0.037 A 
ATOM     51  C   UNL A   1      40.247  28.731  29.786  1.00  0.00     0.037 A 
ATOM     52  C   UNL A   1      41.291  32.286  35.158  1.00  0.00     0.049 A 
ATOM     53  C   UNL A   1      41.283  28.683  30.872  1.00  0.00     0.074 A 
ATOM     54  C   UNL A   1      42.252  32.087  36.135  1.00  0.00     0.029 A 
ATOM     55  N   UNL A   1      41.497  31.311  34.194  1.00  0.00    -0.354 N 
ATOM     56  N   UNL A   1      41.399  29.434  31.940  1.00  0.00    -0.248 NA
ATOM     57  C   UNL A   1      42.325  27.658  30.739  1.00  0.00     0.031 C 
ATOM     58  C   UNL A   1      43.065  31.020  35.741  1.00  0.00     0.029 A 
ATOM     59  C   UNL A   1      42.581  30.521  34.542  1.00  0.00     0.049 A 
ATOM     60  H   UNL A   1      40.952  31.197  33.383  1.00  0.00     0.167 HD
ATOM     61  C   UNL A   1      42.516  28.960  32.616  1.00  0.00     0.074 A 
ATOM     62  C   UNL A   1      43.024  27.841  31.850  1.00  0.00     0.031 C 
ATOM     63  C   UNL A   1      43.073  29.412  33.766  1.00  0.00     0.037 A 
BRANCH  50  64
ATOM     64  C   UNL A   1      40.190  34.303  36.210  1.00  0.00     0.057 A 
ATOM     65  C   UNL A   1      39.384  34.077  37.332  1.00  0.00     0.134 A 
ATOM     66  C   UNL A   1      40.897  35.512  36.158  1.00  0.00     0.134 A 
ATOM     67  F   UNL A   1      38.675  32.943  37.445  1.00  0.00    -0.206 F 
ATOM     68  C   UNL A   1      39.281  35.015  38.362  1.00  0.00     0.040 A 
ATOM     69  C   UNL A   1      40.823  36.448  37.193  1.00  0.00     0.040 A 
ATOM     70  F   UNL A   1      41.699  35.787  35.118  1.00  0.00    -0.206 F 
ATOM     71  C   UNL A   1      40.008  36.202  38.297  1.00  0.00     0.006 A 
ENDBRANCH  50  64
BRANCH  51  72
ATOM     72  C   UNL A   1      40.273  27.752  28.671  1.00  0.00     0.057 A 
ATOM     73  C   UNL A   1      40.999  28.000  27.500  1.00  0.00     0.134 A 
ATOM     74  C   UNL A   1      39.599  26.529  28.766  1.00  0.00     0.134 A 
ATOM     75  F   UNL A   1      41.663  29.155  27.346  1.00  0.00    -0.206 F 
ATOM     76  C   UNL A   1      41.051  27.071  26.461  1.00  0.00     0.040 A 
ATOM     77  C   UNL A   1      39.666  25.578  27.746  1.00  0.00     0.040 A 
ATOM     78  F   UNL A   1      38.903  26.226  29.870  1.00  0.00    -0.206 F 
ATOM     79  C   UNL A   1      40.391  25.850  26.587  1.00  0.00     0.006 A 
ENDBRANCH  51  72
BRANCH  63  80
ATOM     80  C   UNL A   1      44.276  28.671  34.270  1.00  0.00     0.057 A 
ATOM     81  C   UNL A   1      44.128  27.560  35.110  1.00  0.00     0.134 A 
ATOM     82  C   UNL A   1      45.580  29.055  33.928  1.00  0.00     0.134 A 
ATOM     83  F   UNL A   1      42.909  27.143  35.481  1.00  0.00    -0.206 F 
ATOM     84  C   UNL A   1      45.234  26.856  35.588  1.00  0.00     0.040 A 
ATOM     85  C   UNL A   1      46.691  28.341  34.377  1.00  0.00     0.040 A 
ATOM     86  F   UNL A   1      45.788  30.100  33.112  1.00  0.00    -0.206 F 
ATOM     87  C   UNL A   1      46.520  27.239  35.214  1.00  0.00     0.006 A 
ENDBRANCH  63  80
ENDBRANCH  37  38
ENDBRANCH  29  32
ENDBRANCH  27  28
ENDBRANCH  26  27
ENDBRANCH   1  26
TORSDOF 13
ENDMDL
MODEL 2
REMARK VINA RESULT:     -12.6      4.980     10.119
REMARK SMILES Cc1cc2c(=O)c3ccccc3oc2c(C(=O)NCCCCCCNC(=O)c2ccc(-c3c4nc(c(-c5c(F)cccc5F)c5ccc([nH]5)c(-c5c(F)cccc5F)c5nc(c(-c6c(F)cccc6F)c6ccc3[nH]6)C=C5)C=C4)cc2)c1C
REMARK SMILES IDX 22 1 21 2 20 3 19 4 18 5 16 6 17 7 15 9 1 10 2 11 3 12 82 13
REMARK SMILES IDX 4 14 83 15 5 16 14 17 6 18 7 19 13 20 8 21 12 22 9 23 11 24
REMARK SMILES IDX 10 25 23 26 24 27 25 28 26 29 27 31 28 32 29 33 81 34 30 35
REMARK SMILES IDX 80 36 31 37 32 38 33 39 74 40 34 41 79 42 73 43 75 44 35 45
REMARK SMILES IDX 78 46 72 47 71 48 36 50 62 51 45 52 61 53 46 54 49 55 60 56
REMARK SMILES IDX 76 57 47 58 48 59 59 61 77 62 50 63 37 64 38 65 43 66 39 67
REMARK SMILES IDX 40 68 42 69 44 70 41 71 63 72 64 73 69 74 65 75 66 76 68 77
REMARK SMILES IDX 70 78 67 79 51 80 52 81 57 82 53 83 54 84 56 85 58 86 55 87
REMARK H PARENT 18 8 25 30 75 49 49 60
REMARK Flexibility Score: inf
ROOT
ATOM      1  C   UNL A   1      37.012  20.456  24.997  1.00  0.00     0.002 C 
ENDROOT
BRANCH   1   2
ATOM      2  C   UNL A   1      37.396  21.876  24.573  1.00  0.00     0.002 C 
BRANCH   2   3
ATOM      3  C   UNL A   1      37.768  22.803  25.734  1.00  0.00     0.021 C 
BRANCH   3   4
ATOM      4  C   UNL A   1      36.640  23.753  26.179  1.00  0.00     0.116 C 
BRANCH   4   5
ATOM      5  N   UNL A   1      35.571  22.982  26.783  1.00  0.00    -0.352 N 
ATOM      6  C   UNL A   1      34.268  22.648  26.537  1.00  0.00     0.255 C 
ATOM      7  O   UNL A   1      33.713  22.193  27.545  1.00  0.00    -0.269 OA
ATOM      8  H   UNL A   1      35.876  22.577  27.627  1.00  0.00     0.163 HD
BRANCH   6   9
ATOM      9  C   UNL A   1      33.471  22.731  25.250  1.00  0.00     0.086 A 
ATOM     10  C   UNL A   1      31.940  20.854  22.223  1.00  0.00     0.044 C 
ATOM     11  C   UNL A   1      32.424  21.944  23.152  1.00  0.00    -0.046 A 
ATOM     12  C   UNL A   1      32.226  23.262  22.743  1.00  0.00     0.019 A 
ATOM     13  C   UNL A   1      33.120  21.666  24.369  1.00  0.00    -0.032 A 
ATOM     14  C   UNL A   1      32.624  24.310  23.560  1.00  0.00     0.066 A 
ATOM     15  C   UNL A   1      33.482  20.232  24.609  1.00  0.00     0.045 C 
ATOM     16  C   UNL A   1      32.483  25.692  23.069  1.00  0.00     0.200 A 
ATOM     17  C   UNL A   1      33.186  24.065  24.817  1.00  0.00     0.151 A 
ATOM     18  O   UNL A   1      32.029  25.936  21.958  1.00  0.00    -0.288 OA
ATOM     19  C   UNL A   1      32.940  26.760  23.957  1.00  0.00     0.065 A 
ATOM     20  O   UNL A   1      33.463  25.116  25.674  1.00  0.00    -0.455 OA
ATOM     21  C   UNL A   1      32.905  28.099  23.553  1.00  0.00     0.016 A 
ATOM     22  C   UNL A   1      33.406  26.406  25.215  1.00  0.00     0.138 A 
ATOM     23  C   UNL A   1      33.338  29.093  24.431  1.00  0.00     0.001 A 
ATOM     24  C   UNL A   1      33.841  27.402  26.090  1.00  0.00     0.048 A 
ATOM     25  C   UNL A   1      33.805  28.744  25.700  1.00  0.00     0.004 A 
ENDBRANCH   6   9
ENDBRANCH   4   5
ENDBRANCH   3   4
ENDBRANCH   2   3
ENDBRANCH   1   2
BRANCH   1  26
ATOM     26  C   UNL A   1      38.167  19.454  25.019  1.00  0.00     0.021 C 
BRANCH  26  27
ATOM     27  C   UNL A   1      39.399  19.920  25.787  1.00  0.00     0.116 C 
BRANCH  27  28
ATOM     28  N   UNL A   1      40.412  18.880  25.885  1.00  0.00    -0.352 N 
ATOM     29  C   UNL A   1      41.770  18.990  26.079  1.00  0.00     0.251 C 
ATOM     30  H   UNL A   1      40.075  17.958  25.800  1.00  0.00     0.163 HD
ATOM     31  O   UNL A   1      42.501  18.028  25.916  1.00  0.00    -0.269 OA
BRANCH  29  32
ATOM     32  C   UNL A   1      42.338  20.299  26.467  1.00  0.00     0.039 A 
ATOM     33  C   UNL A   1      42.218  20.758  27.779  1.00  0.00     0.014 A 
ATOM     34  C   UNL A   1      42.978  21.080  25.500  1.00  0.00     0.014 A 
ATOM     35  C   UNL A   1      42.577  22.065  28.085  1.00  0.00     0.010 A 
ATOM     36  C   UNL A   1      43.420  22.362  25.833  1.00  0.00     0.010 A 
ATOM     37  C   UNL A   1      43.176  22.884  27.114  1.00  0.00    -0.014 A 
BRANCH  37  38
ATOM     38  C   UNL A   1      43.516  24.289  27.454  1.00  0.00     0.031 A 
ATOM     39  C   UNL A   1      44.942  24.767  27.378  1.00  0.00     0.074 A 
ATOM     40  C   UNL A   1      42.533  25.148  27.782  1.00  0.00     0.049 A 
ATOM     41  N   UNL A   1      45.434  25.949  27.656  1.00  0.00    -0.248 NA
ATOM     42  C   UNL A   1      45.950  23.791  26.935  1.00  0.00     0.031 C 
ATOM     43  C   UNL A   1      41.110  24.810  27.866  1.00  0.00     0.029 A 
ATOM     44  N   UNL A   1      42.576  26.483  28.088  1.00  0.00    -0.354 N 
ATOM     45  C   UNL A   1      46.803  25.853  27.440  1.00  0.00     0.074 A 
ATOM     46  C   UNL A   1      47.071  24.490  27.039  1.00  0.00     0.031 C 
ATOM     47  C   UNL A   1      40.413  25.916  28.161  1.00  0.00     0.029 A 
ATOM     48  C   UNL A   1      41.341  27.023  28.355  1.00  0.00     0.049 A 
ATOM     49  H   UNL A   1      43.410  27.005  28.114  1.00  0.00     0.167 HD
ATOM     50  C   UNL A   1      47.748  26.817  27.554  1.00  0.00     0.037 A 
ATOM     51  C   UNL A   1      40.999  28.266  28.740  1.00  0.00     0.037 A 
ATOM     52  C   UNL A   1      47.476  28.177  27.943  1.00  0.00     0.049 A 
ATOM     53  C   UNL A   1      42.078  29.294  28.929  1.00  0.00     0.074 A 
ATOM     54  C   UNL A   1      48.363  29.232  28.078  1.00  0.00     0.029 A 
ATOM     55  N   UNL A   1      46.220  28.671  28.262  1.00  0.00    -0.354 N 
ATOM     56  N   UNL A   1      43.367  29.190  28.716  1.00  0.00    -0.248 NA
ATOM     57  C   UNL A   1      41.652  30.610  29.421  1.00  0.00     0.031 C 
ATOM     58  C   UNL A   1      47.651  30.351  28.521  1.00  0.00     0.029 A 
ATOM     59  C   UNL A   1      46.312  30.008  28.615  1.00  0.00     0.049 A 
ATOM     60  H   UNL A   1      45.387  28.148  28.241  1.00  0.00     0.167 HD
ATOM     61  C   UNL A   1      43.904  30.431  29.031  1.00  0.00     0.074 A 
ATOM     62  C   UNL A   1      42.796  31.278  29.424  1.00  0.00     0.031 C 
ATOM     63  C   UNL A   1      45.198  30.835  29.003  1.00  0.00     0.037 A 
BRANCH  50  64
ATOM     64  C   UNL A   1      49.172  26.427  27.272  1.00  0.00     0.057 A 
ATOM     65  C   UNL A   1      50.008  25.986  28.305  1.00  0.00     0.134 A 
ATOM     66  C   UNL A   1      49.724  26.512  25.987  1.00  0.00     0.134 A 
ATOM     67  F   UNL A   1      49.547  25.886  29.561  1.00  0.00    -0.206 F 
ATOM     68  C   UNL A   1      51.342  25.645  28.071  1.00  0.00     0.040 A 
ATOM     69  C   UNL A   1      51.049  26.149  25.735  1.00  0.00     0.040 A 
ATOM     70  F   UNL A   1      48.974  26.914  24.950  1.00  0.00    -0.206 F 
ATOM     71  C   UNL A   1      51.864  25.719  26.781  1.00  0.00     0.006 A 
ENDBRANCH  50  64
BRANCH  51  72
ATOM     72  C   UNL A   1      39.578  28.604  29.003  1.00  0.00     0.057 A 
ATOM     73  C   UNL A   1      39.005  28.414  30.266  1.00  0.00     0.134 A 
ATOM     74  C   UNL A   1      38.769  29.157  28.004  1.00  0.00     0.134 A 
ATOM     75  F   UNL A   1      39.727  27.884  31.265  1.00  0.00    -0.206 F 
ATOM     76  C   UNL A   1      37.678  28.757  30.527  1.00  0.00     0.040 A 
ATOM     77  C   UNL A   1      37.448  29.531  28.259  1.00  0.00     0.040 A 
ATOM     78  F   UNL A   1      39.266  29.381  26.779  1.00  0.00    -0.206 F 
ATOM     79  C   UNL A   1      36.899  29.328  29.523  1.00  0.00     0.006 A 
ENDBRANCH  51  72
BRANCH  63  80
ATOM     80  C   UNL A   1      45.469  32.261  29.379  1.00  0.00     0.057 A 
ATOM     81  C   UNL A   1      45.421  33.274  28.413  1.00  0.00     0.134 A 
ATOM     82  C   UNL A   1      45.780  32.634  30.694  1.00  0.00     0.134 A 
ATOM     83  F   UNL A   1      45.136  32.985  27.135  1.00  0.00    -0.206 F 
ATOM     84  C   UNL A   1      45.668  34.608  28.743  1.00  0.00     0.040 A 
ATOM     85  C   UNL A   1      46.000  33.968  31.041  1.00  0.00     0.040 A 
ATOM     86  F   UNL A   1      45.824  31.713  31.669  1.00  0.00    -0.206 F 
ATOM     87  C   UNL A   1      45.949  34.959  30.061  1.00  0.00     0.006 A 
ENDBRANCH  63  80
ENDBRANCH  37  38
ENDBRANCH  29  32
ENDBRANCH  27  28
ENDBRANCH  26  27
ENDBRANCH   1  26
TORSDOF 13
ENDMDL
MODEL 3
REMARK VINA RESULT:     -12.6      4.271      9.132
REMARK SMILES Cc1cc2c(=O)c3ccccc3oc2c(C(=O)NCCCCCCNC(=O)c2ccc(-c3c4nc(c(-c5c(F)cccc5F)c5ccc([nH]5)c(-c5c(F)cccc5F)c5nc(c(-c6c(F)cccc6F)c6ccc3[nH]6)C=C5)C=C4)cc2)c1C
REMARK SMILES IDX 22 1 21 2 20 3 19 4 18 5 16 6 17 7 15 9 1 10 2 11 3 12 82 13
REMARK SMILES IDX 4 14 83 15 5 16 14 17 6 18 7 19 13 20 8 21 12 22 9 23 11 24
REMARK SMILES IDX 10 25 23 26 24 27 25 28 26 29 27 31 28 32 29 33 81 34 30 35
REMARK SMILES IDX 80 36 31 37 32 38 33 39 74 40 34 41 79 42 73 43 75 44 35 45
REMARK SMILES IDX 78 46 72 47 71 48 36 50 62 51 45 52 61 53 46 54 49 55 60 56
REMARK SMILES IDX 76 57 47 58 48 59 59 61 77 62 50 63 37 64 38 65 43 66 39 67
REMARK SMILES IDX 40 68 42 69 44 70 41 71 63 72 64 73 69 74 65 75 66 76 68 77
REMARK SMILES IDX 70 78 67 79 51 80 52 81 57 82 53 83 54 84 56 85 58 86 55 87
REMARK H PARENT 18 8 25 30 75 49 49 60
REMARK Flexibility Score: inf
ROOT
ATOM      1  C   UNL A   1      37.260  20.388  24.953  1.00  0.00     0.002 C 
ENDROOT
BRANCH   1   2
ATOM      2  C   UNL A   1      37.349  21.857  24.533  1.00  0.00     0.002 C 
BRANCH   2   3
ATOM      3  C   UNL A   1      37.818  22.803  25.642  1.00  0.00     0.021 C 
BRANCH   3   4
ATOM      4  C   UNL A   1      36.730  23.755  26.173  1.00  0.00     0.116 C 
BRANCH   4   5
ATOM      5  N   UNL A   1      35.677  22.981  26.799  1.00  0.00    -0.352 N 
ATOM      6  C   UNL A   1      34.369  22.645  26.583  1.00  0.00     0.255 C 
ATOM      7  O   UNL A   1      33.838  22.186  27.603  1.00  0.00    -0.269 OA
ATOM      8  H   UNL A   1      36.002  22.574  27.635  1.00  0.00     0.163 HD
BRANCH   6   9
ATOM      9  C   UNL A   1      33.543  22.729  25.315  1.00  0.00     0.086 A 
ATOM     10  C   UNL A   1      31.991  20.864  22.290  1.00  0.00     0.044 C 
ATOM     11  C   UNL A   1      32.470  21.950  23.227  1.00  0.00    -0.046 A 
ATOM     12  C   UNL A   1      32.232  23.269  22.843  1.00  0.00     0.019 A 
ATOM     13  C   UNL A   1      33.198  21.670  24.424  1.00  0.00    -0.032 A 
ATOM     14  C   UNL A   1      32.622  24.314  23.669  1.00  0.00     0.066 A 
ATOM     15  C   UNL A   1      33.599  20.241  24.632  1.00  0.00     0.045 C 
ATOM     16  C   UNL A   1      32.438  25.699  23.204  1.00  0.00     0.200 A 
ATOM     17  C   UNL A   1      33.216  24.062  24.910  1.00  0.00     0.151 A 
ATOM     18  O   UNL A   1      31.954  25.950  22.107  1.00  0.00    -0.288 OA
ATOM     19  C   UNL A   1      32.888  26.764  24.099  1.00  0.00     0.065 A 
ATOM     20  O   UNL A   1      33.487  25.106  25.778  1.00  0.00    -0.455 OA
ATOM     21  C   UNL A   1      32.812  28.108  23.719  1.00  0.00     0.016 A 
ATOM     22  C   UNL A   1      33.389  26.401  25.342  1.00  0.00     0.138 A 
ATOM     23  C   UNL A   1      33.240  29.097  24.603  1.00  0.00     0.001 A 
ATOM     24  C   UNL A   1      33.819  27.393  26.224  1.00  0.00     0.048 A 
ATOM     25  C   UNL A   1      33.743  28.740  25.856  1.00  0.00     0.004 A 
ENDBRANCH   6   9
ENDBRANCH   4   5
ENDBRANCH   3   4
ENDBRANCH   2   3
ENDBRANCH   1   2
BRANCH   1  26
ATOM     26  C   UNL A   1      38.568  19.603  24.838  1.00  0.00     0.021 C 
BRANCH  26  27
ATOM     27  C   UNL A   1      39.360  19.495  26.136  1.00  0.00     0.116 C 
BRANCH  27  28
ATOM     28  N   UNL A   1      40.686  18.931  25.924  1.00  0.00    -0.352 N 
ATOM     29  C   UNL A   1      41.918  19.544  25.959  1.00  0.00     0.251 C 
ATOM     30  H   UNL A   1      40.704  17.967  25.727  1.00  0.00     0.163 HD
ATOM     31  O   UNL A   1      42.909  18.970  25.543  1.00  0.00    -0.269 OA
BRANCH  29  32
ATOM     32  C   UNL A   1      42.022  20.920  26.489  1.00  0.00     0.039 A 
ATOM     33  C   UNL A   1      42.221  21.996  25.623  1.00  0.00     0.014 A 
ATOM     34  C   UNL A   1      41.941  21.130  27.869  1.00  0.00     0.014 A 
ATOM     35  C   UNL A   1      42.513  23.251  26.141  1.00  0.00     0.010 A 
ATOM     36  C   UNL A   1      42.147  22.412  28.384  1.00  0.00     0.010 A 
ATOM     37  C   UNL A   1      42.487  23.472  27.528  1.00  0.00    -0.014 A 
BRANCH  37  38
ATOM     38  C   UNL A   1      42.840  24.812  28.060  1.00  0.00     0.031 A 
ATOM     39  C   UNL A   1      41.771  25.848  28.290  1.00  0.00     0.074 A 
ATOM     40  C   UNL A   1      44.118  25.080  28.386  1.00  0.00     0.049 A 
ATOM     41  N   UNL A   1      41.889  27.076  28.728  1.00  0.00    -0.248 NA
ATOM     42  C   UNL A   1      40.385  25.453  27.985  1.00  0.00     0.031 C 
ATOM     43  C   UNL A   1      45.240  24.151  28.232  1.00  0.00     0.029 A 
ATOM     44  N   UNL A   1      44.688  26.202  28.928  1.00  0.00    -0.354 N 
ATOM     45  C   UNL A   1      40.604  27.605  28.734  1.00  0.00     0.074 A 
ATOM     46  C   UNL A   1      39.723  26.576  28.226  1.00  0.00     0.031 C 
ATOM     47  C   UNL A   1      46.355  24.726  28.707  1.00  0.00     0.029 A 
ATOM     48  C   UNL A   1      46.042  26.085  29.133  1.00  0.00     0.049 A 
ATOM     49  H   UNL A   1      44.178  27.014  29.149  1.00  0.00     0.167 HD
ATOM     50  C   UNL A   1      40.194  28.832  29.138  1.00  0.00     0.037 A 
ATOM     51  C   UNL A   1      46.934  26.982  29.589  1.00  0.00     0.037 A 
ATOM     52  C   UNL A   1      41.073  29.850  29.654  1.00  0.00     0.049 A 
ATOM     53  C   UNL A   1      46.461  28.358  29.960  1.00  0.00     0.074 A 
ATOM     54  C   UNL A   1      40.754  31.122  30.100  1.00  0.00     0.029 A 
ATOM     55  N   UNL A   1      42.446  29.713  29.791  1.00  0.00    -0.354 N 
ATOM     56  N   UNL A   1      45.243  28.841  29.965  1.00  0.00    -0.248 NA
ATOM     57  C   UNL A   1      47.493  29.316  30.378  1.00  0.00     0.031 C 
ATOM     58  C   UNL A   1      41.939  31.769  30.465  1.00  0.00     0.029 A 
ATOM     59  C   UNL A   1      42.991  30.884  30.294  1.00  0.00     0.049 A 
ATOM     60  H   UNL A   1      42.957  28.903  29.565  1.00  0.00     0.167 HD
ATOM     61  C   UNL A   1      45.359  30.154  30.404  1.00  0.00     0.074 A 
ATOM     62  C   UNL A   1      46.762  30.380  30.680  1.00  0.00     0.031 C 
ATOM     63  C   UNL A   1      44.391  31.090  30.561  1.00  0.00     0.037 A 
BRANCH  50  64
ATOM     64  C   UNL A   1      38.730  29.146  29.018  1.00  0.00     0.057 A 
ATOM     65  C   UNL A   1      38.194  29.596  27.805  1.00  0.00     0.134 A 
ATOM     66  C   UNL A   1      37.855  29.030  30.106  1.00  0.00     0.134 A 
ATOM     67  F   UNL A   1      38.976  29.736  26.724  1.00  0.00    -0.206 F 
ATOM     68  C   UNL A   1      36.842  29.922  27.679  1.00  0.00     0.040 A 
ATOM     69  C   UNL A   1      36.495  29.327  29.986  1.00  0.00     0.040 A 
ATOM     70  F   UNL A   1      38.300  28.591  31.294  1.00  0.00    -0.206 F 
ATOM     71  C   UNL A   1      35.986  29.780  28.770  1.00  0.00     0.006 A 
ENDBRANCH  50  64
BRANCH  51  72
ATOM     72  C   UNL A   1      48.371  26.622  29.692  1.00  0.00     0.057 A 
ATOM     73  C   UNL A   1      48.904  26.079  30.867  1.00  0.00     0.134 A 
ATOM     74  C   UNL A   1      49.237  26.782  28.604  1.00  0.00     0.134 A 
ATOM     75  F   UNL A   1      48.127  25.904  31.946  1.00  0.00    -0.206 F 
ATOM     76  C   UNL A   1      50.246  25.712  30.959  1.00  0.00     0.040 A 
ATOM     77  C   UNL A   1      50.575  26.391  28.674  1.00  0.00     0.040 A 
ATOM     78  F   UNL A   1      48.781  27.278  27.445  1.00  0.00    -0.206 F 
ATOM     79  C   UNL A   1      51.084  25.858  29.856  1.00  0.00     0.006 A 
ENDBRANCH  51  72
BRANCH  63  80
ATOM     80  C   UNL A   1      44.825  32.428  31.084  1.00  0.00     0.057 A 
ATOM     81  C   UNL A   1      45.194  33.452  30.203  1.00  0.00     0.134 A 
ATOM     82  C   UNL A   1      44.881  32.704  32.457  1.00  0.00     0.134 A 
ATOM     83  F   UNL A   1      45.169  33.253  28.876  1.00  0.00    -0.206 F 
ATOM     84  C   UNL A   1      45.598  34.704  30.669  1.00  0.00     0.040 A 
ATOM     85  C   UNL A   1      45.257  33.960  32.933  1.00  0.00     0.040 A 
ATOM     86  F   UNL A   1      44.523  31.771  33.352  1.00  0.00    -0.206 F 
ATOM     87  C   UNL A   1      45.621  34.964  32.037  1.00  0.00     0.006 A 
ENDBRANCH  63  80
ENDBRANCH  37  38
ENDBRANCH  29  32
ENDBRANCH  27  28
ENDBRANCH  26  27
ENDBRANCH   1  26
TORSDOF 13
ENDMDL
