MODEL 1
REMARK VINA RESULT:     -12.5      0.000      0.000
REMARK SMILES O=C(Cn1c(=O)[nH]c2ccccc2c1=O)NC[C@H]1CC[C@@H](C(=O)N2CCC(C(=O)NCCCCCCNC(=O)c3ccc(-c4c5nc(c(-c6c(F)cccc6F)c6ccc([nH]6)c(-c6c(F)cccc6F)c6nc(c(-c7c(F)cccc7F)c7ccc4[nH]7)C=C6)C=C5)cc3)CC2)CC1
REMARK SMILES IDX 32 1 31 2 30 3 28 4 29 5 27 7 22 8 23 9 24 10 25 11 95 12
REMARK SMILES IDX 26 13 94 14 21 15 18 16 19 17 97 18 20 19 96 20 17 21 16 22
REMARK SMILES IDX 1 23 2 24 3 26 4 27 5 28 14 29 6 30 7 31 13 32 15 33 8 34
REMARK SMILES IDX 12 36 9 37 11 38 10 39 33 40 34 41 35 42 36 43 37 44 38 45
REMARK SMILES IDX 39 47 40 48 41 49 93 50 42 51 92 52 43 53 44 54 45 55 86 56
REMARK SMILES IDX 46 57 91 58 85 59 87 60 47 61 90 62 84 63 83 64 48 66 74 67
REMARK SMILES IDX 57 68 73 69 58 70 61 71 72 72 88 73 59 74 60 75 71 77 89 78
REMARK SMILES IDX 62 79 49 80 50 81 55 82 51 83 52 84 54 85 56 86 53 87 75 88
REMARK SMILES IDX 76 89 81 90 77 91 78 92 80 93 82 94 79 95 63 96 64 97 69 98
REMARK SMILES IDX 65 99 66 100 68 101 70 102 67 103
REMARK H PARENT 30 6 16 25 7 35 37 46 87 65 61 76
REMARK Flexibility Score: inf
ROOT
ATOM      1  C   UNL A   1      36.354  21.962  25.549  1.00  0.00     0.021 C 
ENDROOT
BRANCH   1   2
ATOM      2  C   UNL A   1      34.900  22.048  25.999  1.00  0.00     0.116 C 
BRANCH   2   3
ATOM      3  N   UNL A   1      34.121  20.939  25.476  1.00  0.00    -0.356 N 
ATOM      4  C   UNL A   1      32.988  20.930  24.722  1.00  0.00     0.223 C 
ATOM      5  O   UNL A   1      32.484  19.842  24.440  1.00  0.00    -0.275 OA
ATOM      6  H   UNL A   1      34.471  20.047  25.702  1.00  0.00     0.163 HD
BRANCH   4   7
ATOM      7  C   UNL A   1      32.374  22.223  24.216  1.00  0.00     0.082 C 
ATOM      8  C   UNL A   1      32.220  26.306  25.176  1.00  0.00     0.225 C 
ATOM      9  O   UNL A   1      31.998  26.395  26.389  1.00  0.00    -0.275 OA
ATOM     10  N   UNL A   1      32.113  25.080  24.549  1.00  0.00    -0.342 N 
ATOM     11  C   UNL A   1      30.979  24.231  24.885  1.00  0.00     0.120 C 
ATOM     12  C   UNL A   1      32.996  24.595  23.511  1.00  0.00     0.120 C 
ATOM     13  C   UNL A   1      31.383  22.812  25.226  1.00  0.00     0.035 C 
ATOM     14  C   UNL A   1      33.476  23.175  23.739  1.00  0.00     0.035 C 
BRANCH   8  15
ATOM     15  C   UNL A   1      32.319  27.606  24.344  1.00  0.00     0.078 C 
ATOM     16  C   UNL A   1      33.021  30.065  25.953  1.00  0.00     0.008 C 
ATOM     17  C   UNL A   1      34.023  28.937  25.674  1.00  0.00     0.006 C 
ATOM     18  C   UNL A   1      31.560  29.784  25.555  1.00  0.00     0.006 C 
ATOM     19  C   UNL A   1      33.742  28.166  24.394  1.00  0.00     0.014 C 
ATOM     20  C   UNL A   1      31.296  28.726  24.485  1.00  0.00     0.014 C 
BRANCH  16  21
ATOM     21  C   UNL A   1      33.078  30.468  27.444  1.00  0.00     0.119 C 
BRANCH  21  22
ATOM     22  N   UNL A   1      33.787  31.704  27.646  1.00  0.00    -0.354 N 
ATOM     23  O   UNL A   1      31.935  33.049  27.460  1.00  0.00    -0.273 OA
ATOM     24  C   UNL A   1      33.145  32.926  27.628  1.00  0.00     0.240 C 
ATOM     25  H   UNL A   1      34.760  31.678  27.800  1.00  0.00     0.163 HD
BRANCH  24  26
ATOM     26  C   UNL A   1      34.079  34.116  27.815  1.00  0.00     0.230 C 
BRANCH  26  27
ATOM     27  N   UNL A   1      34.164  34.502  29.217  1.00  0.00    -0.250 N 
ATOM     28  C   UNL A   1      33.300  35.480  29.673  1.00  0.00     0.329 A 
ATOM     29  C   UNL A   1      35.102  33.852  30.014  1.00  0.00     0.264 A 
ATOM     30  O   UNL A   1      32.513  36.087  28.945  1.00  0.00    -0.248 OA
ATOM     31  N   UNL A   1      33.353  35.786  31.000  1.00  0.00    -0.307 N 
ATOM     32  C   UNL A   1      35.094  34.189  31.451  1.00  0.00     0.064 A 
ATOM     33  O   UNL A   1      35.895  33.012  29.602  1.00  0.00    -0.268 OA
ATOM     34  C   UNL A   1      34.206  35.159  31.903  1.00  0.00     0.055 A 
ATOM     35  H   UNL A   1      32.754  36.490  31.339  1.00  0.00     0.171 HD
ATOM     36  C   UNL A   1      35.938  33.533  32.352  1.00  0.00     0.016 A 
ATOM     37  C   UNL A   1      34.156  35.492  33.256  1.00  0.00     0.027 A 
ATOM     38  C   UNL A   1      35.882  33.854  33.708  1.00  0.00     0.001 A 
ATOM     39  C   UNL A   1      34.994  34.834  34.159  1.00  0.00     0.002 A 
ENDBRANCH  26  27
ENDBRANCH  24  26
ENDBRANCH  21  22
ENDBRANCH  16  21
ENDBRANCH   8  15
ENDBRANCH   4   7
ENDBRANCH   2   3
ENDBRANCH   1   2
BRANCH   1  40
ATOM     40  C   UNL A   1      37.217  23.134  26.020  1.00  0.00     0.002 C 
BRANCH  40  41
ATOM     41  C   UNL A   1      38.704  22.813  26.203  1.00  0.00     0.002 C 
BRANCH  41  42
ATOM     42  C   UNL A   1      39.170  21.509  25.551  1.00  0.00     0.021 C 
BRANCH  42  43
ATOM     43  C   UNL A   1      39.585  20.423  26.533  1.00  0.00     0.116 C 
BRANCH  43  44
ATOM     44  N   UNL A   1      40.642  19.575  26.009  1.00  0.00    -0.352 N 
ATOM     45  C   UNL A   1      41.977  19.863  25.851  1.00  0.00     0.251 C 
ATOM     46  H   UNL A   1      40.364  18.674  25.727  1.00  0.00     0.163 HD
ATOM     47  O   UNL A   1      42.719  19.101  25.251  1.00  0.00    -0.269 OA
BRANCH  45  48
ATOM     48  C   UNL A   1      42.493  21.136  26.392  1.00  0.00     0.039 A 
ATOM     49  C   UNL A   1      42.536  21.348  27.773  1.00  0.00     0.014 A 
ATOM     50  C   UNL A   1      42.880  22.141  25.504  1.00  0.00     0.014 A 
ATOM     51  C   UNL A   1      42.827  22.617  28.262  1.00  0.00     0.010 A 
ATOM     52  C   UNL A   1      43.242  23.394  26.003  1.00  0.00     0.010 A 
ATOM     53  C   UNL A   1      43.179  23.652  27.382  1.00  0.00    -0.014 A 
BRANCH  53  54
ATOM     54  C   UNL A   1      43.478  25.003  27.914  1.00  0.00     0.031 A 
ATOM     55  C   UNL A   1      42.368  25.977  28.198  1.00  0.00     0.074 A 
ATOM     56  C   UNL A   1      44.757  25.341  28.163  1.00  0.00     0.049 A 
ATOM     57  N   UNL A   1      42.443  27.223  28.591  1.00  0.00    -0.248 NA
ATOM     58  C   UNL A   1      40.992  25.487  28.014  1.00  0.00     0.031 C 
ATOM     59  C   UNL A   1      45.917  24.472  27.957  1.00  0.00     0.029 A 
ATOM     60  N   UNL A   1      45.295  26.504  28.651  1.00  0.00    -0.354 N 
ATOM     61  C   UNL A   1      41.132  27.672  28.684  1.00  0.00     0.074 A 
ATOM     62  C   UNL A   1      40.279  26.572  28.285  1.00  0.00     0.031 C 
ATOM     63  C   UNL A   1      47.026  25.121  28.341  1.00  0.00     0.029 A 
ATOM     64  C   UNL A   1      46.663  26.472  28.754  1.00  0.00     0.049 A 
ATOM     65  H   UNL A   1      44.753  27.287  28.902  1.00  0.00     0.167 HD
ATOM     66  C   UNL A   1      40.682  28.888  29.077  1.00  0.00     0.037 A 
ATOM     67  C   UNL A   1      47.533  27.436  29.107  1.00  0.00     0.037 A 
ATOM     68  C   UNL A   1      41.533  29.973  29.491  1.00  0.00     0.049 A 
ATOM     69  C   UNL A   1      47.011  28.799  29.448  1.00  0.00     0.074 A 
ATOM     70  C   UNL A   1      41.174  31.235  29.935  1.00  0.00     0.029 A 
ATOM     71  N   UNL A   1      42.920  29.925  29.505  1.00  0.00    -0.354 N 
ATOM     72  N   UNL A   1      45.770  29.213  29.527  1.00  0.00    -0.248 NA
ATOM     73  C   UNL A   1      48.013  29.837  29.726  1.00  0.00     0.031 C 
ATOM     74  C   UNL A   1      42.345  31.962  30.180  1.00  0.00     0.029 A 
ATOM     75  C   UNL A   1      43.432  31.143  29.922  1.00  0.00     0.049 A 
ATOM     76  H   UNL A   1      43.460  29.140  29.257  1.00  0.00     0.167 HD
ATOM     77  C   UNL A   1      45.841  30.558  29.862  1.00  0.00     0.074 A 
ATOM     78  C   UNL A   1      47.247  30.882  30.000  1.00  0.00     0.031 C 
ATOM     79  C   UNL A   1      44.834  31.449  30.031  1.00  0.00     0.037 A 
BRANCH  66  80
ATOM     80  C   UNL A   1      39.199  29.117  29.062  1.00  0.00     0.057 A 
ATOM     81  C   UNL A   1      38.448  29.009  30.239  1.00  0.00     0.134 A 
ATOM     82  C   UNL A   1      38.507  29.405  27.878  1.00  0.00     0.134 A 
ATOM     83  F   UNL A   1      39.048  28.730  31.407  1.00  0.00    -0.206 F 
ATOM     84  C   UNL A   1      37.062  29.176  30.240  1.00  0.00     0.040 A 
ATOM     85  C   UNL A   1      37.123  29.595  27.870  1.00  0.00     0.040 A 
ATOM     86  F   UNL A   1      39.169  29.534  26.719  1.00  0.00    -0.206 F 
ATOM     87  C   UNL A   1      36.397  29.475  29.053  1.00  0.00     0.006 A 
ENDBRANCH  66  80
BRANCH  67  88
ATOM     88  C   UNL A   1      48.990  27.158  29.103  1.00  0.00     0.057 A 
ATOM     89  C   UNL A   1      49.767  27.357  27.956  1.00  0.00     0.134 A 
ATOM     90  C   UNL A   1      49.640  26.698  30.254  1.00  0.00     0.134 A 
ATOM     91  F   UNL A   1      49.201  27.795  26.822  1.00  0.00    -0.206 F 
ATOM     92  C   UNL A   1      51.137  27.096  27.949  1.00  0.00     0.040 A 
ATOM     93  C   UNL A   1      51.014  26.458  30.268  1.00  0.00     0.040 A 
ATOM     94  F   UNL A   1      48.950  26.511  31.389  1.00  0.00    -0.206 F 
ATOM     95  C   UNL A   1      51.765  26.652  29.110  1.00  0.00     0.006 A 
ENDBRANCH  67  88
BRANCH  79  96
ATOM     96  C   UNL A   1      45.230  32.853  30.374  1.00  0.00     0.057 A 
ATOM     97  C   UNL A   1      45.410  33.814  29.372  1.00  0.00     0.134 A 
ATOM     98  C   UNL A   1      45.436  33.249  31.701  1.00  0.00     0.134 A 
ATOM     99  F   UNL A   1      45.230  33.497  28.082  1.00  0.00    -0.206 F 
ATOM    100  C   UNL A   1      45.781  35.123  29.680  1.00  0.00     0.040 A 
ATOM    101  C   UNL A   1      45.786  34.560  32.023  1.00  0.00     0.040 A 
ATOM    102  F   UNL A   1      45.259  32.377  32.705  1.00  0.00    -0.206 F 
ATOM    103  C   UNL A   1      45.963  35.501  31.010  1.00  0.00     0.006 A 
ENDBRANCH  79  96
ENDBRANCH  53  54
ENDBRANCH  45  48
ENDBRANCH  43  44
ENDBRANCH  42  43
ENDBRANCH  41  42
ENDBRANCH  40  41
ENDBRANCH   1  40
TORSDOF 18
ENDMDL
MODEL 2
REMARK VINA RESULT:     -12.5      1.765      6.047
REMARK SMILES O=C(Cn1c(=O)[nH]c2ccccc2c1=O)NC[C@H]1CC[C@@H](C(=O)N2CCC(C(=O)NCCCCCCNC(=O)c3ccc(-c4c5nc(c(-c6c(F)cccc6F)c6ccc([nH]6)c(-c6c(F)cccc6F)c6nc(c(-c7c(F)cccc7F)c7ccc4[nH]7)C=C6)C=C5)cc3)CC2)CC1
REMARK SMILES IDX 32 1 31 2 30 3 28 4 29 5 27 7 22 8 23 9 24 10 25 11 95 12
REMARK SMILES IDX 26 13 94 14 21 15 18 16 19 17 97 18 20 19 96 20 17 21 16 22
REMARK SMILES IDX 1 23 2 24 3 26 4 27 5 28 14 29 6 30 7 31 13 32 15 33 8 34
REMARK SMILES IDX 12 36 9 37 11 38 10 39 33 40 34 41 35 42 36 43 37 44 38 45
REMARK SMILES IDX 39 47 40 48 41 49 93 50 42 51 92 52 43 53 44 54 45 55 86 56
REMARK SMILES IDX 46 57 91 58 85 59 87 60 47 61 90 62 84 63 83 64 48 66 74 67
REMARK SMILES IDX 57 68 73 69 58 70 61 71 72 72 88 73 59 74 60 75 71 77 89 78
REMARK SMILES IDX 62 79 49 80 50 81 55 82 51 83 52 84 54 85 56 86 53 87 75 88
REMARK SMILES IDX 76 89 81 90 77 91 78 92 80 93 82 94 79 95 63 96 64 97 69 98
REMARK SMILES IDX 65 99 66 100 68 101 70 102 67 103
REMARK H PARENT 30 6 16 25 7 35 37 46 87 65 61 76
REMARK Flexibility Score: inf
ROOT
ATOM      1  C   UNL A   1      37.240  21.932  24.911  1.00  0.00     0.021 C 
ENDROOT
BRANCH   1   2
ATOM      2  C   UNL A   1      36.059  21.223  25.563  1.00  0.00     0.116 C 
BRANCH   2   3
ATOM      3  N   UNL A   1      34.957  21.069  24.628  1.00  0.00    -0.356 N 
ATOM      4  C   UNL A   1      33.847  21.832  24.435  1.00  0.00     0.223 C 
ATOM      5  O   UNL A   1      33.022  21.461  23.598  1.00  0.00    -0.275 OA
ATOM      6  H   UNL A   1      35.025  20.285  24.037  1.00  0.00     0.163 HD
BRANCH   4   7
ATOM      7  C   UNL A   1      33.640  23.124  25.207  1.00  0.00     0.082 C 
ATOM      8  C   UNL A   1      32.209  27.026  24.630  1.00  0.00     0.225 C 
ATOM      9  O   UNL A   1      32.704  27.452  23.580  1.00  0.00    -0.275 OA
ATOM     10  N   UNL A   1      32.672  25.844  25.173  1.00  0.00    -0.342 N 
ATOM     11  C   UNL A   1      34.109  25.614  25.201  1.00  0.00     0.120 C 
ATOM     12  C   UNL A   1      31.846  24.837  25.802  1.00  0.00     0.120 C 
ATOM     13  C   UNL A   1      34.503  24.260  24.648  1.00  0.00     0.035 C 
ATOM     14  C   UNL A   1      32.143  23.427  25.328  1.00  0.00     0.035 C 
BRANCH   8  15
ATOM     15  C   UNL A   1      31.303  27.968  25.458  1.00  0.00     0.078 C 
ATOM     16  C   UNL A   1      32.802  29.978  27.144  1.00  0.00     0.008 C 
ATOM     17  C   UNL A   1      32.738  30.056  25.612  1.00  0.00     0.006 C 
ATOM     18  C   UNL A   1      32.241  28.691  27.777  1.00  0.00     0.006 C 
ATOM     19  C   UNL A   1      31.494  29.421  25.014  1.00  0.00     0.014 C 
ATOM     20  C   UNL A   1      31.228  27.876  26.976  1.00  0.00     0.014 C 
BRANCH  16  21
ATOM     21  C   UNL A   1      34.254  30.197  27.626  1.00  0.00     0.119 C 
BRANCH  21  22
ATOM     22  N   UNL A   1      34.349  31.255  28.597  1.00  0.00    -0.354 N 
ATOM     23  O   UNL A   1      35.572  32.667  27.260  1.00  0.00    -0.273 OA
ATOM     24  C   UNL A   1      35.024  32.431  28.333  1.00  0.00     0.240 C 
ATOM     25  H   UNL A   1      33.921  31.137  29.476  1.00  0.00     0.163 HD
BRANCH  24  26
ATOM     26  C   UNL A   1      35.049  33.403  29.506  1.00  0.00     0.230 C 
BRANCH  26  27
ATOM     27  N   UNL A   1      35.883  32.898  30.589  1.00  0.00    -0.250 N 
ATOM     28  C   UNL A   1      35.252  32.350  31.690  1.00  0.00     0.329 A 
ATOM     29  C   UNL A   1      37.265  32.986  30.441  1.00  0.00     0.264 A 
ATOM     30  O   UNL A   1      34.028  32.329  31.834  1.00  0.00    -0.248 OA
ATOM     31  N   UNL A   1      36.047  31.830  32.667  1.00  0.00    -0.307 N 
ATOM     32  C   UNL A   1      38.083  32.373  31.505  1.00  0.00     0.064 A 
ATOM     33  O   UNL A   1      37.824  33.507  29.482  1.00  0.00    -0.268 OA
ATOM     34  C   UNL A   1      37.438  31.806  32.599  1.00  0.00     0.055 A 
ATOM     35  H   UNL A   1      35.615  31.448  33.465  1.00  0.00     0.171 HD
ATOM     36  C   UNL A   1      39.477  32.332  31.412  1.00  0.00     0.016 A 
ATOM     37  C   UNL A   1      38.175  31.201  33.616  1.00  0.00     0.027 A 
ATOM     38  C   UNL A   1      40.217  31.717  32.421  1.00  0.00     0.001 A 
ATOM     39  C   UNL A   1      39.567  31.154  33.522  1.00  0.00     0.002 A 
ENDBRANCH  26  27
ENDBRANCH  24  26
ENDBRANCH  21  22
ENDBRANCH  16  21
ENDBRANCH   8  15
ENDBRANCH   4   7
ENDBRANCH   2   3
ENDBRANCH   1   2
BRANCH   1  40
ATOM     40  C   UNL A   1      37.992  22.873  25.854  1.00  0.00     0.002 C 
BRANCH  40  41
ATOM     41  C   UNL A   1      39.316  22.326  26.397  1.00  0.00     0.002 C 
BRANCH  41  42
ATOM     42  C   UNL A   1      39.816  21.049  25.718  1.00  0.00     0.021 C 
BRANCH  42  43
ATOM     43  C   UNL A   1      40.115  19.901  26.672  1.00  0.00     0.116 C 
BRANCH  43  44
ATOM     44  N   UNL A   1      41.153  19.018  26.169  1.00  0.00    -0.352 N 
ATOM     45  C   UNL A   1      42.453  19.321  25.839  1.00  0.00     0.251 C 
ATOM     46  H   UNL A   1      40.891  18.077  26.046  1.00  0.00     0.163 HD
ATOM     47  O   UNL A   1      43.169  18.502  25.281  1.00  0.00    -0.269 OA
BRANCH  45  48
ATOM     48  C   UNL A   1      42.961  20.674  26.140  1.00  0.00     0.039 A 
ATOM     49  C   UNL A   1      43.009  21.130  27.461  1.00  0.00     0.014 A 
ATOM     50  C   UNL A   1      43.335  21.507  25.084  1.00  0.00     0.014 A 
ATOM     51  C   UNL A   1      43.292  22.467  27.713  1.00  0.00     0.010 A 
ATOM     52  C   UNL A   1      43.689  22.831  25.348  1.00  0.00     0.010 A 
ATOM     53  C   UNL A   1      43.631  23.331  26.660  1.00  0.00    -0.014 A 
BRANCH  53  54
ATOM     54  C   UNL A   1      43.921  24.758  26.939  1.00  0.00     0.031 A 
ATOM     55  C   UNL A   1      45.305  25.310  26.737  1.00  0.00     0.074 A 
ATOM     56  C   UNL A   1      42.925  25.561  27.355  1.00  0.00     0.049 A 
ATOM     57  N   UNL A   1      45.763  26.508  27.001  1.00  0.00    -0.248 NA
ATOM     58  C   UNL A   1      46.308  24.397  26.165  1.00  0.00     0.031 C 
ATOM     59  C   UNL A   1      41.535  25.148  27.558  1.00  0.00     0.029 A 
ATOM     60  N   UNL A   1      42.925  26.895  27.673  1.00  0.00    -0.354 N 
ATOM     61  C   UNL A   1      47.106  26.489  26.646  1.00  0.00     0.074 A 
ATOM     62  C   UNL A   1      47.397  25.153  26.168  1.00  0.00     0.031 C 
ATOM     63  C   UNL A   1      40.812  26.211  27.941  1.00  0.00     0.029 A 
ATOM     64  C   UNL A   1      41.699  27.361  28.075  1.00  0.00     0.049 A 
ATOM     65  H   UNL A   1      43.728  27.462  27.620  1.00  0.00     0.167 HD
ATOM     66  C   UNL A   1      48.009  27.496  26.704  1.00  0.00     0.037 A 
ATOM     67  C   UNL A   1      41.335  28.572  28.536  1.00  0.00     0.037 A 
ATOM     68  C   UNL A   1      47.710  28.828  27.163  1.00  0.00     0.049 A 
ATOM     69  C   UNL A   1      42.377  29.641  28.676  1.00  0.00     0.074 A 
ATOM     70  C   UNL A   1      48.547  29.929  27.232  1.00  0.00     0.029 A 
ATOM     71  N   UNL A   1      46.472  29.238  27.636  1.00  0.00    -0.354 N 
ATOM     72  N   UNL A   1      43.644  29.609  28.343  1.00  0.00    -0.248 NA
ATOM     73  C   UNL A   1      41.943  30.908  29.279  1.00  0.00     0.031 C 
ATOM     74  C   UNL A   1      47.827  30.994  27.786  1.00  0.00     0.029 A 
ATOM     75  C   UNL A   1      46.531  30.567  28.028  1.00  0.00     0.049 A 
ATOM     76  H   UNL A   1      45.670  28.670  27.685  1.00  0.00     0.167 HD
ATOM     77  C   UNL A   1      44.160  30.848  28.696  1.00  0.00     0.074 A 
ATOM     78  C   UNL A   1      43.060  31.618  29.242  1.00  0.00     0.031 C 
ATOM     79  C   UNL A   1      45.430  31.305  28.588  1.00  0.00     0.037 A 
BRANCH  66  80
ATOM     80  C   UNL A   1      49.415  27.194  26.276  1.00  0.00     0.057 A 
ATOM     81  C   UNL A   1      49.777  27.244  24.924  1.00  0.00     0.134 A 
ATOM     82  C   UNL A   1      50.402  26.813  27.195  1.00  0.00     0.134 A 
ATOM     83  F   UNL A   1      48.878  27.597  23.992  1.00  0.00    -0.206 F 
ATOM     84  C   UNL A   1      51.068  26.926  24.500  1.00  0.00     0.040 A 
ATOM     85  C   UNL A   1      51.703  26.512  26.786  1.00  0.00     0.040 A 
ATOM     86  F   UNL A   1      50.124  26.757  28.506  1.00  0.00    -0.206 F 
ATOM     87  C   UNL A   1      52.036  26.562  25.434  1.00  0.00     0.006 A 
ENDBRANCH  66  80
BRANCH  67  88
ATOM     88  C   UNL A   1      39.932  28.819  28.947  1.00  0.00     0.057 A 
ATOM     89  C   UNL A   1      39.516  28.626  30.269  1.00  0.00     0.134 A 
ATOM     90  C   UNL A   1      38.978  29.265  28.026  1.00  0.00     0.134 A 
ATOM     91  F   UNL A   1      40.384  28.198  31.198  1.00  0.00    -0.206 F 
ATOM     92  C   UNL A   1      38.197  28.857  30.660  1.00  0.00     0.040 A 
ATOM     93  C   UNL A   1      37.662  29.524  28.409  1.00  0.00     0.040 A 
ATOM     94  F   UNL A   1      39.325  29.489  26.750  1.00  0.00    -0.206 F 
ATOM     95  C   UNL A   1      37.268  29.314  29.730  1.00  0.00     0.006 A 
ENDBRANCH  67  88
BRANCH  79  96
ATOM     96  C   UNL A   1      45.687  32.697  29.081  1.00  0.00     0.057 A 
ATOM     97  C   UNL A   1      45.532  33.801  28.233  1.00  0.00     0.134 A 
ATOM     98  C   UNL A   1      46.094  32.941  30.399  1.00  0.00     0.134 A 
ATOM     99  F   UNL A   1      45.147  33.633  26.959  1.00  0.00    -0.206 F 
ATOM    100  C   UNL A   1      45.771  35.100  28.681  1.00  0.00     0.040 A 
ATOM    101  C   UNL A   1      46.315  34.237  30.864  1.00  0.00     0.040 A 
ATOM    102  F   UNL A   1      46.240  31.925  31.263  1.00  0.00    -0.206 F 
ATOM    103  C   UNL A   1      46.158  35.321  30.002  1.00  0.00     0.006 A 
ENDBRANCH  79  96
ENDBRANCH  53  54
ENDBRANCH  45  48
ENDBRANCH  43  44
ENDBRANCH  42  43
ENDBRANCH  41  42
ENDBRANCH  40  41
ENDBRANCH   1  40
TORSDOF 18
ENDMDL
MODEL 3
REMARK VINA RESULT:     -12.5      4.142     11.610
REMARK SMILES O=C(Cn1c(=O)[nH]c2ccccc2c1=O)NC[C@H]1CC[C@@H](C(=O)N2CCC(C(=O)NCCCCCCNC(=O)c3ccc(-c4c5nc(c(-c6c(F)cccc6F)c6ccc([nH]6)c(-c6c(F)cccc6F)c6nc(c(-c7c(F)cccc7F)c7ccc4[nH]7)C=C6)C=C5)cc3)CC2)CC1
REMARK SMILES IDX 32 1 31 2 30 3 28 4 29 5 27 7 22 8 23 9 24 10 25 11 95 12
REMARK SMILES IDX 26 13 94 14 21 15 18 16 19 17 97 18 20 19 96 20 17 21 16 22
REMARK SMILES IDX 1 23 2 24 3 26 4 27 5 28 14 29 6 30 7 31 13 32 15 33 8 34
REMARK SMILES IDX 12 36 9 37 11 38 10 39 33 40 34 41 35 42 36 43 37 44 38 45
REMARK SMILES IDX 39 47 40 48 41 49 93 50 42 51 92 52 43 53 44 54 45 55 86 56
REMARK SMILES IDX 46 57 91 58 85 59 87 60 47 61 90 62 84 63 83 64 48 66 74 67
REMARK SMILES IDX 57 68 73 69 58 70 61 71 72 72 88 73 59 74 60 75 71 77 89 78
REMARK SMILES IDX 62 79 49 80 50 81 55 82 51 83 52 84 54 85 56 86 53 87 75 88
REMARK SMILES IDX 76 89 81 90 77 91 78 92 80 93 82 94 79 95 63 96 64 97 69 98
REMARK SMILES IDX 65 99 66 100 68 101 70 102 67 103
REMARK H PARENT 30 6 16 25 7 35 37 46 87 65 61 76
REMARK Flexibility Score: inf
ROOT
ATOM      1  C   UNL A   1      35.595  32.123  28.017  1.00  0.00     0.021 C 
ENDROOT
BRANCH   1   2
ATOM      2  C   UNL A   1      34.661  30.932  27.829  1.00  0.00     0.116 C 
BRANCH   2   3
ATOM      3  N   UNL A   1      33.288  31.367  27.637  1.00  0.00    -0.356 N 
ATOM      4  C   UNL A   1      32.294  30.848  26.865  1.00  0.00     0.223 C 
ATOM      5  O   UNL A   1      31.211  31.435  26.836  1.00  0.00    -0.275 OA
ATOM      6  H   UNL A   1      33.034  32.168  28.150  1.00  0.00     0.163 HD
BRANCH   4   7
ATOM      7  C   UNL A   1      32.501  29.563  26.082  1.00  0.00     0.082 C 
ATOM      8  C   UNL A   1      30.306  26.312  24.592  1.00  0.00     0.225 C 
ATOM      9  O   UNL A   1      29.557  25.923  25.496  1.00  0.00    -0.275 OA
ATOM     10  N   UNL A   1      31.293  27.237  24.872  1.00  0.00    -0.342 N 
ATOM     11  C   UNL A   1      32.072  27.065  26.090  1.00  0.00     0.120 C 
ATOM     12  C   UNL A   1      31.682  28.328  24.006  1.00  0.00     0.120 C 
ATOM     13  C   UNL A   1      32.155  28.328  26.921  1.00  0.00     0.035 C 
ATOM     14  C   UNL A   1      31.798  29.659  24.724  1.00  0.00     0.035 C 
BRANCH   8  15
ATOM     15  C   UNL A   1      30.312  25.540  23.251  1.00  0.00     0.078 C 
ATOM     16  C   UNL A   1      32.992  24.361  22.503  1.00  0.00     0.008 C 
ATOM     17  C   UNL A   1      32.136  23.822  23.657  1.00  0.00     0.006 C 
ATOM     18  C   UNL A   1      32.517  25.683  21.873  1.00  0.00     0.006 C 
ATOM     19  C   UNL A   1      30.645  24.064  23.485  1.00  0.00     0.014 C 
ATOM     20  C   UNL A   1      31.047  26.069  22.026  1.00  0.00     0.014 C 
BRANCH  16  21
ATOM     21  C   UNL A   1      34.462  24.505  22.956  1.00  0.00     0.119 C 
BRANCH  21  22
ATOM     22  N   UNL A   1      34.773  23.651  24.072  1.00  0.00    -0.354 N 
ATOM     23  O   UNL A   1      36.670  22.756  23.137  1.00  0.00    -0.273 OA
ATOM     24  C   UNL A   1      35.874  22.818  24.070  1.00  0.00     0.240 C 
ATOM     25  H   UNL A   1      34.182  23.660  24.860  1.00  0.00     0.163 HD
BRANCH  24  26
ATOM     26  C   UNL A   1      36.001  21.961  25.324  1.00  0.00     0.230 C 
BRANCH  26  27
ATOM     27  N   UNL A   1      35.613  20.582  25.059  1.00  0.00    -0.250 N 
ATOM     28  C   UNL A   1      36.618  19.644  24.910  1.00  0.00     0.329 A 
ATOM     29  C   UNL A   1      34.254  20.292  24.986  1.00  0.00     0.264 A 
ATOM     30  O   UNL A   1      37.818  19.924  24.921  1.00  0.00    -0.248 OA
ATOM     31  N   UNL A   1      36.237  18.350  24.721  1.00  0.00    -0.307 N 
ATOM     32  C   UNL A   1      33.891  18.871  24.820  1.00  0.00     0.064 A 
ATOM     33  O   UNL A   1      33.363  21.129  25.080  1.00  0.00    -0.268 OA
ATOM     34  C   UNL A   1      34.909  17.933  24.693  1.00  0.00     0.055 A 
ATOM     35  H   UNL A   1      36.939  17.671  24.599  1.00  0.00     0.171 HD
ATOM     36  C   UNL A   1      32.554  18.462  24.819  1.00  0.00     0.016 A 
ATOM     37  C   UNL A   1      34.606  16.579  24.553  1.00  0.00     0.027 A 
ATOM     38  C   UNL A   1      32.247  17.107  24.693  1.00  0.00     0.001 A 
ATOM     39  C   UNL A   1      33.272  16.168  24.558  1.00  0.00     0.002 A 
ENDBRANCH  26  27
ENDBRANCH  24  26
ENDBRANCH  21  22
ENDBRANCH  16  21
ENDBRANCH   8  15
ENDBRANCH   4   7
ENDBRANCH   2   3
ENDBRANCH   1   2
BRANCH   1  40
ATOM     40  C   UNL A   1      35.159  33.078  29.130  1.00  0.00     0.002 C 
BRANCH  40  41
ATOM     41  C   UNL A   1      34.999  34.541  28.703  1.00  0.00     0.002 C 
BRANCH  41  42
ATOM     42  C   UNL A   1      33.615  35.141  28.955  1.00  0.00     0.021 C 
BRANCH  42  43
ATOM     43  C   UNL A   1      33.604  36.334  29.900  1.00  0.00     0.116 C 
BRANCH  43  44
ATOM     44  N   UNL A   1      32.490  36.293  30.833  1.00  0.00    -0.352 N 
ATOM     45  C   UNL A   1      32.401  35.634  32.036  1.00  0.00     0.251 C 
ATOM     46  H   UNL A   1      31.692  36.803  30.566  1.00  0.00     0.163 HD
ATOM     47  O   UNL A   1      31.340  35.566  32.640  1.00  0.00    -0.269 OA
BRANCH  45  48
ATOM     48  C   UNL A   1      33.608  34.976  32.572  1.00  0.00     0.039 A 
ATOM     49  C   UNL A   1      34.824  35.665  32.619  1.00  0.00     0.014 A 
ATOM     50  C   UNL A   1      33.530  33.641  32.973  1.00  0.00     0.014 A 
ATOM     51  C   UNL A   1      35.990  34.975  32.930  1.00  0.00     0.010 A 
ATOM     52  C   UNL A   1      34.694  32.971  33.355  1.00  0.00     0.010 A 
ATOM     53  C   UNL A   1      35.937  33.622  33.297  1.00  0.00    -0.014 A 
BRANCH  53  54
ATOM     54  C   UNL A   1      37.188  32.893  33.618  1.00  0.00     0.031 A 
ATOM     55  C   UNL A   1      37.916  33.155  34.907  1.00  0.00     0.074 A 
ATOM     56  C   UNL A   1      37.654  31.977  32.750  1.00  0.00     0.049 A 
ATOM     57  N   UNL A   1      39.060  32.671  35.322  1.00  0.00    -0.248 NA
ATOM     58  C   UNL A   1      37.277  34.082  35.855  1.00  0.00     0.031 C 
ATOM     59  C   UNL A   1      37.019  31.614  31.481  1.00  0.00     0.029 A 
ATOM     60  N   UNL A   1      38.766  31.176  32.806  1.00  0.00    -0.354 N 
ATOM     61  C   UNL A   1      39.286  33.246  36.566  1.00  0.00     0.074 A 
ATOM     62  C   UNL A   1      38.173  34.133  36.831  1.00  0.00     0.031 C 
ATOM     63  C   UNL A   1      37.736  30.645  30.892  1.00  0.00     0.029 A 
ATOM     64  C   UNL A   1      38.913  30.368  31.707  1.00  0.00     0.049 A 
ATOM     65  H   UNL A   1      39.397  31.181  33.561  1.00  0.00     0.167 HD
ATOM     66  C   UNL A   1      40.324  33.045  37.413  1.00  0.00     0.037 A 
ATOM     67  C   UNL A   1      39.906  29.524  31.374  1.00  0.00     0.037 A 
ATOM     68  C   UNL A   1      41.420  32.148  37.153  1.00  0.00     0.049 A 
ATOM     69  C   UNL A   1      41.087  29.389  32.288  1.00  0.00     0.074 A 
ATOM     70  C   UNL A   1      42.506  31.850  37.961  1.00  0.00     0.029 A 
ATOM     71  N   UNL A   1      41.572  31.406  35.991  1.00  0.00    -0.354 N 
ATOM     72  N   UNL A   1      41.293  29.943  33.459  1.00  0.00    -0.248 NA
ATOM     73  C   UNL A   1      42.185  28.532  31.824  1.00  0.00     0.031 C 
ATOM     74  C   UNL A   1      43.334  30.959  37.269  1.00  0.00     0.029 A 
ATOM     75  C   UNL A   1      42.748  30.674  36.046  1.00  0.00     0.049 A 
ATOM     76  H   UNL A   1      40.938  31.400  35.239  1.00  0.00     0.167 HD
ATOM     77  C   UNL A   1      42.543  29.503  33.870  1.00  0.00     0.074 A 
ATOM     78  C   UNL A   1      43.035  28.613  32.837  1.00  0.00     0.031 C 
ATOM     79  C   UNL A   1      43.227  29.813  34.997  1.00  0.00     0.037 A 
BRANCH  66  80
ATOM     80  C   UNL A   1      40.333  33.822  38.697  1.00  0.00     0.057 A 
ATOM     81  C   UNL A   1      39.604  33.376  39.807  1.00  0.00     0.134 A 
ATOM     82  C   UNL A   1      41.030  35.031  38.825  1.00  0.00     0.134 A 
ATOM     83  F   UNL A   1      38.911  32.228  39.749  1.00  0.00    -0.206 F 
ATOM     84  C   UNL A   1      39.565  34.105  40.996  1.00  0.00     0.040 A 
ATOM     85  C   UNL A   1      41.015  35.758  40.016  1.00  0.00     0.040 A 
ATOM     86  F   UNL A   1      41.757  35.506  37.804  1.00  0.00    -0.206 F 
ATOM     87  C   UNL A   1      40.276  35.298  41.104  1.00  0.00     0.006 A 
ENDBRANCH  66  80
BRANCH  67  88
ATOM     88  C   UNL A   1      39.850  28.780  30.092  1.00  0.00     0.057 A 
ATOM     89  C   UNL A   1      40.407  29.305  28.920  1.00  0.00     0.134 A 
ATOM     90  C   UNL A   1      39.245  27.521  30.014  1.00  0.00     0.134 A 
ATOM     91  F   UNL A   1      41.000  30.508  28.931  1.00  0.00    -0.206 F 
ATOM     92  C   UNL A   1      40.356  28.609  27.712  1.00  0.00     0.040 A 
ATOM     93  C   UNL A   1      39.209  26.803  28.818  1.00  0.00     0.040 A 
ATOM     94  F   UNL A   1      38.714  26.958  31.110  1.00  0.00    -0.206 F 
ATOM     95  C   UNL A   1      39.761  27.351  27.661  1.00  0.00     0.006 A 
ENDBRANCH  67  88
BRANCH  79  96
ATOM     96  C   UNL A   1      44.581  29.189  35.155  1.00  0.00     0.057 A 
ATOM     97  C   UNL A   1      44.741  27.987  35.855  1.00  0.00     0.134 A 
ATOM     98  C   UNL A   1      45.726  29.785  34.612  1.00  0.00     0.134 A 
ATOM     99  F   UNL A   1      43.684  27.369  36.401  1.00  0.00    -0.206 F 
ATOM    100  C   UNL A   1      45.997  27.399  36.010  1.00  0.00     0.040 A 
ATOM    101  C   UNL A   1      46.983  29.195  34.742  1.00  0.00     0.040 A 
ATOM    102  F   UNL A   1      45.632  30.926  33.914  1.00  0.00    -0.206 F 
ATOM    103  C   UNL A   1      47.122  28.000  35.446  1.00  0.00     0.006 A 
ENDBRANCH  79  96
ENDBRANCH  53  54
ENDBRANCH  45  48
ENDBRANCH  43  44
ENDBRANCH  42  43
ENDBRANCH  41  42
ENDBRANCH  40  41
ENDBRANCH   1  40
TORSDOF 18
ENDMDL
