MODEL 1
REMARK VINA RESULT:     -12.0      0.000      0.000
REMARK SMILES O=C(CCC(=O)N1Cc2[nH]cnc2C[C@H]1C(=O)NCc1ccccc1)NCCCCCCNC(=O)c1ccc(-c2c3nc(c(-c4c(F)cccc4F)c4ccc([nH]4)c(-c4c(F)cccc4F)c4nc(c(-c5c(F)cccc5F)c5ccc2[nH]5)C=C4)C=C3)cc1
REMARK SMILES IDX 27 1 26 2 1 3 2 4 3 6 4 7 5 8 6 9 7 10 8 11 15 12 9 13 14 14
REMARK SMILES IDX 10 15 13 16 11 17 12 19 16 20 17 21 18 22 19 24 20 25 21 26
REMARK SMILES IDX 25 27 22 28 24 29 23 30 28 31 29 32 30 33 31 34 32 35 33 36
REMARK SMILES IDX 34 37 35 39 36 40 37 41 89 42 38 43 88 44 39 45 40 46 41 47
REMARK SMILES IDX 82 48 42 49 87 50 81 51 83 52 43 53 86 54 80 55 79 56 44 58
REMARK SMILES IDX 70 59 53 60 69 61 54 62 57 63 68 64 84 65 55 66 56 67 67 69
REMARK SMILES IDX 85 70 58 71 45 72 46 73 51 74 47 75 48 76 50 77 52 78 49 79
REMARK SMILES IDX 71 80 72 81 77 82 73 83 74 84 76 85 78 86 75 87 59 88 60 89
REMARK SMILES IDX 65 90 61 91 62 92 64 93 66 94 63 95
REMARK H PARENT 26 5 10 18 18 23 33 38 83 57 57 68
REMARK Flexibility Score: inf
ROOT
ATOM      1  C   UNL A   1      36.930  23.509  25.829  1.00  0.00     0.116 C 
ENDROOT
BRANCH   1   2
ATOM      2  N   UNL A   1      36.563  22.191  25.305  1.00  0.00    -0.356 N 
ATOM      3  O   UNL A   1      34.998  21.813  26.945  1.00  0.00    -0.275 OA
ATOM      4  C   UNL A   1      35.496  21.490  25.870  1.00  0.00     0.220 C 
ATOM      5  H   UNL A   1      37.068  21.801  24.555  1.00  0.00     0.163 HD
BRANCH   4   6
ATOM      6  C   UNL A   1      34.891  20.359  25.018  1.00  0.00     0.110 C 
BRANCH   6   7
ATOM      7  C   UNL A   1      33.753  20.849  24.080  1.00  0.00     0.110 C 
BRANCH   7   8
ATOM      8  C   UNL A   1      32.385  21.178  24.730  1.00  0.00     0.224 C 
ATOM      9  O   UNL A   1      31.795  20.308  25.375  1.00  0.00    -0.275 OA
BRANCH   8  10
ATOM     10  N   UNL A   1      31.853  22.457  24.593  1.00  0.00    -0.324 N 
ATOM     11  C   UNL A   1      31.414  22.967  23.270  1.00  0.00     0.176 C 
ATOM     12  C   UNL A   1      32.092  23.480  25.620  1.00  0.00     0.180 C 
ATOM     13  C   UNL A   1      32.203  24.206  22.969  1.00  0.00     0.058 A 
ATOM     14  C   UNL A   1      33.297  24.301  25.176  1.00  0.00     0.093 C 
ATOM     15  N   UNL A   1      32.179  25.032  21.877  1.00  0.00    -0.347 N 
ATOM     16  C   UNL A   1      33.060  24.833  23.839  1.00  0.00     0.066 A 
ATOM     17  C   UNL A   1      32.991  26.105  22.163  1.00  0.00     0.197 A 
ATOM     18  H   UNL A   1      31.674  24.886  21.045  1.00  0.00     0.167 HD
ATOM     19  N   UNL A   1      33.547  26.001  23.350  1.00  0.00    -0.242 NA
BRANCH  12  20
ATOM     20  C   UNL A   1      30.898  24.027  26.434  1.00  0.00     0.243 C 
ATOM     21  O   UNL A   1      30.443  23.326  27.353  1.00  0.00    -0.273 OA
ATOM     22  N   UNL A   1      30.233  25.180  26.261  1.00  0.00    -0.350 N 
ATOM     23  H   UNL A   1      29.647  25.396  27.023  1.00  0.00     0.163 HD
BRANCH  22  24
ATOM     24  C   UNL A   1      30.173  26.178  25.221  1.00  0.00     0.151 C 
BRANCH  24  25
ATOM     25  C   UNL A   1      30.963  27.396  25.631  1.00  0.00    -0.029 A 
ATOM     26  C   UNL A   1      31.239  28.414  24.712  1.00  0.00     0.005 A 
ATOM     27  C   UNL A   1      31.411  27.546  26.953  1.00  0.00     0.005 A 
ATOM     28  C   UNL A   1      31.918  29.567  25.105  1.00  0.00     0.000 A 
ATOM     29  C   UNL A   1      32.095  28.697  27.346  1.00  0.00     0.000 A 
ATOM     30  C   UNL A   1      32.343  29.710  26.422  1.00  0.00     0.000 A 
ENDBRANCH  24  25
ENDBRANCH  22  24
ENDBRANCH  12  20
ENDBRANCH   8  10
ENDBRANCH   7   8
ENDBRANCH   6   7
ENDBRANCH   4   6
ENDBRANCH   1   2
BRANCH   1  31
ATOM     31  C   UNL A   1      38.316  23.674  26.496  1.00  0.00     0.021 C 
BRANCH  31  32
ATOM     32  C   UNL A   1      39.518  22.768  26.123  1.00  0.00     0.002 C 
BRANCH  32  33
ATOM     33  C   UNL A   1      40.116  21.857  27.217  1.00  0.00     0.002 C 
BRANCH  33  34
ATOM     34  C   UNL A   1      40.839  20.568  26.837  1.00  0.00     0.021 C 
BRANCH  34  35
ATOM     35  C   UNL A   1      42.330  20.517  27.157  1.00  0.00     0.116 C 
BRANCH  35  36
ATOM     36  N   UNL A   1      43.159  19.739  26.227  1.00  0.00    -0.352 N 
ATOM     37  C   UNL A   1      43.892  20.244  25.156  1.00  0.00     0.251 C 
ATOM     38  H   UNL A   1      43.201  18.768  26.376  1.00  0.00     0.163 HD
ATOM     39  O   UNL A   1      44.284  19.553  24.235  1.00  0.00    -0.269 OA
BRANCH  37  40
ATOM     40  C   UNL A   1      44.191  21.686  25.210  1.00  0.00     0.039 A 
ATOM     41  C   UNL A   1      43.304  22.625  24.681  1.00  0.00     0.014 A 
ATOM     42  C   UNL A   1      45.196  22.045  26.101  1.00  0.00     0.014 A 
ATOM     43  C   UNL A   1      43.336  23.929  25.179  1.00  0.00     0.010 A 
ATOM     44  C   UNL A   1      45.126  23.292  26.681  1.00  0.00     0.010 A 
ATOM     45  C   UNL A   1      44.204  24.251  26.236  1.00  0.00    -0.014 A 
BRANCH  45  46
ATOM     46  C   UNL A   1      44.040  25.509  26.985  1.00  0.00     0.031 A 
ATOM     47  C   UNL A   1      44.990  26.637  26.693  1.00  0.00     0.074 A 
ATOM     48  C   UNL A   1      42.946  25.798  27.724  1.00  0.00     0.049 A 
ATOM     49  N   UNL A   1      45.765  27.257  27.526  1.00  0.00    -0.248 NA
ATOM     50  C   UNL A   1      45.102  27.132  25.312  1.00  0.00     0.031 C 
ATOM     51  C   UNL A   1      41.742  24.986  27.941  1.00  0.00     0.029 A 
ATOM     52  N   UNL A   1      42.629  26.971  28.343  1.00  0.00    -0.354 N 
ATOM     53  C   UNL A   1      46.353  28.315  26.827  1.00  0.00     0.074 A 
ATOM     54  C   UNL A   1      45.981  28.130  25.447  1.00  0.00     0.031 C 
ATOM     55  C   UNL A   1      40.747  25.768  28.405  1.00  0.00     0.029 A 
ATOM     56  C   UNL A   1      41.298  27.073  28.711  1.00  0.00     0.049 A 
ATOM     57  H   UNL A   1      43.288  27.683  28.512  1.00  0.00     0.167 HD
ATOM     58  C   UNL A   1      46.969  29.354  27.464  1.00  0.00     0.037 A 
ATOM     59  C   UNL A   1      40.669  28.141  29.250  1.00  0.00     0.037 A 
ATOM     60  C   UNL A   1      47.241  29.047  28.843  1.00  0.00     0.049 A 
ATOM     61  C   UNL A   1      41.702  28.991  29.881  1.00  0.00     0.074 A 
ATOM     62  C   UNL A   1      47.959  28.069  29.506  1.00  0.00     0.029 A 
ATOM     63  N   UNL A   1      46.461  29.635  29.808  1.00  0.00    -0.354 N 
ATOM     64  N   UNL A   1      42.381  28.644  30.939  1.00  0.00    -0.248 NA
ATOM     65  C   UNL A   1      42.279  30.073  29.098  1.00  0.00     0.031 C 
ATOM     66  C   UNL A   1      47.186  27.777  30.670  1.00  0.00     0.029 A 
ATOM     67  C   UNL A   1      46.080  28.630  30.657  1.00  0.00     0.049 A 
ATOM     68  H   UNL A   1      46.224  30.588  29.877  1.00  0.00     0.167 HD
ATOM     69  C   UNL A   1      43.656  29.140  30.716  1.00  0.00     0.074 A 
ATOM     70  C   UNL A   1      43.499  30.112  29.638  1.00  0.00     0.031 C 
ATOM     71  C   UNL A   1      44.759  28.518  31.229  1.00  0.00     0.037 A 
BRANCH  58  72
ATOM     72  C   UNL A   1      47.075  30.772  26.949  1.00  0.00     0.057 A 
ATOM     73  C   UNL A   1      48.310  31.451  27.022  1.00  0.00     0.134 A 
ATOM     74  C   UNL A   1      45.965  31.589  26.669  1.00  0.00     0.134 A 
ATOM     75  F   UNL A   1      49.446  30.791  27.295  1.00  0.00    -0.206 F 
ATOM     76  C   UNL A   1      48.417  32.844  26.899  1.00  0.00     0.040 A 
ATOM     77  C   UNL A   1      46.067  32.974  26.496  1.00  0.00     0.040 A 
ATOM     78  F   UNL A   1      44.717  31.105  26.647  1.00  0.00    -0.206 F 
ATOM     79  C   UNL A   1      47.290  33.611  26.643  1.00  0.00     0.006 A 
ENDBRANCH  58  72
BRANCH  59  80
ATOM     80  C   UNL A   1      39.251  28.523  29.123  1.00  0.00     0.057 A 
ATOM     81  C   UNL A   1      38.380  28.483  30.217  1.00  0.00     0.134 A 
ATOM     82  C   UNL A   1      38.767  29.162  27.966  1.00  0.00     0.134 A 
ATOM     83  F   UNL A   1      38.766  27.930  31.376  1.00  0.00    -0.206 F 
ATOM     84  C   UNL A   1      37.103  29.057  30.169  1.00  0.00     0.040 A 
ATOM     85  C   UNL A   1      37.493  29.731  27.902  1.00  0.00     0.040 A 
ATOM     86  F   UNL A   1      39.548  29.324  26.887  1.00  0.00    -0.206 F 
ATOM     87  C   UNL A   1      36.659  29.691  29.012  1.00  0.00     0.006 A 
ENDBRANCH  59  80
BRANCH  71  88
ATOM     88  C   UNL A   1      44.556  27.434  32.251  1.00  0.00     0.057 A 
ATOM     89  C   UNL A   1      44.422  26.074  31.932  1.00  0.00     0.134 A 
ATOM     90  C   UNL A   1      44.662  27.752  33.609  1.00  0.00     0.134 A 
ATOM     91  F   UNL A   1      44.424  25.655  30.663  1.00  0.00    -0.206 F 
ATOM     92  C   UNL A   1      44.345  25.085  32.916  1.00  0.00     0.040 A 
ATOM     93  C   UNL A   1      44.620  26.769  34.603  1.00  0.00     0.040 A 
ATOM     94  F   UNL A   1      44.859  29.023  33.993  1.00  0.00    -0.206 F 
ATOM     95  C   UNL A   1      44.449  25.431  34.259  1.00  0.00     0.006 A 
ENDBRANCH  71  88
ENDBRANCH  45  46
ENDBRANCH  37  40
ENDBRANCH  35  36
ENDBRANCH  34  35
ENDBRANCH  33  34
ENDBRANCH  32  33
ENDBRANCH  31  32
ENDBRANCH   1  31
TORSDOF 19
ENDMDL
MODEL 2
REMARK VINA RESULT:     -12.0      2.411      7.342
REMARK SMILES O=C(CCC(=O)N1Cc2[nH]cnc2C[C@H]1C(=O)NCc1ccccc1)NCCCCCCNC(=O)c1ccc(-c2c3nc(c(-c4c(F)cccc4F)c4ccc([nH]4)c(-c4c(F)cccc4F)c4nc(c(-c5c(F)cccc5F)c5ccc2[nH]5)C=C4)C=C3)cc1
REMARK SMILES IDX 27 1 26 2 1 3 2 4 3 6 4 7 5 8 6 9 7 10 8 11 15 12 9 13 14 14
REMARK SMILES IDX 10 15 13 16 11 17 12 19 16 20 17 21 18 22 19 24 20 25 21 26
REMARK SMILES IDX 25 27 22 28 24 29 23 30 28 31 29 32 30 33 31 34 32 35 33 36
REMARK SMILES IDX 34 37 35 39 36 40 37 41 89 42 38 43 88 44 39 45 40 46 41 47
REMARK SMILES IDX 82 48 42 49 87 50 81 51 83 52 43 53 86 54 80 55 79 56 44 58
REMARK SMILES IDX 70 59 53 60 69 61 54 62 57 63 68 64 84 65 55 66 56 67 67 69
REMARK SMILES IDX 85 70 58 71 45 72 46 73 51 74 47 75 48 76 50 77 52 78 49 79
REMARK SMILES IDX 71 80 72 81 77 82 73 83 74 84 76 85 78 86 75 87 59 88 60 89
REMARK SMILES IDX 65 90 61 91 62 92 64 93 66 94 63 95
REMARK H PARENT 26 5 10 18 18 23 33 38 83 57 57 68
REMARK Flexibility Score: inf
ROOT
ATOM      1  C   UNL A   1      30.632  27.062  24.611  1.00  0.00     0.116 C 
ENDROOT
BRANCH   1   2
ATOM      2  N   UNL A   1      31.440  26.156  23.788  1.00  0.00    -0.356 N 
ATOM      3  O   UNL A   1      30.921  27.239  21.828  1.00  0.00    -0.275 OA
ATOM      4  C   UNL A   1      31.611  26.418  22.428  1.00  0.00     0.220 C 
ATOM      5  H   UNL A   1      31.861  25.365  24.196  1.00  0.00     0.163 HD
BRANCH   4   6
ATOM      6  C   UNL A   1      32.795  25.714  21.738  1.00  0.00     0.110 C 
BRANCH   6   7
ATOM      7  C   UNL A   1      32.781  24.173  21.933  1.00  0.00     0.110 C 
BRANCH   7   8
ATOM      8  C   UNL A   1      33.854  23.563  22.870  1.00  0.00     0.224 C 
ATOM      9  O   UNL A   1      35.046  23.803  22.666  1.00  0.00    -0.275 OA
BRANCH   8  10
ATOM     10  N   UNL A   1      33.454  22.768  23.941  1.00  0.00    -0.324 N 
ATOM     11  C   UNL A   1      32.078  22.214  24.013  1.00  0.00     0.176 C 
ATOM     12  C   UNL A   1      34.194  22.795  25.209  1.00  0.00     0.180 C 
ATOM     13  C   UNL A   1      31.445  22.717  25.275  1.00  0.00     0.058 A 
ATOM     14  C   UNL A   1      33.494  23.792  26.126  1.00  0.00     0.093 C 
ATOM     15  N   UNL A   1      30.193  22.503  25.788  1.00  0.00    -0.347 N 
ATOM     16  C   UNL A   1      32.087  23.430  26.257  1.00  0.00     0.066 A 
ATOM     17  C   UNL A   1      30.167  23.072  27.041  1.00  0.00     0.197 A 
ATOM     18  H   UNL A   1      29.453  22.032  25.343  1.00  0.00     0.167 HD
ATOM     19  N   UNL A   1      31.307  23.651  27.345  1.00  0.00    -0.242 NA
BRANCH  12  20
ATOM     20  C   UNL A   1      34.930  21.522  25.682  1.00  0.00     0.243 C 
ATOM     21  O   UNL A   1      34.366  20.793  26.514  1.00  0.00    -0.273 OA
ATOM     22  N   UNL A   1      36.155  21.093  25.338  1.00  0.00    -0.350 N 
ATOM     23  H   UNL A   1      36.320  20.162  25.614  1.00  0.00     0.163 HD
BRANCH  22  24
ATOM     24  C   UNL A   1      37.288  21.675  24.660  1.00  0.00     0.151 C 
BRANCH  24  25
ATOM     25  C   UNL A   1      38.170  22.389  25.652  1.00  0.00    -0.029 A 
ATOM     26  C   UNL A   1      37.885  23.699  26.052  1.00  0.00     0.005 A 
ATOM     27  C   UNL A   1      39.279  21.741  26.220  1.00  0.00     0.005 A 
ATOM     28  C   UNL A   1      38.666  24.339  27.014  1.00  0.00     0.000 A 
ATOM     29  C   UNL A   1      40.064  22.383  27.178  1.00  0.00     0.000 A 
ATOM     30  C   UNL A   1      39.753  23.680  27.580  1.00  0.00     0.000 A 
ENDBRANCH  24  25
ENDBRANCH  22  24
ENDBRANCH  12  20
ENDBRANCH   8  10
ENDBRANCH   7   8
ENDBRANCH   6   7
ENDBRANCH   4   6
ENDBRANCH   1   2
BRANCH   1  31
ATOM     31  C   UNL A   1      30.509  26.766  26.124  1.00  0.00     0.021 C 
BRANCH  31  32
ATOM     32  C   UNL A   1      31.416  27.463  27.171  1.00  0.00     0.002 C 
BRANCH  32  33
ATOM     33  C   UNL A   1      32.801  27.974  26.715  1.00  0.00     0.002 C 
BRANCH  33  34
ATOM     34  C   UNL A   1      33.338  29.306  27.228  1.00  0.00     0.021 C 
BRANCH  34  35
ATOM     35  C   UNL A   1      34.848  29.385  27.437  1.00  0.00     0.116 C 
BRANCH  35  36
ATOM     36  N   UNL A   1      35.302  30.295  28.496  1.00  0.00    -0.352 N 
ATOM     37  C   UNL A   1      36.468  30.170  29.246  1.00  0.00     0.251 C 
ATOM     38  H   UNL A   1      34.727  31.068  28.695  1.00  0.00     0.163 HD
ATOM     39  O   UNL A   1      36.640  30.736  30.309  1.00  0.00    -0.269 OA
BRANCH  37  40
ATOM     40  C   UNL A   1      37.515  29.313  28.661  1.00  0.00     0.039 A 
ATOM     41  C   UNL A   1      38.271  29.744  27.569  1.00  0.00     0.014 A 
ATOM     42  C   UNL A   1      37.919  28.250  29.460  1.00  0.00     0.014 A 
ATOM     43  C   UNL A   1      39.537  29.189  27.372  1.00  0.00     0.010 A 
ATOM     44  C   UNL A   1      39.219  27.811  29.337  1.00  0.00     0.010 A 
ATOM     45  C   UNL A   1      40.046  28.266  28.301  1.00  0.00    -0.014 A 
BRANCH  45  46
ATOM     46  C   UNL A   1      41.476  27.908  28.296  1.00  0.00     0.031 A 
ATOM     47  C   UNL A   1      41.898  26.687  27.528  1.00  0.00     0.074 A 
ATOM     48  C   UNL A   1      42.452  28.741  28.720  1.00  0.00     0.049 A 
ATOM     49  N   UNL A   1      42.534  25.650  27.975  1.00  0.00    -0.248 NA
ATOM     50  C   UNL A   1      41.572  26.599  26.096  1.00  0.00     0.031 C 
ATOM     51  C   UNL A   1      42.332  30.106  29.248  1.00  0.00     0.029 A 
ATOM     52  N   UNL A   1      43.803  28.572  28.638  1.00  0.00    -0.354 N 
ATOM     53  C   UNL A   1      42.827  24.844  26.872  1.00  0.00     0.074 A 
ATOM     54  C   UNL A   1      42.127  25.431  25.758  1.00  0.00     0.031 C 
ATOM     55  C   UNL A   1      43.532  30.720  29.191  1.00  0.00     0.029 A 
ATOM     56  C   UNL A   1      44.530  29.735  28.825  1.00  0.00     0.049 A 
ATOM     57  H   UNL A   1      44.224  27.699  28.461  1.00  0.00     0.167 HD
ATOM     58  C   UNL A   1      43.754  23.843  26.929  1.00  0.00     0.037 A 
ATOM     59  C   UNL A   1      45.865  29.902  28.709  1.00  0.00     0.037 A 
ATOM     60  C   UNL A   1      44.096  23.510  28.286  1.00  0.00     0.049 A 
ATOM     61  C   UNL A   1      46.495  28.575  28.880  1.00  0.00     0.074 A 
ATOM     62  C   UNL A   1      43.395  23.074  29.394  1.00  0.00     0.029 A 
ATOM     63  N   UNL A   1      45.313  23.920  28.771  1.00  0.00    -0.354 N 
ATOM     64  N   UNL A   1      46.504  27.916  30.006  1.00  0.00    -0.248 NA
ATOM     65  C   UNL A   1      46.769  27.781  27.692  1.00  0.00     0.031 C 
ATOM     66  C   UNL A   1      44.007  23.741  30.498  1.00  0.00     0.029 A 
ATOM     67  C   UNL A   1      45.065  24.497  29.989  1.00  0.00     0.049 A 
ATOM     68  H   UNL A   1      46.189  23.821  28.332  1.00  0.00     0.167 HD
ATOM     69  C   UNL A   1      46.345  26.589  29.638  1.00  0.00     0.074 A 
ATOM     70  C   UNL A   1      46.642  26.557  28.208  1.00  0.00     0.031 C 
ATOM     71  C   UNL A   1      45.719  25.695  30.459  1.00  0.00     0.037 A 
BRANCH  58  72
ATOM     72  C   UNL A   1      44.592  23.344  25.773  1.00  0.00     0.057 A 
ATOM     73  C   UNL A   1      44.655  21.961  25.501  1.00  0.00     0.134 A 
ATOM     74  C   UNL A   1      45.562  24.123  25.115  1.00  0.00     0.134 A 
ATOM     75  F   UNL A   1      43.795  21.105  26.074  1.00  0.00    -0.206 F 
ATOM     76  C   UNL A   1      45.653  21.392  24.697  1.00  0.00     0.040 A 
ATOM     77  C   UNL A   1      46.532  23.571  24.271  1.00  0.00     0.040 A 
ATOM     78  F   UNL A   1      45.682  25.438  25.333  1.00  0.00    -0.206 F 
ATOM     79  C   UNL A   1      46.602  22.199  24.085  1.00  0.00     0.006 A 
ENDBRANCH  58  72
BRANCH  59  80
ATOM     80  C   UNL A   1      46.602  31.120  28.322  1.00  0.00     0.057 A 
ATOM     81  C   UNL A   1      46.696  31.529  26.988  1.00  0.00     0.134 A 
ATOM     82  C   UNL A   1      47.044  32.043  29.288  1.00  0.00     0.134 A 
ATOM     83  F   UNL A   1      46.263  30.733  25.999  1.00  0.00    -0.206 F 
ATOM     84  C   UNL A   1      47.187  32.791  26.633  1.00  0.00     0.040 A 
ATOM     85  C   UNL A   1      47.544  33.302  28.948  1.00  0.00     0.040 A 
ATOM     86  F   UNL A   1      46.927  31.782  30.600  1.00  0.00    -0.206 F 
ATOM     87  C   UNL A   1      47.606  33.685  27.614  1.00  0.00     0.006 A 
ENDBRANCH  59  80
BRANCH  71  88
ATOM     88  C   UNL A   1      45.431  26.108  31.876  1.00  0.00     0.057 A 
ATOM     89  C   UNL A   1      44.208  26.652  32.299  1.00  0.00     0.134 A 
ATOM     90  C   UNL A   1      46.359  25.798  32.876  1.00  0.00     0.134 A 
ATOM     91  F   UNL A   1      43.215  26.880  31.435  1.00  0.00    -0.206 F 
ATOM     92  C   UNL A   1      43.941  26.921  33.644  1.00  0.00     0.040 A 
ATOM     93  C   UNL A   1      46.091  26.031  34.229  1.00  0.00     0.040 A 
ATOM     94  F   UNL A   1      47.525  25.215  32.560  1.00  0.00    -0.206 F 
ATOM     95  C   UNL A   1      44.884  26.606  34.616  1.00  0.00     0.006 A 
ENDBRANCH  71  88
ENDBRANCH  45  46
ENDBRANCH  37  40
ENDBRANCH  35  36
ENDBRANCH  34  35
ENDBRANCH  33  34
ENDBRANCH  32  33
ENDBRANCH  31  32
ENDBRANCH   1  31
TORSDOF 19
ENDMDL
MODEL 3
REMARK VINA RESULT:     -11.7      2.717      8.247
REMARK SMILES O=C(CCC(=O)N1Cc2[nH]cnc2C[C@H]1C(=O)NCc1ccccc1)NCCCCCCNC(=O)c1ccc(-c2c3nc(c(-c4c(F)cccc4F)c4ccc([nH]4)c(-c4c(F)cccc4F)c4nc(c(-c5c(F)cccc5F)c5ccc2[nH]5)C=C4)C=C3)cc1
REMARK SMILES IDX 27 1 26 2 1 3 2 4 3 6 4 7 5 8 6 9 7 10 8 11 15 12 9 13 14 14
REMARK SMILES IDX 10 15 13 16 11 17 12 19 16 20 17 21 18 22 19 24 20 25 21 26
REMARK SMILES IDX 25 27 22 28 24 29 23 30 28 31 29 32 30 33 31 34 32 35 33 36
REMARK SMILES IDX 34 37 35 39 36 40 37 41 89 42 38 43 88 44 39 45 40 46 41 47
REMARK SMILES IDX 82 48 42 49 87 50 81 51 83 52 43 53 86 54 80 55 79 56 44 58
REMARK SMILES IDX 70 59 53 60 69 61 54 62 57 63 68 64 84 65 55 66 56 67 67 69
REMARK SMILES IDX 85 70 58 71 45 72 46 73 51 74 47 75 48 76 50 77 52 78 49 79
REMARK SMILES IDX 71 80 72 81 77 82 73 83 74 84 76 85 78 86 75 87 59 88 60 89
REMARK SMILES IDX 65 90 61 91 62 92 64 93 66 94 63 95
REMARK H PARENT 26 5 10 18 18 23 33 38 83 57 57 68
REMARK Flexibility Score: inf
ROOT
ATOM      1  C   UNL A   1      31.326  28.070  26.633  1.00  0.00     0.116 C 
ENDROOT
BRANCH   1   2
ATOM      2  N   UNL A   1      31.424  27.693  25.220  1.00  0.00    -0.356 N 
ATOM      3  O   UNL A   1      30.899  29.801  24.470  1.00  0.00    -0.275 OA
ATOM      4  C   UNL A   1      31.315  28.671  24.230  1.00  0.00     0.220 C 
ATOM      5  H   UNL A   1      31.567  26.752  24.970  1.00  0.00     0.163 HD
BRANCH   4   6
ATOM      6  C   UNL A   1      31.859  28.300  22.837  1.00  0.00     0.110 C 
BRANCH   6   7
ATOM      7  C   UNL A   1      31.540  26.835  22.432  1.00  0.00     0.110 C 
BRANCH   7   8
ATOM      8  C   UNL A   1      32.730  25.849  22.324  1.00  0.00     0.224 C 
ATOM      9  O   UNL A   1      33.671  26.113  21.571  1.00  0.00    -0.275 OA
BRANCH   8  10
ATOM     10  N   UNL A   1      32.730  24.689  23.094  1.00  0.00    -0.324 N 
ATOM     11  C   UNL A   1      31.477  23.929  23.335  1.00  0.00     0.176 C 
ATOM     12  C   UNL A   1      33.830  24.411  24.027  1.00  0.00     0.180 C 
ATOM     13  C   UNL A   1      31.250  23.873  24.815  1.00  0.00     0.058 A 
ATOM     14  C   UNL A   1      33.404  24.919  25.401  1.00  0.00     0.093 C 
ATOM     15  N   UNL A   1      30.237  23.302  25.538  1.00  0.00    -0.347 N 
ATOM     16  C   UNL A   1      32.131  24.312  25.772  1.00  0.00     0.066 A 
ATOM     17  C   UNL A   1      30.578  23.408  26.867  1.00  0.00     0.197 A 
ATOM     18  H   UNL A   1      29.419  22.892  25.174  1.00  0.00     0.167 HD
ATOM     19  N   UNL A   1      31.724  24.028  27.035  1.00  0.00    -0.242 NA
BRANCH  12  20
ATOM     20  C   UNL A   1      34.742  23.190  23.778  1.00  0.00     0.243 C 
ATOM     21  O   UNL A   1      35.728  23.335  23.036  1.00  0.00    -0.273 OA
ATOM     22  N   UNL A   1      34.597  21.936  24.236  1.00  0.00    -0.350 N 
ATOM     23  H   UNL A   1      35.408  21.391  24.107  1.00  0.00     0.163 HD
BRANCH  22  24
ATOM     24  C   UNL A   1      33.534  21.199  24.873  1.00  0.00     0.151 C 
BRANCH  24  25
ATOM     25  C   UNL A   1      33.464  19.804  24.305  1.00  0.00    -0.029 A 
ATOM     26  C   UNL A   1      32.450  19.445  23.409  1.00  0.00     0.005 A 
ATOM     27  C   UNL A   1      34.434  18.845  24.640  1.00  0.00     0.005 A 
ATOM     28  C   UNL A   1      32.419  18.173  22.838  1.00  0.00     0.000 A 
ATOM     29  C   UNL A   1      34.400  17.571  24.072  1.00  0.00     0.000 A 
ATOM     30  C   UNL A   1      33.396  17.238  23.166  1.00  0.00     0.000 A 
ENDBRANCH  24  25
ENDBRANCH  22  24
ENDBRANCH  12  20
ENDBRANCH   8  10
ENDBRANCH   7   8
ENDBRANCH   6   7
ENDBRANCH   4   6
ENDBRANCH   1   2
BRANCH   1  31
ATOM     31  C   UNL A   1      32.592  27.949  27.514  1.00  0.00     0.021 C 
BRANCH  31  32
ATOM     32  C   UNL A   1      33.919  28.661  27.144  1.00  0.00     0.002 C 
BRANCH  32  33
ATOM     33  C   UNL A   1      33.854  30.132  26.675  1.00  0.00     0.002 C 
BRANCH  33  34
ATOM     34  C   UNL A   1      33.263  31.205  27.583  1.00  0.00     0.021 C 
BRANCH  34  35
ATOM     35  C   UNL A   1      34.197  32.349  27.965  1.00  0.00     0.116 C 
BRANCH  35  36
ATOM     36  N   UNL A   1      34.358  32.594  29.404  1.00  0.00    -0.352 N 
ATOM     37  C   UNL A   1      35.239  31.938  30.259  1.00  0.00     0.251 C 
ATOM     38  H   UNL A   1      33.786  33.289  29.803  1.00  0.00     0.163 HD
ATOM     39  O   UNL A   1      35.112  31.932  31.469  1.00  0.00    -0.269 OA
BRANCH  37  40
ATOM     40  C   UNL A   1      36.371  31.256  29.608  1.00  0.00     0.039 A 
ATOM     41  C   UNL A   1      37.551  31.941  29.312  1.00  0.00     0.014 A 
ATOM     42  C   UNL A   1      36.316  29.867  29.637  1.00  0.00     0.014 A 
ATOM     43  C   UNL A   1      38.736  31.212  29.193  1.00  0.00     0.010 A 
ATOM     44  C   UNL A   1      37.508  29.176  29.656  1.00  0.00     0.010 A 
ATOM     45  C   UNL A   1      38.730  29.828  29.436  1.00  0.00    -0.014 A 
BRANCH  45  46
ATOM     46  C   UNL A   1      39.994  29.094  29.628  1.00  0.00     0.031 A 
ATOM     47  C   UNL A   1      40.494  28.902  31.033  1.00  0.00     0.074 A 
ATOM     48  C   UNL A   1      40.590  28.372  28.655  1.00  0.00     0.049 A 
ATOM     49  N   UNL A   1      41.639  29.261  31.523  1.00  0.00    -0.248 NA
ATOM     50  C   UNL A   1      39.620  28.240  32.015  1.00  0.00     0.031 C 
ATOM     51  C   UNL A   1      40.154  28.158  27.270  1.00  0.00     0.029 A 
ATOM     52  N   UNL A   1      41.676  27.552  28.754  1.00  0.00    -0.354 N 
ATOM     53  C   UNL A   1      41.706  28.748  32.821  1.00  0.00     0.074 A 
ATOM     54  C   UNL A   1      40.397  28.212  33.102  1.00  0.00     0.031 C 
ATOM     55  C   UNL A   1      40.797  27.091  26.753  1.00  0.00     0.029 A 
ATOM     56  C   UNL A   1      41.828  26.684  27.687  1.00  0.00     0.049 A 
ATOM     57  H   UNL A   1      42.296  27.576  29.519  1.00  0.00     0.167 HD
ATOM     58  C   UNL A   1      42.883  28.661  33.509  1.00  0.00     0.037 A 
ATOM     59  C   UNL A   1      42.741  25.699  27.546  1.00  0.00     0.037 A 
ATOM     60  C   UNL A   1      43.915  29.457  32.900  1.00  0.00     0.049 A 
ATOM     61  C   UNL A   1      43.880  26.020  28.435  1.00  0.00     0.074 A 
ATOM     62  C   UNL A   1      44.066  30.797  32.593  1.00  0.00     0.029 A 
ATOM     63  N   UNL A   1      44.908  28.816  32.203  1.00  0.00    -0.354 N 
ATOM     64  N   UNL A   1      44.686  27.028  28.245  1.00  0.00    -0.248 NA
ATOM     65  C   UNL A   1      43.888  25.460  29.777  1.00  0.00     0.031 C 
ATOM     66  C   UNL A   1      44.762  30.807  31.346  1.00  0.00     0.029 A 
ATOM     67  C   UNL A   1      45.027  29.478  31.010  1.00  0.00     0.049 A 
ATOM     68  H   UNL A   1      45.430  28.036  32.500  1.00  0.00     0.167 HD
ATOM     69  C   UNL A   1      44.964  27.500  29.519  1.00  0.00     0.074 A 
ATOM     70  C   UNL A   1      44.551  26.425  30.417  1.00  0.00     0.031 C 
ATOM     71  C   UNL A   1      45.237  28.820  29.742  1.00  0.00     0.037 A 
BRANCH  58  72
ATOM     72  C   UNL A   1      43.218  27.633  34.566  1.00  0.00     0.057 A 
ATOM     73  C   UNL A   1      43.386  26.281  34.199  1.00  0.00     0.134 A 
ATOM     74  C   UNL A   1      43.086  27.860  35.948  1.00  0.00     0.134 A 
ATOM     75  F   UNL A   1      43.511  25.926  32.911  1.00  0.00    -0.206 F 
ATOM     76  C   UNL A   1      43.350  25.233  35.129  1.00  0.00     0.040 A 
ATOM     77  C   UNL A   1      43.098  26.825  36.891  1.00  0.00     0.040 A 
ATOM     78  F   UNL A   1      42.841  29.078  36.447  1.00  0.00    -0.206 F 
ATOM     79  C   UNL A   1      43.197  25.504  36.482  1.00  0.00     0.006 A 
ENDBRANCH  58  72
BRANCH  59  80
ATOM     80  C   UNL A   1      42.615  24.438  26.792  1.00  0.00     0.057 A 
ATOM     81  C   UNL A   1      43.165  24.288  25.515  1.00  0.00     0.134 A 
ATOM     82  C   UNL A   1      42.142  23.264  27.408  1.00  0.00     0.134 A 
ATOM     83  F   UNL A   1      43.677  25.343  24.866  1.00  0.00    -0.206 F 
ATOM     84  C   UNL A   1      43.254  23.038  24.889  1.00  0.00     0.040 A 
ATOM     85  C   UNL A   1      42.217  22.013  26.792  1.00  0.00     0.040 A 
ATOM     86  F   UNL A   1      41.665  23.284  28.663  1.00  0.00    -0.206 F 
ATOM     87  C   UNL A   1      42.787  21.895  25.530  1.00  0.00     0.006 A 
ENDBRANCH  59  80
BRANCH  71  88
ATOM     88  C   UNL A   1      45.486  29.708  28.554  1.00  0.00     0.057 A 
ATOM     89  C   UNL A   1      44.480  30.424  27.889  1.00  0.00     0.134 A 
ATOM     90  C   UNL A   1      46.805  29.975  28.170  1.00  0.00     0.134 A 
ATOM     91  F   UNL A   1      43.198  30.324  28.255  1.00  0.00    -0.206 F 
ATOM     92  C   UNL A   1      44.766  31.324  26.858  1.00  0.00     0.040 A 
ATOM     93  C   UNL A   1      47.108  30.897  27.164  1.00  0.00     0.040 A 
ATOM     94  F   UNL A   1      47.828  29.380  28.803  1.00  0.00    -0.206 F 
ATOM     95  C   UNL A   1      46.086  31.567  26.496  1.00  0.00     0.006 A 
ENDBRANCH  71  88
ENDBRANCH  45  46
ENDBRANCH  37  40
ENDBRANCH  35  36
ENDBRANCH  34  35
ENDBRANCH  33  34
ENDBRANCH  32  33
ENDBRANCH  31  32
ENDBRANCH   1  31
TORSDOF 19
ENDMDL
