MODEL 1
REMARK VINA RESULT:     -11.7      0.000      0.000
REMARK SMILES O=C(NCCCCCCNC(=O)[C@H](c1cnn(Cc2ccccc2)c1)[NH+]1CCOCC1)c1ccc(-c2c3nc(c(-c4c(F)cccc4F)c4ccc([nH]4)c(-c4c(F)cccc4F)c4nc(c(-c5c(F)cccc5F)c5ccc2[nH]5)C=C4)C=C3)cc1
REMARK SMILES IDX 7 1 6 2 5 3 4 4 3 5 1 6 2 7 32 9 33 10 85 11 34 12 84 13
REMARK SMILES IDX 35 14 36 15 37 16 78 17 38 18 83 19 77 20 79 21 39 22 82 23
REMARK SMILES IDX 76 24 75 25 40 27 66 28 49 29 65 30 50 31 53 32 64 33 80 34
REMARK SMILES IDX 51 35 52 36 63 38 81 39 54 40 41 41 42 42 47 43 43 44 44 45
REMARK SMILES IDX 46 46 48 47 45 48 67 49 68 50 73 51 69 52 70 53 72 54 74 55
REMARK SMILES IDX 71 56 55 57 56 58 61 59 57 60 58 61 60 62 62 63 59 64 8 65
REMARK SMILES IDX 9 66 10 67 11 68 12 70 13 71 26 72 27 73 31 74 28 76 30 77
REMARK SMILES IDX 29 78 14 79 15 80 25 81 16 82 17 83 18 84 19 85 20 86 24 87
REMARK SMILES IDX 21 88 23 89 22 90
REMARK H PARENT 3 8 79 26 53 37 10 69 26 75
REMARK Flexibility Score: inf
ROOT
ATOM      1  C   UNL A   1      32.143  29.711  26.213  1.00  0.00     0.002 C 
ENDROOT
BRANCH   1   2
ATOM      2  C   UNL A   1      32.500  30.912  27.095  1.00  0.00     0.002 C 
BRANCH   2   3
ATOM      3  C   UNL A   1      33.973  31.005  27.517  1.00  0.00     0.021 C 
BRANCH   3   4
ATOM      4  C   UNL A   1      34.383  32.361  28.089  1.00  0.00     0.116 C 
BRANCH   4   5
ATOM      5  N   UNL A   1      34.329  32.415  29.534  1.00  0.00    -0.352 N 
ATOM      6  O   UNL A   1      34.775  32.331  31.690  1.00  0.00    -0.269 OA
ATOM      7  C   UNL A   1      35.137  32.001  30.551  1.00  0.00     0.251 C 
ATOM      8  H   UNL A   1      33.514  32.857  29.862  1.00  0.00     0.163 HD
BRANCH   7   9
ATOM      9  C   UNL A   1      36.361  31.161  30.416  1.00  0.00     0.039 A 
ATOM     10  C   UNL A   1      36.409  29.769  30.349  1.00  0.00     0.014 A 
ATOM     11  C   UNL A   1      37.579  31.871  30.377  1.00  0.00     0.014 A 
ATOM     12  C   UNL A   1      37.638  29.106  30.308  1.00  0.00     0.010 A 
ATOM     13  C   UNL A   1      38.805  31.216  30.330  1.00  0.00     0.010 A 
ATOM     14  C   UNL A   1      38.838  29.827  30.329  1.00  0.00    -0.014 A 
BRANCH  14  15
ATOM     15  C   UNL A   1      40.102  29.100  30.206  1.00  0.00     0.031 A 
ATOM     16  C   UNL A   1      40.806  28.846  31.500  1.00  0.00     0.074 A 
ATOM     17  C   UNL A   1      40.554  28.549  29.059  1.00  0.00     0.049 A 
ATOM     18  N   UNL A   1      41.977  29.254  31.869  1.00  0.00    -0.248 NA
ATOM     19  C   UNL A   1      40.071  28.123  32.551  1.00  0.00     0.031 C 
ATOM     20  C   UNL A   1      39.863  28.427  27.773  1.00  0.00     0.029 A 
ATOM     21  N   UNL A   1      41.730  27.892  28.832  1.00  0.00    -0.354 N 
ATOM     22  C   UNL A   1      42.203  28.707  33.133  1.00  0.00     0.074 A 
ATOM     23  C   UNL A   1      40.955  28.122  33.549  1.00  0.00     0.031 C 
ATOM     24  C   UNL A   1      40.536  27.559  26.981  1.00  0.00     0.029 A 
ATOM     25  C   UNL A   1      41.774  27.178  27.640  1.00  0.00     0.049 A 
ATOM     26  H   UNL A   1      42.487  27.923  29.462  1.00  0.00     0.167 HD
ATOM     27  C   UNL A   1      43.454  28.618  33.665  1.00  0.00     0.037 A 
ATOM     28  C   UNL A   1      42.737  26.305  27.246  1.00  0.00     0.037 A 
ATOM     29  C   UNL A   1      44.374  29.493  32.988  1.00  0.00     0.049 A 
ATOM     30  C   UNL A   1      43.952  26.586  28.047  1.00  0.00     0.074 A 
ATOM     31  C   UNL A   1      44.477  30.859  32.817  1.00  0.00     0.029 A 
ATOM     32  N   UNL A   1      45.221  28.938  32.064  1.00  0.00    -0.354 N 
ATOM     33  N   UNL A   1      44.667  27.667  27.936  1.00  0.00    -0.248 NA
ATOM     34  C   UNL A   1      44.124  25.844  29.286  1.00  0.00     0.031 C 
ATOM     35  C   UNL A   1      44.975  31.023  31.492  1.00  0.00     0.029 A 
ATOM     36  C   UNL A   1      45.198  29.751  30.964  1.00  0.00     0.049 A 
ATOM     37  H   UNL A   1      45.745  28.111  32.172  1.00  0.00     0.167 HD
ATOM     38  C   UNL A   1      45.038  27.977  29.234  1.00  0.00     0.074 A 
ATOM     39  C   UNL A   1      44.746  26.775  30.011  1.00  0.00     0.031 C 
ATOM     40  C   UNL A   1      45.283  29.266  29.608  1.00  0.00     0.037 A 
BRANCH  27  41
ATOM     41  C   UNL A   1      43.943  27.501  34.555  1.00  0.00     0.057 A 
ATOM     42  C   UNL A   1      44.548  27.817  35.789  1.00  0.00     0.134 A 
ATOM     43  C   UNL A   1      44.136  26.177  34.119  1.00  0.00     0.134 A 
ATOM     44  F   UNL A   1      44.440  29.047  36.315  1.00  0.00    -0.206 F 
ATOM     45  C   UNL A   1      45.363  26.913  36.481  1.00  0.00     0.040 A 
ATOM     46  C   UNL A   1      44.909  25.251  34.828  1.00  0.00     0.040 A 
ATOM     47  F   UNL A   1      43.678  25.738  32.940  1.00  0.00    -0.206 F 
ATOM     48  C   UNL A   1      45.557  25.629  35.993  1.00  0.00     0.006 A 
ENDBRANCH  27  41
BRANCH  28  49
ATOM     49  C   UNL A   1      42.602  25.054  26.463  1.00  0.00     0.057 A 
ATOM     50  C   UNL A   1      43.421  24.791  25.352  1.00  0.00     0.134 A 
ATOM     51  C   UNL A   1      41.879  23.959  26.964  1.00  0.00     0.134 A 
ATOM     52  F   UNL A   1      44.188  25.759  24.829  1.00  0.00    -0.206 F 
ATOM     53  C   UNL A   1      43.532  23.511  24.791  1.00  0.00     0.040 A 
ATOM     54  C   UNL A   1      41.976  22.677  26.411  1.00  0.00     0.040 A 
ATOM     55  F   UNL A   1      41.125  24.078  28.067  1.00  0.00    -0.206 F 
ATOM     56  C   UNL A   1      42.816  22.446  25.329  1.00  0.00     0.006 A 
ENDBRANCH  28  49
BRANCH  40  57
ATOM     57  C   UNL A   1      45.395  30.309  28.534  1.00  0.00     0.057 A 
ATOM     58  C   UNL A   1      46.574  30.581  27.824  1.00  0.00     0.134 A 
ATOM     59  C   UNL A   1      44.223  30.920  28.078  1.00  0.00     0.134 A 
ATOM     60  F   UNL A   1      47.726  29.971  28.129  1.00  0.00    -0.206 F 
ATOM     61  C   UNL A   1      46.585  31.442  26.722  1.00  0.00     0.040 A 
ATOM     62  C   UNL A   1      44.215  31.757  26.960  1.00  0.00     0.040 A 
ATOM     63  F   UNL A   1      43.050  30.663  28.678  1.00  0.00    -0.206 F 
ATOM     64  C   UNL A   1      45.400  32.024  26.280  1.00  0.00     0.006 A 
ENDBRANCH  40  57
ENDBRANCH  14  15
ENDBRANCH   7   9
ENDBRANCH   4   5
ENDBRANCH   3   4
ENDBRANCH   2   3
ENDBRANCH   1   2
BRANCH   1  65
ATOM     65  C   UNL A   1      33.222  29.298  25.200  1.00  0.00     0.021 C 
BRANCH  65  66
ATOM     66  C   UNL A   1      33.880  27.949  25.501  1.00  0.00     0.116 C 
BRANCH  66  67
ATOM     67  N   UNL A   1      33.075  27.195  26.444  1.00  0.00    -0.351 N 
ATOM     68  C   UNL A   1      31.942  26.473  26.173  1.00  0.00     0.283 C 
ATOM     69  H   UNL A   1      33.377  27.202  27.382  1.00  0.00     0.163 HD
ATOM     70  O   UNL A   1      31.104  26.393  27.074  1.00  0.00    -0.268 OA
BRANCH  68  71
ATOM     71  C   UNL A   1      31.776  25.821  24.775  1.00  0.00     0.308 C 
BRANCH  71  72
ATOM     72  N   UNL A   1      31.315  24.406  24.783  1.00  0.00    -0.317 N 
ATOM     73  C   UNL A   1      31.947  23.443  25.693  1.00  0.00     0.292 C 
ATOM     74  C   UNL A   1      31.132  23.782  23.455  1.00  0.00     0.292 C 
ATOM     75  H   UNL A   1      30.405  24.594  25.202  1.00  0.00     0.349 HD
ATOM     76  C   UNL A   1      33.198  22.783  25.111  1.00  0.00     0.221 C 
ATOM     77  C   UNL A   1      32.313  22.926  22.932  1.00  0.00     0.221 C 
ATOM     78  O   UNL A   1      32.848  22.049  23.930  1.00  0.00    -0.370 OA
ENDBRANCH  71  72
BRANCH  71  79
ATOM     79  C   UNL A   1      30.969  26.732  23.895  1.00  0.00     0.057 A 
ATOM     80  C   UNL A   1      31.362  27.288  22.652  1.00  0.00     0.145 A 
ATOM     81  C   UNL A   1      29.666  27.173  24.051  1.00  0.00     0.119 A 
ATOM     82  N   UNL A   1      30.396  27.997  22.071  1.00  0.00    -0.181 NA
ATOM     83  N   UNL A   1      29.387  27.960  22.964  1.00  0.00    -0.268 N 
BRANCH  83  84
ATOM     84  C   UNL A   1      28.120  28.613  22.650  1.00  0.00     0.179 C 
BRANCH  84  85
ATOM     85  C   UNL A   1      28.262  30.102  22.435  1.00  0.00    -0.027 A 
ATOM     86  C   UNL A   1      28.584  30.947  23.507  1.00  0.00     0.005 A 
ATOM     87  C   UNL A   1      28.012  30.679  21.179  1.00  0.00     0.005 A 
ATOM     88  C   UNL A   1      28.671  32.330  23.320  1.00  0.00     0.000 A 
ATOM     89  C   UNL A   1      28.106  32.058  20.992  1.00  0.00     0.000 A 
ATOM     90  C   UNL A   1      28.436  32.883  22.063  1.00  0.00     0.000 A 
ENDBRANCH  84  85
ENDBRANCH  83  84
ENDBRANCH  71  79
ENDBRANCH  68  71
ENDBRANCH  66  67
ENDBRANCH  65  66
ENDBRANCH   1  65
TORSDOF 17
ENDMDL
MODEL 2
REMARK VINA RESULT:     -11.5      3.263      7.912
REMARK SMILES O=C(NCCCCCCNC(=O)[C@H](c1cnn(Cc2ccccc2)c1)[NH+]1CCOCC1)c1ccc(-c2c3nc(c(-c4c(F)cccc4F)c4ccc([nH]4)c(-c4c(F)cccc4F)c4nc(c(-c5c(F)cccc5F)c5ccc2[nH]5)C=C4)C=C3)cc1
REMARK SMILES IDX 7 1 6 2 5 3 4 4 3 5 1 6 2 7 32 9 33 10 85 11 34 12 84 13
REMARK SMILES IDX 35 14 36 15 37 16 78 17 38 18 83 19 77 20 79 21 39 22 82 23
REMARK SMILES IDX 76 24 75 25 40 27 66 28 49 29 65 30 50 31 53 32 64 33 80 34
REMARK SMILES IDX 51 35 52 36 63 38 81 39 54 40 41 41 42 42 47 43 43 44 44 45
REMARK SMILES IDX 46 46 48 47 45 48 67 49 68 50 73 51 69 52 70 53 72 54 74 55
REMARK SMILES IDX 71 56 55 57 56 58 61 59 57 60 58 61 60 62 62 63 59 64 8 65
REMARK SMILES IDX 9 66 10 67 11 68 12 70 13 71 26 72 27 73 31 74 28 76 30 77
REMARK SMILES IDX 29 78 14 79 15 80 25 81 16 82 17 83 18 84 19 85 20 86 24 87
REMARK SMILES IDX 21 88 23 89 22 90
REMARK H PARENT 3 8 79 26 53 37 10 69 26 75
REMARK Flexibility Score: inf
ROOT
ATOM      1  C   UNL A   1      38.741  23.220  26.258  1.00  0.00     0.002 C 
ENDROOT
BRANCH   1   2
ATOM      2  C   UNL A   1      39.501  21.889  26.280  1.00  0.00     0.002 C 
BRANCH   2   3
ATOM      3  C   UNL A   1      40.536  21.740  27.403  1.00  0.00     0.021 C 
BRANCH   3   4
ATOM      4  C   UNL A   1      41.857  21.110  26.965  1.00  0.00     0.116 C 
BRANCH   4   5
ATOM      5  N   UNL A   1      42.424  21.725  25.784  1.00  0.00    -0.352 N 
ATOM      6  O   UNL A   1      43.369  23.086  24.333  1.00  0.00    -0.269 OA
ATOM      7  C   UNL A   1      42.832  22.981  25.445  1.00  0.00     0.251 C 
ATOM      8  H   UNL A   1      42.542  21.083  25.048  1.00  0.00     0.163 HD
BRANCH   7   9
ATOM      9  C   UNL A   1      42.646  24.216  26.258  1.00  0.00     0.039 A 
ATOM     10  C   UNL A   1      43.260  24.508  27.476  1.00  0.00     0.014 A 
ATOM     11  C   UNL A   1      41.739  25.157  25.728  1.00  0.00     0.014 A 
ATOM     12  C   UNL A   1      42.927  25.672  28.173  1.00  0.00     0.010 A 
ATOM     13  C   UNL A   1      41.409  26.320  26.415  1.00  0.00     0.010 A 
ATOM     14  C   UNL A   1      41.979  26.565  27.658  1.00  0.00    -0.014 A 
BRANCH  14  15
ATOM     15  C   UNL A   1      41.718  27.811  28.379  1.00  0.00     0.031 A 
ATOM     16  C   UNL A   1      42.760  28.867  28.201  1.00  0.00     0.074 A 
ATOM     17  C   UNL A   1      40.570  28.085  29.036  1.00  0.00     0.049 A 
ATOM     18  N   UNL A   1      43.510  29.416  29.102  1.00  0.00    -0.248 NA
ATOM     19  C   UNL A   1      43.071  29.300  26.828  1.00  0.00     0.031 C 
ATOM     20  C   UNL A   1      39.328  27.308  29.061  1.00  0.00     0.029 A 
ATOM     21  N   UNL A   1      40.247  29.190  29.769  1.00  0.00    -0.354 N 
ATOM     22  C   UNL A   1      44.273  30.380  28.444  1.00  0.00     0.074 A 
ATOM     23  C   UNL A   1      44.048  30.183  27.036  1.00  0.00     0.031 C 
ATOM     24  C   UNL A   1      38.334  28.063  29.583  1.00  0.00     0.029 A 
ATOM     25  C   UNL A   1      38.893  29.316  30.062  1.00  0.00     0.049 A 
ATOM     26  H   UNL A   1      40.918  29.846  30.066  1.00  0.00     0.167 HD
ATOM     27  C   UNL A   1      44.895  31.389  29.118  1.00  0.00     0.037 A 
ATOM     28  C   UNL A   1      38.275  30.390  30.618  1.00  0.00     0.037 A 
ATOM     29  C   UNL A   1      45.006  31.089  30.520  1.00  0.00     0.049 A 
ATOM     30  C   UNL A   1      39.311  31.205  31.294  1.00  0.00     0.074 A 
ATOM     31  C   UNL A   1      45.644  30.117  31.265  1.00  0.00     0.029 A 
ATOM     32  N   UNL A   1      44.112  31.682  31.374  1.00  0.00    -0.354 N 
ATOM     33  N   UNL A   1      39.957  30.829  32.360  1.00  0.00    -0.248 NA
ATOM     34  C   UNL A   1      39.937  32.268  30.523  1.00  0.00     0.031 C 
ATOM     35  C   UNL A   1      44.756  29.845  32.345  1.00  0.00     0.029 A 
ATOM     36  C   UNL A   1      43.667  30.708  32.224  1.00  0.00     0.049 A 
ATOM     37  H   UNL A   1      43.842  32.630  31.373  1.00  0.00     0.167 HD
ATOM     38  C   UNL A   1      41.251  31.281  32.163  1.00  0.00     0.074 A 
ATOM     39  C   UNL A   1      41.160  32.231  31.056  1.00  0.00     0.031 C 
ATOM     40  C   UNL A   1      42.315  30.638  32.724  1.00  0.00     0.037 A 
BRANCH  27  41
ATOM     41  C   UNL A   1      45.090  32.792  28.597  1.00  0.00     0.057 A 
ATOM     42  C   UNL A   1      43.961  33.602  28.358  1.00  0.00     0.134 A 
ATOM     43  C   UNL A   1      46.289  33.258  28.025  1.00  0.00     0.134 A 
ATOM     44  F   UNL A   1      42.757  33.268  28.847  1.00  0.00    -0.206 F 
ATOM     45  C   UNL A   1      44.006  34.731  27.531  1.00  0.00     0.040 A 
ATOM     46  C   UNL A   1      46.354  34.411  27.237  1.00  0.00     0.040 A 
ATOM     47  F   UNL A   1      47.435  32.571  28.109  1.00  0.00    -0.206 F 
ATOM     48  C   UNL A   1      45.204  35.131  26.957  1.00  0.00     0.006 A 
ENDBRANCH  27  41
BRANCH  28  49
ATOM     49  C   UNL A   1      36.921  30.932  30.351  1.00  0.00     0.057 A 
ATOM     50  C   UNL A   1      36.116  31.438  31.384  1.00  0.00     0.134 A 
ATOM     51  C   UNL A   1      36.509  31.243  29.044  1.00  0.00     0.134 A 
ATOM     52  F   UNL A   1      36.450  31.236  32.667  1.00  0.00    -0.206 F 
ATOM     53  C   UNL A   1      34.984  32.227  31.133  1.00  0.00     0.040 A 
ATOM     54  C   UNL A   1      35.380  32.026  28.778  1.00  0.00     0.040 A 
ATOM     55  F   UNL A   1      37.245  30.876  27.984  1.00  0.00    -0.206 F 
ATOM     56  C   UNL A   1      34.620  32.533  29.825  1.00  0.00     0.006 A 
ENDBRANCH  28  49
BRANCH  40  57
ATOM     57  C   UNL A   1      42.045  29.590  33.765  1.00  0.00     0.057 A 
ATOM     58  C   UNL A   1      41.825  28.235  33.478  1.00  0.00     0.134 A 
ATOM     59  C   UNL A   1      42.203  29.937  35.111  1.00  0.00     0.134 A 
ATOM     60  F   UNL A   1      41.753  27.795  32.215  1.00  0.00    -0.206 F 
ATOM     61  C   UNL A   1      41.744  27.273  34.490  1.00  0.00     0.040 A 
ATOM     62  C   UNL A   1      42.156  28.982  36.129  1.00  0.00     0.040 A 
ATOM     63  F   UNL A   1      42.469  31.207  35.455  1.00  0.00    -0.206 F 
ATOM     64  C   UNL A   1      41.922  27.644  35.819  1.00  0.00     0.006 A 
ENDBRANCH  40  57
ENDBRANCH  14  15
ENDBRANCH   7   9
ENDBRANCH   4   5
ENDBRANCH   3   4
ENDBRANCH   2   3
ENDBRANCH   1   2
BRANCH   1  65
ATOM     65  C   UNL A   1      37.357  23.173  25.594  1.00  0.00     0.021 C 
BRANCH  65  66
ATOM     66  C   UNL A   1      36.848  21.759  25.304  1.00  0.00     0.116 C 
BRANCH  66  67
ATOM     67  N   UNL A   1      35.922  21.336  26.338  1.00  0.00    -0.351 N 
ATOM     68  C   UNL A   1      34.557  21.457  26.324  1.00  0.00     0.283 C 
ATOM     69  H   UNL A   1      36.317  20.915  27.135  1.00  0.00     0.163 HD
ATOM     70  O   UNL A   1      33.999  21.596  27.416  1.00  0.00    -0.268 OA
BRANCH  68  71
ATOM     71  C   UNL A   1      33.806  21.423  24.967  1.00  0.00     0.308 C 
BRANCH  71  72
ATOM     72  N   UNL A   1      32.682  20.451  24.884  1.00  0.00    -0.317 N 
ATOM     73  C   UNL A   1      32.837  19.113  25.468  1.00  0.00     0.292 C 
ATOM     74  C   UNL A   1      32.025  20.340  23.564  1.00  0.00     0.292 C 
ATOM     75  H   UNL A   1      32.069  20.943  25.532  1.00  0.00     0.349 HD
ATOM     76  C   UNL A   1      33.470  18.100  24.514  1.00  0.00     0.221 C 
ATOM     77  C   UNL A   1      32.505  19.180  22.655  1.00  0.00     0.221 C 
ATOM     78  O   UNL A   1      32.635  17.940  23.360  1.00  0.00    -0.370 OA
ENDBRANCH  71  72
BRANCH  71  79
ATOM     79  C   UNL A   1      33.445  22.825  24.564  1.00  0.00     0.057 A 
ATOM     80  C   UNL A   1      33.982  23.568  23.484  1.00  0.00     0.145 A 
ATOM     81  C   UNL A   1      32.485  23.669  25.094  1.00  0.00     0.119 A 
ATOM     82  N   UNL A   1      33.405  24.758  23.334  1.00  0.00    -0.181 NA
ATOM     83  N   UNL A   1      32.531  24.824  24.358  1.00  0.00    -0.268 N 
BRANCH  83  84
ATOM     84  C   UNL A   1      31.673  25.996  24.501  1.00  0.00     0.179 C 
BRANCH  84  85
ATOM     85  C   UNL A   1      32.187  26.981  25.525  1.00  0.00    -0.027 A 
ATOM     86  C   UNL A   1      33.539  27.353  25.538  1.00  0.00     0.005 A 
ATOM     87  C   UNL A   1      31.342  27.496  26.522  1.00  0.00     0.005 A 
ATOM     88  C   UNL A   1      34.026  28.230  26.512  1.00  0.00     0.000 A 
ATOM     89  C   UNL A   1      31.827  28.376  27.489  1.00  0.00     0.000 A 
ATOM     90  C   UNL A   1      33.169  28.743  27.483  1.00  0.00     0.000 A 
ENDBRANCH  84  85
ENDBRANCH  83  84
ENDBRANCH  71  79
ENDBRANCH  68  71
ENDBRANCH  66  67
ENDBRANCH  65  66
ENDBRANCH   1  65
TORSDOF 17
ENDMDL
MODEL 3
REMARK VINA RESULT:     -11.5      1.293      4.122
REMARK SMILES O=C(NCCCCCCNC(=O)[C@H](c1cnn(Cc2ccccc2)c1)[NH+]1CCOCC1)c1ccc(-c2c3nc(c(-c4c(F)cccc4F)c4ccc([nH]4)c(-c4c(F)cccc4F)c4nc(c(-c5c(F)cccc5F)c5ccc2[nH]5)C=C4)C=C3)cc1
REMARK SMILES IDX 7 1 6 2 5 3 4 4 3 5 1 6 2 7 32 9 33 10 85 11 34 12 84 13
REMARK SMILES IDX 35 14 36 15 37 16 78 17 38 18 83 19 77 20 79 21 39 22 82 23
REMARK SMILES IDX 76 24 75 25 40 27 66 28 49 29 65 30 50 31 53 32 64 33 80 34
REMARK SMILES IDX 51 35 52 36 63 38 81 39 54 40 41 41 42 42 47 43 43 44 44 45
REMARK SMILES IDX 46 46 48 47 45 48 67 49 68 50 73 51 69 52 70 53 72 54 74 55
REMARK SMILES IDX 71 56 55 57 56 58 61 59 57 60 58 61 60 62 62 63 59 64 8 65
REMARK SMILES IDX 9 66 10 67 11 68 12 70 13 71 26 72 27 73 31 74 28 76 30 77
REMARK SMILES IDX 29 78 14 79 15 80 25 81 16 82 17 83 18 84 19 85 20 86 24 87
REMARK SMILES IDX 21 88 23 89 22 90
REMARK H PARENT 3 8 79 26 53 37 10 69 26 75
REMARK Flexibility Score: inf
ROOT
ATOM      1  C   UNL A   1      34.272  29.086  26.761  1.00  0.00     0.002 C 
ENDROOT
BRANCH   1   2
ATOM      2  C   UNL A   1      34.815  30.225  27.631  1.00  0.00     0.002 C 
BRANCH   2   3
ATOM      3  C   UNL A   1      33.897  31.447  27.764  1.00  0.00     0.021 C 
BRANCH   3   4
ATOM      4  C   UNL A   1      34.499  32.606  28.558  1.00  0.00     0.116 C 
BRANCH   4   5
ATOM      5  N   UNL A   1      34.360  32.454  29.991  1.00  0.00    -0.352 N 
ATOM      6  O   UNL A   1      34.694  32.126  32.143  1.00  0.00    -0.269 OA
ATOM      7  C   UNL A   1      35.156  32.000  31.000  1.00  0.00     0.251 C 
ATOM      8  H   UNL A   1      33.479  32.748  30.314  1.00  0.00     0.163 HD
BRANCH   7   9
ATOM      9  C   UNL A   1      36.481  31.335  30.844  1.00  0.00     0.039 A 
ATOM     10  C   UNL A   1      37.713  31.968  30.686  1.00  0.00     0.014 A 
ATOM     11  C   UNL A   1      36.452  29.925  30.840  1.00  0.00     0.014 A 
ATOM     12  C   UNL A   1      38.870  31.217  30.467  1.00  0.00     0.010 A 
ATOM     13  C   UNL A   1      37.601  29.172  30.627  1.00  0.00     0.010 A 
ATOM     14  C   UNL A   1      38.811  29.819  30.406  1.00  0.00    -0.014 A 
BRANCH  14  15
ATOM     15  C   UNL A   1      40.056  29.065  30.253  1.00  0.00     0.031 A 
ATOM     16  C   UNL A   1      40.824  28.863  31.520  1.00  0.00     0.074 A 
ATOM     17  C   UNL A   1      40.440  28.451  29.114  1.00  0.00     0.049 A 
ATOM     18  N   UNL A   1      42.019  29.269  31.807  1.00  0.00    -0.248 NA
ATOM     19  C   UNL A   1      40.135  28.205  32.642  1.00  0.00     0.031 C 
ATOM     20  C   UNL A   1      39.680  28.278  27.873  1.00  0.00     0.029 A 
ATOM     21  N   UNL A   1      41.592  27.765  28.858  1.00  0.00    -0.354 N 
ATOM     22  C   UNL A   1      42.304  28.781  33.082  1.00  0.00     0.074 A 
ATOM     23  C   UNL A   1      41.071  28.237  33.592  1.00  0.00     0.031 C 
ATOM     24  C   UNL A   1      40.297  27.362  27.090  1.00  0.00     0.029 A 
ATOM     25  C   UNL A   1      41.562  26.992  27.702  1.00  0.00     0.049 A 
ATOM     26  H   UNL A   1      42.381  27.813  29.445  1.00  0.00     0.167 HD
ATOM     27  C   UNL A   1      43.580  28.697  33.553  1.00  0.00     0.037 A 
ATOM     28  C   UNL A   1      42.491  26.086  27.302  1.00  0.00     0.037 A 
ATOM     29  C   UNL A   1      44.474  29.522  32.786  1.00  0.00     0.049 A 
ATOM     30  C   UNL A   1      43.751  26.384  28.024  1.00  0.00     0.074 A 
ATOM     31  C   UNL A   1      44.588  30.876  32.542  1.00  0.00     0.029 A 
ATOM     32  N   UNL A   1      45.264  28.908  31.848  1.00  0.00    -0.354 N 
ATOM     33  N   UNL A   1      44.474  27.447  27.822  1.00  0.00    -0.248 NA
ATOM     34  C   UNL A   1      43.978  25.701  29.288  1.00  0.00     0.031 C 
ATOM     35  C   UNL A   1      45.017  30.967  31.186  1.00  0.00     0.029 A 
ATOM     36  C   UNL A   1      45.194  29.667  30.712  1.00  0.00     0.049 A 
ATOM     37  H   UNL A   1      45.781  28.079  31.969  1.00  0.00     0.167 HD
ATOM     38  C   UNL A   1      44.917  27.814  29.082  1.00  0.00     0.074 A 
ATOM     39  C   UNL A   1      44.650  26.656  29.933  1.00  0.00     0.031 C 
ATOM     40  C   UNL A   1      45.200  29.115  29.379  1.00  0.00     0.037 A 
BRANCH  27  41
ATOM     41  C   UNL A   1      44.100  27.617  34.470  1.00  0.00     0.057 A 
ATOM     42  C   UNL A   1      44.023  26.270  34.060  1.00  0.00     0.134 A 
ATOM     43  C   UNL A   1      44.367  27.809  35.838  1.00  0.00     0.134 A 
ATOM     44  F   UNL A   1      43.773  25.950  32.782  1.00  0.00    -0.206 F 
ATOM     45  C   UNL A   1      44.107  25.202  34.964  1.00  0.00     0.040 A 
ATOM     46  C   UNL A   1      44.500  26.749  36.740  1.00  0.00     0.040 A 
ATOM     47  F   UNL A   1      44.410  29.026  36.394  1.00  0.00    -0.206 F 
ATOM     48  C   UNL A   1      44.333  25.442  36.311  1.00  0.00     0.006 A 
ENDBRANCH  27  41
BRANCH  28  49
ATOM     49  C   UNL A   1      42.298  24.799  26.590  1.00  0.00     0.057 A 
ATOM     50  C   UNL A   1      43.061  24.464  25.461  1.00  0.00     0.134 A 
ATOM     51  C   UNL A   1      41.575  23.747  27.177  1.00  0.00     0.134 A 
ATOM     52  F   UNL A   1      43.824  25.387  24.856  1.00  0.00    -0.206 F 
ATOM     53  C   UNL A   1      43.122  23.155  24.961  1.00  0.00     0.040 A 
ATOM     54  C   UNL A   1      41.623  22.438  26.687  1.00  0.00     0.040 A 
ATOM     55  F   UNL A   1      40.873  23.938  28.304  1.00  0.00    -0.206 F 
ATOM     56  C   UNL A   1      42.410  22.134  25.583  1.00  0.00     0.006 A 
ENDBRANCH  28  49
BRANCH  40  57
ATOM     57  C   UNL A   1      45.270  30.102  28.250  1.00  0.00     0.057 A 
ATOM     58  C   UNL A   1      44.165  30.809  27.754  1.00  0.00     0.134 A 
ATOM     59  C   UNL A   1      46.532  30.487  27.783  1.00  0.00     0.134 A 
ATOM     60  F   UNL A   1      42.928  30.574  28.210  1.00  0.00    -0.206 F 
ATOM     61  C   UNL A   1      44.310  31.837  26.817  1.00  0.00     0.040 A 
ATOM     62  C   UNL A   1      46.694  31.533  26.873  1.00  0.00     0.040 A 
ATOM     63  F   UNL A   1      47.638  29.890  28.255  1.00  0.00    -0.206 F 
ATOM     64  C   UNL A   1      45.580  32.210  26.383  1.00  0.00     0.006 A 
ENDBRANCH  40  57
ENDBRANCH  14  15
ENDBRANCH   7   9
ENDBRANCH   4   5
ENDBRANCH   3   4
ENDBRANCH   2   3
ENDBRANCH   1   2
BRANCH   1  65
ATOM     65  C   UNL A   1      32.814  28.691  27.034  1.00  0.00     0.021 C 
BRANCH  65  66
ATOM     66  C   UNL A   1      31.784  29.543  26.289  1.00  0.00     0.116 C 
BRANCH  66  67
ATOM     67  N   UNL A   1      32.212  29.769  24.921  1.00  0.00    -0.351 N 
ATOM     68  C   UNL A   1      31.890  29.020  23.820  1.00  0.00     0.283 C 
ATOM     69  H   UNL A   1      32.796  30.547  24.767  1.00  0.00     0.163 HD
ATOM     70  O   UNL A   1      32.728  28.972  22.915  1.00  0.00    -0.268 OA
BRANCH  68  71
ATOM     71  C   UNL A   1      30.527  28.280  23.777  1.00  0.00     0.308 C 
BRANCH  71  72
ATOM     72  N   UNL A   1      29.595  28.721  22.704  1.00  0.00    -0.317 N 
ATOM     73  C   UNL A   1      29.546  30.139  22.326  1.00  0.00     0.292 C 
ATOM     74  C   UNL A   1      28.221  28.184  22.785  1.00  0.00     0.292 C 
ATOM     75  H   UNL A   1      30.096  28.271  21.939  1.00  0.00     0.349 HD
ATOM     76  C   UNL A   1      28.578  30.964  23.176  1.00  0.00     0.221 C 
ATOM     77  C   UNL A   1      27.166  29.099  23.459  1.00  0.00     0.221 C 
ATOM     78  O   UNL A   1      27.247  30.458  23.014  1.00  0.00    -0.370 OA
ENDBRANCH  71  72
BRANCH  71  79
ATOM     79  C   UNL A   1      30.765  26.797  23.822  1.00  0.00     0.057 A 
ATOM     80  C   UNL A   1      31.186  25.967  22.754  1.00  0.00     0.145 A 
ATOM     81  C   UNL A   1      30.696  25.931  24.899  1.00  0.00     0.119 A 
ATOM     82  N   UNL A   1      31.383  24.703  23.124  1.00  0.00    -0.181 NA
ATOM     83  N   UNL A   1      31.028  24.689  24.425  1.00  0.00    -0.268 N 
BRANCH  83  84
ATOM     84  C   UNL A   1      31.147  23.454  25.193  1.00  0.00     0.179 C 
BRANCH  84  85
ATOM     85  C   UNL A   1      32.576  22.984  25.335  1.00  0.00    -0.027 A 
ATOM     86  C   UNL A   1      33.512  23.757  26.038  1.00  0.00     0.005 A 
ATOM     87  C   UNL A   1      33.014  21.801  24.716  1.00  0.00     0.005 A 
ATOM     88  C   UNL A   1      34.844  23.346  26.133  1.00  0.00     0.000 A 
ATOM     89  C   UNL A   1      34.342  21.389  24.818  1.00  0.00     0.000 A 
ATOM     90  C   UNL A   1      35.257  22.161  25.526  1.00  0.00     0.000 A 
ENDBRANCH  84  85
ENDBRANCH  83  84
ENDBRANCH  71  79
ENDBRANCH  68  71
ENDBRANCH  66  67
ENDBRANCH  65  66
ENDBRANCH   1  65
TORSDOF 17
ENDMDL
