MODEL 1
REMARK VINA RESULT:     -13.0      0.000      0.000
REMARK SMILES CC1(C)S[C@@H](c2cccc3c2sc2ccccc23)[NH2+][C@@H]1C(=O)NCCCCCCNC(=O)c1ccc(-c2c3nc(c(-c4c(F)cccc4F)c4ccc([nH]4)c(-c4c(F)cccc4F)c4nc(c(-c5c(F)cccc5F)c5ccc2[nH]5)C=C4)C=C3)cc1
REMARK SMILES IDX 27 1 26 2 25 3 24 4 23 5 21 6 22 7 20 9 1 10 2 11 3 12 4 13
REMARK SMILES IDX 5 14 19 15 6 18 7 19 11 20 8 21 10 22 12 23 9 24 18 25 13 26
REMARK SMILES IDX 17 27 14 28 16 29 15 30 28 31 29 32 30 33 31 34 32 36 33 37
REMARK SMILES IDX 34 38 86 39 35 40 85 41 36 42 37 43 38 44 79 45 39 46 84 47
REMARK SMILES IDX 78 48 80 49 40 50 83 51 77 52 76 53 41 55 67 56 50 57 66 58
REMARK SMILES IDX 51 59 54 60 65 61 81 62 52 63 53 64 64 66 82 67 55 68 42 69
REMARK SMILES IDX 43 70 48 71 44 72 45 73 47 74 49 75 46 76 68 77 69 78 74 79
REMARK SMILES IDX 70 80 71 81 73 82 75 83 72 84 56 85 57 86 62 87 58 88 59 89
REMARK SMILES IDX 61 90 63 91 60 92
REMARK H PARENT 23 8 19 16 19 17 30 35 80 54 54 65
REMARK Flexibility Score: inf
ROOT
ATOM      1  C   UNL A   1      31.091  30.911  25.402  1.00  0.00     0.002 C 
ENDROOT
BRANCH   1   2
ATOM      2  C   UNL A   1      31.913  29.682  25.796  1.00  0.00     0.002 C 
BRANCH   2   3
ATOM      3  C   UNL A   1      31.779  29.216  27.250  1.00  0.00     0.021 C 
BRANCH   3   4
ATOM      4  C   UNL A   1      32.086  27.744  27.518  1.00  0.00     0.116 C 
BRANCH   4   5
ATOM      5  N   UNL A   1      31.141  26.855  26.875  1.00  0.00    -0.351 N 
ATOM      6  C   UNL A   1      31.288  26.031  25.796  1.00  0.00     0.279 C 
ATOM      7  O   UNL A   1      30.288  25.376  25.496  1.00  0.00    -0.268 OA
ATOM      8  H   UNL A   1      30.245  26.842  27.282  1.00  0.00     0.163 HD
BRANCH   6   9
ATOM      9  C   UNL A   1      32.588  26.038  24.937  1.00  0.00     0.289 C 
ATOM     10  C   UNL A   1      33.653  26.405  22.647  1.00  0.00     0.030 C 
ATOM     11  C   UNL A   1      32.422  25.855  23.399  1.00  0.00     0.077 C 
ATOM     12  C   UNL A   1      31.173  26.454  22.749  1.00  0.00     0.030 C 
ATOM     13  S   UNL A   1      32.423  24.035  23.183  1.00  0.00    -0.081 SA
ATOM     14  C   UNL A   1      33.070  23.709  24.849  1.00  0.00     0.276 C 
ATOM     15  N   UNL A   1      33.547  24.987  25.391  1.00  0.00    -0.320 N 
ATOM     16  H   UNL A   1      34.482  25.189  25.037  1.00  0.00     0.348 HD
ATOM     17  H   UNL A   1      33.597  24.954  26.408  1.00  0.00     0.348 HD
BRANCH  14  18
ATOM     18  C   UNL A   1      34.167  22.658  24.885  1.00  0.00     0.038 A 
ATOM     19  C   UNL A   1      35.517  23.041  25.082  1.00  0.00     0.012 A 
ATOM     20  C   UNL A   1      33.914  21.259  24.773  1.00  0.00     0.046 A 
ATOM     21  C   UNL A   1      36.548  22.116  25.140  1.00  0.00     0.001 A 
ATOM     22  C   UNL A   1      34.939  20.307  24.814  1.00  0.00     0.001 A 
ATOM     23  S   UNL A   1      32.385  20.480  24.585  1.00  0.00    -0.135 S 
ATOM     24  C   UNL A   1      36.269  20.762  25.001  1.00  0.00     0.010 A 
ATOM     25  C   UNL A   1      34.448  18.950  24.639  1.00  0.00     0.000 A 
ATOM     26  C   UNL A   1      33.063  18.911  24.507  1.00  0.00     0.036 A 
ATOM     27  C   UNL A   1      35.153  17.717  24.586  1.00  0.00     0.010 A 
ATOM     28  C   UNL A   1      32.369  17.697  24.332  1.00  0.00     0.019 A 
ATOM     29  C   UNL A   1      34.472  16.510  24.403  1.00  0.00     0.001 A 
ATOM     30  C   UNL A   1      33.091  16.502  24.279  1.00  0.00     0.002 A 
ENDBRANCH  14  18
ENDBRANCH   6   9
ENDBRANCH   4   5
ENDBRANCH   3   4
ENDBRANCH   2   3
ENDBRANCH   1   2
BRANCH   1  31
ATOM     31  C   UNL A   1      31.028  32.035  26.439  1.00  0.00     0.021 C 
BRANCH  31  32
ATOM     32  C   UNL A   1      32.371  32.609  26.877  1.00  0.00     0.116 C 
BRANCH  32  33
ATOM     33  N   UNL A   1      32.267  33.945  27.440  1.00  0.00    -0.352 N 
ATOM     34  C   UNL A   1      33.037  34.549  28.399  1.00  0.00     0.251 C 
ATOM     35  H   UNL A   1      31.536  34.496  27.079  1.00  0.00     0.163 HD
ATOM     36  O   UNL A   1      32.721  35.662  28.822  1.00  0.00    -0.269 OA
BRANCH  34  37
ATOM     37  C   UNL A   1      34.232  33.872  28.953  1.00  0.00     0.039 A 
ATOM     38  C   UNL A   1      34.040  32.770  29.794  1.00  0.00     0.014 A 
ATOM     39  C   UNL A   1      35.527  34.331  28.694  1.00  0.00     0.014 A 
ATOM     40  C   UNL A   1      35.142  32.112  30.345  1.00  0.00     0.010 A 
ATOM     41  C   UNL A   1      36.628  33.633  29.191  1.00  0.00     0.010 A 
ATOM     42  C   UNL A   1      36.446  32.529  30.035  1.00  0.00    -0.014 A 
BRANCH  42  43
ATOM     43  C   UNL A   1      37.621  31.836  30.624  1.00  0.00     0.031 A 
ATOM     44  C   UNL A   1      38.078  32.171  32.018  1.00  0.00     0.074 A 
ATOM     45  C   UNL A   1      38.292  30.921  29.898  1.00  0.00     0.049 A 
ATOM     46  N   UNL A   1      39.077  31.675  32.704  1.00  0.00    -0.248 NA
ATOM     47  C   UNL A   1      37.329  33.222  32.726  1.00  0.00     0.031 C 
ATOM     48  C   UNL A   1      37.983  30.544  28.519  1.00  0.00     0.029 A 
ATOM     49  N   UNL A   1      39.373  30.143  30.223  1.00  0.00    -0.354 N 
ATOM     50  C   UNL A   1      39.084  32.359  33.912  1.00  0.00     0.074 A 
ATOM     51  C   UNL A   1      38.023  33.340  33.848  1.00  0.00     0.031 C 
ATOM     52  C   UNL A   1      38.837  29.585  28.124  1.00  0.00     0.029 A 
ATOM     53  C   UNL A   1      39.766  29.298  29.214  1.00  0.00     0.049 A 
ATOM     54  H   UNL A   1      39.826  30.186  31.097  1.00  0.00     0.167 HD
ATOM     55  C   UNL A   1      39.882  32.169  34.990  1.00  0.00     0.037 A 
ATOM     56  C   UNL A   1      40.756  28.387  29.177  1.00  0.00     0.037 A 
ATOM     57  C   UNL A   1      40.916  31.171  35.068  1.00  0.00     0.049 A 
ATOM     58  C   UNL A   1      41.611  28.176  30.394  1.00  0.00     0.074 A 
ATOM     59  C   UNL A   1      41.738  30.861  36.138  1.00  0.00     0.029 A 
ATOM     60  N   UNL A   1      41.267  30.318  34.033  1.00  0.00    -0.354 N 
ATOM     61  N   UNL A   1      41.561  28.782  31.556  1.00  0.00    -0.248 NA
ATOM     62  C   UNL A   1      42.652  27.142  30.300  1.00  0.00     0.031 C 
ATOM     63  C   UNL A   1      42.608  29.839  35.739  1.00  0.00     0.029 A 
ATOM     64  C   UNL A   1      42.302  29.489  34.434  1.00  0.00     0.049 A 
ATOM     65  H   UNL A   1      40.842  30.301  33.145  1.00  0.00     0.167 HD
ATOM     66  C   UNL A   1      42.545  28.191  32.336  1.00  0.00     0.074 A 
ATOM     67  C   UNL A   1      43.165  27.165  31.522  1.00  0.00     0.031 C 
ATOM     68  C   UNL A   1      42.907  28.473  33.612  1.00  0.00     0.037 A 
BRANCH  55  69
ATOM     69  C   UNL A   1      39.659  33.060  36.176  1.00  0.00     0.057 A 
ATOM     70  C   UNL A   1      38.745  32.727  37.186  1.00  0.00     0.134 A 
ATOM     71  C   UNL A   1      40.379  34.252  36.325  1.00  0.00     0.134 A 
ATOM     72  F   UNL A   1      38.014  31.607  37.098  1.00  0.00    -0.206 F 
ATOM     73  C   UNL A   1      38.537  33.561  38.286  1.00  0.00     0.040 A 
ATOM     74  C   UNL A   1      40.197  35.082  37.432  1.00  0.00     0.040 A 
ATOM     75  F   UNL A   1      41.274  34.628  35.398  1.00  0.00    -0.206 F 
ATOM     76  C   UNL A   1      39.268  34.740  38.414  1.00  0.00     0.006 A 
ENDBRANCH  55  69
BRANCH  56  77
ATOM     77  C   UNL A   1      40.968  27.573  27.954  1.00  0.00     0.057 A 
ATOM     78  C   UNL A   1      40.360  26.321  27.808  1.00  0.00     0.134 A 
ATOM     79  C   UNL A   1      41.790  28.019  26.913  1.00  0.00     0.134 A 
ATOM     80  F   UNL A   1      39.578  25.834  28.782  1.00  0.00    -0.206 F 
ATOM     81  C   UNL A   1      40.574  25.533  26.676  1.00  0.00     0.040 A 
ATOM     82  C   UNL A   1      41.995  27.251  25.765  1.00  0.00     0.040 A 
ATOM     83  F   UNL A   1      42.396  29.213  26.992  1.00  0.00    -0.206 F 
ATOM     84  C   UNL A   1      41.390  26.000  25.648  1.00  0.00     0.006 A 
ENDBRANCH  56  77
BRANCH  68  85
ATOM     85  C   UNL A   1      44.006  27.645  34.207  1.00  0.00     0.057 A 
ATOM     86  C   UNL A   1      45.343  28.062  34.176  1.00  0.00     0.134 A 
ATOM     87  C   UNL A   1      43.723  26.425  34.834  1.00  0.00     0.134 A 
ATOM     88  F   UNL A   1      45.681  29.215  33.578  1.00  0.00    -0.206 F 
ATOM     89  C   UNL A   1      46.362  27.283  34.724  1.00  0.00     0.040 A 
ATOM     90  C   UNL A   1      44.730  25.648  35.406  1.00  0.00     0.040 A 
ATOM     91  F   UNL A   1      42.461  25.972  34.904  1.00  0.00    -0.206 F 
ATOM     92  C   UNL A   1      46.056  26.074  35.346  1.00  0.00     0.006 A 
ENDBRANCH  68  85
ENDBRANCH  42  43
ENDBRANCH  34  37
ENDBRANCH  32  33
ENDBRANCH  31  32
ENDBRANCH   1  31
TORSDOF 14
ENDMDL
MODEL 2
REMARK VINA RESULT:     -12.9      1.707      2.354
REMARK SMILES CC1(C)S[C@@H](c2cccc3c2sc2ccccc23)[NH2+][C@@H]1C(=O)NCCCCCCNC(=O)c1ccc(-c2c3nc(c(-c4c(F)cccc4F)c4ccc([nH]4)c(-c4c(F)cccc4F)c4nc(c(-c5c(F)cccc5F)c5ccc2[nH]5)C=C4)C=C3)cc1
REMARK SMILES IDX 27 1 26 2 25 3 24 4 23 5 21 6 22 7 20 9 1 10 2 11 3 12 4 13
REMARK SMILES IDX 5 14 19 15 6 18 7 19 11 20 8 21 10 22 12 23 9 24 18 25 13 26
REMARK SMILES IDX 17 27 14 28 16 29 15 30 28 31 29 32 30 33 31 34 32 36 33 37
REMARK SMILES IDX 34 38 86 39 35 40 85 41 36 42 37 43 38 44 79 45 39 46 84 47
REMARK SMILES IDX 78 48 80 49 40 50 83 51 77 52 76 53 41 55 67 56 50 57 66 58
REMARK SMILES IDX 51 59 54 60 65 61 81 62 52 63 53 64 64 66 82 67 55 68 42 69
REMARK SMILES IDX 43 70 48 71 44 72 45 73 47 74 49 75 46 76 68 77 69 78 74 79
REMARK SMILES IDX 70 80 71 81 73 82 75 83 72 84 56 85 57 86 62 87 58 88 59 89
REMARK SMILES IDX 61 90 63 91 60 92
REMARK H PARENT 23 8 19 16 19 17 30 35 80 54 54 65
REMARK Flexibility Score: inf
ROOT
ATOM      1  C   UNL A   1      34.043  30.976  27.343  1.00  0.00     0.002 C 
ENDROOT
BRANCH   1   2
ATOM      2  C   UNL A   1      33.874  29.503  26.966  1.00  0.00     0.002 C 
BRANCH   2   3
ATOM      3  C   UNL A   1      32.702  28.767  27.626  1.00  0.00     0.021 C 
BRANCH   3   4
ATOM      4  C   UNL A   1      31.534  28.402  26.713  1.00  0.00     0.116 C 
BRANCH   4   5
ATOM      5  N   UNL A   1      31.108  27.028  26.880  1.00  0.00    -0.351 N 
ATOM      6  C   UNL A   1      31.639  25.867  26.396  1.00  0.00     0.279 C 
ATOM      7  O   UNL A   1      31.048  24.839  26.735  1.00  0.00    -0.268 OA
ATOM      8  H   UNL A   1      30.303  26.911  27.434  1.00  0.00     0.163 HD
BRANCH   6   9
ATOM      9  C   UNL A   1      32.820  25.873  25.380  1.00  0.00     0.289 C 
ATOM     10  C   UNL A   1      33.593  26.269  22.980  1.00  0.00     0.030 C 
ATOM     11  C   UNL A   1      32.458  25.721  23.873  1.00  0.00     0.077 C 
ATOM     12  C   UNL A   1      31.147  26.349  23.396  1.00  0.00     0.030 C 
ATOM     13  S   UNL A   1      32.404  23.906  23.627  1.00  0.00    -0.081 SA
ATOM     14  C   UNL A   1      33.251  23.540  25.192  1.00  0.00     0.276 C 
ATOM     15  N   UNL A   1      33.812  24.801  25.691  1.00  0.00    -0.320 N 
ATOM     16  H   UNL A   1      34.698  24.998  25.225  1.00  0.00     0.348 HD
ATOM     17  H   UNL A   1      33.990  24.749  26.694  1.00  0.00     0.348 HD
BRANCH  14  18
ATOM     18  C   UNL A   1      34.328  22.475  25.072  1.00  0.00     0.038 A 
ATOM     19  C   UNL A   1      35.697  22.834  25.119  1.00  0.00     0.012 A 
ATOM     20  C   UNL A   1      34.040  21.083  24.953  1.00  0.00     0.046 A 
ATOM     21  C   UNL A   1      36.713  21.895  25.032  1.00  0.00     0.001 A 
ATOM     22  C   UNL A   1      35.048  20.116  24.848  1.00  0.00     0.001 A 
ATOM     23  S   UNL A   1      32.488  20.329  24.925  1.00  0.00    -0.135 S 
ATOM     24  C   UNL A   1      36.398  20.549  24.890  1.00  0.00     0.010 A 
ATOM     25  C   UNL A   1      34.518  18.772  24.696  1.00  0.00     0.000 A 
ATOM     26  C   UNL A   1      33.127  18.754  24.726  1.00  0.00     0.036 A 
ATOM     27  C   UNL A   1      35.192  17.532  24.528  1.00  0.00     0.010 A 
ATOM     28  C   UNL A   1      32.397  17.554  24.601  1.00  0.00     0.019 A 
ATOM     29  C   UNL A   1      34.474  16.339  24.394  1.00  0.00     0.001 A 
ATOM     30  C   UNL A   1      33.089  16.353  24.433  1.00  0.00     0.002 A 
ENDBRANCH  14  18
ENDBRANCH   6   9
ENDBRANCH   4   5
ENDBRANCH   3   4
ENDBRANCH   2   3
ENDBRANCH   1   2
BRANCH   1  31
ATOM     31  C   UNL A   1      32.752  31.748  27.626  1.00  0.00     0.021 C 
BRANCH  31  32
ATOM     32  C   UNL A   1      32.635  33.114  26.958  1.00  0.00     0.116 C 
BRANCH  32  33
ATOM     33  N   UNL A   1      32.395  34.193  27.900  1.00  0.00    -0.352 N 
ATOM     34  C   UNL A   1      33.145  34.597  28.973  1.00  0.00     0.251 C 
ATOM     35  H   UNL A   1      31.571  34.711  27.745  1.00  0.00     0.163 HD
ATOM     36  O   UNL A   1      32.715  35.475  29.722  1.00  0.00    -0.269 OA
BRANCH  34  37
ATOM     37  C   UNL A   1      34.457  33.974  29.261  1.00  0.00     0.039 A 
ATOM     38  C   UNL A   1      34.565  33.138  30.378  1.00  0.00     0.014 A 
ATOM     39  C   UNL A   1      35.586  34.235  28.478  1.00  0.00     0.014 A 
ATOM     40  C   UNL A   1      35.788  32.541  30.688  1.00  0.00     0.010 A 
ATOM     41  C   UNL A   1      36.791  33.586  28.750  1.00  0.00     0.010 A 
ATOM     42  C   UNL A   1      36.909  32.748  29.867  1.00  0.00    -0.014 A 
BRANCH  42  43
ATOM     43  C   UNL A   1      38.214  32.120  30.197  1.00  0.00     0.031 A 
ATOM     44  C   UNL A   1      39.166  32.803  31.141  1.00  0.00     0.074 A 
ATOM     45  C   UNL A   1      38.554  30.947  29.630  1.00  0.00     0.049 A 
ATOM     46  N   UNL A   1      40.346  32.413  31.552  1.00  0.00    -0.248 NA
ATOM     47  C   UNL A   1      38.748  34.109  31.674  1.00  0.00     0.031 C 
ATOM     48  C   UNL A   1      37.744  30.209  28.661  1.00  0.00     0.029 A 
ATOM     49  N   UNL A   1      39.673  30.169  29.791  1.00  0.00    -0.354 N 
ATOM     50  C   UNL A   1      40.814  33.427  32.378  1.00  0.00     0.074 A 
ATOM     51  C   UNL A   1      39.815  34.473  32.369  1.00  0.00     0.031 C 
ATOM     52  C   UNL A   1      38.380  29.071  28.333  1.00  0.00     0.029 A 
ATOM     53  C   UNL A   1      39.649  29.012  29.053  1.00  0.00     0.049 A 
ATOM     54  H   UNL A   1      40.423  30.418  30.380  1.00  0.00     0.167 HD
ATOM     55  C   UNL A   1      41.959  33.473  33.099  1.00  0.00     0.037 A 
ATOM     56  C   UNL A   1      40.546  28.011  28.974  1.00  0.00     0.037 A 
ATOM     57  C   UNL A   1      42.939  32.420  33.135  1.00  0.00     0.049 A 
ATOM     58  C   UNL A   1      41.796  28.072  29.805  1.00  0.00     0.074 A 
ATOM     59  C   UNL A   1      44.102  32.347  33.882  1.00  0.00     0.029 A 
ATOM     60  N   UNL A   1      42.867  31.252  32.392  1.00  0.00    -0.354 N 
ATOM     61  N   UNL A   1      42.192  29.006  30.636  1.00  0.00    -0.248 NA
ATOM     62  C   UNL A   1      42.717  26.931  29.699  1.00  0.00     0.031 C 
ATOM     63  C   UNL A   1      44.750  31.146  33.567  1.00  0.00     0.029 A 
ATOM     64  C   UNL A   1      43.971  30.457  32.652  1.00  0.00     0.049 A 
ATOM     65  H   UNL A   1      42.138  31.020  31.772  1.00  0.00     0.167 HD
ATOM     66  C   UNL A   1      43.394  28.558  31.166  1.00  0.00     0.074 A 
ATOM     67  C   UNL A   1      43.653  27.259  30.578  1.00  0.00     0.031 C 
ATOM     68  C   UNL A   1      44.214  29.167  32.059  1.00  0.00     0.037 A 
BRANCH  55  69
ATOM     69  C   UNL A   1      42.207  34.706  33.918  1.00  0.00     0.057 A 
ATOM     70  C   UNL A   1      42.821  35.842  33.372  1.00  0.00     0.134 A 
ATOM     71  C   UNL A   1      41.810  34.769  35.259  1.00  0.00     0.134 A 
ATOM     72  F   UNL A   1      43.238  35.842  32.097  1.00  0.00    -0.206 F 
ATOM     73  C   UNL A   1      43.055  36.985  34.138  1.00  0.00     0.040 A 
ATOM     74  C   UNL A   1      42.016  35.916  36.028  1.00  0.00     0.040 A 
ATOM     75  F   UNL A   1      41.211  33.720  35.843  1.00  0.00    -0.206 F 
ATOM     76  C   UNL A   1      42.647  37.026  35.469  1.00  0.00     0.006 A 
ENDBRANCH  55  69
BRANCH  56  77
ATOM     77  C   UNL A   1      40.275  26.840  28.102  1.00  0.00     0.057 A 
ATOM     78  C   UNL A   1      39.460  25.790  28.539  1.00  0.00     0.134 A 
ATOM     79  C   UNL A   1      40.830  26.739  26.822  1.00  0.00     0.134 A 
ATOM     80  F   UNL A   1      38.917  25.823  29.765  1.00  0.00    -0.206 F 
ATOM     81  C   UNL A   1      39.220  24.671  27.741  1.00  0.00     0.040 A 
ATOM     82  C   UNL A   1      40.580  25.636  26.003  1.00  0.00     0.040 A 
ATOM     83  F   UNL A   1      41.614  27.716  26.344  1.00  0.00    -0.206 F 
ATOM     84  C   UNL A   1      39.778  24.594  26.467  1.00  0.00     0.006 A 
ENDBRANCH  56  77
BRANCH  68  85
ATOM     85  C   UNL A   1      45.449  28.423  32.465  1.00  0.00     0.057 A 
ATOM     86  C   UNL A   1      45.449  27.526  33.541  1.00  0.00     0.134 A 
ATOM     87  C   UNL A   1      46.649  28.591  31.762  1.00  0.00     0.134 A 
ATOM     88  F   UNL A   1      44.335  27.331  34.263  1.00  0.00    -0.206 F 
ATOM     89  C   UNL A   1      46.606  26.842  33.919  1.00  0.00     0.040 A 
ATOM     90  C   UNL A   1      47.805  27.896  32.117  1.00  0.00     0.040 A 
ATOM     91  F   UNL A   1      46.714  29.430  30.717  1.00  0.00    -0.206 F 
ATOM     92  C   UNL A   1      47.787  27.023  33.203  1.00  0.00     0.006 A 
ENDBRANCH  68  85
ENDBRANCH  42  43
ENDBRANCH  34  37
ENDBRANCH  32  33
ENDBRANCH  31  32
ENDBRANCH   1  31
TORSDOF 14
ENDMDL
MODEL 3
REMARK VINA RESULT:     -12.9      4.234      9.865
REMARK SMILES CC1(C)S[C@@H](c2cccc3c2sc2ccccc23)[NH2+][C@@H]1C(=O)NCCCCCCNC(=O)c1ccc(-c2c3nc(c(-c4c(F)cccc4F)c4ccc([nH]4)c(-c4c(F)cccc4F)c4nc(c(-c5c(F)cccc5F)c5ccc2[nH]5)C=C4)C=C3)cc1
REMARK SMILES IDX 27 1 26 2 25 3 24 4 23 5 21 6 22 7 20 9 1 10 2 11 3 12 4 13
REMARK SMILES IDX 5 14 19 15 6 18 7 19 11 20 8 21 10 22 12 23 9 24 18 25 13 26
REMARK SMILES IDX 17 27 14 28 16 29 15 30 28 31 29 32 30 33 31 34 32 36 33 37
REMARK SMILES IDX 34 38 86 39 35 40 85 41 36 42 37 43 38 44 79 45 39 46 84 47
REMARK SMILES IDX 78 48 80 49 40 50 83 51 77 52 76 53 41 55 67 56 50 57 66 58
REMARK SMILES IDX 51 59 54 60 65 61 81 62 52 63 53 64 64 66 82 67 55 68 42 69
REMARK SMILES IDX 43 70 48 71 44 72 45 73 47 74 49 75 46 76 68 77 69 78 74 79
REMARK SMILES IDX 70 80 71 81 73 82 75 83 72 84 56 85 57 86 62 87 58 88 59 89
REMARK SMILES IDX 61 90 63 91 60 92
REMARK H PARENT 23 8 19 16 19 17 30 35 80 54 54 65
REMARK Flexibility Score: inf
ROOT
ATOM      1  C   UNL A   1      38.929  22.129  26.118  1.00  0.00     0.002 C 
ENDROOT
BRANCH   1   2
ATOM      2  C   UNL A   1      37.625  22.906  25.923  1.00  0.00     0.002 C 
BRANCH   2   3
ATOM      3  C   UNL A   1      37.178  23.124  24.474  1.00  0.00     0.021 C 
BRANCH   3   4
ATOM      4  C   UNL A   1      35.959  22.326  24.016  1.00  0.00     0.116 C 
BRANCH   4   5
ATOM      5  N   UNL A   1      35.142  23.058  23.069  1.00  0.00    -0.351 N 
ATOM      6  C   UNL A   1      34.186  24.011  23.271  1.00  0.00     0.279 C 
ATOM      7  O   UNL A   1      33.672  24.464  22.246  1.00  0.00    -0.268 OA
ATOM      8  H   UNL A   1      35.301  22.830  22.126  1.00  0.00     0.163 HD
BRANCH   6   9
ATOM      9  C   UNL A   1      33.696  24.384  24.703  1.00  0.00     0.289 C 
ATOM     10  C   UNL A   1      32.202  23.799  26.687  1.00  0.00     0.030 C 
ATOM     11  C   UNL A   1      32.314  23.822  25.147  1.00  0.00     0.077 C 
ATOM     12  C   UNL A   1      31.917  22.437  24.631  1.00  0.00     0.030 C 
ATOM     13  S   UNL A   1      31.126  25.077  24.537  1.00  0.00    -0.081 SA
ATOM     14  C   UNL A   1      32.407  26.329  24.235  1.00  0.00     0.276 C 
ATOM     15  N   UNL A   1      33.636  25.864  24.890  1.00  0.00    -0.320 N 
ATOM     16  H   UNL A   1      33.609  26.091  25.884  1.00  0.00     0.348 HD
ATOM     17  H   UNL A   1      34.456  26.316  24.487  1.00  0.00     0.348 HD
BRANCH  14  18
ATOM     18  C   UNL A   1      32.029  27.721  24.713  1.00  0.00     0.038 A 
ATOM     19  C   UNL A   1      32.675  28.292  25.836  1.00  0.00     0.012 A 
ATOM     20  C   UNL A   1      31.061  28.537  24.055  1.00  0.00     0.046 A 
ATOM     21  C   UNL A   1      32.376  29.564  26.296  1.00  0.00     0.001 A 
ATOM     22  C   UNL A   1      30.730  29.819  24.508  1.00  0.00     0.001 A 
ATOM     23  S   UNL A   1      30.150  28.153  22.639  1.00  0.00    -0.135 S 
ATOM     24  C   UNL A   1      31.409  30.323  25.648  1.00  0.00     0.010 A 
ATOM     25  C   UNL A   1      29.692  30.444  23.707  1.00  0.00     0.000 A 
ATOM     26  C   UNL A   1      29.292  29.633  22.649  1.00  0.00     0.036 A 
ATOM     27  C   UNL A   1      29.058  31.708  23.847  1.00  0.00     0.010 A 
ATOM     28  C   UNL A   1      28.298  30.040  21.736  1.00  0.00     0.019 A 
ATOM     29  C   UNL A   1      28.064  32.115  22.951  1.00  0.00     0.001 A 
ATOM     30  C   UNL A   1      27.691  31.287  21.904  1.00  0.00     0.002 A 
ENDBRANCH  14  18
ENDBRANCH   6   9
ENDBRANCH   4   5
ENDBRANCH   3   4
ENDBRANCH   2   3
ENDBRANCH   1   2
BRANCH   1  31
ATOM     31  C   UNL A   1      39.037  20.802  25.364  1.00  0.00     0.021 C 
BRANCH  31  32
ATOM     32  C   UNL A   1      39.509  19.608  26.186  1.00  0.00     0.116 C 
BRANCH  32  33
ATOM     33  N   UNL A   1      40.783  19.071  25.738  1.00  0.00    -0.352 N 
ATOM     34  C   UNL A   1      42.026  19.646  25.757  1.00  0.00     0.251 C 
ATOM     35  H   UNL A   1      40.746  18.160  25.364  1.00  0.00     0.163 HD
ATOM     36  O   UNL A   1      42.975  19.064  25.229  1.00  0.00    -0.269 OA
BRANCH  34  37
ATOM     37  C   UNL A   1      42.242  20.970  26.384  1.00  0.00     0.039 A 
ATOM     38  C   UNL A   1      42.573  22.049  25.558  1.00  0.00     0.014 A 
ATOM     39  C   UNL A   1      42.168  21.153  27.769  1.00  0.00     0.014 A 
ATOM     40  C   UNL A   1      42.795  23.311  26.113  1.00  0.00     0.010 A 
ATOM     41  C   UNL A   1      42.325  22.426  28.315  1.00  0.00     0.010 A 
ATOM     42  C   UNL A   1      42.658  23.514  27.496  1.00  0.00    -0.014 A 
BRANCH  42  43
ATOM     43  C   UNL A   1      42.899  24.853  28.091  1.00  0.00     0.031 A 
ATOM     44  C   UNL A   1      44.287  25.256  28.511  1.00  0.00     0.074 A 
ATOM     45  C   UNL A   1      41.868  25.699  28.276  1.00  0.00     0.049 A 
ATOM     46  N   UNL A   1      44.697  26.379  29.046  1.00  0.00    -0.248 NA
ATOM     47  C   UNL A   1      45.351  24.256  28.330  1.00  0.00     0.031 C 
ATOM     48  C   UNL A   1      40.469  25.410  27.960  1.00  0.00     0.029 A 
ATOM     49  N   UNL A   1      41.840  26.977  28.776  1.00  0.00    -0.354 N 
ATOM     50  C   UNL A   1      46.056  26.215  29.276  1.00  0.00     0.074 A 
ATOM     51  C   UNL A   1      46.393  24.868  28.871  1.00  0.00     0.031 C 
ATOM     52  C   UNL A   1      39.723  26.489  28.247  1.00  0.00     0.029 A 
ATOM     53  C   UNL A   1      40.586  27.536  28.786  1.00  0.00     0.049 A 
ATOM     54  H   UNL A   1      42.644  27.448  29.097  1.00  0.00     0.167 HD
ATOM     55  C   UNL A   1      46.950  27.113  29.754  1.00  0.00     0.037 A 
ATOM     56  C   UNL A   1      40.182  28.759  29.177  1.00  0.00     0.037 A 
ATOM     57  C   UNL A   1      46.623  28.464  30.126  1.00  0.00     0.049 A 
ATOM     58  C   UNL A   1      41.196  29.747  29.678  1.00  0.00     0.074 A 
ATOM     59  C   UNL A   1      47.469  29.468  30.565  1.00  0.00     0.029 A 
ATOM     60  N   UNL A   1      45.345  29.001  30.099  1.00  0.00    -0.354 N 
ATOM     61  N   UNL A   1      42.491  29.601  29.824  1.00  0.00    -0.248 NA
ATOM     62  C   UNL A   1      40.694  31.076  30.057  1.00  0.00     0.031 C 
ATOM     63  C   UNL A   1      46.697  30.605  30.834  1.00  0.00     0.029 A 
ATOM     64  C   UNL A   1      45.377  30.318  30.527  1.00  0.00     0.049 A 
ATOM     65  H   UNL A   1      44.535  28.518  29.818  1.00  0.00     0.167 HD
ATOM     66  C   UNL A   1      42.961  30.822  30.290  1.00  0.00     0.074 A 
ATOM     67  C   UNL A   1      41.815  31.703  30.383  1.00  0.00     0.031 C 
ATOM     68  C   UNL A   1      44.228  31.182  30.613  1.00  0.00     0.037 A 
BRANCH  55  69
ATOM     69  C   UNL A   1      48.374  26.659  29.894  1.00  0.00     0.057 A 
ATOM     70  C   UNL A   1      49.321  26.884  28.886  1.00  0.00     0.134 A 
ATOM     71  C   UNL A   1      48.809  26.009  31.056  1.00  0.00     0.134 A 
ATOM     72  F   UNL A   1      48.966  27.489  27.743  1.00  0.00    -0.206 F 
ATOM     73  C   UNL A   1      50.643  26.455  29.018  1.00  0.00     0.040 A 
ATOM     74  C   UNL A   1      50.134  25.598  31.209  1.00  0.00     0.040 A 
ATOM     75  F   UNL A   1      47.955  25.767  32.062  1.00  0.00    -0.206 F 
ATOM     76  C   UNL A   1      51.054  25.815  30.184  1.00  0.00     0.006 A 
ENDBRANCH  55  69
BRANCH  56  77
ATOM     77  C   UNL A   1      38.750  29.135  29.070  1.00  0.00     0.057 A 
ATOM     78  C   UNL A   1      37.902  29.067  30.181  1.00  0.00     0.134 A 
ATOM     79  C   UNL A   1      38.195  29.558  27.857  1.00  0.00     0.134 A 
ATOM     80  F   UNL A   1      38.375  28.649  31.365  1.00  0.00    -0.206 F 
ATOM     81  C   UNL A   1      36.548  29.390  30.088  1.00  0.00     0.040 A 
ATOM     82  C   UNL A   1      36.846  29.906  27.755  1.00  0.00     0.040 A 
ATOM     83  F   UNL A   1      38.956  29.650  26.758  1.00  0.00    -0.206 F 
ATOM     84  C   UNL A   1      36.017  29.815  28.872  1.00  0.00     0.006 A 
ENDBRANCH  56  77
BRANCH  68  85
ATOM     85  C   UNL A   1      44.437  32.592  31.075  1.00  0.00     0.057 A 
ATOM     86  C   UNL A   1      44.379  32.941  32.430  1.00  0.00     0.134 A 
ATOM     87  C   UNL A   1      44.718  33.611  30.156  1.00  0.00     0.134 A 
ATOM     88  F   UNL A   1      44.101  32.013  33.359  1.00  0.00    -0.206 F 
ATOM     89  C   UNL A   1      44.568  34.257  32.853  1.00  0.00     0.040 A 
ATOM     90  C   UNL A   1      44.931  34.927  30.568  1.00  0.00     0.040 A 
ATOM     91  F   UNL A   1      44.795  33.342  28.843  1.00  0.00    -0.206 F 
ATOM     92  C   UNL A   1      44.849  35.254  31.920  1.00  0.00     0.006 A 
ENDBRANCH  68  85
ENDBRANCH  42  43
ENDBRANCH  34  37
ENDBRANCH  32  33
ENDBRANCH  31  32
ENDBRANCH   1  31
TORSDOF 14
ENDMDL
