MODEL 1
REMARK VINA RESULT:     -10.7      0.000      0.000
REMARK SMILES CCn1nc(C(C)C)cc1C(=O)N[C@@H](CC(N)=O)C(=O)NCCCCCCNC(=O)c1ccc(-c2c3nc(c(-c4c(F)cccc4F)c4ccc([nH]4)c(-c4c(F)cccc4F)c4nc(c(-c5c(F)cccc5F)c5ccc2[nH]5)C=C4)C=C3)cc1
REMARK SMILES IDX 24 1 23 2 22 3 21 4 19 5 20 6 14 8 13 9 11 10 12 11 10 13
REMARK SMILES IDX 3 14 4 15 5 16 9 17 2 18 1 19 6 20 7 21 8 22 15 23 16 24
REMARK SMILES IDX 17 25 18 26 25 29 26 30 27 31 28 32 29 33 30 35 31 36 32 37
REMARK SMILES IDX 84 38 33 39 83 40 34 41 35 42 36 43 77 44 37 45 82 46 76 47
REMARK SMILES IDX 78 48 38 49 81 50 75 51 74 52 39 54 65 55 48 56 64 57 49 58
REMARK SMILES IDX 52 59 63 60 79 61 50 62 51 63 62 65 80 66 53 67 40 68 41 69
REMARK SMILES IDX 46 70 42 71 43 72 45 73 47 74 44 75 66 76 67 77 72 78 68 79
REMARK SMILES IDX 69 80 71 81 73 82 70 83 54 84 55 85 60 86 56 87 57 88 59 89
REMARK SMILES IDX 61 90 58 91
REMARK H PARENT 21 7 13 12 17 27 17 28 28 34 78 53 52 64
REMARK Flexibility Score: inf
ROOT
ATOM      1  C   UNL A   1      31.789  29.451  27.249  1.00  0.00     0.002 C 
ENDROOT
BRANCH   1   2
ATOM      2  C   UNL A   1      32.027  28.172  26.447  1.00  0.00     0.021 C 
BRANCH   2   3
ATOM      3  C   UNL A   1      31.901  28.327  24.940  1.00  0.00     0.116 C 
BRANCH   3   4
ATOM      4  N   UNL A   1      30.638  27.869  24.405  1.00  0.00    -0.354 N 
ATOM      5  C   UNL A   1      30.177  26.599  24.230  1.00  0.00     0.243 C 
ATOM      6  O   UNL A   1      28.966  26.461  24.030  1.00  0.00    -0.273 OA
ATOM      7  H   UNL A   1      30.019  28.581  24.125  1.00  0.00     0.163 HD
BRANCH   5   8
ATOM      8  C   UNL A   1      31.079  25.355  24.364  1.00  0.00     0.181 C 
BRANCH   8   9
ATOM      9  N   UNL A   1      30.909  24.669  25.642  1.00  0.00    -0.338 N 
ATOM     10  C   UNL A   1      31.776  23.941  26.421  1.00  0.00     0.270 C 
ATOM     11  O   UNL A   1      31.372  23.696  27.559  1.00  0.00    -0.268 OA
ATOM     12  H   UNL A   1      30.001  24.742  26.017  1.00  0.00     0.164 HD
BRANCH  10  13
ATOM     13  C   UNL A   1      33.024  23.417  25.908  1.00  0.00     0.126 A 
ATOM     14  N   UNL A   1      33.141  22.199  25.258  1.00  0.00    -0.260 N 
ATOM     15  N   UNL A   1      34.338  22.020  24.647  1.00  0.00    -0.177 NA
ATOM     16  C   UNL A   1      35.063  23.067  25.044  1.00  0.00     0.066 A 
ATOM     17  C   UNL A   1      34.326  23.888  25.918  1.00  0.00     0.059 A 
BRANCH  14  18
ATOM     18  C   UNL A   1      32.169  21.119  25.193  1.00  0.00     0.142 C 
ATOM     19  C   UNL A   1      32.612  19.957  24.324  1.00  0.00     0.029 C 
ENDBRANCH  14  18
BRANCH  16  20
ATOM     20  C   UNL A   1      36.476  23.308  24.602  1.00  0.00     0.034 C 
ATOM     21  C   UNL A   1      37.482  22.620  25.518  1.00  0.00     0.014 C 
ATOM     22  C   UNL A   1      36.708  22.951  23.134  1.00  0.00     0.014 C 
ENDBRANCH  16  20
ENDBRANCH  10  13
ENDBRANCH   8   9
BRANCH   8  23
ATOM     23  C   UNL A   1      31.161  24.472  23.123  1.00  0.00     0.134 C 
BRANCH  23  24
ATOM     24  C   UNL A   1      32.518  24.336  22.498  1.00  0.00     0.220 C 
ATOM     25  N   UNL A   1      32.782  23.127  21.927  1.00  0.00    -0.370 N 
ATOM     26  O   UNL A   1      33.356  25.229  22.504  1.00  0.00    -0.275 OA
ATOM     27  H   UNL A   1      32.096  22.420  21.931  1.00  0.00     0.159 HD
ATOM     28  H   UNL A   1      33.658  22.959  21.510  1.00  0.00     0.159 HD
ENDBRANCH  23  24
ENDBRANCH   8  23
ENDBRANCH   5   8
ENDBRANCH   3   4
ENDBRANCH   2   3
ENDBRANCH   1   2
BRANCH   1  29
ATOM     29  C   UNL A   1      32.811  30.586  27.064  1.00  0.00     0.002 C 
BRANCH  29  30
ATOM     30  C   UNL A   1      34.286  30.275  27.362  1.00  0.00     0.021 C 
BRANCH  30  31
ATOM     31  C   UNL A   1      35.147  31.496  27.629  1.00  0.00     0.116 C 
BRANCH  31  32
ATOM     32  N   UNL A   1      34.780  32.196  28.861  1.00  0.00    -0.352 N 
ATOM     33  C   UNL A   1      35.189  31.928  30.157  1.00  0.00     0.251 C 
ATOM     34  H   UNL A   1      34.163  32.955  28.753  1.00  0.00     0.163 HD
ATOM     35  O   UNL A   1      34.555  32.327  31.118  1.00  0.00    -0.269 OA
BRANCH  33  36
ATOM     36  C   UNL A   1      36.430  31.157  30.347  1.00  0.00     0.039 A 
ATOM     37  C   UNL A   1      36.430  29.778  30.572  1.00  0.00     0.014 A 
ATOM     38  C   UNL A   1      37.622  31.861  30.252  1.00  0.00     0.014 A 
ATOM     39  C   UNL A   1      37.651  29.111  30.631  1.00  0.00     0.010 A 
ATOM     40  C   UNL A   1      38.790  31.182  30.072  1.00  0.00     0.010 A 
ATOM     41  C   UNL A   1      38.829  29.826  30.366  1.00  0.00    -0.014 A 
BRANCH  41  42
ATOM     42  C   UNL A   1      40.134  29.186  30.288  1.00  0.00     0.031 A 
ATOM     43  C   UNL A   1      40.784  28.967  31.608  1.00  0.00     0.074 A 
ATOM     44  C   UNL A   1      40.559  28.600  29.144  1.00  0.00     0.049 A 
ATOM     45  N   UNL A   1      41.890  29.476  32.037  1.00  0.00    -0.248 NA
ATOM     46  C   UNL A   1      40.041  28.214  32.635  1.00  0.00     0.031 C 
ATOM     47  C   UNL A   1      39.849  28.489  27.860  1.00  0.00     0.029 A 
ATOM     48  N   UNL A   1      41.675  27.857  28.919  1.00  0.00    -0.354 N 
ATOM     49  C   UNL A   1      42.099  28.920  33.296  1.00  0.00     0.074 A 
ATOM     50  C   UNL A   1      40.847  28.335  33.691  1.00  0.00     0.031 C 
ATOM     51  C   UNL A   1      40.423  27.534  27.097  1.00  0.00     0.029 A 
ATOM     52  C   UNL A   1      41.637  27.094  27.753  1.00  0.00     0.049 A 
ATOM     53  H   UNL A   1      42.447  27.858  29.529  1.00  0.00     0.167 HD
ATOM     54  C   UNL A   1      43.361  28.742  33.776  1.00  0.00     0.037 A 
ATOM     55  C   UNL A   1      42.533  26.147  27.377  1.00  0.00     0.037 A 
ATOM     56  C   UNL A   1      44.310  29.542  33.038  1.00  0.00     0.049 A 
ATOM     57  C   UNL A   1      43.767  26.380  28.168  1.00  0.00     0.074 A 
ATOM     58  C   UNL A   1      44.448  30.892  32.783  1.00  0.00     0.029 A 
ATOM     59  N   UNL A   1      45.080  28.905  32.096  1.00  0.00    -0.354 N 
ATOM     60  N   UNL A   1      44.528  27.430  28.019  1.00  0.00    -0.248 NA
ATOM     61  C   UNL A   1      43.875  25.705  29.452  1.00  0.00     0.031 C 
ATOM     62  C   UNL A   1      44.871  30.967  31.422  1.00  0.00     0.029 A 
ATOM     63  C   UNL A   1      45.051  29.665  30.955  1.00  0.00     0.049 A 
ATOM     64  H   UNL A   1      45.566  28.058  32.218  1.00  0.00     0.167 HD
ATOM     65  C   UNL A   1      44.864  27.805  29.312  1.00  0.00     0.074 A 
ATOM     66  C   UNL A   1      44.495  26.663  30.148  1.00  0.00     0.031 C 
ATOM     67  C   UNL A   1      45.121  29.111  29.622  1.00  0.00     0.037 A 
BRANCH  54  68
ATOM     68  C   UNL A   1      43.796  27.557  34.610  1.00  0.00     0.057 A 
ATOM     69  C   UNL A   1      44.432  27.792  35.843  1.00  0.00     0.134 A 
ATOM     70  C   UNL A   1      43.899  26.234  34.131  1.00  0.00     0.134 A 
ATOM     71  F   UNL A   1      44.410  29.009  36.407  1.00  0.00    -0.206 F 
ATOM     72  C   UNL A   1      45.193  26.815  36.496  1.00  0.00     0.040 A 
ATOM     73  C   UNL A   1      44.613  25.237  34.802  1.00  0.00     0.040 A 
ATOM     74  F   UNL A   1      43.408  25.850  32.948  1.00  0.00    -0.206 F 
ATOM     75  C   UNL A   1      45.295  25.534  35.968  1.00  0.00     0.006 A 
ENDBRANCH  54  68
BRANCH  55  76
ATOM     76  C   UNL A   1      42.301  24.890  26.625  1.00  0.00     0.057 A 
ATOM     77  C   UNL A   1      43.113  24.529  25.541  1.00  0.00     0.134 A 
ATOM     78  C   UNL A   1      41.458  23.881  27.124  1.00  0.00     0.134 A 
ATOM     79  F   UNL A   1      43.981  25.408  25.019  1.00  0.00    -0.206 F 
ATOM     80  C   UNL A   1      43.108  23.235  25.001  1.00  0.00     0.040 A 
ATOM     81  C   UNL A   1      41.439  22.586  26.592  1.00  0.00     0.040 A 
ATOM     82  F   UNL A   1      40.688  24.093  28.202  1.00  0.00    -0.206 F 
ATOM     83  C   UNL A   1      42.277  22.255  25.536  1.00  0.00     0.006 A 
ENDBRANCH  55  76
BRANCH  67  84
ATOM     84  C   UNL A   1      45.258  30.094  28.489  1.00  0.00     0.057 A 
ATOM     85  C   UNL A   1      46.422  30.262  27.721  1.00  0.00     0.134 A 
ATOM     86  C   UNL A   1      44.119  30.779  28.058  1.00  0.00     0.134 A 
ATOM     87  F   UNL A   1      47.536  29.574  27.989  1.00  0.00    -0.206 F 
ATOM     88  C   UNL A   1      46.459  31.104  26.604  1.00  0.00     0.040 A 
ATOM     89  C   UNL A   1      44.133  31.597  26.925  1.00  0.00     0.040 A 
ATOM     90  F   UNL A   1      42.953  30.625  28.705  1.00  0.00    -0.206 F 
ATOM     91  C   UNL A   1      45.308  31.769  26.199  1.00  0.00     0.006 A 
ENDBRANCH  67  84
ENDBRANCH  41  42
ENDBRANCH  33  36
ENDBRANCH  31  32
ENDBRANCH  30  31
ENDBRANCH  29  30
ENDBRANCH   1  29
TORSDOF 19
ENDMDL
MODEL 2
REMARK VINA RESULT:     -10.7      1.856      6.013
REMARK SMILES CCn1nc(C(C)C)cc1C(=O)N[C@@H](CC(N)=O)C(=O)NCCCCCCNC(=O)c1ccc(-c2c3nc(c(-c4c(F)cccc4F)c4ccc([nH]4)c(-c4c(F)cccc4F)c4nc(c(-c5c(F)cccc5F)c5ccc2[nH]5)C=C4)C=C3)cc1
REMARK SMILES IDX 24 1 23 2 22 3 21 4 19 5 20 6 14 8 13 9 11 10 12 11 10 13
REMARK SMILES IDX 3 14 4 15 5 16 9 17 2 18 1 19 6 20 7 21 8 22 15 23 16 24
REMARK SMILES IDX 17 25 18 26 25 29 26 30 27 31 28 32 29 33 30 35 31 36 32 37
REMARK SMILES IDX 84 38 33 39 83 40 34 41 35 42 36 43 77 44 37 45 82 46 76 47
REMARK SMILES IDX 78 48 38 49 81 50 75 51 74 52 39 54 65 55 48 56 64 57 49 58
REMARK SMILES IDX 52 59 63 60 79 61 50 62 51 63 62 65 80 66 53 67 40 68 41 69
REMARK SMILES IDX 46 70 42 71 43 72 45 73 47 74 44 75 66 76 67 77 72 78 68 79
REMARK SMILES IDX 69 80 71 81 73 82 70 83 54 84 55 85 60 86 56 87 57 88 59 89
REMARK SMILES IDX 61 90 58 91
REMARK H PARENT 21 7 13 12 17 27 17 28 28 34 78 53 52 64
REMARK Flexibility Score: inf
ROOT
ATOM      1  C   UNL A   1      31.836  29.125  27.270  1.00  0.00     0.002 C 
ENDROOT
BRANCH   1   2
ATOM      2  C   UNL A   1      31.686  27.887  26.385  1.00  0.00     0.021 C 
BRANCH   2   3
ATOM      3  C   UNL A   1      31.536  28.176  24.900  1.00  0.00     0.116 C 
BRANCH   3   4
ATOM      4  N   UNL A   1      30.303  27.684  24.327  1.00  0.00    -0.354 N 
ATOM      5  C   UNL A   1      29.892  26.401  24.118  1.00  0.00     0.243 C 
ATOM      6  O   UNL A   1      28.691  26.225  23.887  1.00  0.00    -0.273 OA
ATOM      7  H   UNL A   1      29.666  28.378  24.044  1.00  0.00     0.163 HD
BRANCH   5   8
ATOM      8  C   UNL A   1      30.835  25.188  24.252  1.00  0.00     0.181 C 
BRANCH   8   9
ATOM      9  N   UNL A   1      30.609  24.431  25.480  1.00  0.00    -0.338 N 
ATOM     10  C   UNL A   1      31.462  23.745  26.312  1.00  0.00     0.270 C 
ATOM     11  O   UNL A   1      30.978  23.412  27.394  1.00  0.00    -0.268 OA
ATOM     12  H   UNL A   1      29.668  24.406  25.768  1.00  0.00     0.164 HD
BRANCH  10  13
ATOM     13  C   UNL A   1      32.796  23.357  25.902  1.00  0.00     0.126 A 
ATOM     14  N   UNL A   1      33.109  22.118  25.364  1.00  0.00    -0.260 N 
ATOM     15  N   UNL A   1      34.351  22.056  24.826  1.00  0.00    -0.177 NA
ATOM     16  C   UNL A   1      34.909  23.220  25.166  1.00  0.00     0.066 A 
ATOM     17  C   UNL A   1      34.022  24.000  25.932  1.00  0.00     0.059 A 
BRANCH  14  18
ATOM     18  C   UNL A   1      32.292  20.915  25.347  1.00  0.00     0.142 C 
ATOM     19  C   UNL A   1      32.353  20.161  24.032  1.00  0.00     0.029 C 
ENDBRANCH  14  18
BRANCH  16  20
ATOM     20  C   UNL A   1      36.300  23.616  24.770  1.00  0.00     0.034 C 
ATOM     21  C   UNL A   1      37.306  23.342  25.883  1.00  0.00     0.014 C 
ATOM     22  C   UNL A   1      36.739  22.996  23.444  1.00  0.00     0.014 C 
ENDBRANCH  16  20
ENDBRANCH  10  13
ENDBRANCH   8   9
BRANCH   8  23
ATOM     23  C   UNL A   1      31.035  24.375  22.977  1.00  0.00     0.134 C 
BRANCH  23  24
ATOM     24  C   UNL A   1      32.440  24.302  22.455  1.00  0.00     0.220 C 
ATOM     25  N   UNL A   1      32.814  23.095  21.944  1.00  0.00    -0.370 N 
ATOM     26  O   UNL A   1      33.222  25.243  22.491  1.00  0.00    -0.275 OA
ATOM     27  H   UNL A   1      32.171  22.349  21.923  1.00  0.00     0.159 HD
ATOM     28  H   UNL A   1      33.726  22.968  21.596  1.00  0.00     0.159 HD
ENDBRANCH  23  24
ENDBRANCH   8  23
ENDBRANCH   5   8
ENDBRANCH   3   4
ENDBRANCH   2   3
ENDBRANCH   1   2
BRANCH   1  29
ATOM     29  C   UNL A   1      33.145  29.921  27.134  1.00  0.00     0.002 C 
BRANCH  29  30
ATOM     30  C   UNL A   1      34.466  29.138  27.191  1.00  0.00     0.021 C 
BRANCH  30  31
ATOM     31  C   UNL A   1      35.651  29.935  27.707  1.00  0.00     0.116 C 
BRANCH  31  32
ATOM     32  N   UNL A   1      35.619  30.131  29.157  1.00  0.00    -0.352 N 
ATOM     33  C   UNL A   1      36.466  29.599  30.116  1.00  0.00     0.251 C 
ATOM     34  H   UNL A   1      34.904  30.717  29.494  1.00  0.00     0.163 HD
ATOM     35  O   UNL A   1      36.137  29.532  31.287  1.00  0.00    -0.269 OA
BRANCH  33  36
ATOM     36  C   UNL A   1      37.793  29.127  29.684  1.00  0.00     0.039 A 
ATOM     37  C   UNL A   1      38.486  29.708  28.618  1.00  0.00     0.014 A 
ATOM     38  C   UNL A   1      38.356  28.091  30.417  1.00  0.00     0.014 A 
ATOM     39  C   UNL A   1      39.781  29.273  28.348  1.00  0.00     0.010 A 
ATOM     40  C   UNL A   1      39.690  27.838  30.305  1.00  0.00     0.010 A 
ATOM     41  C   UNL A   1      40.378  28.341  29.210  1.00  0.00    -0.014 A 
BRANCH  41  42
ATOM     42  C   UNL A   1      41.766  27.924  29.072  1.00  0.00     0.031 A 
ATOM     43  C   UNL A   1      41.950  26.674  28.287  1.00  0.00     0.074 A 
ATOM     44  C   UNL A   1      42.784  28.758  29.390  1.00  0.00     0.049 A 
ATOM     45  N   UNL A   1      42.433  25.549  28.695  1.00  0.00    -0.248 NA
ATOM     46  C   UNL A   1      41.388  26.618  26.924  1.00  0.00     0.031 C 
ATOM     47  C   UNL A   1      42.705  30.142  29.885  1.00  0.00     0.029 A 
ATOM     48  N   UNL A   1      44.122  28.593  29.213  1.00  0.00    -0.354 N 
ATOM     49  C   UNL A   1      42.455  24.718  27.577  1.00  0.00     0.074 A 
ATOM     50  C   UNL A   1      41.616  25.346  26.592  1.00  0.00     0.031 C 
ATOM     51  C   UNL A   1      43.898  30.755  29.729  1.00  0.00     0.029 A 
ATOM     52  C   UNL A   1      44.866  29.769  29.295  1.00  0.00     0.049 A 
ATOM     53  H   UNL A   1      44.531  27.715  29.042  1.00  0.00     0.167 HD
ATOM     54  C   UNL A   1      43.389  23.734  27.460  1.00  0.00     0.037 A 
ATOM     55  C   UNL A   1      46.181  29.916  28.995  1.00  0.00     0.037 A 
ATOM     56  C   UNL A   1      43.993  23.445  28.739  1.00  0.00     0.049 A 
ATOM     57  C   UNL A   1      46.782  28.559  29.010  1.00  0.00     0.074 A 
ATOM     58  C   UNL A   1      43.513  23.035  29.968  1.00  0.00     0.029 A 
ATOM     59  N   UNL A   1      45.243  23.959  28.982  1.00  0.00    -0.354 N 
ATOM     60  N   UNL A   1      46.913  27.842  30.092  1.00  0.00    -0.248 NA
ATOM     61  C   UNL A   1      46.774  27.812  27.761  1.00  0.00     0.031 C 
ATOM     62  C   UNL A   1      44.271  23.776  30.924  1.00  0.00     0.029 A 
ATOM     63  C   UNL A   1      45.224  24.524  30.231  1.00  0.00     0.049 A 
ATOM     64  H   UNL A   1      46.014  23.927  28.371  1.00  0.00     0.167 HD
ATOM     65  C   UNL A   1      46.558  26.557  29.707  1.00  0.00     0.074 A 
ATOM     66  C   UNL A   1      46.554  26.586  28.245  1.00  0.00     0.031 C 
ATOM     67  C   UNL A   1      46.005  25.682  30.598  1.00  0.00     0.037 A 
BRANCH  54  68
ATOM     68  C   UNL A   1      44.048  23.336  26.159  1.00  0.00     0.057 A 
ATOM     69  C   UNL A   1      44.077  21.975  25.802  1.00  0.00     0.134 A 
ATOM     70  C   UNL A   1      44.907  24.165  25.409  1.00  0.00     0.134 A 
ATOM     71  F   UNL A   1      43.308  21.079  26.440  1.00  0.00    -0.206 F 
ATOM     72  C   UNL A   1      44.963  21.466  24.845  1.00  0.00     0.040 A 
ATOM     73  C   UNL A   1      45.759  23.674  24.414  1.00  0.00     0.040 A 
ATOM     74  F   UNL A   1      45.053  25.471  25.654  1.00  0.00    -0.206 F 
ATOM     75  C   UNL A   1      45.817  22.317  24.155  1.00  0.00     0.006 A 
ENDBRANCH  54  68
BRANCH  55  76
ATOM     76  C   UNL A   1      46.878  31.084  28.406  1.00  0.00     0.057 A 
ATOM     77  C   UNL A   1      46.665  31.463  27.072  1.00  0.00     0.134 A 
ATOM     78  C   UNL A   1      47.550  32.022  29.211  1.00  0.00     0.134 A 
ATOM     79  F   UNL A   1      45.998  30.656  26.235  1.00  0.00    -0.206 F 
ATOM     80  C   UNL A   1      47.073  32.709  26.575  1.00  0.00     0.040 A 
ATOM     81  C   UNL A   1      47.966  33.267  28.726  1.00  0.00     0.040 A 
ATOM     82  F   UNL A   1      47.746  31.796  30.518  1.00  0.00    -0.206 F 
ATOM     83  C   UNL A   1      47.715  33.621  27.407  1.00  0.00     0.006 A 
ENDBRANCH  55  76
BRANCH  67  84
ATOM     84  C   UNL A   1      46.004  26.064  32.056  1.00  0.00     0.057 A 
ATOM     85  C   UNL A   1      44.911  26.642  32.723  1.00  0.00     0.134 A 
ATOM     86  C   UNL A   1      47.091  25.685  32.847  1.00  0.00     0.134 A 
ATOM     87  F   UNL A   1      43.783  26.948  32.073  1.00  0.00    -0.206 F 
ATOM     88  C   UNL A   1      44.919  26.869  34.103  1.00  0.00     0.040 A 
ATOM     89  C   UNL A   1      47.100  25.876  34.231  1.00  0.00     0.040 A 
ATOM     90  F   UNL A   1      48.150  25.074  32.292  1.00  0.00    -0.206 F 
ATOM     91  C   UNL A   1      46.016  26.478  34.863  1.00  0.00     0.006 A 
ENDBRANCH  67  84
ENDBRANCH  41  42
ENDBRANCH  33  36
ENDBRANCH  31  32
ENDBRANCH  30  31
ENDBRANCH  29  30
ENDBRANCH   1  29
TORSDOF 19
ENDMDL
MODEL 3
REMARK VINA RESULT:     -10.5      2.525      6.695
REMARK SMILES CCn1nc(C(C)C)cc1C(=O)N[C@@H](CC(N)=O)C(=O)NCCCCCCNC(=O)c1ccc(-c2c3nc(c(-c4c(F)cccc4F)c4ccc([nH]4)c(-c4c(F)cccc4F)c4nc(c(-c5c(F)cccc5F)c5ccc2[nH]5)C=C4)C=C3)cc1
REMARK SMILES IDX 24 1 23 2 22 3 21 4 19 5 20 6 14 8 13 9 11 10 12 11 10 13
REMARK SMILES IDX 3 14 4 15 5 16 9 17 2 18 1 19 6 20 7 21 8 22 15 23 16 24
REMARK SMILES IDX 17 25 18 26 25 29 26 30 27 31 28 32 29 33 30 35 31 36 32 37
REMARK SMILES IDX 84 38 33 39 83 40 34 41 35 42 36 43 77 44 37 45 82 46 76 47
REMARK SMILES IDX 78 48 38 49 81 50 75 51 74 52 39 54 65 55 48 56 64 57 49 58
REMARK SMILES IDX 52 59 63 60 79 61 50 62 51 63 62 65 80 66 53 67 40 68 41 69
REMARK SMILES IDX 46 70 42 71 43 72 45 73 47 74 44 75 66 76 67 77 72 78 68 79
REMARK SMILES IDX 69 80 71 81 73 82 70 83 54 84 55 85 60 86 56 87 57 88 59 89
REMARK SMILES IDX 61 90 58 91
REMARK H PARENT 21 7 13 12 17 27 17 28 28 34 78 53 52 64
REMARK Flexibility Score: inf
ROOT
ATOM      1  C   UNL A   1      31.826  30.052  26.058  1.00  0.00     0.002 C 
ENDROOT
BRANCH   1   2
ATOM      2  C   UNL A   1      32.787  29.002  25.502  1.00  0.00     0.021 C 
BRANCH   2   3
ATOM      3  C   UNL A   1      32.255  28.208  24.320  1.00  0.00     0.116 C 
BRANCH   3   4
ATOM      4  N   UNL A   1      30.969  27.591  24.557  1.00  0.00    -0.354 N 
ATOM      5  C   UNL A   1      30.664  26.291  24.829  1.00  0.00     0.243 C 
ATOM      6  O   UNL A   1      29.537  26.058  25.279  1.00  0.00    -0.273 OA
ATOM      7  H   UNL A   1      30.197  28.202  24.516  1.00  0.00     0.163 HD
BRANCH   5   8
ATOM      8  C   UNL A   1      31.686  25.145  24.685  1.00  0.00     0.181 C 
BRANCH   8   9
ATOM      9  N   UNL A   1      32.382  25.168  23.401  1.00  0.00    -0.338 N 
ATOM     10  C   UNL A   1      32.874  24.165  22.600  1.00  0.00     0.270 C 
ATOM     11  O   UNL A   1      33.201  24.518  21.466  1.00  0.00    -0.268 OA
ATOM     12  H   UNL A   1      32.527  26.072  23.041  1.00  0.00     0.164 HD
BRANCH  10  13
ATOM     13  C   UNL A   1      33.086  22.818  23.089  1.00  0.00     0.126 A 
ATOM     14  N   UNL A   1      34.193  22.430  23.828  1.00  0.00    -0.260 N 
ATOM     15  N   UNL A   1      34.071  21.202  24.388  1.00  0.00    -0.177 NA
ATOM     16  C   UNL A   1      32.938  20.723  23.871  1.00  0.00     0.066 A 
ATOM     17  C   UNL A   1      32.364  21.642  22.974  1.00  0.00     0.059 A 
BRANCH  14  18
ATOM     18  C   UNL A   1      35.437  23.156  24.029  1.00  0.00     0.142 C 
ATOM     19  C   UNL A   1      36.674  22.290  23.877  1.00  0.00     0.029 C 
ENDBRANCH  14  18
BRANCH  16  20
ATOM     20  C   UNL A   1      32.377  19.376  24.218  1.00  0.00     0.034 C 
ATOM     21  C   UNL A   1      32.421  18.420  23.031  1.00  0.00     0.014 C 
ATOM     22  C   UNL A   1      33.023  18.766  25.462  1.00  0.00     0.014 C 
ENDBRANCH  16  20
ENDBRANCH  10  13
ENDBRANCH   8   9
BRANCH   8  23
ATOM     23  C   UNL A   1      32.540  24.874  25.919  1.00  0.00     0.134 C 
BRANCH  23  24
ATOM     24  C   UNL A   1      32.078  23.759  26.810  1.00  0.00     0.220 C 
ATOM     25  N   UNL A   1      33.000  22.785  27.055  1.00  0.00    -0.370 N 
ATOM     26  O   UNL A   1      30.950  23.695  27.281  1.00  0.00    -0.275 OA
ATOM     27  H   UNL A   1      33.903  22.853  26.668  1.00  0.00     0.159 HD
ATOM     28  H   UNL A   1      32.763  22.014  27.620  1.00  0.00     0.159 HD
ENDBRANCH  23  24
ENDBRANCH   8  23
ENDBRANCH   5   8
ENDBRANCH   3   4
ENDBRANCH   2   3
ENDBRANCH   1   2
BRANCH   1  29
ATOM     29  C   UNL A   1      32.388  31.017  27.116  1.00  0.00     0.002 C 
BRANCH  29  30
ATOM     30  C   UNL A   1      31.829  32.448  27.147  1.00  0.00     0.021 C 
BRANCH  30  31
ATOM     31  C   UNL A   1      32.883  33.537  27.223  1.00  0.00     0.116 C 
BRANCH  31  32
ATOM     32  N   UNL A   1      32.550  34.589  28.183  1.00  0.00    -0.352 N 
ATOM     33  C   UNL A   1      33.079  34.801  29.446  1.00  0.00     0.251 C 
ATOM     34  H   UNL A   1      31.860  35.229  27.894  1.00  0.00     0.163 HD
ATOM     35  O   UNL A   1      32.488  35.463  30.280  1.00  0.00    -0.269 OA
BRANCH  33  36
ATOM     36  C   UNL A   1      34.396  34.216  29.752  1.00  0.00     0.039 A 
ATOM     37  C   UNL A   1      34.592  33.318  30.805  1.00  0.00     0.014 A 
ATOM     38  C   UNL A   1      35.445  34.566  28.913  1.00  0.00     0.014 A 
ATOM     39  C   UNL A   1      35.845  32.728  30.955  1.00  0.00     0.010 A 
ATOM     40  C   UNL A   1      36.584  33.819  28.915  1.00  0.00     0.010 A 
ATOM     41  C   UNL A   1      36.833  32.979  29.991  1.00  0.00    -0.014 A 
BRANCH  41  42
ATOM     42  C   UNL A   1      38.128  32.313  30.004  1.00  0.00     0.031 A 
ATOM     43  C   UNL A   1      38.126  30.970  29.366  1.00  0.00     0.074 A 
ATOM     44  C   UNL A   1      39.260  32.987  30.314  1.00  0.00     0.049 A 
ATOM     45  N   UNL A   1      38.372  29.831  29.922  1.00  0.00    -0.248 NA
ATOM     46  C   UNL A   1      37.644  30.858  27.977  1.00  0.00     0.031 C 
ATOM     47  C   UNL A   1      39.406  34.411  30.659  1.00  0.00     0.029 A 
ATOM     48  N   UNL A   1      40.553  32.572  30.259  1.00  0.00    -0.354 N 
ATOM     49  C   UNL A   1      38.307  28.888  28.899  1.00  0.00     0.074 A 
ATOM     50  C   UNL A   1      37.655  29.537  27.795  1.00  0.00     0.031 C 
ATOM     51  C   UNL A   1      40.697  34.785  30.534  1.00  0.00     0.029 A 
ATOM     52  C   UNL A   1      41.493  33.602  30.278  1.00  0.00     0.049 A 
ATOM     53  H   UNL A   1      40.806  31.623  30.209  1.00  0.00     0.167 HD
ATOM     54  C   UNL A   1      39.052  27.749  28.956  1.00  0.00     0.037 A 
ATOM     55  C   UNL A   1      42.828  33.482  30.068  1.00  0.00     0.037 A 
ATOM     56  C   UNL A   1      39.518  27.506  30.301  1.00  0.00     0.049 A 
ATOM     57  C   UNL A   1      43.171  32.052  30.266  1.00  0.00     0.074 A 
ATOM     58  C   UNL A   1      38.901  27.328  31.524  1.00  0.00     0.029 A 
ATOM     59  N   UNL A   1      40.824  27.818  30.586  1.00  0.00    -0.354 N 
ATOM     60  N   UNL A   1      43.106  31.450  31.423  1.00  0.00    -0.248 NA
ATOM     61  C   UNL A   1      43.099  31.180  29.103  1.00  0.00     0.031 C 
ATOM     62  C   UNL A   1      39.724  28.029  32.455  1.00  0.00     0.029 A 
ATOM     63  C   UNL A   1      40.836  28.516  31.766  1.00  0.00     0.049 A 
ATOM     64  H   UNL A   1      41.611  27.583  30.043  1.00  0.00     0.167 HD
ATOM     65  C   UNL A   1      42.546  30.212  31.143  1.00  0.00     0.074 A 
ATOM     66  C   UNL A   1      42.632  30.075  29.690  1.00  0.00     0.031 C 
ATOM     67  C   UNL A   1      41.792  29.553  32.074  1.00  0.00     0.037 A 
BRANCH  54  68
ATOM     68  C   UNL A   1      39.702  27.096  27.756  1.00  0.00     0.057 A 
ATOM     69  C   UNL A   1      39.669  25.694  27.647  1.00  0.00     0.134 A 
ATOM     70  C   UNL A   1      40.606  27.740  26.885  1.00  0.00     0.134 A 
ATOM     71  F   UNL A   1      38.853  24.962  28.420  1.00  0.00    -0.206 F 
ATOM     72  C   UNL A   1      40.538  24.984  26.809  1.00  0.00     0.040 A 
ATOM     73  C   UNL A   1      41.441  27.042  26.007  1.00  0.00     0.040 A 
ATOM     74  F   UNL A   1      40.811  29.061  26.899  1.00  0.00    -0.206 F 
ATOM     75  C   UNL A   1      41.437  25.659  25.994  1.00  0.00     0.006 A 
ENDBRANCH  54  68
BRANCH  55  76
ATOM     76  C   UNL A   1      43.759  34.436  29.419  1.00  0.00     0.057 A 
ATOM     77  C   UNL A   1      43.583  34.833  28.086  1.00  0.00     0.134 A 
ATOM     78  C   UNL A   1      44.675  35.195  30.170  1.00  0.00     0.134 A 
ATOM     79  F   UNL A   1      42.701  34.199  27.298  1.00  0.00    -0.206 F 
ATOM     80  C   UNL A   1      44.256  35.934  27.538  1.00  0.00     0.040 A 
ATOM     81  C   UNL A   1      45.357  36.294  29.635  1.00  0.00     0.040 A 
ATOM     82  F   UNL A   1      44.871  34.950  31.474  1.00  0.00    -0.206 F 
ATOM     83  C   UNL A   1      45.138  36.677  28.318  1.00  0.00     0.006 A 
ENDBRANCH  55  76
BRANCH  67  84
ATOM     84  C   UNL A   1      41.775  30.093  33.480  1.00  0.00     0.057 A 
ATOM     85  C   UNL A   1      40.834  31.017  33.964  1.00  0.00     0.134 A 
ATOM     86  C   UNL A   1      42.646  29.535  34.420  1.00  0.00     0.134 A 
ATOM     87  F   UNL A   1      39.893  31.532  33.166  1.00  0.00    -0.206 F 
ATOM     88  C   UNL A   1      40.791  31.396  35.310  1.00  0.00     0.040 A 
ATOM     89  C   UNL A   1      42.593  29.880  35.773  1.00  0.00     0.040 A 
ATOM     90  F   UNL A   1      43.536  28.602  34.046  1.00  0.00    -0.206 F 
ATOM     91  C   UNL A   1      41.669  30.820  36.221  1.00  0.00     0.006 A 
ENDBRANCH  67  84
ENDBRANCH  41  42
ENDBRANCH  33  36
ENDBRANCH  31  32
ENDBRANCH  30  31
ENDBRANCH  29  30
ENDBRANCH   1  29
TORSDOF 19
ENDMDL
