MODEL 1
REMARK VINA RESULT:      -9.5      0.000      0.000
REMARK SMILES COc1cc(Cl)ccc1-c1ccc(CC(=O)NCCCCCCNC(=O)c2ccc(-c3c4nc(c(-c5c(F)cccc5F)c5ccc([nH]5)c(-c5c(F)cccc5F)c5nc(c(-c6c(F)cccc6F)c6ccc3[nH]6)C=C5)C=C4)cc2)cc1
REMARK SMILES IDX 20 1 19 2 18 3 17 4 15 5 16 6 14 8 13 9 10 10 11 11 82 12
REMARK SMILES IDX 12 13 81 14 9 15 3 16 4 17 5 18 8 19 6 20 7 21 2 22 1 23
REMARK SMILES IDX 21 24 22 25 23 26 24 27 25 28 26 30 27 31 28 32 80 33 29 34
REMARK SMILES IDX 79 35 30 36 31 37 32 38 73 39 33 40 78 41 72 42 74 43 34 44
REMARK SMILES IDX 77 45 71 46 70 47 35 49 61 50 44 51 60 52 45 53 48 54 59 55
REMARK SMILES IDX 75 56 46 57 47 58 58 60 76 61 49 62 36 63 37 64 42 65 38 66
REMARK SMILES IDX 39 67 41 68 43 69 40 70 62 71 63 72 68 73 64 74 65 75 67 76
REMARK SMILES IDX 69 77 66 78 50 79 51 80 56 81 52 82 53 83 55 84 57 85 54 86
REMARK H PARENT 17 7 24 29 74 48 48 59
REMARK Flexibility Score: inf
ROOT
ATOM      1  C   UNL A   1      37.536  32.764  30.270  1.00  0.00     0.002 C 
ENDROOT
BRANCH   1   2
ATOM      2  C   UNL A   1      37.330  32.776  31.791  1.00  0.00     0.021 C 
BRANCH   2   3
ATOM      3  C   UNL A   1      37.126  31.384  32.393  1.00  0.00     0.116 C 
BRANCH   3   4
ATOM      4  N   UNL A   1      37.053  31.448  33.839  1.00  0.00    -0.356 N 
ATOM      5  C   UNL A   1      38.066  31.396  34.753  1.00  0.00     0.224 C 
ATOM      6  O   UNL A   1      37.772  31.335  35.948  1.00  0.00    -0.275 OA
ATOM      7  H   UNL A   1      36.148  31.542  34.214  1.00  0.00     0.163 HD
BRANCH   5   8
ATOM      8  C   UNL A   1      39.512  31.480  34.295  1.00  0.00     0.135 C 
BRANCH   8   9
ATOM      9  C   UNL A   1      40.277  30.183  34.385  1.00  0.00    -0.039 A 
ATOM     10  C   UNL A   1      41.640  27.704  34.557  1.00  0.00    -0.015 A 
ATOM     11  C   UNL A   1      41.753  28.666  35.575  1.00  0.00     0.009 A 
ATOM     12  C   UNL A   1      40.846  28.018  33.445  1.00  0.00     0.009 A 
ATOM     13  C   UNL A   1      41.080  29.890  35.492  1.00  0.00     0.005 A 
ATOM     14  C   UNL A   1      40.193  29.246  33.347  1.00  0.00     0.005 A 
BRANCH  10  15
ATOM     15  C   UNL A   1      42.311  26.392  34.659  1.00  0.00     0.024 A 
ATOM     16  C   UNL A   1      41.795  25.334  35.440  1.00  0.00     0.128 A 
ATOM     17  C   UNL A   1      42.470  24.111  35.524  1.00  0.00     0.067 A 
ATOM     18  C   UNL A   1      43.679  23.940  34.855  1.00  0.00     0.044 A 
ATOM     19  C   UNL A   1      43.534  26.186  33.992  1.00  0.00     0.014 A 
ATOM     20  Cl  UNL A   1      44.513  22.438  34.967  1.00  0.00    -0.084 Cl
ATOM     21  C   UNL A   1      44.215  24.971  34.090  1.00  0.00     0.021 A 
BRANCH  16  22
ATOM     22  O   UNL A   1      40.565  25.504  36.032  1.00  0.00    -0.496 OA
ATOM     23  C   UNL A   1      40.607  25.515  37.456  1.00  0.00     0.278 C 
ENDBRANCH  16  22
ENDBRANCH  10  15
ENDBRANCH   8   9
ENDBRANCH   5   8
ENDBRANCH   3   4
ENDBRANCH   2   3
ENDBRANCH   1   2
BRANCH   1  24
ATOM     24  C   UNL A   1      36.718  33.805  29.497  1.00  0.00     0.002 C 
BRANCH  24  25
ATOM     25  C   UNL A   1      35.610  33.226  28.617  1.00  0.00     0.021 C 
BRANCH  25  26
ATOM     26  C   UNL A   1      34.647  32.301  29.353  1.00  0.00     0.116 C 
BRANCH  26  27
ATOM     27  N   UNL A   1      34.107  31.270  28.478  1.00  0.00    -0.352 N 
ATOM     28  C   UNL A   1      34.759  30.227  27.869  1.00  0.00     0.251 C 
ATOM     29  H   UNL A   1      33.141  31.329  28.299  1.00  0.00     0.163 HD
ATOM     30  O   UNL A   1      34.201  29.563  27.000  1.00  0.00    -0.269 OA
BRANCH  28  31
ATOM     31  C   UNL A   1      36.149  29.919  28.257  1.00  0.00     0.039 A 
ATOM     32  C   UNL A   1      36.400  29.344  29.504  1.00  0.00     0.014 A 
ATOM     33  C   UNL A   1      37.200  30.184  27.375  1.00  0.00     0.014 A 
ATOM     34  C   UNL A   1      37.702  28.969  29.841  1.00  0.00     0.010 A 
ATOM     35  C   UNL A   1      38.483  29.742  27.681  1.00  0.00     0.010 A 
ATOM     36  C   UNL A   1      38.747  29.133  28.917  1.00  0.00    -0.014 A 
BRANCH  36  37
ATOM     37  C   UNL A   1      40.131  28.688  29.215  1.00  0.00     0.031 A 
ATOM     38  C   UNL A   1      41.082  29.627  29.904  1.00  0.00     0.074 A 
ATOM     39  C   UNL A   1      40.559  27.484  28.786  1.00  0.00     0.049 A 
ATOM     40  N   UNL A   1      42.365  29.491  30.126  1.00  0.00    -0.248 NA
ATOM     41  C   UNL A   1      40.521  30.903  30.376  1.00  0.00     0.031 C 
ATOM     42  C   UNL A   1      39.742  26.496  28.082  1.00  0.00     0.029 A 
ATOM     43  N   UNL A   1      41.797  26.897  28.865  1.00  0.00    -0.354 N 
ATOM     44  C   UNL A   1      42.765  30.669  30.746  1.00  0.00     0.074 A 
ATOM     45  C   UNL A   1      41.603  31.528  30.816  1.00  0.00     0.031 C 
ATOM     46  C   UNL A   1      40.496  25.420  27.802  1.00  0.00     0.029 A 
ATOM     47  C   UNL A   1      41.860  25.663  28.263  1.00  0.00     0.049 A 
ATOM     48  H   UNL A   1      42.568  27.320  29.308  1.00  0.00     0.167 HD
ATOM     49  C   UNL A   1      43.986  30.995  31.231  1.00  0.00     0.037 A 
ATOM     50  C   UNL A   1      42.904  24.830  28.086  1.00  0.00     0.037 A 
ATOM     51  C   UNL A   1      45.133  30.128  31.177  1.00  0.00     0.049 A 
ATOM     52  C   UNL A   1      44.259  25.229  28.606  1.00  0.00     0.074 A 
ATOM     53  C   UNL A   1      46.402  30.346  31.685  1.00  0.00     0.029 A 
ATOM     54  N   UNL A   1      45.151  28.878  30.576  1.00  0.00    -0.354 N 
ATOM     55  N   UNL A   1      44.613  26.322  29.238  1.00  0.00    -0.248 NA
ATOM     56  C   UNL A   1      45.359  24.278  28.391  1.00  0.00     0.031 C 
ATOM     57  C   UNL A   1      47.201  29.251  31.346  1.00  0.00     0.029 A 
ATOM     58  C   UNL A   1      46.415  28.323  30.681  1.00  0.00     0.049 A 
ATOM     59  H   UNL A   1      44.378  28.449  30.141  1.00  0.00     0.167 HD
ATOM     60  C   UNL A   1      45.963  26.174  29.530  1.00  0.00     0.074 A 
ATOM     61  C   UNL A   1      46.364  24.884  29.009  1.00  0.00     0.031 C 
ATOM     62  C   UNL A   1      46.793  27.028  30.175  1.00  0.00     0.037 A 
BRANCH  49  63
ATOM     63  C   UNL A   1      44.145  32.351  31.856  1.00  0.00     0.057 A 
ATOM     64  C   UNL A   1      44.534  33.471  31.108  1.00  0.00     0.134 A 
ATOM     65  C   UNL A   1      43.874  32.547  33.217  1.00  0.00     0.134 A 
ATOM     66  F   UNL A   1      44.819  33.352  29.803  1.00  0.00    -0.206 F 
ATOM     67  C   UNL A   1      44.676  34.729  31.697  1.00  0.00     0.040 A 
ATOM     68  C   UNL A   1      43.982  33.806  33.809  1.00  0.00     0.040 A 
ATOM     69  F   UNL A   1      43.490  31.520  33.990  1.00  0.00    -0.206 F 
ATOM     70  C   UNL A   1      44.393  34.900  33.050  1.00  0.00     0.006 A 
ENDBRANCH  49  63
BRANCH  50  71
ATOM     71  C   UNL A   1      42.712  23.531  27.392  1.00  0.00     0.057 A 
ATOM     72  C   UNL A   1      42.899  23.416  26.010  1.00  0.00     0.134 A 
ATOM     73  C   UNL A   1      42.324  22.379  28.087  1.00  0.00     0.134 A 
ATOM     74  F   UNL A   1      43.252  24.488  25.286  1.00  0.00    -0.206 F 
ATOM     75  C   UNL A   1      42.685  22.211  25.339  1.00  0.00     0.040 A 
ATOM     76  C   UNL A   1      42.135  21.159  27.433  1.00  0.00     0.040 A 
ATOM     77  F   UNL A   1      42.136  22.418  29.414  1.00  0.00    -0.206 F 
ATOM     78  C   UNL A   1      42.307  21.076  26.053  1.00  0.00     0.006 A 
ENDBRANCH  50  71
BRANCH  62  79
ATOM     79  C   UNL A   1      48.206  26.580  30.410  1.00  0.00     0.057 A 
ATOM     80  C   UNL A   1      49.247  26.905  29.531  1.00  0.00     0.134 A 
ATOM     81  C   UNL A   1      48.540  25.871  31.573  1.00  0.00     0.134 A 
ATOM     82  F   UNL A   1      48.993  27.571  28.394  1.00  0.00    -0.206 F 
ATOM     83  C   UNL A   1      50.566  26.528  29.793  1.00  0.00     0.040 A 
ATOM     84  C   UNL A   1      49.857  25.515  31.859  1.00  0.00     0.040 A 
ATOM     85  F   UNL A   1      47.591  25.536  32.461  1.00  0.00    -0.206 F 
ATOM     86  C   UNL A   1      50.875  25.840  30.965  1.00  0.00     0.006 A 
ENDBRANCH  62  79
ENDBRANCH  36  37
ENDBRANCH  28  31
ENDBRANCH  26  27
ENDBRANCH  25  26
ENDBRANCH  24  25
ENDBRANCH   1  24
TORSDOF 16
ENDMDL
MODEL 2
REMARK VINA RESULT:      -9.5      4.747      8.842
REMARK SMILES COc1cc(Cl)ccc1-c1ccc(CC(=O)NCCCCCCNC(=O)c2ccc(-c3c4nc(c(-c5c(F)cccc5F)c5ccc([nH]5)c(-c5c(F)cccc5F)c5nc(c(-c6c(F)cccc6F)c6ccc3[nH]6)C=C5)C=C4)cc2)cc1
REMARK SMILES IDX 20 1 19 2 18 3 17 4 15 5 16 6 14 8 13 9 10 10 11 11 82 12
REMARK SMILES IDX 12 13 81 14 9 15 3 16 4 17 5 18 8 19 6 20 7 21 2 22 1 23
REMARK SMILES IDX 21 24 22 25 23 26 24 27 25 28 26 30 27 31 28 32 80 33 29 34
REMARK SMILES IDX 79 35 30 36 31 37 32 38 73 39 33 40 78 41 72 42 74 43 34 44
REMARK SMILES IDX 77 45 71 46 70 47 35 49 61 50 44 51 60 52 45 53 48 54 59 55
REMARK SMILES IDX 75 56 46 57 47 58 58 60 76 61 49 62 36 63 37 64 42 65 38 66
REMARK SMILES IDX 39 67 41 68 43 69 40 70 62 71 63 72 68 73 64 74 65 75 67 76
REMARK SMILES IDX 69 77 66 78 50 79 51 80 56 81 52 82 53 83 55 84 57 85 54 86
REMARK H PARENT 17 7 24 29 74 48 48 59
REMARK Flexibility Score: inf
ROOT
ATOM      1  C   UNL A   1      34.414  32.346  29.026  1.00  0.00     0.002 C 
ENDROOT
BRANCH   1   2
ATOM      2  C   UNL A   1      35.303  31.623  28.004  1.00  0.00     0.021 C 
BRANCH   2   3
ATOM      3  C   UNL A   1      34.700  30.316  27.485  1.00  0.00     0.116 C 
BRANCH   3   4
ATOM      4  N   UNL A   1      33.666  30.573  26.503  1.00  0.00    -0.356 N 
ATOM      5  C   UNL A   1      32.523  29.870  26.254  1.00  0.00     0.224 C 
ATOM      6  O   UNL A   1      31.841  30.189  25.278  1.00  0.00    -0.275 OA
ATOM      7  H   UNL A   1      33.808  31.367  25.938  1.00  0.00     0.163 HD
BRANCH   5   8
ATOM      8  C   UNL A   1      32.083  28.768  27.202  1.00  0.00     0.135 C 
BRANCH   8   9
ATOM      9  C   UNL A   1      32.363  27.368  26.714  1.00  0.00    -0.039 A 
ATOM     10  C   UNL A   1      32.881  24.710  25.878  1.00  0.00    -0.015 A 
ATOM     11  C   UNL A   1      33.855  25.714  25.747  1.00  0.00     0.009 A 
ATOM     12  C   UNL A   1      31.638  25.069  26.417  1.00  0.00     0.009 A 
ATOM     13  C   UNL A   1      33.601  27.027  26.160  1.00  0.00     0.005 A 
ATOM     14  C   UNL A   1      31.372  26.381  26.808  1.00  0.00     0.005 A 
BRANCH  10  15
ATOM     15  C   UNL A   1      33.157  23.313  25.485  1.00  0.00     0.024 A 
ATOM     16  C   UNL A   1      32.826  22.803  24.211  1.00  0.00     0.128 A 
ATOM     17  C   UNL A   1      33.089  21.468  23.883  1.00  0.00     0.067 A 
ATOM     18  C   UNL A   1      33.658  20.622  24.831  1.00  0.00     0.044 A 
ATOM     19  C   UNL A   1      33.735  22.432  26.420  1.00  0.00     0.014 A 
ATOM     20  Cl  UNL A   1      33.973  18.978  24.429  1.00  0.00    -0.084 Cl
ATOM     21  C   UNL A   1      33.982  21.096  26.098  1.00  0.00     0.021 A 
BRANCH  16  22
ATOM     22  O   UNL A   1      32.332  23.676  23.270  1.00  0.00    -0.496 OA
ATOM     23  C   UNL A   1      33.277  24.040  22.268  1.00  0.00     0.278 C 
ENDBRANCH  16  22
ENDBRANCH  10  15
ENDBRANCH   8   9
ENDBRANCH   5   8
ENDBRANCH   3   4
ENDBRANCH   2   3
ENDBRANCH   1   2
BRANCH   1  24
ATOM     24  C   UNL A   1      34.604  33.866  29.088  1.00  0.00     0.002 C 
BRANCH  24  25
ATOM     25  C   UNL A   1      33.306  34.675  29.081  1.00  0.00     0.021 C 
BRANCH  25  26
ATOM     26  C   UNL A   1      33.463  36.111  29.571  1.00  0.00     0.116 C 
BRANCH  26  27
ATOM     27  N   UNL A   1      32.526  36.427  30.640  1.00  0.00    -0.352 N 
ATOM     28  C   UNL A   1      32.496  35.954  31.928  1.00  0.00     0.251 C 
ATOM     29  H   UNL A   1      31.817  37.068  30.407  1.00  0.00     0.163 HD
ATOM     30  O   UNL A   1      31.523  36.161  32.648  1.00  0.00    -0.269 OA
BRANCH  28  31
ATOM     31  C   UNL A   1      33.640  35.174  32.439  1.00  0.00     0.039 A 
ATOM     32  C   UNL A   1      33.440  33.855  32.851  1.00  0.00     0.014 A 
ATOM     33  C   UNL A   1      34.915  35.746  32.490  1.00  0.00     0.014 A 
ATOM     34  C   UNL A   1      34.533  33.085  33.252  1.00  0.00     0.010 A 
ATOM     35  C   UNL A   1      36.010  34.956  32.817  1.00  0.00     0.010 A 
ATOM     36  C   UNL A   1      35.831  33.618  33.203  1.00  0.00    -0.014 A 
BRANCH  36  37
ATOM     37  C   UNL A   1      37.023  32.810  33.560  1.00  0.00     0.031 A 
ATOM     38  C   UNL A   1      37.759  33.094  34.840  1.00  0.00     0.074 A 
ATOM     39  C   UNL A   1      37.496  31.890  32.696  1.00  0.00     0.049 A 
ATOM     40  N   UNL A   1      38.896  32.607  35.267  1.00  0.00    -0.248 NA
ATOM     41  C   UNL A   1      37.150  34.083  35.743  1.00  0.00     0.031 C 
ATOM     42  C   UNL A   1      36.889  31.543  31.411  1.00  0.00     0.029 A 
ATOM     43  N   UNL A   1      38.611  31.092  32.764  1.00  0.00    -0.354 N 
ATOM     44  C   UNL A   1      39.146  33.243  36.477  1.00  0.00     0.074 A 
ATOM     45  C   UNL A   1      38.071  34.189  36.689  1.00  0.00     0.031 C 
ATOM     46  C   UNL A   1      37.631  30.594  30.816  1.00  0.00     0.029 A 
ATOM     47  C   UNL A   1      38.791  30.303  31.653  1.00  0.00     0.049 A 
ATOM     48  H   UNL A   1      39.225  31.086  33.533  1.00  0.00     0.167 HD
ATOM     49  C   UNL A   1      40.168  33.042  37.342  1.00  0.00     0.037 A 
ATOM     50  C   UNL A   1      39.789  29.455  31.337  1.00  0.00     0.037 A 
ATOM     51  C   UNL A   1      41.223  32.086  37.135  1.00  0.00     0.049 A 
ATOM     52  C   UNL A   1      40.930  29.272  32.301  1.00  0.00     0.074 A 
ATOM     53  C   UNL A   1      42.276  31.771  37.975  1.00  0.00     0.029 A 
ATOM     54  N   UNL A   1      41.358  31.291  36.006  1.00  0.00    -0.354 N 
ATOM     55  N   UNL A   1      41.128  29.839  33.466  1.00  0.00    -0.248 NA
ATOM     56  C   UNL A   1      41.987  28.329  31.907  1.00  0.00     0.031 C 
ATOM     57  C   UNL A   1      43.079  30.825  37.332  1.00  0.00     0.029 A 
ATOM     58  C   UNL A   1      42.492  30.504  36.118  1.00  0.00     0.049 A 
ATOM     59  H   UNL A   1      40.740  31.288  35.239  1.00  0.00     0.167 HD
ATOM     60  C   UNL A   1      42.306  29.295  33.961  1.00  0.00     0.074 A 
ATOM     61  C   UNL A   1      42.778  28.349  32.971  1.00  0.00     0.031 C 
ATOM     62  C   UNL A   1      42.937  29.552  35.132  1.00  0.00     0.037 A 
BRANCH  49  63
ATOM     63  C   UNL A   1      40.197  33.879  38.589  1.00  0.00     0.057 A 
ATOM     64  C   UNL A   1      39.532  33.487  39.759  1.00  0.00     0.134 A 
ATOM     65  C   UNL A   1      40.925  35.075  38.630  1.00  0.00     0.134 A 
ATOM     66  F   UNL A   1      38.807  32.359  39.784  1.00  0.00    -0.206 F 
ATOM     67  C   UNL A   1      39.567  34.269  40.915  1.00  0.00     0.040 A 
ATOM     68  C   UNL A   1      40.994  35.848  39.789  1.00  0.00     0.040 A 
ATOM     69  F   UNL A   1      41.591  35.505  37.548  1.00  0.00    -0.206 F 
ATOM     70  C   UNL A   1      40.306  35.450  40.934  1.00  0.00     0.006 A 
ENDBRANCH  49  63
BRANCH  50  71
ATOM     71  C   UNL A   1      39.753  28.706  30.055  1.00  0.00     0.057 A 
ATOM     72  C   UNL A   1      39.116  27.462  29.964  1.00  0.00     0.134 A 
ATOM     73  C   UNL A   1      40.361  29.203  28.896  1.00  0.00     0.134 A 
ATOM     74  F   UNL A   1      38.532  26.923  31.044  1.00  0.00    -0.206 F 
ATOM     75  C   UNL A   1      39.107  26.729  28.776  1.00  0.00     0.040 A 
ATOM     76  C   UNL A   1      40.333  28.494  27.693  1.00  0.00     0.040 A 
ATOM     77  F   UNL A   1      40.980  30.392  28.912  1.00  0.00    -0.206 F 
ATOM     78  C   UNL A   1      39.712  27.248  27.635  1.00  0.00     0.006 A 
ENDBRANCH  50  71
BRANCH  62  79
ATOM     79  C   UNL A   1      44.176  28.764  35.442  1.00  0.00     0.057 A 
ATOM     80  C   UNL A   1      44.130  27.538  36.117  1.00  0.00     0.134 A 
ATOM     81  C   UNL A   1      45.428  29.209  34.994  1.00  0.00     0.134 A 
ATOM     82  F   UNL A   1      42.966  27.062  36.584  1.00  0.00    -0.206 F 
ATOM     83  C   UNL A   1      45.287  26.790  36.348  1.00  0.00     0.040 A 
ATOM     84  C   UNL A   1      46.585  28.457  35.193  1.00  0.00     0.040 A 
ATOM     85  F   UNL A   1      45.541  30.371  34.332  1.00  0.00    -0.206 F 
ATOM     86  C   UNL A   1      46.517  27.244  35.876  1.00  0.00     0.006 A 
ENDBRANCH  62  79
ENDBRANCH  36  37
ENDBRANCH  28  31
ENDBRANCH  26  27
ENDBRANCH  25  26
ENDBRANCH  24  25
ENDBRANCH   1  24
TORSDOF 16
ENDMDL
MODEL 3
REMARK VINA RESULT:      -9.4      5.283     10.536
REMARK SMILES COc1cc(Cl)ccc1-c1ccc(CC(=O)NCCCCCCNC(=O)c2ccc(-c3c4nc(c(-c5c(F)cccc5F)c5ccc([nH]5)c(-c5c(F)cccc5F)c5nc(c(-c6c(F)cccc6F)c6ccc3[nH]6)C=C5)C=C4)cc2)cc1
REMARK SMILES IDX 20 1 19 2 18 3 17 4 15 5 16 6 14 8 13 9 10 10 11 11 82 12
REMARK SMILES IDX 12 13 81 14 9 15 3 16 4 17 5 18 8 19 6 20 7 21 2 22 1 23
REMARK SMILES IDX 21 24 22 25 23 26 24 27 25 28 26 30 27 31 28 32 80 33 29 34
REMARK SMILES IDX 79 35 30 36 31 37 32 38 73 39 33 40 78 41 72 42 74 43 34 44
REMARK SMILES IDX 77 45 71 46 70 47 35 49 61 50 44 51 60 52 45 53 48 54 59 55
REMARK SMILES IDX 75 56 46 57 47 58 58 60 76 61 49 62 36 63 37 64 42 65 38 66
REMARK SMILES IDX 39 67 41 68 43 69 40 70 62 71 63 72 68 73 64 74 65 75 67 76
REMARK SMILES IDX 69 77 66 78 50 79 51 80 56 81 52 82 53 83 55 84 57 85 54 86
REMARK H PARENT 17 7 24 29 74 48 48 59
REMARK Flexibility Score: inf
ROOT
ATOM      1  C   UNL A   1      33.890  25.117  25.778  1.00  0.00     0.002 C 
ENDROOT
BRANCH   1   2
ATOM      2  C   UNL A   1      33.655  26.627  25.924  1.00  0.00     0.021 C 
BRANCH   2   3
ATOM      3  C   UNL A   1      32.664  27.193  24.905  1.00  0.00     0.116 C 
BRANCH   3   4
ATOM      4  N   UNL A   1      33.348  27.650  23.712  1.00  0.00    -0.356 N 
ATOM      5  C   UNL A   1      33.179  27.251  22.418  1.00  0.00     0.224 C 
ATOM      6  O   UNL A   1      33.961  27.677  21.567  1.00  0.00    -0.275 OA
ATOM      7  H   UNL A   1      34.031  28.345  23.855  1.00  0.00     0.163 HD
BRANCH   5   8
ATOM      8  C   UNL A   1      32.009  26.357  22.042  1.00  0.00     0.135 C 
BRANCH   8   9
ATOM      9  C   UNL A   1      32.120  24.935  22.533  1.00  0.00    -0.039 A 
ATOM     10  C   UNL A   1      32.323  22.235  23.373  1.00  0.00    -0.015 A 
ATOM     11  C   UNL A   1      31.227  23.031  23.747  1.00  0.00     0.009 A 
ATOM     12  C   UNL A   1      33.323  22.826  22.588  1.00  0.00     0.009 A 
ATOM     13  C   UNL A   1      31.124  24.363  23.332  1.00  0.00     0.005 A 
ATOM     14  C   UNL A   1      33.237  24.160  22.192  1.00  0.00     0.005 A 
BRANCH  10  15
ATOM     15  C   UNL A   1      32.416  20.816  23.770  1.00  0.00     0.024 A 
ATOM     16  C   UNL A   1      32.723  20.415  25.089  1.00  0.00     0.128 A 
ATOM     17  C   UNL A   1      32.818  19.058  25.421  1.00  0.00     0.067 A 
ATOM     18  C   UNL A   1      32.636  18.090  24.437  1.00  0.00     0.044 A 
ATOM     19  C   UNL A   1      32.234  19.812  22.799  1.00  0.00     0.014 A 
ATOM     20  Cl  UNL A   1      32.762  16.423  24.846  1.00  0.00    -0.084 Cl
ATOM     21  C   UNL A   1      32.345  18.459  23.128  1.00  0.00     0.021 A 
BRANCH  16  22
ATOM     22  O   UNL A   1      32.827  21.387  26.056  1.00  0.00    -0.496 OA
ATOM     23  C   UNL A   1      33.829  21.123  27.034  1.00  0.00     0.278 C 
ENDBRANCH  16  22
ENDBRANCH  10  15
ENDBRANCH   8   9
ENDBRANCH   5   8
ENDBRANCH   3   4
ENDBRANCH   2   3
ENDBRANCH   1   2
BRANCH   1  24
ATOM     24  C   UNL A   1      35.143  24.730  24.983  1.00  0.00     0.002 C 
BRANCH  24  25
ATOM     25  C   UNL A   1      36.077  23.750  25.694  1.00  0.00     0.021 C 
BRANCH  25  26
ATOM     26  C   UNL A   1      37.327  23.390  24.899  1.00  0.00     0.116 C 
BRANCH  26  27
ATOM     27  N   UNL A   1      38.163  22.430  25.604  1.00  0.00    -0.352 N 
ATOM     28  C   UNL A   1      39.228  22.662  26.438  1.00  0.00     0.251 C 
ATOM     29  H   UNL A   1      37.934  21.482  25.463  1.00  0.00     0.163 HD
ATOM     30  O   UNL A   1      39.956  21.741  26.794  1.00  0.00    -0.269 OA
BRANCH  28  31
ATOM     31  C   UNL A   1      39.502  24.039  26.892  1.00  0.00     0.039 A 
ATOM     32  C   UNL A   1      39.270  24.379  28.227  1.00  0.00     0.014 A 
ATOM     33  C   UNL A   1      40.008  24.987  25.998  1.00  0.00     0.014 A 
ATOM     34  C   UNL A   1      39.610  25.654  28.683  1.00  0.00     0.010 A 
ATOM     35  C   UNL A   1      40.416  26.230  26.470  1.00  0.00     0.010 A 
ATOM     36  C   UNL A   1      40.219  26.577  27.816  1.00  0.00    -0.014 A 
BRANCH  36  37
ATOM     37  C   UNL A   1      40.653  27.917  28.281  1.00  0.00     0.031 A 
ATOM     38  C   UNL A   1      42.117  28.204  28.465  1.00  0.00     0.074 A 
ATOM     39  C   UNL A   1      39.733  28.841  28.624  1.00  0.00     0.049 A 
ATOM     40  N   UNL A   1      42.697  29.252  28.994  1.00  0.00    -0.248 NA
ATOM     41  C   UNL A   1      43.053  27.156  28.026  1.00  0.00     0.031 C 
ATOM     42  C   UNL A   1      38.284  28.674  28.519  1.00  0.00     0.029 A 
ATOM     43  N   UNL A   1      39.886  30.099  29.151  1.00  0.00    -0.354 N 
ATOM     44  C   UNL A   1      44.059  28.981  28.966  1.00  0.00     0.074 A 
ATOM     45  C   UNL A   1      44.217  27.650  28.420  1.00  0.00     0.031 C 
ATOM     46  C   UNL A   1      37.679  29.792  28.956  1.00  0.00     0.029 A 
ATOM     47  C   UNL A   1      38.695  30.733  29.417  1.00  0.00     0.049 A 
ATOM     48  H   UNL A   1      40.764  30.510  29.324  1.00  0.00     0.167 HD
ATOM     49  C   UNL A   1      45.086  29.777  29.344  1.00  0.00     0.037 A 
ATOM     50  C   UNL A   1      38.451  31.929  29.987  1.00  0.00     0.037 A 
ATOM     51  C   UNL A   1      44.924  31.108  29.868  1.00  0.00     0.049 A 
ATOM     52  C   UNL A   1      39.609  32.783  30.427  1.00  0.00     0.074 A 
ATOM     53  C   UNL A   1      45.904  32.014  30.232  1.00  0.00     0.029 A 
ATOM     54  N   UNL A   1      43.702  31.720  30.104  1.00  0.00    -0.354 N 
ATOM     55  N   UNL A   1      40.894  32.539  30.347  1.00  0.00    -0.248 NA
ATOM     56  C   UNL A   1      39.282  34.081  31.036  1.00  0.00     0.031 C 
ATOM     57  C   UNL A   1      45.275  33.155  30.738  1.00  0.00     0.029 A 
ATOM     58  C   UNL A   1      43.903  32.984  30.631  1.00  0.00     0.049 A 
ATOM     59  H   UNL A   1      42.823  31.316  29.922  1.00  0.00     0.167 HD
ATOM     60  C   UNL A   1      41.530  33.664  30.856  1.00  0.00     0.074 A 
ATOM     61  C   UNL A   1      40.488  34.594  31.240  1.00  0.00     0.031 C 
ATOM     62  C   UNL A   1      42.856  33.907  30.989  1.00  0.00     0.037 A 
BRANCH  49  63
ATOM     63  C   UNL A   1      46.477  29.227  29.210  1.00  0.00     0.057 A 
ATOM     64  C   UNL A   1      47.225  29.383  28.035  1.00  0.00     0.134 A 
ATOM     65  C   UNL A   1      47.089  28.561  30.281  1.00  0.00     0.134 A 
ATOM     66  F   UNL A   1      46.696  30.001  26.969  1.00  0.00    -0.206 F 
ATOM     67  C   UNL A   1      48.519  28.871  27.920  1.00  0.00     0.040 A 
ATOM     68  C   UNL A   1      48.393  28.074  30.188  1.00  0.00     0.040 A 
ATOM     69  F   UNL A   1      46.432  28.383  31.437  1.00  0.00    -0.206 F 
ATOM     70  C   UNL A   1      49.109  28.221  29.001  1.00  0.00     0.006 A 
ENDBRANCH  49  63
BRANCH  50  71
ATOM     71  C   UNL A   1      37.053  32.397  30.167  1.00  0.00     0.057 A 
ATOM     72  C   UNL A   1      36.329  32.079  31.323  1.00  0.00     0.134 A 
ATOM     73  C   UNL A   1      36.402  33.157  29.188  1.00  0.00     0.134 A 
ATOM     74  F   UNL A   1      36.891  31.337  32.288  1.00  0.00    -0.206 F 
ATOM     75  C   UNL A   1      35.002  32.480  31.489  1.00  0.00     0.040 A 
ATOM     76  C   UNL A   1      35.084  33.590  29.355  1.00  0.00     0.040 A 
ATOM     77  F   UNL A   1      37.041  33.503  28.062  1.00  0.00    -0.206 F 
ATOM     78  C   UNL A   1      34.378  33.243  30.504  1.00  0.00     0.006 A 
ENDBRANCH  50  71
BRANCH  62  79
ATOM     79  C   UNL A   1      43.268  35.249  31.520  1.00  0.00     0.057 A 
ATOM     80  C   UNL A   1      43.377  35.506  32.891  1.00  0.00     0.134 A 
ATOM     81  C   UNL A   1      43.628  36.278  30.637  1.00  0.00     0.134 A 
ATOM     82  F   UNL A   1      43.035  34.569  33.788  1.00  0.00    -0.206 F 
ATOM     83  C   UNL A   1      43.816  36.744  33.368  1.00  0.00     0.040 A 
ATOM     84  C   UNL A   1      44.096  37.507  31.101  1.00  0.00     0.040 A 
ATOM     85  F   UNL A   1      43.556  36.093  29.310  1.00  0.00    -0.206 F 
ATOM     86  C   UNL A   1      44.187  37.744  32.471  1.00  0.00     0.006 A 
ENDBRANCH  62  79
ENDBRANCH  36  37
ENDBRANCH  28  31
ENDBRANCH  26  27
ENDBRANCH  25  26
ENDBRANCH  24  25
ENDBRANCH   1  24
TORSDOF 16
ENDMDL
