MODEL 1
REMARK VINA RESULT:     -11.2      0.000      0.000
REMARK SMILES O=C(CCC(=O)N1CCN(S(=O)(=O)c2cccs2)CC1)NCCCCCCNC(=O)c1ccc(-c2c3nc(c(-c4c(F)cccc4F)c4ccc([nH]4)c(-c4c(F)cccc4F)c4nc(c(-c5c(F)cccc5F)c5ccc2[nH]5)C=C4)C=C3)cc1
REMARK SMILES IDX 23 1 22 2 21 3 1 4 2 5 3 7 4 8 5 9 6 10 7 11 8 12 20 13 9 14
REMARK SMILES IDX 19 15 10 16 11 17 12 18 13 19 14 20 15 21 18 22 16 23 17 24
REMARK SMILES IDX 24 25 25 26 26 27 27 28 28 29 29 30 30 32 31 33 32 34 84 35
REMARK SMILES IDX 33 36 83 37 34 38 35 39 36 40 77 41 37 42 82 43 76 44 78 45
REMARK SMILES IDX 38 46 81 47 75 48 74 49 39 51 65 52 48 53 64 54 49 55 52 56
REMARK SMILES IDX 63 57 79 58 50 59 51 60 62 62 80 63 53 64 40 65 41 66 46 67
REMARK SMILES IDX 42 68 43 69 45 70 47 71 44 72 66 73 67 74 72 75 68 76 69 77
REMARK SMILES IDX 71 78 73 79 70 80 54 81 55 82 60 83 56 84 57 85 59 86 61 87
REMARK SMILES IDX 58 88
REMARK H PARENT 21 6 28 31 78 50 52 61
REMARK Flexibility Score: inf
ROOT
ATOM      1  C   UNL A   1      34.535  31.541  27.986  1.00  0.00     0.021 C 
ENDROOT
BRANCH   1   2
ATOM      2  C   UNL A   1      33.173  31.168  27.412  1.00  0.00     0.116 C 
BRANCH   2   3
ATOM      3  N   UNL A   1      32.886  29.750  27.439  1.00  0.00    -0.356 N 
ATOM      4  O   UNL A   1      31.552  29.790  25.572  1.00  0.00    -0.275 OA
ATOM      5  C   UNL A   1      32.124  29.160  26.457  1.00  0.00     0.220 C 
ATOM      6  H   UNL A   1      33.241  29.199  28.172  1.00  0.00     0.163 HD
BRANCH   5   7
ATOM      7  C   UNL A   1      32.089  27.650  26.517  1.00  0.00     0.110 C 
BRANCH   7   8
ATOM      8  C   UNL A   1      33.447  27.060  26.154  1.00  0.00     0.110 C 
BRANCH   8   9
ATOM      9  C   UNL A   1      33.424  26.419  24.776  1.00  0.00     0.223 C 
ATOM     10  O   UNL A   1      33.107  27.111  23.805  1.00  0.00    -0.275 OA
ATOM     11  N   UNL A   1      33.755  25.074  24.635  1.00  0.00    -0.340 N 
ATOM     12  C   UNL A   1      33.665  24.515  23.274  1.00  0.00     0.136 C 
ATOM     13  C   UNL A   1      33.741  24.118  25.751  1.00  0.00     0.136 C 
ATOM     14  C   UNL A   1      34.359  23.153  23.076  1.00  0.00     0.124 C 
ATOM     15  C   UNL A   1      34.465  22.801  25.470  1.00  0.00     0.124 C 
ATOM     16  N   UNL A   1      34.045  22.186  24.186  1.00  0.00    -0.194 NA
BRANCH  16  17
ATOM     17  S   UNL A   1      32.475  21.528  24.058  1.00  0.00     0.252 S 
ATOM     18  O   UNL A   1      31.827  21.710  25.338  1.00  0.00    -0.206 OA
ATOM     19  O   UNL A   1      31.886  22.074  22.854  1.00  0.00    -0.206 OA
BRANCH  17  20
ATOM     20  C   UNL A   1      32.515  19.749  23.888  1.00  0.00     0.135 A 
ATOM     21  C   UNL A   1      32.425  18.929  22.775  1.00  0.00     0.033 A 
ATOM     22  S   UNL A   1      32.897  18.840  25.289  1.00  0.00    -0.131 S 
ATOM     23  C   UNL A   1      32.665  17.558  23.079  1.00  0.00     0.013 A 
ATOM     24  C   UNL A   1      32.947  17.372  24.413  1.00  0.00     0.066 A 
ENDBRANCH  17  20
ENDBRANCH  16  17
ENDBRANCH   8   9
ENDBRANCH   7   8
ENDBRANCH   5   7
ENDBRANCH   2   3
ENDBRANCH   1   2
BRANCH   1  25
ATOM     25  C   UNL A   1      34.539  32.479  29.199  1.00  0.00     0.002 C 
BRANCH  25  26
ATOM     26  C   UNL A   1      34.574  33.982  28.913  1.00  0.00     0.002 C 
BRANCH  26  27
ATOM     27  C   UNL A   1      33.243  34.726  29.022  1.00  0.00     0.021 C 
BRANCH  27  28
ATOM     28  C   UNL A   1      33.309  36.160  29.526  1.00  0.00     0.116 C 
BRANCH  28  29
ATOM     29  N   UNL A   1      32.449  36.391  30.670  1.00  0.00    -0.352 N 
ATOM     30  C   UNL A   1      32.521  35.892  31.947  1.00  0.00     0.251 C 
ATOM     31  H   UNL A   1      31.694  37.002  30.505  1.00  0.00     0.163 HD
ATOM     32  O   UNL A   1      31.597  36.106  32.730  1.00  0.00    -0.269 OA
BRANCH  30  33
ATOM     33  C   UNL A   1      33.685  35.092  32.404  1.00  0.00     0.039 A 
ATOM     34  C   UNL A   1      34.956  35.678  32.360  1.00  0.00     0.014 A 
ATOM     35  C   UNL A   1      33.560  33.756  32.798  1.00  0.00     0.014 A 
ATOM     36  C   UNL A   1      36.087  34.947  32.740  1.00  0.00     0.010 A 
ATOM     37  C   UNL A   1      34.678  33.047  33.238  1.00  0.00     0.010 A 
ATOM     38  C   UNL A   1      35.955  33.629  33.196  1.00  0.00    -0.014 A 
BRANCH  38  39
ATOM     39  C   UNL A   1      37.137  32.808  33.563  1.00  0.00     0.031 A 
ATOM     40  C   UNL A   1      37.813  33.031  34.889  1.00  0.00     0.074 A 
ATOM     41  C   UNL A   1      37.650  31.913  32.697  1.00  0.00     0.049 A 
ATOM     42  N   UNL A   1      38.962  32.577  35.320  1.00  0.00    -0.248 NA
ATOM     43  C   UNL A   1      37.117  33.911  35.842  1.00  0.00     0.031 C 
ATOM     44  C   UNL A   1      37.112  31.603  31.373  1.00  0.00     0.029 A 
ATOM     45  N   UNL A   1      38.756  31.107  32.806  1.00  0.00    -0.354 N 
ATOM     46  C   UNL A   1      39.159  33.171  36.561  1.00  0.00     0.074 A 
ATOM     47  C   UNL A   1      38.007  34.005  36.820  1.00  0.00     0.031 C 
ATOM     48  C   UNL A   1      37.880  30.663  30.798  1.00  0.00     0.029 A 
ATOM     49  C   UNL A   1      38.981  30.330  31.698  1.00  0.00     0.049 A 
ATOM     50  H   UNL A   1      39.333  31.089  33.604  1.00  0.00     0.167 HD
ATOM     51  C   UNL A   1      40.210  33.038  37.403  1.00  0.00     0.037 A 
ATOM     52  C   UNL A   1      39.972  29.457  31.432  1.00  0.00     0.037 A 
ATOM     53  C   UNL A   1      41.319  32.148  37.193  1.00  0.00     0.049 A 
ATOM     54  C   UNL A   1      41.064  29.235  32.440  1.00  0.00     0.074 A 
ATOM     55  C   UNL A   1      42.415  31.925  38.008  1.00  0.00     0.029 A 
ATOM     56  N   UNL A   1      41.451  31.306  36.102  1.00  0.00    -0.354 N 
ATOM     57  N   UNL A   1      41.255  29.829  33.591  1.00  0.00    -0.248 NA
ATOM     58  C   UNL A   1      42.079  28.225  32.107  1.00  0.00     0.031 C 
ATOM     59  C   UNL A   1      43.211  30.941  37.411  1.00  0.00     0.029 A 
ATOM     60  C   UNL A   1      42.602  30.547  36.230  1.00  0.00     0.049 A 
ATOM     61  H   UNL A   1      40.822  31.255  35.347  1.00  0.00     0.167 HD
ATOM     62  C   UNL A   1      42.404  29.261  34.124  1.00  0.00     0.074 A 
ATOM     63  C   UNL A   1      42.863  28.267  33.177  1.00  0.00     0.031 C 
ATOM     64  C   UNL A   1      43.028  29.548  35.290  1.00  0.00     0.037 A 
BRANCH  51  65
ATOM     65  C   UNL A   1      40.215  33.895  38.628  1.00  0.00     0.057 A 
ATOM     66  C   UNL A   1      39.566  33.506  39.805  1.00  0.00     0.134 A 
ATOM     67  C   UNL A   1      40.896  35.119  38.633  1.00  0.00     0.134 A 
ATOM     68  F   UNL A   1      38.882  32.353  39.855  1.00  0.00    -0.206 F 
ATOM     69  C   UNL A   1      39.585  34.312  40.944  1.00  0.00     0.040 A 
ATOM     70  C   UNL A   1      40.935  35.927  39.769  1.00  0.00     0.040 A 
ATOM     71  F   UNL A   1      41.535  35.546  37.532  1.00  0.00    -0.206 F 
ATOM     72  C   UNL A   1      40.275  35.524  40.930  1.00  0.00     0.006 A 
ENDBRANCH  51  65
BRANCH  52  73
ATOM     73  C   UNL A   1      39.971  28.710  30.154  1.00  0.00     0.057 A 
ATOM     74  C   UNL A   1      40.666  29.197  29.041  1.00  0.00     0.134 A 
ATOM     75  C   UNL A   1      39.275  27.506  30.014  1.00  0.00     0.134 A 
ATOM     76  F   UNL A   1      41.332  30.358  29.117  1.00  0.00    -0.206 F 
ATOM     77  C   UNL A   1      40.660  28.514  27.826  1.00  0.00     0.040 A 
ATOM     78  C   UNL A   1      39.271  26.806  28.807  1.00  0.00     0.040 A 
ATOM     79  F   UNL A   1      38.590  26.995  31.047  1.00  0.00    -0.206 F 
ATOM     80  C   UNL A   1      39.963  27.312  27.707  1.00  0.00     0.006 A 
ENDBRANCH  52  73
BRANCH  64  81
ATOM     81  C   UNL A   1      44.252  28.755  35.621  1.00  0.00     0.057 A 
ATOM     82  C   UNL A   1      45.524  29.176  35.217  1.00  0.00     0.134 A 
ATOM     83  C   UNL A   1      44.161  27.586  36.384  1.00  0.00     0.134 A 
ATOM     84  F   UNL A   1      45.669  30.286  34.476  1.00  0.00    -0.206 F 
ATOM     85  C   UNL A   1      46.669  28.455  35.557  1.00  0.00     0.040 A 
ATOM     86  C   UNL A   1      45.299  26.860  36.737  1.00  0.00     0.040 A 
ATOM     87  F   UNL A   1      42.968  27.135  36.799  1.00  0.00    -0.206 F 
ATOM     88  C   UNL A   1      46.557  27.295  36.323  1.00  0.00     0.006 A 
ENDBRANCH  64  81
ENDBRANCH  38  39
ENDBRANCH  30  33
ENDBRANCH  28  29
ENDBRANCH  27  28
ENDBRANCH  26  27
ENDBRANCH  25  26
ENDBRANCH   1  25
TORSDOF 17
ENDMDL
MODEL 2
REMARK VINA RESULT:     -11.1      1.179      2.206
REMARK SMILES O=C(CCC(=O)N1CCN(S(=O)(=O)c2cccs2)CC1)NCCCCCCNC(=O)c1ccc(-c2c3nc(c(-c4c(F)cccc4F)c4ccc([nH]4)c(-c4c(F)cccc4F)c4nc(c(-c5c(F)cccc5F)c5ccc2[nH]5)C=C4)C=C3)cc1
REMARK SMILES IDX 23 1 22 2 21 3 1 4 2 5 3 7 4 8 5 9 6 10 7 11 8 12 20 13 9 14
REMARK SMILES IDX 19 15 10 16 11 17 12 18 13 19 14 20 15 21 18 22 16 23 17 24
REMARK SMILES IDX 24 25 25 26 26 27 27 28 28 29 29 30 30 32 31 33 32 34 84 35
REMARK SMILES IDX 33 36 83 37 34 38 35 39 36 40 77 41 37 42 82 43 76 44 78 45
REMARK SMILES IDX 38 46 81 47 75 48 74 49 39 51 65 52 48 53 64 54 49 55 52 56
REMARK SMILES IDX 63 57 79 58 50 59 51 60 62 62 80 63 53 64 40 65 41 66 46 67
REMARK SMILES IDX 42 68 43 69 45 70 47 71 44 72 66 73 67 74 72 75 68 76 69 77
REMARK SMILES IDX 71 78 73 79 70 80 54 81 55 82 60 83 56 84 57 85 59 86 61 87
REMARK SMILES IDX 58 88
REMARK H PARENT 21 6 28 31 78 50 52 61
REMARK Flexibility Score: inf
ROOT
ATOM      1  C   UNL A   1      35.415  33.060  28.163  1.00  0.00     0.021 C 
ENDROOT
BRANCH   1   2
ATOM      2  C   UNL A   1      35.203  31.551  28.107  1.00  0.00     0.116 C 
BRANCH   2   3
ATOM      3  N   UNL A   1      33.848  31.154  27.793  1.00  0.00    -0.356 N 
ATOM      4  O   UNL A   1      34.455  29.191  26.770  1.00  0.00    -0.275 OA
ATOM      5  C   UNL A   1      33.582  29.949  27.184  1.00  0.00     0.220 C 
ATOM      6  H   UNL A   1      33.103  31.757  28.017  1.00  0.00     0.163 HD
BRANCH   5   7
ATOM      7  C   UNL A   1      32.114  29.597  27.112  1.00  0.00     0.110 C 
BRANCH   7   8
ATOM      8  C   UNL A   1      31.802  28.829  25.831  1.00  0.00     0.110 C 
BRANCH   8   9
ATOM      9  C   UNL A   1      31.463  27.376  26.123  1.00  0.00     0.223 C 
ATOM     10  O   UNL A   1      31.174  27.055  27.279  1.00  0.00    -0.275 OA
ATOM     11  N   UNL A   1      31.489  26.442  25.092  1.00  0.00    -0.340 N 
ATOM     12  C   UNL A   1      31.194  25.046  25.464  1.00  0.00     0.136 C 
ATOM     13  C   UNL A   1      32.200  26.658  23.824  1.00  0.00     0.136 C 
ATOM     14  C   UNL A   1      30.883  24.103  24.284  1.00  0.00     0.124 C 
ATOM     15  C   UNL A   1      31.818  25.686  22.707  1.00  0.00     0.124 C 
ATOM     16  N   UNL A   1      31.858  24.270  23.149  1.00  0.00    -0.194 NA
BRANCH  16  17
ATOM     17  S   UNL A   1      33.370  23.546  23.471  1.00  0.00     0.252 S 
ATOM     18  O   UNL A   1      34.101  23.504  22.225  1.00  0.00    -0.206 OA
ATOM     19  O   UNL A   1      33.925  24.223  24.624  1.00  0.00    -0.206 OA
BRANCH  17  20
ATOM     20  C   UNL A   1      33.202  21.816  23.885  1.00  0.00     0.135 A 
ATOM     21  C   UNL A   1      32.328  20.841  23.429  1.00  0.00     0.033 A 
ATOM     22  S   UNL A   1      34.408  21.133  24.891  1.00  0.00    -0.131 S 
ATOM     23  C   UNL A   1      32.650  19.540  23.914  1.00  0.00     0.013 A 
ATOM     24  C   UNL A   1      33.771  19.556  24.712  1.00  0.00     0.066 A 
ENDBRANCH  17  20
ENDBRANCH  16  17
ENDBRANCH   8   9
ENDBRANCH   7   8
ENDBRANCH   5   7
ENDBRANCH   2   3
ENDBRANCH   1   2
BRANCH   1  25
ATOM     25  C   UNL A   1      34.667  33.821  29.263  1.00  0.00     0.002 C 
BRANCH  25  26
ATOM     26  C   UNL A   1      33.283  34.370  28.908  1.00  0.00     0.002 C 
BRANCH  26  27
ATOM     27  C   UNL A   1      33.181  35.883  28.713  1.00  0.00     0.021 C 
BRANCH  27  28
ATOM     28  C   UNL A   1      33.487  36.744  29.929  1.00  0.00     0.116 C 
BRANCH  28  29
ATOM     29  N   UNL A   1      32.470  36.641  30.958  1.00  0.00    -0.352 N 
ATOM     30  C   UNL A   1      32.434  35.868  32.092  1.00  0.00     0.251 C 
ATOM     31  H   UNL A   1      31.682  37.216  30.822  1.00  0.00     0.163 HD
ATOM     32  O   UNL A   1      31.401  35.826  32.759  1.00  0.00    -0.269 OA
BRANCH  30  33
ATOM     33  C   UNL A   1      33.609  35.073  32.529  1.00  0.00     0.039 A 
ATOM     34  C   UNL A   1      34.870  35.681  32.507  1.00  0.00     0.014 A 
ATOM     35  C   UNL A   1      33.505  33.724  32.882  1.00  0.00     0.014 A 
ATOM     36  C   UNL A   1      36.012  34.957  32.869  1.00  0.00     0.010 A 
ATOM     37  C   UNL A   1      34.633  33.021  33.304  1.00  0.00     0.010 A 
ATOM     38  C   UNL A   1      35.901  33.624  33.284  1.00  0.00    -0.014 A 
BRANCH  38  39
ATOM     39  C   UNL A   1      37.095  32.811  33.630  1.00  0.00     0.031 A 
ATOM     40  C   UNL A   1      37.778  33.022  34.954  1.00  0.00     0.074 A 
ATOM     41  C   UNL A   1      37.612  31.936  32.747  1.00  0.00     0.049 A 
ATOM     42  N   UNL A   1      38.935  32.575  35.371  1.00  0.00    -0.248 NA
ATOM     43  C   UNL A   1      37.078  33.879  35.926  1.00  0.00     0.031 C 
ATOM     44  C   UNL A   1      37.068  31.640  31.422  1.00  0.00     0.029 A 
ATOM     45  N   UNL A   1      38.728  31.142  32.836  1.00  0.00    -0.354 N 
ATOM     46  C   UNL A   1      39.134  33.152  36.619  1.00  0.00     0.074 A 
ATOM     47  C   UNL A   1      37.973  33.969  36.899  1.00  0.00     0.031 C 
ATOM     48  C   UNL A   1      37.843  30.718  30.827  1.00  0.00     0.029 A 
ATOM     49  C   UNL A   1      38.955  30.384  31.714  1.00  0.00     0.049 A 
ATOM     50  H   UNL A   1      39.311  31.118  33.629  1.00  0.00     0.167 HD
ATOM     51  C   UNL A   1      40.192  33.019  37.452  1.00  0.00     0.037 A 
ATOM     52  C   UNL A   1      39.953  29.527  31.428  1.00  0.00     0.037 A 
ATOM     53  C   UNL A   1      41.309  32.145  37.220  1.00  0.00     0.049 A 
ATOM     54  C   UNL A   1      41.055  29.303  32.425  1.00  0.00     0.074 A 
ATOM     55  C   UNL A   1      42.414  31.923  38.025  1.00  0.00     0.029 A 
ATOM     56  N   UNL A   1      41.444  31.322  36.115  1.00  0.00    -0.354 N 
ATOM     57  N   UNL A   1      41.248  29.881  33.583  1.00  0.00    -0.248 NA
ATOM     58  C   UNL A   1      42.079  28.310  32.069  1.00  0.00     0.031 C 
ATOM     59  C   UNL A   1      43.217  30.957  37.407  1.00  0.00     0.029 A 
ATOM     60  C   UNL A   1      42.605  30.575  36.224  1.00  0.00     0.049 A 
ATOM     61  H   UNL A   1      40.810  31.275  35.364  1.00  0.00     0.167 HD
ATOM     62  C   UNL A   1      42.406  29.319  34.099  1.00  0.00     0.074 A 
ATOM     63  C   UNL A   1      42.870  28.345  33.134  1.00  0.00     0.031 C 
ATOM     64  C   UNL A   1      43.035  29.595  35.266  1.00  0.00     0.037 A 
BRANCH  51  65
ATOM     65  C   UNL A   1      40.196  33.858  38.690  1.00  0.00     0.057 A 
ATOM     66  C   UNL A   1      40.858  35.089  38.746  1.00  0.00     0.134 A 
ATOM     67  C   UNL A   1      39.507  33.434  39.833  1.00  0.00     0.134 A 
ATOM     68  F   UNL A   1      41.549  35.538  37.688  1.00  0.00    -0.206 F 
ATOM     69  C   UNL A   1      40.847  35.866  39.905  1.00  0.00     0.040 A 
ATOM     70  C   UNL A   1      39.475  34.208  40.993  1.00  0.00     0.040 A 
ATOM     71  F   UNL A   1      38.855  32.261  39.839  1.00  0.00    -0.206 F 
ATOM     72  C   UNL A   1      40.149  35.428  41.032  1.00  0.00     0.006 A 
ENDBRANCH  51  65
BRANCH  52  73
ATOM     73  C   UNL A   1      39.952  28.800  30.139  1.00  0.00     0.057 A 
ATOM     74  C   UNL A   1      39.293  27.572  30.012  1.00  0.00     0.134 A 
ATOM     75  C   UNL A   1      40.611  29.307  29.016  1.00  0.00     0.134 A 
ATOM     76  F   UNL A   1      38.664  27.031  31.065  1.00  0.00    -0.206 F 
ATOM     77  C   UNL A   1      39.298  26.866  28.809  1.00  0.00     0.040 A 
ATOM     78  C   UNL A   1      40.614  28.617  27.803  1.00  0.00     0.040 A 
ATOM     79  F   UNL A   1      41.260  30.478  29.082  1.00  0.00    -0.206 F 
ATOM     80  C   UNL A   1      39.958  27.391  27.698  1.00  0.00     0.006 A 
ENDBRANCH  52  73
BRANCH  64  81
ATOM     81  C   UNL A   1      44.271  28.812  35.576  1.00  0.00     0.057 A 
ATOM     82  C   UNL A   1      44.215  27.620  36.306  1.00  0.00     0.134 A 
ATOM     83  C   UNL A   1      45.520  29.234  35.106  1.00  0.00     0.134 A 
ATOM     84  F   UNL A   1      43.045  27.174  36.789  1.00  0.00    -0.206 F 
ATOM     85  C   UNL A   1      45.365  26.872  36.563  1.00  0.00     0.040 A 
ATOM     86  C   UNL A   1      46.675  28.491  35.351  1.00  0.00     0.040 A 
ATOM     87  F   UNL A   1      45.634  30.369  34.401  1.00  0.00    -0.206 F 
ATOM     88  C   UNL A   1      46.598  27.307  36.081  1.00  0.00     0.006 A 
ENDBRANCH  64  81
ENDBRANCH  38  39
ENDBRANCH  30  33
ENDBRANCH  28  29
ENDBRANCH  27  28
ENDBRANCH  26  27
ENDBRANCH  25  26
ENDBRANCH   1  25
TORSDOF 17
ENDMDL
MODEL 3
REMARK VINA RESULT:     -10.9      6.801     12.461
REMARK SMILES O=C(CCC(=O)N1CCN(S(=O)(=O)c2cccs2)CC1)NCCCCCCNC(=O)c1ccc(-c2c3nc(c(-c4c(F)cccc4F)c4ccc([nH]4)c(-c4c(F)cccc4F)c4nc(c(-c5c(F)cccc5F)c5ccc2[nH]5)C=C4)C=C3)cc1
REMARK SMILES IDX 23 1 22 2 21 3 1 4 2 5 3 7 4 8 5 9 6 10 7 11 8 12 20 13 9 14
REMARK SMILES IDX 19 15 10 16 11 17 12 18 13 19 14 20 15 21 18 22 16 23 17 24
REMARK SMILES IDX 24 25 25 26 26 27 27 28 28 29 29 30 30 32 31 33 32 34 84 35
REMARK SMILES IDX 33 36 83 37 34 38 35 39 36 40 77 41 37 42 82 43 76 44 78 45
REMARK SMILES IDX 38 46 81 47 75 48 74 49 39 51 65 52 48 53 64 54 49 55 52 56
REMARK SMILES IDX 63 57 79 58 50 59 51 60 62 62 80 63 53 64 40 65 41 66 46 67
REMARK SMILES IDX 42 68 43 69 45 70 47 71 44 72 66 73 67 74 72 75 68 76 69 77
REMARK SMILES IDX 71 78 73 79 70 80 54 81 55 82 60 83 56 84 57 85 59 86 61 87
REMARK SMILES IDX 58 88
REMARK H PARENT 21 6 28 31 78 50 52 61
REMARK Flexibility Score: inf
ROOT
ATOM      1  C   UNL A   1      40.333  22.375  26.291  1.00  0.00     0.021 C 
ENDROOT
BRANCH   1   2
ATOM      2  C   UNL A   1      38.916  21.843  26.106  1.00  0.00     0.116 C 
BRANCH   2   3
ATOM      3  N   UNL A   1      38.188  22.460  25.020  1.00  0.00    -0.356 N 
ATOM      4  O   UNL A   1      36.815  20.656  24.660  1.00  0.00    -0.275 OA
ATOM      5  C   UNL A   1      37.136  21.815  24.411  1.00  0.00     0.220 C 
ATOM      6  H   UNL A   1      38.450  23.356  24.710  1.00  0.00     0.163 HD
BRANCH   5   7
ATOM      7  C   UNL A   1      36.356  22.672  23.440  1.00  0.00     0.110 C 
BRANCH   7   8
ATOM      8  C   UNL A   1      35.549  23.734  24.179  1.00  0.00     0.110 C 
BRANCH   8   9
ATOM      9  C   UNL A   1      34.069  23.643  23.842  1.00  0.00     0.223 C 
ATOM     10  O   UNL A   1      33.654  22.634  23.263  1.00  0.00    -0.275 OA
ATOM     11  N   UNL A   1      33.217  24.688  24.184  1.00  0.00    -0.340 N 
ATOM     12  C   UNL A   1      31.806  24.543  23.782  1.00  0.00     0.136 C 
ATOM     13  C   UNL A   1      33.689  26.046  24.488  1.00  0.00     0.136 C 
ATOM     14  C   UNL A   1      30.826  25.520  24.463  1.00  0.00     0.124 C 
ATOM     15  C   UNL A   1      32.655  26.940  25.176  1.00  0.00     0.124 C 
ATOM     16  N   UNL A   1      31.345  26.932  24.476  1.00  0.00    -0.194 NA
BRANCH  16  17
ATOM     17  S   UNL A   1      31.217  27.693  22.953  1.00  0.00     0.252 S 
ATOM     18  O   UNL A   1      32.118  28.824  22.960  1.00  0.00    -0.206 OA
ATOM     19  O   UNL A   1      31.349  26.657  21.952  1.00  0.00    -0.206 OA
BRANCH  17  20
ATOM     20  C   UNL A   1      29.620  28.465  22.731  1.00  0.00     0.135 A 
ATOM     21  C   UNL A   1      28.358  28.116  23.184  1.00  0.00     0.033 A 
ATOM     22  S   UNL A   1      29.596  30.003  21.978  1.00  0.00    -0.131 S 
ATOM     23  C   UNL A   1      27.376  29.110  22.904  1.00  0.00     0.013 A 
ATOM     24  C   UNL A   1      27.920  30.198  22.261  1.00  0.00     0.066 A 
ENDBRANCH  17  20
ENDBRANCH  16  17
ENDBRANCH   8   9
ENDBRANCH   7   8
ENDBRANCH   5   7
ENDBRANCH   2   3
ENDBRANCH   1   2
BRANCH   1  25
ATOM     25  C   UNL A   1      41.192  21.691  27.361  1.00  0.00     0.002 C 
BRANCH  25  26
ATOM     26  C   UNL A   1      41.338  20.170  27.266  1.00  0.00     0.002 C 
BRANCH  26  27
ATOM     27  C   UNL A   1      42.019  19.630  26.008  1.00  0.00     0.021 C 
BRANCH  27  28
ATOM     28  C   UNL A   1      43.258  18.775  26.224  1.00  0.00     0.116 C 
BRANCH  28  29
ATOM     29  N   UNL A   1      43.987  18.524  24.996  1.00  0.00    -0.352 N 
ATOM     30  C   UNL A   1      44.648  19.394  24.165  1.00  0.00     0.251 C 
ATOM     31  H   UNL A   1      44.011  17.580  24.713  1.00  0.00     0.163 HD
ATOM     32  O   UNL A   1      45.080  18.986  23.088  1.00  0.00    -0.269 OA
BRANCH  30  33
ATOM     33  C   UNL A   1      44.847  20.818  24.532  1.00  0.00     0.039 A 
ATOM     34  C   UNL A   1      45.543  21.112  25.711  1.00  0.00     0.014 A 
ATOM     35  C   UNL A   1      44.296  21.863  23.783  1.00  0.00     0.014 A 
ATOM     36  C   UNL A   1      45.717  22.440  26.118  1.00  0.00     0.010 A 
ATOM     37  C   UNL A   1      44.524  23.188  24.154  1.00  0.00     0.010 A 
ATOM     38  C   UNL A   1      45.221  23.490  25.335  1.00  0.00    -0.014 A 
BRANCH  38  39
ATOM     39  C   UNL A   1      45.346  24.908  25.759  1.00  0.00     0.031 A 
ATOM     40  C   UNL A   1      46.671  25.608  25.627  1.00  0.00     0.074 A 
ATOM     41  C   UNL A   1      44.306  25.552  26.322  1.00  0.00     0.049 A 
ATOM     42  N   UNL A   1      47.052  26.761  26.115  1.00  0.00    -0.248 NA
ATOM     43  C   UNL A   1      47.717  24.899  24.871  1.00  0.00     0.031 C 
ATOM     44  C   UNL A   1      42.969  24.996  26.530  1.00  0.00     0.029 A 
ATOM     45  N   UNL A   1      44.223  26.823  26.835  1.00  0.00    -0.354 N 
ATOM     46  C   UNL A   1      48.397  26.881  25.789  1.00  0.00     0.074 A 
ATOM     47  C   UNL A   1      48.763  25.693  25.048  1.00  0.00     0.031 C 
ATOM     48  C   UNL A   1      42.195  25.926  27.113  1.00  0.00     0.029 A 
ATOM     49  C   UNL A   1      42.989  27.129  27.350  1.00  0.00     0.049 A 
ATOM     50  H   UNL A   1      44.979  27.455  26.833  1.00  0.00     0.167 HD
ATOM     51  C   UNL A   1      49.252  27.888  26.086  1.00  0.00     0.037 A 
ATOM     52  C   UNL A   1      42.551  28.248  27.957  1.00  0.00     0.037 A 
ATOM     53  C   UNL A   1      48.878  29.108  26.747  1.00  0.00     0.049 A 
ATOM     54  C   UNL A   1      43.489  29.403  28.165  1.00  0.00     0.074 A 
ATOM     55  C   UNL A   1      49.672  30.197  27.064  1.00  0.00     0.029 A 
ATOM     56  N   UNL A   1      47.592  29.413  27.161  1.00  0.00    -0.354 N 
ATOM     57  N   UNL A   1      44.765  29.488  27.883  1.00  0.00    -0.248 NA
ATOM     58  C   UNL A   1      42.925  30.614  28.780  1.00  0.00     0.031 C 
ATOM     59  C   UNL A   1      48.862  31.168  27.665  1.00  0.00     0.029 A 
ATOM     60  C   UNL A   1      47.565  30.682  27.712  1.00  0.00     0.049 A 
ATOM     61  H   UNL A   1      46.814  28.817  27.074  1.00  0.00     0.167 HD
ATOM     62  C   UNL A   1      45.155  30.760  28.277  1.00  0.00     0.074 A 
ATOM     63  C   UNL A   1      43.980  31.418  28.809  1.00  0.00     0.031 C 
ATOM     64  C   UNL A   1      46.383  31.327  28.213  1.00  0.00     0.037 A 
BRANCH  51  65
ATOM     65  C   UNL A   1      50.686  27.698  25.711  1.00  0.00     0.057 A 
ATOM     66  C   UNL A   1      51.149  27.943  24.413  1.00  0.00     0.134 A 
ATOM     67  C   UNL A   1      51.620  27.285  26.668  1.00  0.00     0.134 A 
ATOM     68  F   UNL A   1      50.297  28.323  23.449  1.00  0.00    -0.206 F 
ATOM     69  C   UNL A   1      52.492  27.769  24.077  1.00  0.00     0.040 A 
ATOM     70  C   UNL A   1      52.968  27.122  26.349  1.00  0.00     0.040 A 
ATOM     71  F   UNL A   1      51.235  27.033  27.930  1.00  0.00    -0.206 F 
ATOM     72  C   UNL A   1      53.407  27.362  25.048  1.00  0.00     0.006 A 
ENDBRANCH  51  65
BRANCH  52  73
ATOM     73  C   UNL A   1      41.142  28.341  28.402  1.00  0.00     0.057 A 
ATOM     74  C   UNL A   1      40.767  27.915  29.681  1.00  0.00     0.134 A 
ATOM     75  C   UNL A   1      40.144  28.844  27.563  1.00  0.00     0.134 A 
ATOM     76  F   UNL A   1      41.683  27.403  30.517  1.00  0.00    -0.206 F 
ATOM     77  C   UNL A   1      39.442  27.979  30.109  1.00  0.00     0.040 A 
ATOM     78  C   UNL A   1      38.815  28.925  27.983  1.00  0.00     0.040 A 
ATOM     79  F   UNL A   1      40.446  29.265  26.326  1.00  0.00    -0.206 F 
ATOM     80  C   UNL A   1      38.461  28.489  29.259  1.00  0.00     0.006 A 
ENDBRANCH  52  73
BRANCH  64  81
ATOM     81  C   UNL A   1      46.509  32.736  28.700  1.00  0.00     0.057 A 
ATOM     82  C   UNL A   1      46.879  33.021  30.019  1.00  0.00     0.134 A 
ATOM     83  C   UNL A   1      46.300  33.812  27.832  1.00  0.00     0.134 A 
ATOM     84  F   UNL A   1      47.083  32.027  30.897  1.00  0.00    -0.206 F 
ATOM     85  C   UNL A   1      47.031  34.335  30.462  1.00  0.00     0.040 A 
ATOM     86  C   UNL A   1      46.457  35.131  28.260  1.00  0.00     0.040 A 
ATOM     87  F   UNL A   1      45.944  33.599  26.556  1.00  0.00    -0.206 F 
ATOM     88  C   UNL A   1      46.824  35.394  29.579  1.00  0.00     0.006 A 
ENDBRANCH  64  81
ENDBRANCH  38  39
ENDBRANCH  30  33
ENDBRANCH  28  29
ENDBRANCH  27  28
ENDBRANCH  26  27
ENDBRANCH  25  26
ENDBRANCH   1  25
TORSDOF 17
ENDMDL
