MODEL 1
REMARK VINA RESULT:      -9.0      0.000      0.000
REMARK SMILES CC1CC[NH+]([C@H](c2ccc(F)cc2)c2ccc([C@@H](C)C(=O)NCCCCCCNC(=O)c3ccc(-c4c5nc(c(-c6c(F)cccc6F)c6ccc([nH]6)c(-c6c(F)cccc6F)c6nc(c(-c7c(F)cccc7F)c7ccc4[nH]7)C=C6)C=C5)cc3)cc2-c2ccc(C(F)(F)F)cc2)CC1
REMARK SMILES IDX 25 1 24 2 23 3 22 4 20 5 21 6 18 8 19 9 17 10 14 11 15 12
REMARK SMILES IDX 87 13 16 14 86 15 6 16 5 17 1 18 2 19 3 20 99 21 4 22 98 23
REMARK SMILES IDX 7 25 8 26 13 27 9 28 12 29 10 30 11 31 88 32 89 33 97 34
REMARK SMILES IDX 90 35 96 36 91 37 92 38 93 39 94 40 95 41 26 42 27 43 28 44
REMARK SMILES IDX 29 45 30 46 31 48 32 49 33 50 85 51 34 52 84 53 35 54 36 55
REMARK SMILES IDX 37 56 78 57 38 58 83 59 77 60 79 61 39 62 82 63 76 64 75 65
REMARK SMILES IDX 40 67 66 68 49 69 65 70 50 71 53 72 64 73 80 74 51 75 52 76
REMARK SMILES IDX 63 78 81 79 54 80 41 81 42 82 47 83 43 84 44 85 46 86 48 87
REMARK SMILES IDX 45 88 67 89 68 90 73 91 69 92 70 93 72 94 74 95 71 96 55 97
REMARK SMILES IDX 56 98 61 99 57 100 58 101 60 102 62 103 59 104
REMARK H PARENT 22 7 5 24 29 47 79 66 53 77
REMARK Flexibility Score: inf
ROOT
ATOM      1  C   UNL A   1      49.582  26.142  30.899  1.00  0.00     0.002 C 
ENDROOT
BRANCH   1   2
ATOM      2  C   UNL A   1      50.882  26.778  30.403  1.00  0.00     0.021 C 
BRANCH   2   3
ATOM      3  C   UNL A   1      50.823  27.264  28.948  1.00  0.00     0.116 C 
BRANCH   3   4
ATOM      4  N   UNL A   1      51.325  26.264  28.028  1.00  0.00    -0.356 N 
ATOM      5  C   UNL A   1      50.830  25.730  26.878  1.00  0.00     0.227 C 
ATOM      6  O   UNL A   1      51.503  24.823  26.372  1.00  0.00    -0.274 OA
ATOM      7  H   UNL A   1      52.201  25.897  28.286  1.00  0.00     0.163 HD
BRANCH   5   8
ATOM      8  C   UNL A   1      49.528  26.184  26.190  1.00  0.00     0.105 C 
ATOM      9  C   UNL A   1      49.637  27.535  25.486  1.00  0.00     0.023 C 
BRANCH   8  10
ATOM     10  C   UNL A   1      48.297  26.002  27.060  1.00  0.00    -0.035 A 
ATOM     11  C   UNL A   1      45.770  25.566  28.343  1.00  0.00     0.022 A 
ATOM     12  C   UNL A   1      46.715  24.547  28.153  1.00  0.00     0.011 A 
ATOM     13  C   UNL A   1      46.189  26.883  28.002  1.00  0.00    -0.009 A 
ATOM     14  C   UNL A   1      47.978  24.782  27.625  1.00  0.00     0.005 A 
ATOM     15  C   UNL A   1      47.406  27.057  27.292  1.00  0.00     0.013 A 
BRANCH  11  16
ATOM     16  C   UNL A   1      44.377  25.254  28.965  1.00  0.00     0.247 C 
BRANCH  16  17
ATOM     17  N   UNL A   1      44.307  24.978  30.440  1.00  0.00    -0.325 N 
ATOM     18  C   UNL A   1      45.634  23.413  34.312  1.00  0.00     0.008 C 
ATOM     19  C   UNL A   1      45.489  23.811  32.852  1.00  0.00    -0.003 C 
ATOM     20  C   UNL A   1      45.464  25.329  32.692  1.00  0.00     0.065 C 
ATOM     21  C   UNL A   1      44.193  23.261  32.281  1.00  0.00     0.065 C 
ATOM     22  C   UNL A   1      45.244  25.775  31.241  1.00  0.00     0.263 C 
ATOM     23  C   UNL A   1      44.104  23.575  30.794  1.00  0.00     0.263 C 
ATOM     24  H   UNL A   1      43.416  25.360  30.757  1.00  0.00     0.348 HD
ENDBRANCH  16  17
BRANCH  16  25
ATOM     25  C   UNL A   1      43.583  24.184  28.187  1.00  0.00     0.014 A 
ATOM     26  C   UNL A   1      42.480  23.513  28.753  1.00  0.00     0.013 A 
ATOM     27  C   UNL A   1      43.958  23.858  26.870  1.00  0.00     0.013 A 
ATOM     28  C   UNL A   1      41.765  22.566  28.018  1.00  0.00     0.040 A 
ATOM     29  C   UNL A   1      43.266  22.880  26.152  1.00  0.00     0.040 A 
ATOM     30  C   UNL A   1      42.171  22.252  26.729  1.00  0.00     0.123 A 
ATOM     31  F   UNL A   1      41.495  21.330  26.031  1.00  0.00    -0.207 F 
ENDBRANCH  16  25
ENDBRANCH  11  16
BRANCH  13  32
ATOM     32  C   UNL A   1      45.457  28.102  28.401  1.00  0.00    -0.018 A 
ATOM     33  C   UNL A   1      44.537  28.722  27.545  1.00  0.00     0.009 A 
ATOM     34  C   UNL A   1      45.710  28.704  29.647  1.00  0.00     0.009 A 
ATOM     35  C   UNL A   1      43.863  29.884  27.934  1.00  0.00     0.014 A 
ATOM     36  C   UNL A   1      45.029  29.856  30.046  1.00  0.00     0.014 A 
ATOM     37  C   UNL A   1      44.091  30.455  29.196  1.00  0.00     0.056 A 
BRANCH  37  38
ATOM     38  C   UNL A   1      43.351  31.702  29.611  1.00  0.00     0.416 C 
ATOM     39  F   UNL A   1      43.696  32.785  28.861  1.00  0.00    -0.166 F 
ATOM     40  F   UNL A   1      42.000  31.577  29.491  1.00  0.00    -0.166 F 
ATOM     41  F   UNL A   1      43.576  32.059  30.907  1.00  0.00    -0.166 F 
ENDBRANCH  37  38
ENDBRANCH  13  32
ENDBRANCH   8  10
ENDBRANCH   5   8
ENDBRANCH   3   4
ENDBRANCH   2   3
ENDBRANCH   1   2
BRANCH   1  42
ATOM     42  C   UNL A   1      49.771  24.971  31.870  1.00  0.00     0.002 C 
BRANCH  42  43
ATOM     43  C   UNL A   1      49.075  25.132  33.225  1.00  0.00     0.021 C 
BRANCH  43  44
ATOM     44  C   UNL A   1      48.521  26.530  33.478  1.00  0.00     0.116 C 
BRANCH  44  45
ATOM     45  N   UNL A   1      48.539  26.859  34.898  1.00  0.00    -0.352 N 
ATOM     46  C   UNL A   1      47.678  27.658  35.615  1.00  0.00     0.251 C 
ATOM     47  H   UNL A   1      49.269  26.452  35.418  1.00  0.00     0.163 HD
ATOM     48  O   UNL A   1      47.971  28.055  36.734  1.00  0.00    -0.269 OA
BRANCH  46  49
ATOM     49  C   UNL A   1      46.381  28.022  35.012  1.00  0.00     0.039 A 
ATOM     50  C   UNL A   1      45.197  27.440  35.468  1.00  0.00     0.014 A 
ATOM     51  C   UNL A   1      46.354  28.969  33.992  1.00  0.00     0.014 A 
ATOM     52  C   UNL A   1      43.973  27.879  34.951  1.00  0.00     0.010 A 
ATOM     53  C   UNL A   1      45.138  29.462  33.541  1.00  0.00     0.010 A 
ATOM     54  C   UNL A   1      43.932  28.927  34.016  1.00  0.00    -0.014 A 
BRANCH  54  55
ATOM     55  C   UNL A   1      42.662  29.509  33.511  1.00  0.00     0.031 A 
ATOM     56  C   UNL A   1      42.053  28.983  32.240  1.00  0.00     0.074 A 
ATOM     57  C   UNL A   1      42.130  30.590  34.116  1.00  0.00     0.049 A 
ATOM     58  N   UNL A   1      41.060  29.465  31.537  1.00  0.00    -0.248 NA
ATOM     59  C   UNL A   1      42.669  27.779  31.658  1.00  0.00     0.031 C 
ATOM     60  C   UNL A   1      42.654  31.227  35.324  1.00  0.00     0.029 A 
ATOM     61  N   UNL A   1      41.045  31.360  33.779  1.00  0.00    -0.354 N 
ATOM     62  C   UNL A   1      40.951  28.641  30.425  1.00  0.00     0.074 A 
ATOM     63  C   UNL A   1      42.015  27.665  30.513  1.00  0.00     0.031 C 
ATOM     64  C   UNL A   1      41.878  32.275  35.640  1.00  0.00     0.029 A 
ATOM     65  C   UNL A   1      40.835  32.420  34.628  1.00  0.00     0.049 A 
ATOM     66  H   UNL A   1      40.470  31.171  33.002  1.00  0.00     0.167 HD
ATOM     67  C   UNL A   1      40.032  28.678  29.432  1.00  0.00     0.037 A 
ATOM     68  C   UNL A   1      39.920  33.409  34.589  1.00  0.00     0.037 A 
ATOM     69  C   UNL A   1      38.953  29.627  29.372  1.00  0.00     0.049 A 
ATOM     70  C   UNL A   1      38.915  33.441  33.473  1.00  0.00     0.074 A 
ATOM     71  C   UNL A   1      37.924  29.697  28.450  1.00  0.00     0.029 A 
ATOM     72  N   UNL A   1      38.763  30.669  30.267  1.00  0.00    -0.354 N 
ATOM     73  N   UNL A   1      38.785  32.618  32.459  1.00  0.00    -0.248 NA
ATOM     74  C   UNL A   1      37.930  34.533  33.487  1.00  0.00     0.031 C 
ATOM     75  C   UNL A   1      37.147  30.816  28.751  1.00  0.00     0.029 A 
ATOM     76  C   UNL A   1      37.652  31.406  29.899  1.00  0.00     0.049 A 
ATOM     77  H   UNL A   1      39.334  30.856  31.047  1.00  0.00     0.167 HD
ATOM     78  C   UNL A   1      37.693  33.076  31.734  1.00  0.00     0.074 A 
ATOM     79  C   UNL A   1      37.193  34.247  32.422  1.00  0.00     0.031 C 
ATOM     80  C   UNL A   1      37.155  32.564  30.600  1.00  0.00     0.037 A 
BRANCH  67  81
ATOM     81  C   UNL A   1      40.138  27.657  28.337  1.00  0.00     0.057 A 
ATOM     82  C   UNL A   1      39.610  26.370  28.505  1.00  0.00     0.134 A 
ATOM     83  C   UNL A   1      40.821  27.921  27.142  1.00  0.00     0.134 A 
ATOM     84  F   UNL A   1      38.952  26.045  29.628  1.00  0.00    -0.206 F 
ATOM     85  C   UNL A   1      39.764  25.383  27.530  1.00  0.00     0.040 A 
ATOM     86  C   UNL A   1      40.954  26.952  26.147  1.00  0.00     0.040 A 
ATOM     87  F   UNL A   1      41.344  29.135  26.913  1.00  0.00    -0.206 F 
ATOM     88  C   UNL A   1      40.434  25.675  26.344  1.00  0.00     0.006 A 
ENDBRANCH  67  81
BRANCH  68  89
ATOM     89  C   UNL A   1      39.906  34.429  35.669  1.00  0.00     0.057 A 
ATOM     90  C   UNL A   1      40.622  35.627  35.560  1.00  0.00     0.134 A 
ATOM     91  C   UNL A   1      39.212  34.200  36.862  1.00  0.00     0.134 A 
ATOM     92  F   UNL A   1      41.315  35.903  34.445  1.00  0.00    -0.206 F 
ATOM     93  C   UNL A   1      40.670  36.548  36.608  1.00  0.00     0.040 A 
ATOM     94  C   UNL A   1      39.233  35.122  37.909  1.00  0.00     0.040 A 
ATOM     95  F   UNL A   1      38.494  33.078  37.020  1.00  0.00    -0.206 F 
ATOM     96  C   UNL A   1      39.973  36.297  37.787  1.00  0.00     0.006 A 
ENDBRANCH  68  89
BRANCH  80  97
ATOM     97  C   UNL A   1      35.942  33.233  30.025  1.00  0.00     0.057 A 
ATOM     98  C   UNL A   1      36.060  34.083  28.916  1.00  0.00     0.134 A 
ATOM     99  C   UNL A   1      34.692  33.153  30.650  1.00  0.00     0.134 A 
ATOM    100  F   UNL A   1      37.234  34.213  28.281  1.00  0.00    -0.206 F 
ATOM    101  C   UNL A   1      34.987  34.856  28.471  1.00  0.00     0.040 A 
ATOM    102  C   UNL A   1      33.604  33.902  30.197  1.00  0.00     0.040 A 
ATOM    103  F   UNL A   1      34.512  32.353  31.710  1.00  0.00    -0.206 F 
ATOM    104  C   UNL A   1      33.756  34.769  29.116  1.00  0.00     0.006 A 
ENDBRANCH  80  97
ENDBRANCH  54  55
ENDBRANCH  46  49
ENDBRANCH  44  45
ENDBRANCH  43  44
ENDBRANCH  42  43
ENDBRANCH   1  42
TORSDOF 19
ENDMDL
MODEL 2
REMARK VINA RESULT:      -8.4      4.841      9.430
REMARK SMILES CC1CC[NH+]([C@H](c2ccc(F)cc2)c2ccc([C@@H](C)C(=O)NCCCCCCNC(=O)c3ccc(-c4c5nc(c(-c6c(F)cccc6F)c6ccc([nH]6)c(-c6c(F)cccc6F)c6nc(c(-c7c(F)cccc7F)c7ccc4[nH]7)C=C6)C=C5)cc3)cc2-c2ccc(C(F)(F)F)cc2)CC1
REMARK SMILES IDX 25 1 24 2 23 3 22 4 20 5 21 6 18 8 19 9 17 10 14 11 15 12
REMARK SMILES IDX 87 13 16 14 86 15 6 16 5 17 1 18 2 19 3 20 99 21 4 22 98 23
REMARK SMILES IDX 7 25 8 26 13 27 9 28 12 29 10 30 11 31 88 32 89 33 97 34
REMARK SMILES IDX 90 35 96 36 91 37 92 38 93 39 94 40 95 41 26 42 27 43 28 44
REMARK SMILES IDX 29 45 30 46 31 48 32 49 33 50 85 51 34 52 84 53 35 54 36 55
REMARK SMILES IDX 37 56 78 57 38 58 83 59 77 60 79 61 39 62 82 63 76 64 75 65
REMARK SMILES IDX 40 67 66 68 49 69 65 70 50 71 53 72 64 73 80 74 51 75 52 76
REMARK SMILES IDX 63 78 81 79 54 80 41 81 42 82 47 83 43 84 44 85 46 86 48 87
REMARK SMILES IDX 45 88 67 89 68 90 73 91 69 92 70 93 72 94 74 95 71 96 55 97
REMARK SMILES IDX 56 98 61 99 57 100 58 101 60 102 62 103 59 104
REMARK H PARENT 22 7 5 24 29 47 79 66 53 77
REMARK Flexibility Score: inf
ROOT
ATOM      1  C   UNL A   1      35.808  30.847  29.402  1.00  0.00     0.002 C 
ENDROOT
BRANCH   1   2
ATOM      2  C   UNL A   1      36.653  30.908  28.128  1.00  0.00     0.021 C 
BRANCH   2   3
ATOM      3  C   UNL A   1      37.212  29.549  27.686  1.00  0.00     0.116 C 
BRANCH   3   4
ATOM      4  N   UNL A   1      38.617  29.632  27.346  1.00  0.00    -0.356 N 
ATOM      5  C   UNL A   1      39.670  28.790  27.538  1.00  0.00     0.227 C 
ATOM      6  O   UNL A   1      40.774  29.217  27.176  1.00  0.00    -0.274 OA
ATOM      7  H   UNL A   1      38.861  30.465  26.882  1.00  0.00     0.163 HD
BRANCH   5   8
ATOM      8  C   UNL A   1      39.564  27.379  28.149  1.00  0.00     0.105 C 
ATOM      9  C   UNL A   1      38.999  27.360  29.568  1.00  0.00     0.023 C 
BRANCH   8  10
ATOM     10  C   UNL A   1      40.810  26.539  27.935  1.00  0.00    -0.035 A 
ATOM     11  C   UNL A   1      42.924  24.623  27.647  1.00  0.00     0.022 A 
ATOM     12  C   UNL A   1      42.058  24.966  26.598  1.00  0.00     0.011 A 
ATOM     13  C   UNL A   1      42.804  25.392  28.838  1.00  0.00    -0.009 A 
ATOM     14  C   UNL A   1      41.102  25.968  26.710  1.00  0.00     0.005 A 
ATOM     15  C   UNL A   1      41.698  26.270  28.984  1.00  0.00     0.013 A 
BRANCH  11  16
ATOM     16  C   UNL A   1      43.997  23.511  27.460  1.00  0.00     0.247 C 
BRANCH  16  17
ATOM     17  N   UNL A   1      45.225  23.840  26.659  1.00  0.00    -0.325 N 
ATOM     18  C   UNL A   1      48.469  26.344  25.107  1.00  0.00     0.008 C 
ATOM     19  C   UNL A   1      47.253  25.781  25.825  1.00  0.00    -0.003 C 
ATOM     20  C   UNL A   1      47.645  24.656  26.779  1.00  0.00     0.065 C 
ATOM     21  C   UNL A   1      46.261  25.218  24.822  1.00  0.00     0.065 C 
ATOM     22  C   UNL A   1      46.437  24.009  27.469  1.00  0.00     0.263 C 
ATOM     23  C   UNL A   1      45.002  24.750  25.538  1.00  0.00     0.263 C 
ATOM     24  H   UNL A   1      45.460  22.993  26.142  1.00  0.00     0.348 HD
ENDBRANCH  16  17
BRANCH  16  25
ATOM     25  C   UNL A   1      43.408  22.162  26.998  1.00  0.00     0.014 A 
ATOM     26  C   UNL A   1      43.945  21.447  25.908  1.00  0.00     0.013 A 
ATOM     27  C   UNL A   1      42.303  21.614  27.676  1.00  0.00     0.013 A 
ATOM     28  C   UNL A   1      43.408  20.216  25.526  1.00  0.00     0.040 A 
ATOM     29  C   UNL A   1      41.742  20.403  27.266  1.00  0.00     0.040 A 
ATOM     30  C   UNL A   1      42.306  19.711  26.202  1.00  0.00     0.123 A 
ATOM     31  F   UNL A   1      41.780  18.540  25.823  1.00  0.00    -0.207 F 
ENDBRANCH  16  25
ENDBRANCH  11  16
BRANCH  13  32
ATOM     32  C   UNL A   1      43.806  25.379  29.923  1.00  0.00    -0.018 A 
ATOM     33  C   UNL A   1      44.821  26.343  29.998  1.00  0.00     0.009 A 
ATOM     34  C   UNL A   1      43.793  24.356  30.887  1.00  0.00     0.009 A 
ATOM     35  C   UNL A   1      45.771  26.308  31.024  1.00  0.00     0.014 A 
ATOM     36  C   UNL A   1      44.731  24.326  31.923  1.00  0.00     0.014 A 
ATOM     37  C   UNL A   1      45.726  25.307  32.007  1.00  0.00     0.056 A 
BRANCH  37  38
ATOM     38  C   UNL A   1      46.748  25.285  33.116  1.00  0.00     0.416 C 
ATOM     39  F   UNL A   1      46.652  26.370  33.933  1.00  0.00    -0.166 F 
ATOM     40  F   UNL A   1      46.625  24.195  33.923  1.00  0.00    -0.166 F 
ATOM     41  F   UNL A   1      48.035  25.268  32.666  1.00  0.00    -0.166 F 
ENDBRANCH  37  38
ENDBRANCH  13  32
ENDBRANCH   8  10
ENDBRANCH   5   8
ENDBRANCH   3   4
ENDBRANCH   2   3
ENDBRANCH   1   2
BRANCH   1  42
ATOM     42  C   UNL A   1      36.095  31.961  30.416  1.00  0.00     0.002 C 
BRANCH  42  43
ATOM     43  C   UNL A   1      35.558  31.709  31.828  1.00  0.00     0.021 C 
BRANCH  43  44
ATOM     44  C   UNL A   1      36.624  31.763  32.918  1.00  0.00     0.116 C 
BRANCH  44  45
ATOM     45  N   UNL A   1      37.099  30.429  33.262  1.00  0.00    -0.352 N 
ATOM     46  C   UNL A   1      38.230  29.774  32.834  1.00  0.00     0.251 C 
ATOM     47  H   UNL A   1      36.531  29.926  33.889  1.00  0.00     0.163 HD
ATOM     48  O   UNL A   1      38.359  28.567  32.994  1.00  0.00    -0.269 OA
BRANCH  46  49
ATOM     49  C   UNL A   1      39.300  30.556  32.184  1.00  0.00     0.039 A 
ATOM     50  C   UNL A   1      40.258  31.223  32.949  1.00  0.00     0.014 A 
ATOM     51  C   UNL A   1      39.350  30.605  30.793  1.00  0.00     0.014 A 
ATOM     52  C   UNL A   1      41.319  31.871  32.307  1.00  0.00     0.010 A 
ATOM     53  C   UNL A   1      40.446  31.174  30.162  1.00  0.00     0.010 A 
ATOM     54  C   UNL A   1      41.446  31.811  30.909  1.00  0.00    -0.014 A 
BRANCH  54  55
ATOM     55  C   UNL A   1      42.606  32.386  30.180  1.00  0.00     0.031 A 
ATOM     56  C   UNL A   1      43.882  31.598  30.068  1.00  0.00     0.074 A 
ATOM     57  C   UNL A   1      42.559  33.658  29.737  1.00  0.00     0.049 A 
ATOM     58  N   UNL A   1      45.058  31.983  29.639  1.00  0.00    -0.248 NA
ATOM     59  C   UNL A   1      43.845  30.205  30.544  1.00  0.00     0.031 C 
ATOM     60  C   UNL A   1      41.398  34.545  29.830  1.00  0.00     0.029 A 
ATOM     61  N   UNL A   1      43.523  34.435  29.143  1.00  0.00    -0.354 N 
ATOM     62  C   UNL A   1      45.898  30.891  29.815  1.00  0.00     0.074 A 
ATOM     63  C   UNL A   1      45.117  29.850  30.445  1.00  0.00     0.031 C 
ATOM     64  C   UNL A   1      41.710  35.734  29.293  1.00  0.00     0.029 A 
ATOM     65  C   UNL A   1      43.106  35.716  28.867  1.00  0.00     0.049 A 
ATOM     66  H   UNL A   1      44.427  34.106  28.934  1.00  0.00     0.167 HD
ATOM     67  C   UNL A   1      47.198  30.760  29.460  1.00  0.00     0.037 A 
ATOM     68  C   UNL A   1      43.776  36.763  28.348  1.00  0.00     0.037 A 
ATOM     69  C   UNL A   1      47.957  31.786  28.798  1.00  0.00     0.049 A 
ATOM     70  C   UNL A   1      45.222  36.602  27.971  1.00  0.00     0.074 A 
ATOM     71  C   UNL A   1      49.256  31.722  28.327  1.00  0.00     0.029 A 
ATOM     72  N   UNL A   1      47.489  33.060  28.515  1.00  0.00    -0.354 N 
ATOM     73  N   UNL A   1      45.989  35.545  28.086  1.00  0.00    -0.248 NA
ATOM     74  C   UNL A   1      45.900  37.774  27.395  1.00  0.00     0.031 C 
ATOM     75  C   UNL A   1      49.594  32.974  27.813  1.00  0.00     0.029 A 
ATOM     76  C   UNL A   1      48.485  33.801  27.904  1.00  0.00     0.049 A 
ATOM     77  H   UNL A   1      46.583  33.389  28.718  1.00  0.00     0.167 HD
ATOM     78  C   UNL A   1      47.226  35.913  27.575  1.00  0.00     0.074 A 
ATOM     79  C   UNL A   1      47.110  37.290  27.145  1.00  0.00     0.031 C 
ATOM     80  C   UNL A   1      48.354  35.169  27.469  1.00  0.00     0.037 A 
BRANCH  67  81
ATOM     81  C   UNL A   1      47.881  29.458  29.764  1.00  0.00     0.057 A 
ATOM     82  C   UNL A   1      48.513  29.253  30.998  1.00  0.00     0.134 A 
ATOM     83  C   UNL A   1      47.974  28.432  28.815  1.00  0.00     0.134 A 
ATOM     84  F   UNL A   1      48.472  30.197  31.950  1.00  0.00    -0.206 F 
ATOM     85  C   UNL A   1      49.218  28.080  31.271  1.00  0.00     0.040 A 
ATOM     86  C   UNL A   1      48.649  27.242  29.088  1.00  0.00     0.040 A 
ATOM     87  F   UNL A   1      47.384  28.560  27.616  1.00  0.00    -0.206 F 
ATOM     88  C   UNL A   1      49.283  27.068  30.317  1.00  0.00     0.006 A 
ENDBRANCH  67  81
BRANCH  68  89
ATOM     89  C   UNL A   1      43.061  38.047  28.130  1.00  0.00     0.057 A 
ATOM     90  C   UNL A   1      43.079  39.072  29.085  1.00  0.00     0.134 A 
ATOM     91  C   UNL A   1      42.296  38.255  26.977  1.00  0.00     0.134 A 
ATOM     92  F   UNL A   1      43.786  38.930  30.216  1.00  0.00    -0.206 F 
ATOM     93  C   UNL A   1      42.342  40.245  28.912  1.00  0.00     0.040 A 
ATOM     94  C   UNL A   1      41.573  39.433  26.781  1.00  0.00     0.040 A 
ATOM     95  F   UNL A   1      42.253  37.318  26.019  1.00  0.00    -0.206 F 
ATOM     96  C   UNL A   1      41.587  40.428  27.757  1.00  0.00     0.006 A 
ENDBRANCH  68  89
BRANCH  80  97
ATOM     97  C   UNL A   1      49.563  35.798  26.842  1.00  0.00     0.057 A 
ATOM     98  C   UNL A   1      50.456  36.548  27.620  1.00  0.00     0.134 A 
ATOM     99  C   UNL A   1      49.764  35.784  25.457  1.00  0.00     0.134 A 
ATOM    100  F   UNL A   1      50.309  36.612  28.952  1.00  0.00    -0.206 F 
ATOM    101  C   UNL A   1      51.485  37.290  27.040  1.00  0.00     0.040 A 
ATOM    102  C   UNL A   1      50.807  36.502  24.867  1.00  0.00     0.040 A 
ATOM    103  F   UNL A   1      48.950  35.080  24.659  1.00  0.00    -0.206 F 
ATOM    104  C   UNL A   1      51.659  37.271  25.659  1.00  0.00     0.006 A 
ENDBRANCH  80  97
ENDBRANCH  54  55
ENDBRANCH  46  49
ENDBRANCH  44  45
ENDBRANCH  43  44
ENDBRANCH  42  43
ENDBRANCH   1  42
TORSDOF 19
ENDMDL
MODEL 3
REMARK VINA RESULT:      -8.4      1.202      5.886
REMARK SMILES CC1CC[NH+]([C@H](c2ccc(F)cc2)c2ccc([C@@H](C)C(=O)NCCCCCCNC(=O)c3ccc(-c4c5nc(c(-c6c(F)cccc6F)c6ccc([nH]6)c(-c6c(F)cccc6F)c6nc(c(-c7c(F)cccc7F)c7ccc4[nH]7)C=C6)C=C5)cc3)cc2-c2ccc(C(F)(F)F)cc2)CC1
REMARK SMILES IDX 25 1 24 2 23 3 22 4 20 5 21 6 18 8 19 9 17 10 14 11 15 12
REMARK SMILES IDX 87 13 16 14 86 15 6 16 5 17 1 18 2 19 3 20 99 21 4 22 98 23
REMARK SMILES IDX 7 25 8 26 13 27 9 28 12 29 10 30 11 31 88 32 89 33 97 34
REMARK SMILES IDX 90 35 96 36 91 37 92 38 93 39 94 40 95 41 26 42 27 43 28 44
REMARK SMILES IDX 29 45 30 46 31 48 32 49 33 50 85 51 34 52 84 53 35 54 36 55
REMARK SMILES IDX 37 56 78 57 38 58 83 59 77 60 79 61 39 62 82 63 76 64 75 65
REMARK SMILES IDX 40 67 66 68 49 69 65 70 50 71 53 72 64 73 80 74 51 75 52 76
REMARK SMILES IDX 63 78 81 79 54 80 41 81 42 82 47 83 43 84 44 85 46 86 48 87
REMARK SMILES IDX 45 88 67 89 68 90 73 91 69 92 70 93 72 94 74 95 71 96 55 97
REMARK SMILES IDX 56 98 61 99 57 100 58 101 60 102 62 103 59 104
REMARK H PARENT 22 7 5 24 29 47 79 66 53 77
REMARK Flexibility Score: inf
ROOT
ATOM      1  C   UNL A   1      50.961  27.415  32.165  1.00  0.00     0.002 C 
ENDROOT
BRANCH   1   2
ATOM      2  C   UNL A   1      52.366  28.021  32.174  1.00  0.00     0.021 C 
BRANCH   2   3
ATOM      3  C   UNL A   1      52.785  28.642  30.834  1.00  0.00     0.116 C 
BRANCH   3   4
ATOM      4  N   UNL A   1      53.092  27.629  29.846  1.00  0.00    -0.356 N 
ATOM      5  C   UNL A   1      52.512  27.279  28.665  1.00  0.00     0.227 C 
ATOM      6  O   UNL A   1      53.002  26.295  28.095  1.00  0.00    -0.274 OA
ATOM      7  H   UNL A   1      53.879  27.083  30.073  1.00  0.00     0.163 HD
BRANCH   5   8
ATOM      8  C   UNL A   1      51.326  28.020  28.016  1.00  0.00     0.105 C 
ATOM      9  C   UNL A   1      51.480  29.540  28.000  1.00  0.00     0.023 C 
BRANCH   8  10
ATOM     10  C   UNL A   1      49.975  27.509  28.481  1.00  0.00    -0.035 A 
ATOM     11  C   UNL A   1      47.352  26.451  28.952  1.00  0.00     0.022 A 
ATOM     12  C   UNL A   1      48.511  25.663  28.997  1.00  0.00     0.011 A 
ATOM     13  C   UNL A   1      47.550  27.853  28.810  1.00  0.00    -0.009 A 
ATOM     14  C   UNL A   1      49.787  26.196  28.871  1.00  0.00     0.005 A 
ATOM     15  C   UNL A   1      48.846  28.338  28.494  1.00  0.00     0.013 A 
BRANCH  11  16
ATOM     16  C   UNL A   1      45.945  25.807  29.126  1.00  0.00     0.247 C 
BRANCH  16  17
ATOM     17  N   UNL A   1      45.689  24.989  30.361  1.00  0.00    -0.325 N 
ATOM     18  C   UNL A   1      43.748  23.889  34.131  1.00  0.00     0.008 C 
ATOM     19  C   UNL A   1      44.180  24.545  32.831  1.00  0.00    -0.003 C 
ATOM     20  C   UNL A   1      43.953  23.618  31.640  1.00  0.00     0.065 C 
ATOM     21  C   UNL A   1      45.659  24.890  32.878  1.00  0.00     0.065 C 
ATOM     22  C   UNL A   1      44.445  24.213  30.315  1.00  0.00     0.263 C 
ATOM     23  C   UNL A   1      46.062  25.639  31.616  1.00  0.00     0.263 C 
ATOM     24  H   UNL A   1      46.381  24.239  30.350  1.00  0.00     0.348 HD
ENDBRANCH  16  17
BRANCH  16  25
ATOM     25  C   UNL A   1      45.459  25.046  27.875  1.00  0.00     0.014 A 
ATOM     26  C   UNL A   1      45.902  23.741  27.576  1.00  0.00     0.013 A 
ATOM     27  C   UNL A   1      44.544  25.658  26.998  1.00  0.00     0.013 A 
ATOM     28  C   UNL A   1      45.427  23.066  26.450  1.00  0.00     0.040 A 
ATOM     29  C   UNL A   1      44.103  24.996  25.850  1.00  0.00     0.040 A 
ATOM     30  C   UNL A   1      44.540  23.704  25.593  1.00  0.00     0.123 A 
ATOM     31  F   UNL A   1      44.101  23.062  24.503  1.00  0.00    -0.207 F 
ENDBRANCH  16  25
ENDBRANCH  11  16
BRANCH  13  32
ATOM     32  C   UNL A   1      46.489  28.855  29.036  1.00  0.00    -0.018 A 
ATOM     33  C   UNL A   1      46.340  29.503  30.271  1.00  0.00     0.009 A 
ATOM     34  C   UNL A   1      45.561  29.147  28.021  1.00  0.00     0.009 A 
ATOM     35  C   UNL A   1      45.320  30.439  30.472  1.00  0.00     0.014 A 
ATOM     36  C   UNL A   1      44.551  30.092  28.212  1.00  0.00     0.014 A 
ATOM     37  C   UNL A   1      44.424  30.755  29.439  1.00  0.00     0.056 A 
BRANCH  37  38
ATOM     38  C   UNL A   1      43.335  31.774  29.663  1.00  0.00     0.416 C 
ATOM     39  F   UNL A   1      43.168  32.076  30.980  1.00  0.00    -0.166 F 
ATOM     40  F   UNL A   1      43.584  32.957  29.036  1.00  0.00    -0.166 F 
ATOM     41  F   UNL A   1      42.113  31.368  29.215  1.00  0.00    -0.166 F 
ENDBRANCH  37  38
ENDBRANCH  13  32
ENDBRANCH   8  10
ENDBRANCH   5   8
ENDBRANCH   3   4
ENDBRANCH   2   3
ENDBRANCH   1   2
BRANCH   1  42
ATOM     42  C   UNL A   1      50.862  26.019  32.791  1.00  0.00     0.002 C 
BRANCH  42  43
ATOM     43  C   UNL A   1      49.445  25.573  33.163  1.00  0.00     0.021 C 
BRANCH  43  44
ATOM     44  C   UNL A   1      48.647  26.617  33.937  1.00  0.00     0.116 C 
BRANCH  44  45
ATOM     45  N   UNL A   1      48.210  26.101  35.229  1.00  0.00    -0.352 N 
ATOM     46  C   UNL A   1      47.166  26.518  36.022  1.00  0.00     0.251 C 
ATOM     47  H   UNL A   1      48.736  25.349  35.584  1.00  0.00     0.163 HD
ATOM     48  O   UNL A   1      47.086  26.172  37.193  1.00  0.00    -0.269 OA
BRANCH  46  49
ATOM     49  C   UNL A   1      46.129  27.387  35.431  1.00  0.00     0.039 A 
ATOM     50  C   UNL A   1      46.482  28.441  34.589  1.00  0.00     0.014 A 
ATOM     51  C   UNL A   1      44.791  27.127  35.714  1.00  0.00     0.014 A 
ATOM     52  C   UNL A   1      45.476  29.184  33.961  1.00  0.00     0.010 A 
ATOM     53  C   UNL A   1      43.796  27.808  35.027  1.00  0.00     0.010 A 
ATOM     54  C   UNL A   1      44.125  28.843  34.140  1.00  0.00    -0.014 A 
BRANCH  54  55
ATOM     55  C   UNL A   1      43.019  29.523  33.418  1.00  0.00     0.031 A 
ATOM     56  C   UNL A   1      42.344  30.715  34.039  1.00  0.00     0.074 A 
ATOM     57  C   UNL A   1      42.535  28.994  32.277  1.00  0.00     0.049 A 
ATOM     58  N   UNL A   1      41.253  31.335  33.667  1.00  0.00    -0.248 NA
ATOM     59  C   UNL A   1      42.951  31.256  35.266  1.00  0.00     0.031 C 
ATOM     60  C   UNL A   1      43.067  27.811  31.600  1.00  0.00     0.029 A 
ATOM     61  N   UNL A   1      41.467  29.369  31.499  1.00  0.00    -0.354 N 
ATOM     62  C   UNL A   1      41.034  32.318  34.624  1.00  0.00     0.074 A 
ATOM     63  C   UNL A   1      42.067  32.174  35.625  1.00  0.00     0.031 C 
ATOM     64  C   UNL A   1      42.339  27.570  30.498  1.00  0.00     0.029 A 
ATOM     65  C   UNL A   1      41.256  28.546  30.418  1.00  0.00     0.049 A 
ATOM     66  H   UNL A   1      40.905  30.153  31.697  1.00  0.00     0.167 HD
ATOM     67  C   UNL A   1      40.072  33.270  34.653  1.00  0.00     0.037 A 
ATOM     68  C   UNL A   1      40.290  28.562  29.479  1.00  0.00     0.037 A 
ATOM     69  C   UNL A   1      39.071  33.431  33.633  1.00  0.00     0.049 A 
ATOM     70  C   UNL A   1      39.224  29.619  29.533  1.00  0.00     0.074 A 
ATOM     71  C   UNL A   1      38.103  34.414  33.531  1.00  0.00     0.029 A 
ATOM     72  N   UNL A   1      38.909  32.591  32.542  1.00  0.00    -0.354 N 
ATOM     73  N   UNL A   1      39.064  30.581  30.411  1.00  0.00    -0.248 NA
ATOM     74  C   UNL A   1      38.203  29.598  28.475  1.00  0.00     0.031 C 
ATOM     75  C   UNL A   1      37.317  34.134  32.412  1.00  0.00     0.029 A 
ATOM     76  C   UNL A   1      37.835  33.015  31.780  1.00  0.00     0.049 A 
ATOM     77  H   UNL A   1      39.473  31.810  32.341  1.00  0.00     0.167 HD
ATOM     78  C   UNL A   1      37.946  31.293  29.997  1.00  0.00     0.074 A 
ATOM     79  C   UNL A   1      37.466  30.656  28.789  1.00  0.00     0.031 C 
ATOM     80  C   UNL A   1      37.374  32.380  30.570  1.00  0.00     0.037 A 
BRANCH  67  81
ATOM     81  C   UNL A   1      40.062  34.223  35.812  1.00  0.00     0.057 A 
ATOM     82  C   UNL A   1      40.727  35.454  35.733  1.00  0.00     0.134 A 
ATOM     83  C   UNL A   1      39.452  33.899  37.032  1.00  0.00     0.134 A 
ATOM     84  F   UNL A   1      41.340  35.825  34.599  1.00  0.00    -0.206 F 
ATOM     85  C   UNL A   1      40.793  36.321  36.824  1.00  0.00     0.040 A 
ATOM     86  C   UNL A   1      39.484  34.772  38.119  1.00  0.00     0.040 A 
ATOM     87  F   UNL A   1      38.791  32.740  37.173  1.00  0.00    -0.206 F 
ATOM     88  C   UNL A   1      40.166  35.983  38.021  1.00  0.00     0.006 A 
ENDBRANCH  67  81
BRANCH  68  89
ATOM     89  C   UNL A   1      40.318  27.551  28.390  1.00  0.00     0.057 A 
ATOM     90  C   UNL A   1      39.705  26.300  28.531  1.00  0.00     0.134 A 
ATOM     91  C   UNL A   1      41.009  27.799  27.200  1.00  0.00     0.134 A 
ATOM     92  F   UNL A   1      39.034  25.996  29.653  1.00  0.00    -0.206 F 
ATOM     93  C   UNL A   1      39.800  25.323  27.538  1.00  0.00     0.040 A 
ATOM     94  C   UNL A   1      41.093  26.840  26.189  1.00  0.00     0.040 A 
ATOM     95  F   UNL A   1      41.603  28.984  26.999  1.00  0.00    -0.206 F 
ATOM     96  C   UNL A   1      40.495  25.593  26.361  1.00  0.00     0.006 A 
ENDBRANCH  68  89
BRANCH  80  97
ATOM     97  C   UNL A   1      36.178  32.989  29.900  1.00  0.00     0.057 A 
ATOM     98  C   UNL A   1      36.339  33.829  28.790  1.00  0.00     0.134 A 
ATOM     99  C   UNL A   1      34.891  32.862  30.436  1.00  0.00     0.134 A 
ATOM    100  F   UNL A   1      37.550  34.003  28.238  1.00  0.00    -0.206 F 
ATOM    101  C   UNL A   1      35.269  34.549  28.258  1.00  0.00     0.040 A 
ATOM    102  C   UNL A   1      33.807  33.558  29.895  1.00  0.00     0.040 A 
ATOM    103  F   UNL A   1      34.670  32.068  31.492  1.00  0.00    -0.206 F 
ATOM    104  C   UNL A   1      33.999  34.417  28.814  1.00  0.00     0.006 A 
ENDBRANCH  80  97
ENDBRANCH  54  55
ENDBRANCH  46  49
ENDBRANCH  44  45
ENDBRANCH  43  44
ENDBRANCH  42  43
ENDBRANCH   1  42
TORSDOF 19
ENDMDL
