MODEL 1
REMARK VINA RESULT:     -11.0      0.000      0.000
REMARK SMILES C[C@@]12CCCC[C@@H]1[C@@H]2C(=O)N/N=C/c1ccc(OCC(=O)NCCCCCCNC(=O)c2ccc(-c3c4nc(c(-c5c(F)cccc5F)c5ccc([nH]5)c(-c5c(F)cccc5F)c5nc(c(-c6c(F)cccc6F)c6ccc3[nH]6)C=C5)C=C4)cc2)cc1
REMARK SMILES IDX 24 1 23 2 22 3 20 4 21 5 19 7 18 8 17 9 14 10 15 11 87 12
REMARK SMILES IDX 16 13 86 14 13 15 12 16 11 17 9 18 10 19 8 21 1 22 2 23 3 24
REMARK SMILES IDX 7 25 4 26 6 27 5 28 25 29 26 30 27 31 28 32 29 33 30 34
REMARK SMILES IDX 31 36 32 37 33 38 85 39 34 40 84 41 35 42 36 43 37 44 78 45
REMARK SMILES IDX 38 46 83 47 77 48 79 49 39 50 82 51 76 52 75 53 40 55 66 56
REMARK SMILES IDX 49 57 65 58 50 59 53 60 64 61 80 62 51 63 52 64 63 66 81 67
REMARK SMILES IDX 54 68 41 69 42 70 47 71 43 72 44 73 46 74 48 75 45 76 67 77
REMARK SMILES IDX 68 78 73 79 69 80 70 81 72 82 74 83 71 84 55 85 56 86 61 87
REMARK SMILES IDX 57 88 58 89 60 90 62 91 59 92
REMARK H PARENT 22 6 11 20 29 35 79 54 53 65
REMARK Flexibility Score: inf
ROOT
ATOM      1  C   UNL A   1      32.693  24.344  26.497  1.00  0.00     0.021 C 
ENDROOT
BRANCH   1   2
ATOM      2  C   UNL A   1      33.783  23.300  26.747  1.00  0.00     0.116 C 
BRANCH   2   3
ATOM      3  N   UNL A   1      35.052  23.694  26.174  1.00  0.00    -0.353 N 
ATOM      4  C   UNL A   1      35.622  23.291  25.002  1.00  0.00     0.257 C 
ATOM      5  O   UNL A   1      36.711  23.771  24.681  1.00  0.00    -0.271 OA
ATOM      6  H   UNL A   1      35.576  24.340  26.702  1.00  0.00     0.163 HD
BRANCH   4   7
ATOM      7  C   UNL A   1      34.888  22.292  24.092  1.00  0.00     0.329 C 
BRANCH   7   8
ATOM      8  O   UNL A   1      34.322  22.769  22.880  1.00  0.00    -0.484 OA
BRANCH   8   9
ATOM      9  C   UNL A   1      33.201  23.545  22.972  1.00  0.00     0.120 A 
ATOM     10  C   UNL A   1      30.752  24.873  23.113  1.00  0.00    -0.005 A 
ATOM     11  C   UNL A   1      30.823  23.533  23.485  1.00  0.00     0.013 A 
ATOM     12  C   UNL A   1      31.903  25.557  22.706  1.00  0.00     0.013 A 
ATOM     13  C   UNL A   1      32.053  22.875  23.416  1.00  0.00     0.047 A 
ATOM     14  C   UNL A   1      33.127  24.897  22.649  1.00  0.00     0.047 A 
BRANCH  10  15
ATOM     15  C   UNL A   1      29.466  25.594  23.182  1.00  0.00     0.141 C 
ATOM     16  N   UNL A   1      29.426  26.741  23.770  1.00  0.00    -0.181 NA
BRANCH  16  17
ATOM     17  N   UNL A   1      28.250  27.385  23.849  1.00  0.00    -0.247 N 
ATOM     18  C   UNL A   1      27.735  28.401  23.090  1.00  0.00     0.244 C 
ATOM     19  O   UNL A   1      26.586  28.775  23.334  1.00  0.00    -0.273 OA
ATOM     20  H   UNL A   1      27.661  27.076  24.575  1.00  0.00     0.193 HD
BRANCH  18  21
ATOM     21  C   UNL A   1      28.460  29.115  22.012  1.00  0.00     0.090 C 
ATOM     22  C   UNL A   1      31.015  29.365  22.363  1.00  0.00     0.012 C 
ATOM     23  C   UNL A   1      29.649  29.951  22.600  1.00  0.00    -0.017 C 
ATOM     24  C   UNL A   1      29.515  30.691  23.931  1.00  0.00     0.008 C 
ATOM     25  C   UNL A   1      28.813  30.473  21.468  1.00  0.00     0.009 C 
ATOM     26  C   UNL A   1      29.229  32.177  23.738  1.00  0.00     0.001 C 
ATOM     27  C   UNL A   1      28.078  31.770  21.557  1.00  0.00     0.005 C 
ATOM     28  C   UNL A   1      27.940  32.358  22.950  1.00  0.00     0.000 C 
ENDBRANCH  18  21
ENDBRANCH  16  17
ENDBRANCH  10  15
ENDBRANCH   8   9
ENDBRANCH   7   8
ENDBRANCH   4   7
ENDBRANCH   2   3
ENDBRANCH   1   2
BRANCH   1  29
ATOM     29  C   UNL A   1      33.212  25.754  26.184  1.00  0.00     0.002 C 
BRANCH  29  30
ATOM     30  C   UNL A   1      32.151  26.858  26.168  1.00  0.00     0.002 C 
BRANCH  30  31
ATOM     31  C   UNL A   1      32.334  27.955  27.219  1.00  0.00     0.021 C 
BRANCH  31  32
ATOM     32  C   UNL A   1      33.721  28.585  27.251  1.00  0.00     0.116 C 
BRANCH  32  33
ATOM     33  N   UNL A   1      33.690  29.974  27.683  1.00  0.00    -0.352 N 
ATOM     34  C   UNL A   1      34.653  30.711  28.328  1.00  0.00     0.251 C 
ATOM     35  H   UNL A   1      32.855  30.456  27.484  1.00  0.00     0.163 HD
ATOM     36  O   UNL A   1      34.386  31.821  28.772  1.00  0.00    -0.269 OA
BRANCH  34  37
ATOM     37  C   UNL A   1      36.012  30.154  28.508  1.00  0.00     0.039 A 
ATOM     38  C   UNL A   1      36.909  30.208  27.438  1.00  0.00     0.014 A 
ATOM     39  C   UNL A   1      36.399  29.574  29.719  1.00  0.00     0.014 A 
ATOM     40  C   UNL A   1      38.215  29.741  27.605  1.00  0.00     0.010 A 
ATOM     41  C   UNL A   1      37.721  29.180  29.908  1.00  0.00     0.010 A 
ATOM     42  C   UNL A   1      38.643  29.256  28.853  1.00  0.00    -0.014 A 
BRANCH  42  43
ATOM     43  C   UNL A   1      40.050  28.832  29.072  1.00  0.00     0.031 A 
ATOM     44  C   UNL A   1      41.038  29.776  29.700  1.00  0.00     0.074 A 
ATOM     45  C   UNL A   1      40.454  27.618  28.649  1.00  0.00     0.049 A 
ATOM     46  N   UNL A   1      42.320  29.611  29.912  1.00  0.00    -0.248 NA
ATOM     47  C   UNL A   1      40.526  31.089  30.120  1.00  0.00     0.031 C 
ATOM     48  C   UNL A   1      39.604  26.628  27.984  1.00  0.00     0.029 A 
ATOM     49  N   UNL A   1      41.685  27.015  28.703  1.00  0.00    -0.354 N 
ATOM     50  C   UNL A   1      42.766  30.799  30.477  1.00  0.00     0.074 A 
ATOM     51  C   UNL A   1      41.632  31.696  30.524  1.00  0.00     0.031 C 
ATOM     52  C   UNL A   1      40.332  25.533  27.714  1.00  0.00     0.029 A 
ATOM     53  C   UNL A   1      41.708  25.757  28.147  1.00  0.00     0.049 A 
ATOM     54  H   UNL A   1      42.477  27.441  29.104  1.00  0.00     0.167 HD
ATOM     55  C   UNL A   1      44.003  31.107  30.936  1.00  0.00     0.037 A 
ATOM     56  C   UNL A   1      42.725  24.889  27.994  1.00  0.00     0.037 A 
ATOM     57  C   UNL A   1      45.125  30.204  30.907  1.00  0.00     0.049 A 
ATOM     58  C   UNL A   1      44.093  25.261  28.498  1.00  0.00     0.074 A 
ATOM     59  C   UNL A   1      46.401  30.401  31.403  1.00  0.00     0.029 A 
ATOM     60  N   UNL A   1      45.105  28.936  30.347  1.00  0.00    -0.354 N 
ATOM     61  N   UNL A   1      44.483  26.361  29.095  1.00  0.00    -0.248 NA
ATOM     62  C   UNL A   1      45.161  24.268  28.312  1.00  0.00     0.031 C 
ATOM     63  C   UNL A   1      47.169  29.274  31.096  1.00  0.00     0.029 A 
ATOM     64  C   UNL A   1      46.355  28.350  30.460  1.00  0.00     0.049 A 
ATOM     65  H   UNL A   1      44.319  28.515  29.931  1.00  0.00     0.167 HD
ATOM     66  C   UNL A   1      45.830  26.180  29.384  1.00  0.00     0.074 A 
ATOM     67  C   UNL A   1      46.185  24.859  28.909  1.00  0.00     0.031 C 
ATOM     68  C   UNL A   1      46.694  27.031  29.989  1.00  0.00     0.037 A 
BRANCH  55  69
ATOM     69  C   UNL A   1      44.209  32.479  31.510  1.00  0.00     0.057 A 
ATOM     70  C   UNL A   1      44.107  32.731  32.884  1.00  0.00     0.134 A 
ATOM     71  C   UNL A   1      44.552  33.556  30.682  1.00  0.00     0.134 A 
ATOM     72  F   UNL A   1      43.770  31.746  33.733  1.00  0.00    -0.206 F 
ATOM     73  C   UNL A   1      44.310  34.007  33.412  1.00  0.00     0.040 A 
ATOM     74  C   UNL A   1      44.788  34.831  31.201  1.00  0.00     0.040 A 
ATOM     75  F   UNL A   1      44.675  33.386  29.357  1.00  0.00    -0.206 F 
ATOM     76  C   UNL A   1      44.659  35.060  32.570  1.00  0.00     0.006 A 
ENDBRANCH  55  69
BRANCH  56  77
ATOM     77  C   UNL A   1      42.490  23.572  27.347  1.00  0.00     0.057 A 
ATOM     78  C   UNL A   1      42.106  22.456  28.099  1.00  0.00     0.134 A 
ATOM     79  C   UNL A   1      42.659  23.394  25.969  1.00  0.00     0.134 A 
ATOM     80  F   UNL A   1      41.947  22.558  29.427  1.00  0.00    -0.206 F 
ATOM     81  C   UNL A   1      41.921  21.204  27.508  1.00  0.00     0.040 A 
ATOM     82  C   UNL A   1      42.451  22.154  25.361  1.00  0.00     0.040 A 
ATOM     83  F   UNL A   1      43.017  24.425  25.190  1.00  0.00    -0.206 F 
ATOM     84  C   UNL A   1      42.090  21.052  26.134  1.00  0.00     0.006 A 
ENDBRANCH  56  77
BRANCH  68  85
ATOM     85  C   UNL A   1      48.098  26.546  30.208  1.00  0.00     0.057 A 
ATOM     86  C   UNL A   1      48.468  25.835  31.356  1.00  0.00     0.134 A 
ATOM     87  C   UNL A   1      49.085  26.763  29.237  1.00  0.00     0.134 A 
ATOM     88  F   UNL A   1      47.574  25.604  32.331  1.00  0.00    -0.206 F 
ATOM     89  C   UNL A   1      49.774  25.378  31.543  1.00  0.00     0.040 A 
ATOM     90  C   UNL A   1      50.386  26.285  29.398  1.00  0.00     0.040 A 
ATOM     91  F   UNL A   1      48.796  27.429  28.108  1.00  0.00    -0.206 F 
ATOM     92  C   UNL A   1      50.735  25.597  30.557  1.00  0.00     0.006 A 
ENDBRANCH  68  85
ENDBRANCH  42  43
ENDBRANCH  34  37
ENDBRANCH  32  33
ENDBRANCH  31  32
ENDBRANCH  30  31
ENDBRANCH  29  30
ENDBRANCH   1  29
TORSDOF 18
ENDMDL
MODEL 2
REMARK VINA RESULT:     -10.9      1.960      2.545
REMARK SMILES C[C@@]12CCCC[C@@H]1[C@@H]2C(=O)N/N=C/c1ccc(OCC(=O)NCCCCCCNC(=O)c2ccc(-c3c4nc(c(-c5c(F)cccc5F)c5ccc([nH]5)c(-c5c(F)cccc5F)c5nc(c(-c6c(F)cccc6F)c6ccc3[nH]6)C=C5)C=C4)cc2)cc1
REMARK SMILES IDX 24 1 23 2 22 3 20 4 21 5 19 7 18 8 17 9 14 10 15 11 87 12
REMARK SMILES IDX 16 13 86 14 13 15 12 16 11 17 9 18 10 19 8 21 1 22 2 23 3 24
REMARK SMILES IDX 7 25 4 26 6 27 5 28 25 29 26 30 27 31 28 32 29 33 30 34
REMARK SMILES IDX 31 36 32 37 33 38 85 39 34 40 84 41 35 42 36 43 37 44 78 45
REMARK SMILES IDX 38 46 83 47 77 48 79 49 39 50 82 51 76 52 75 53 40 55 66 56
REMARK SMILES IDX 49 57 65 58 50 59 53 60 64 61 80 62 51 63 52 64 63 66 81 67
REMARK SMILES IDX 54 68 41 69 42 70 47 71 43 72 44 73 46 74 48 75 45 76 67 77
REMARK SMILES IDX 68 78 73 79 69 80 70 81 72 82 74 83 71 84 55 85 56 86 61 87
REMARK SMILES IDX 57 88 58 89 60 90 62 91 59 92
REMARK H PARENT 22 6 11 20 29 35 79 54 53 65
REMARK Flexibility Score: inf
ROOT
ATOM      1  C   UNL A   1      35.427  24.529  25.258  1.00  0.00     0.021 C 
ENDROOT
BRANCH   1   2
ATOM      2  C   UNL A   1      35.246  23.643  24.024  1.00  0.00     0.116 C 
BRANCH   2   3
ATOM      3  N   UNL A   1      35.641  22.274  24.278  1.00  0.00    -0.353 N 
ATOM      4  C   UNL A   1      34.910  21.261  24.825  1.00  0.00     0.257 C 
ATOM      5  O   UNL A   1      35.431  20.150  24.933  1.00  0.00    -0.271 OA
ATOM      6  H   UNL A   1      36.564  22.043  24.022  1.00  0.00     0.163 HD
BRANCH   4   7
ATOM      7  C   UNL A   1      33.453  21.507  25.250  1.00  0.00     0.329 C 
BRANCH   7   8
ATOM      8  O   UNL A   1      32.464  21.641  24.239  1.00  0.00    -0.484 OA
BRANCH   8   9
ATOM      9  C   UNL A   1      31.763  22.813  24.198  1.00  0.00     0.120 A 
ATOM     10  C   UNL A   1      30.157  25.090  24.335  1.00  0.00    -0.005 A 
ATOM     11  C   UNL A   1      30.329  24.307  25.474  1.00  0.00     0.013 A 
ATOM     12  C   UNL A   1      30.809  24.758  23.143  1.00  0.00     0.013 A 
ATOM     13  C   UNL A   1      31.138  23.171  25.400  1.00  0.00     0.047 A 
ATOM     14  C   UNL A   1      31.622  23.629  23.080  1.00  0.00     0.047 A 
BRANCH  10  15
ATOM     15  C   UNL A   1      29.311  26.299  24.388  1.00  0.00     0.141 C 
ATOM     16  N   UNL A   1      28.178  26.292  23.772  1.00  0.00    -0.181 NA
BRANCH  16  17
ATOM     17  N   UNL A   1      27.420  27.400  23.804  1.00  0.00    -0.247 N 
ATOM     18  C   UNL A   1      27.589  28.615  23.195  1.00  0.00     0.244 C 
ATOM     19  O   UNL A   1      26.699  29.456  23.336  1.00  0.00    -0.273 OA
ATOM     20  H   UNL A   1      26.609  27.327  24.357  1.00  0.00     0.193 HD
BRANCH  18  21
ATOM     21  C   UNL A   1      28.774  29.017  22.402  1.00  0.00     0.090 C 
ATOM     22  C   UNL A   1      30.907  29.543  23.775  1.00  0.00     0.012 C 
ATOM     23  C   UNL A   1      29.632  30.075  23.179  1.00  0.00    -0.017 C 
ATOM     24  C   UNL A   1      28.970  31.173  24.011  1.00  0.00     0.008 C 
ATOM     25  C   UNL A   1      29.439  30.166  21.693  1.00  0.00     0.009 C 
ATOM     26  C   UNL A   1      28.918  32.506  23.270  1.00  0.00     0.001 C 
ATOM     27  C   UNL A   1      28.846  31.372  21.043  1.00  0.00     0.005 C 
ATOM     28  C   UNL A   1      28.141  32.345  21.971  1.00  0.00     0.000 C 
ENDBRANCH  18  21
ENDBRANCH  16  17
ENDBRANCH  10  15
ENDBRANCH   8   9
ENDBRANCH   7   8
ENDBRANCH   4   7
ENDBRANCH   2   3
ENDBRANCH   1   2
BRANCH   1  29
ATOM     29  C   UNL A   1      34.126  25.096  25.841  1.00  0.00     0.002 C 
BRANCH  29  30
ATOM     30  C   UNL A   1      33.614  26.380  25.184  1.00  0.00     0.002 C 
BRANCH  30  31
ATOM     31  C   UNL A   1      33.459  27.578  26.123  1.00  0.00     0.021 C 
BRANCH  31  32
ATOM     32  C   UNL A   1      34.371  28.759  25.811  1.00  0.00     0.116 C 
BRANCH  32  33
ATOM     33  N   UNL A   1      33.897  29.998  26.406  1.00  0.00    -0.352 N 
ATOM     34  C   UNL A   1      34.384  30.690  27.488  1.00  0.00     0.251 C 
ATOM     35  H   UNL A   1      33.112  30.400  25.970  1.00  0.00     0.163 HD
ATOM     36  O   UNL A   1      33.750  31.627  27.958  1.00  0.00    -0.269 OA
BRANCH  34  37
ATOM     37  C   UNL A   1      35.668  30.289  28.104  1.00  0.00     0.039 A 
ATOM     38  C   UNL A   1      35.645  29.573  29.304  1.00  0.00     0.014 A 
ATOM     39  C   UNL A   1      36.889  30.621  27.510  1.00  0.00     0.014 A 
ATOM     40  C   UNL A   1      36.843  29.133  29.873  1.00  0.00     0.010 A 
ATOM     41  C   UNL A   1      38.076  30.118  28.036  1.00  0.00     0.010 A 
ATOM     42  C   UNL A   1      38.066  29.371  29.224  1.00  0.00    -0.014 A 
BRANCH  42  43
ATOM     43  C   UNL A   1      39.342  28.841  29.770  1.00  0.00     0.031 A 
ATOM     44  C   UNL A   1      39.981  29.484  30.970  1.00  0.00     0.074 A 
ATOM     45  C   UNL A   1      39.960  27.817  29.147  1.00  0.00     0.049 A 
ATOM     46  N   UNL A   1      41.122  29.207  31.549  1.00  0.00    -0.248 NA
ATOM     47  C   UNL A   1      39.255  30.607  31.584  1.00  0.00     0.031 C 
ATOM     48  C   UNL A   1      39.468  27.136  27.948  1.00  0.00     0.029 A 
ATOM     49  N   UNL A   1      41.142  27.179  29.429  1.00  0.00    -0.354 N 
ATOM     50  C   UNL A   1      41.254  30.124  32.584  1.00  0.00     0.074 A 
ATOM     51  C   UNL A   1      40.106  31.002  32.519  1.00  0.00     0.031 C 
ATOM     52  C   UNL A   1      40.328  26.161  27.611  1.00  0.00     0.029 A 
ATOM     53  C   UNL A   1      41.451  26.174  28.543  1.00  0.00     0.049 A 
ATOM     54  H   UNL A   1      41.713  27.418  30.194  1.00  0.00     0.167 HD
ATOM     55  C   UNL A   1      42.232  30.213  33.517  1.00  0.00     0.037 A 
ATOM     56  C   UNL A   1      42.524  25.363  28.483  1.00  0.00     0.037 A 
ATOM     57  C   UNL A   1      43.363  29.324  33.592  1.00  0.00     0.049 A 
ATOM     58  C   UNL A   1      43.604  25.493  29.522  1.00  0.00     0.074 A 
ATOM     59  C   UNL A   1      44.374  29.295  34.536  1.00  0.00     0.029 A 
ATOM     60  N   UNL A   1      43.635  28.313  32.684  1.00  0.00    -0.354 N 
ATOM     61  N   UNL A   1      43.679  26.319  30.537  1.00  0.00    -0.248 NA
ATOM     62  C   UNL A   1      44.745  24.573  29.410  1.00  0.00     0.031 C 
ATOM     63  C   UNL A   1      45.286  28.300  34.170  1.00  0.00     0.029 A 
ATOM     64  C   UNL A   1      44.813  27.671  33.029  1.00  0.00     0.049 A 
ATOM     65  H   UNL A   1      43.073  28.084  31.908  1.00  0.00     0.167 HD
ATOM     66  C   UNL A   1      44.857  25.998  31.201  1.00  0.00     0.074 A 
ATOM     67  C   UNL A   1      45.454  24.892  30.482  1.00  0.00     0.031 C 
ATOM     68  C   UNL A   1      45.394  26.566  32.309  1.00  0.00     0.037 A 
BRANCH  55  69
ATOM     69  C   UNL A   1      42.122  31.311  34.535  1.00  0.00     0.057 A 
ATOM     70  C   UNL A   1      41.431  31.137  35.742  1.00  0.00     0.134 A 
ATOM     71  C   UNL A   1      42.748  32.547  34.325  1.00  0.00     0.134 A 
ATOM     72  F   UNL A   1      40.800  29.982  36.003  1.00  0.00    -0.206 F 
ATOM     73  C   UNL A   1      41.343  32.159  36.688  1.00  0.00     0.040 A 
ATOM     74  C   UNL A   1      42.692  33.566  35.278  1.00  0.00     0.040 A 
ATOM     75  F   UNL A   1      43.433  32.781  33.196  1.00  0.00    -0.206 F 
ATOM     76  C   UNL A   1      41.981  33.376  36.460  1.00  0.00     0.006 A 
ENDBRANCH  55  69
BRANCH  56  77
ATOM     77  C   UNL A   1      42.627  24.343  27.408  1.00  0.00     0.057 A 
ATOM     78  C   UNL A   1      43.181  24.660  26.161  1.00  0.00     0.134 A 
ATOM     79  C   UNL A   1      42.162  23.036  27.592  1.00  0.00     0.134 A 
ATOM     80  F   UNL A   1      43.627  25.901  25.917  1.00  0.00    -0.206 F 
ATOM     81  C   UNL A   1      43.247  23.722  25.130  1.00  0.00     0.040 A 
ATOM     82  C   UNL A   1      42.247  22.080  26.578  1.00  0.00     0.040 A 
ATOM     83  F   UNL A   1      41.629  22.665  28.765  1.00  0.00    -0.206 F 
ATOM     84  C   UNL A   1      42.783  22.425  25.339  1.00  0.00     0.006 A 
ENDBRANCH  56  77
BRANCH  68  85
ATOM     85  C   UNL A   1      46.672  25.979  32.834  1.00  0.00     0.057 A 
ATOM     86  C   UNL A   1      46.682  24.947  33.779  1.00  0.00     0.134 A 
ATOM     87  C   UNL A   1      47.910  26.430  32.357  1.00  0.00     0.134 A 
ATOM     88  F   UNL A   1      45.531  24.477  34.286  1.00  0.00    -0.206 F 
ATOM     89  C   UNL A   1      47.876  24.400  34.251  1.00  0.00     0.040 A 
ATOM     90  C   UNL A   1      49.110  25.872  32.798  1.00  0.00     0.040 A 
ATOM     91  F   UNL A   1      47.973  27.411  31.443  1.00  0.00    -0.206 F 
ATOM     92  C   UNL A   1      49.095  24.858  33.753  1.00  0.00     0.006 A 
ENDBRANCH  68  85
ENDBRANCH  42  43
ENDBRANCH  34  37
ENDBRANCH  32  33
ENDBRANCH  31  32
ENDBRANCH  30  31
ENDBRANCH  29  30
ENDBRANCH   1  29
TORSDOF 18
ENDMDL
MODEL 3
REMARK VINA RESULT:     -10.9      2.971      6.489
REMARK SMILES C[C@@]12CCCC[C@@H]1[C@@H]2C(=O)N/N=C/c1ccc(OCC(=O)NCCCCCCNC(=O)c2ccc(-c3c4nc(c(-c5c(F)cccc5F)c5ccc([nH]5)c(-c5c(F)cccc5F)c5nc(c(-c6c(F)cccc6F)c6ccc3[nH]6)C=C5)C=C4)cc2)cc1
REMARK SMILES IDX 24 1 23 2 22 3 20 4 21 5 19 7 18 8 17 9 14 10 15 11 87 12
REMARK SMILES IDX 16 13 86 14 13 15 12 16 11 17 9 18 10 19 8 21 1 22 2 23 3 24
REMARK SMILES IDX 7 25 4 26 6 27 5 28 25 29 26 30 27 31 28 32 29 33 30 34
REMARK SMILES IDX 31 36 32 37 33 38 85 39 34 40 84 41 35 42 36 43 37 44 78 45
REMARK SMILES IDX 38 46 83 47 77 48 79 49 39 50 82 51 76 52 75 53 40 55 66 56
REMARK SMILES IDX 49 57 65 58 50 59 53 60 64 61 80 62 51 63 52 64 63 66 81 67
REMARK SMILES IDX 54 68 41 69 42 70 47 71 43 72 44 73 46 74 48 75 45 76 67 77
REMARK SMILES IDX 68 78 73 79 69 80 70 81 72 82 74 83 71 84 55 85 56 86 61 87
REMARK SMILES IDX 57 88 58 89 60 90 62 91 59 92
REMARK H PARENT 22 6 11 20 29 35 79 54 53 65
REMARK Flexibility Score: inf
ROOT
ATOM      1  C   UNL A   1      35.503  24.553  25.556  1.00  0.00     0.021 C 
ENDROOT
BRANCH   1   2
ATOM      2  C   UNL A   1      35.610  23.766  24.249  1.00  0.00     0.116 C 
BRANCH   2   3
ATOM      3  N   UNL A   1      35.999  22.391  24.475  1.00  0.00    -0.353 N 
ATOM      4  C   UNL A   1      35.208  21.312  24.740  1.00  0.00     0.257 C 
ATOM      5  O   UNL A   1      35.742  20.209  24.878  1.00  0.00    -0.271 OA
ATOM      6  H   UNL A   1      36.967  22.209  24.434  1.00  0.00     0.163 HD
BRANCH   4   7
ATOM      7  C   UNL A   1      33.682  21.477  24.817  1.00  0.00     0.329 C 
BRANCH   7   8
ATOM      8  O   UNL A   1      32.988  21.913  23.657  1.00  0.00    -0.484 OA
BRANCH   8   9
ATOM      9  C   UNL A   1      32.165  22.996  23.787  1.00  0.00     0.120 A 
ATOM     10  C   UNL A   1      30.326  25.041  24.252  1.00  0.00    -0.005 A 
ATOM     11  C   UNL A   1      30.587  24.117  25.260  1.00  0.00     0.013 A 
ATOM     12  C   UNL A   1      31.003  24.966  23.030  1.00  0.00     0.013 A 
ATOM     13  C   UNL A   1      31.512  23.098  25.022  1.00  0.00     0.047 A 
ATOM     14  C   UNL A   1      31.931  23.954  22.804  1.00  0.00     0.047 A 
BRANCH  10  15
ATOM     15  C   UNL A   1      29.356  26.131  24.479  1.00  0.00     0.141 C 
ATOM     16  N   UNL A   1      28.520  26.424  23.542  1.00  0.00    -0.181 NA
BRANCH  16  17
ATOM     17  N   UNL A   1      27.653  27.430  23.742  1.00  0.00    -0.247 N 
ATOM     18  C   UNL A   1      27.521  28.636  23.107  1.00  0.00     0.244 C 
ATOM     19  O   UNL A   1      26.586  29.364  23.445  1.00  0.00    -0.273 OA
ATOM     20  H   UNL A   1      27.005  27.275  24.467  1.00  0.00     0.193 HD
BRANCH  18  21
ATOM     21  C   UNL A   1      28.435  29.156  22.063  1.00  0.00     0.090 C 
ATOM     22  C   UNL A   1      30.958  29.063  22.641  1.00  0.00     0.012 C 
ATOM     23  C   UNL A   1      29.680  29.855  22.709  1.00  0.00    -0.017 C 
ATOM     24  C   UNL A   1      29.544  30.703  23.973  1.00  0.00     0.008 C 
ATOM     25  C   UNL A   1      29.032  30.405  21.472  1.00  0.00     0.009 C 
ATOM     26  C   UNL A   1      29.501  32.197  23.663  1.00  0.00     0.001 C 
ATOM     27  C   UNL A   1      28.495  31.797  21.411  1.00  0.00     0.005 C 
ATOM     28  C   UNL A   1      28.327  32.501  22.745  1.00  0.00     0.000 C 
ENDBRANCH  18  21
ENDBRANCH  16  17
ENDBRANCH  10  15
ENDBRANCH   8   9
ENDBRANCH   7   8
ENDBRANCH   4   7
ENDBRANCH   2   3
ENDBRANCH   1   2
BRANCH   1  29
ATOM     29  C   UNL A   1      34.185  25.316  25.743  1.00  0.00     0.002 C 
BRANCH  29  30
ATOM     30  C   UNL A   1      33.926  26.441  24.737  1.00  0.00     0.002 C 
BRANCH  30  31
ATOM     31  C   UNL A   1      33.138  27.635  25.280  1.00  0.00     0.021 C 
BRANCH  31  32
ATOM     32  C   UNL A   1      33.783  28.994  25.036  1.00  0.00     0.116 C 
BRANCH  32  33
ATOM     33  N   UNL A   1      32.942  30.095  25.475  1.00  0.00    -0.352 N 
ATOM     34  C   UNL A   1      33.049  30.885  26.594  1.00  0.00     0.251 C 
ATOM     35  H   UNL A   1      32.184  30.306  24.884  1.00  0.00     0.163 HD
ATOM     36  O   UNL A   1      32.145  31.654  26.895  1.00  0.00    -0.269 OA
BRANCH  34  37
ATOM     37  C   UNL A   1      34.250  30.789  27.453  1.00  0.00     0.039 A 
ATOM     38  C   UNL A   1      34.560  29.560  28.043  1.00  0.00     0.014 A 
ATOM     39  C   UNL A   1      35.063  31.902  27.684  1.00  0.00     0.014 A 
ATOM     40  C   UNL A   1      35.721  29.433  28.810  1.00  0.00     0.010 A 
ATOM     41  C   UNL A   1      36.258  31.756  28.384  1.00  0.00     0.010 A 
ATOM     42  C   UNL A   1      36.598  30.521  28.956  1.00  0.00    -0.014 A 
BRANCH  42  43
ATOM     43  C   UNL A   1      37.878  30.382  29.699  1.00  0.00     0.031 A 
ATOM     44  C   UNL A   1      39.030  29.629  29.093  1.00  0.00     0.074 A 
ATOM     45  C   UNL A   1      37.982  30.881  30.947  1.00  0.00     0.049 A 
ATOM     46  N   UNL A   1      40.198  29.347  29.612  1.00  0.00    -0.248 NA
ATOM     47  C   UNL A   1      38.834  29.100  27.734  1.00  0.00     0.031 C 
ATOM     48  C   UNL A   1      36.922  31.592  31.664  1.00  0.00     0.029 A 
ATOM     49  N   UNL A   1      39.026  30.856  31.837  1.00  0.00    -0.354 N 
ATOM     50  C   UNL A   1      40.869  28.599  28.652  1.00  0.00     0.074 A 
ATOM     51  C   UNL A   1      39.957  28.424  27.541  1.00  0.00     0.031 C 
ATOM     52  C   UNL A   1      37.377  31.955  32.875  1.00  0.00     0.029 A 
ATOM     53  C   UNL A   1      38.744  31.468  33.035  1.00  0.00     0.049 A 
ATOM     54  H   UNL A   1      39.895  30.439  31.637  1.00  0.00     0.167 HD
ATOM     55  C   UNL A   1      42.136  28.122  28.682  1.00  0.00     0.037 A 
ATOM     56  C   UNL A   1      39.497  31.612  34.142  1.00  0.00     0.037 A 
ATOM     57  C   UNL A   1      43.047  28.315  29.780  1.00  0.00     0.049 A 
ATOM     58  C   UNL A   1      40.896  31.058  34.156  1.00  0.00     0.074 A 
ATOM     59  C   UNL A   1      44.371  27.923  29.880  1.00  0.00     0.029 A 
ATOM     60  N   UNL A   1      42.729  28.950  30.970  1.00  0.00    -0.354 N 
ATOM     61  N   UNL A   1      41.540  30.416  33.212  1.00  0.00    -0.248 NA
ATOM     62  C   UNL A   1      41.674  31.254  35.387  1.00  0.00     0.031 C 
ATOM     63  C   UNL A   1      44.837  28.274  31.150  1.00  0.00     0.029 A 
ATOM     64  C   UNL A   1      43.821  28.936  31.821  1.00  0.00     0.049 A 
ATOM     65  H   UNL A   1      41.855  29.353  31.179  1.00  0.00     0.167 HD
ATOM     66  C   UNL A   1      42.807  30.160  33.723  1.00  0.00     0.074 A 
ATOM     67  C   UNL A   1      42.844  30.730  35.054  1.00  0.00     0.031 C 
ATOM     68  C   UNL A   1      43.847  29.514  33.142  1.00  0.00     0.037 A 
BRANCH  55  69
ATOM     69  C   UNL A   1      42.612  27.341  27.491  1.00  0.00     0.057 A 
ATOM     70  C   UNL A   1      42.478  25.948  27.415  1.00  0.00     0.134 A 
ATOM     71  C   UNL A   1      43.178  27.994  26.388  1.00  0.00     0.134 A 
ATOM     72  F   UNL A   1      41.955  25.259  28.441  1.00  0.00    -0.206 F 
ATOM     73  C   UNL A   1      42.914  25.231  26.300  1.00  0.00     0.040 A 
ATOM     74  C   UNL A   1      43.589  27.290  25.254  1.00  0.00     0.040 A 
ATOM     75  F   UNL A   1      43.330  29.326  26.388  1.00  0.00    -0.206 F 
ATOM     76  C   UNL A   1      43.465  25.903  25.212  1.00  0.00     0.006 A 
ENDBRANCH  55  69
BRANCH  56  77
ATOM     77  C   UNL A   1      38.953  32.323  35.327  1.00  0.00     0.057 A 
ATOM     78  C   UNL A   1      39.057  33.714  35.446  1.00  0.00     0.134 A 
ATOM     79  C   UNL A   1      38.333  31.632  36.374  1.00  0.00     0.134 A 
ATOM     80  F   UNL A   1      39.658  34.431  34.484  1.00  0.00    -0.206 F 
ATOM     81  C   UNL A   1      38.586  34.390  36.573  1.00  0.00     0.040 A 
ATOM     82  C   UNL A   1      37.833  32.297  37.495  1.00  0.00     0.040 A 
ATOM     83  F   UNL A   1      38.194  30.299  36.319  1.00  0.00    -0.206 F 
ATOM     84  C   UNL A   1      37.968  33.681  37.600  1.00  0.00     0.006 A 
ENDBRANCH  56  77
BRANCH  68  85
ATOM     85  C   UNL A   1      45.125  29.420  33.924  1.00  0.00     0.057 A 
ATOM     86  C   UNL A   1      45.395  28.345  34.779  1.00  0.00     0.134 A 
ATOM     87  C   UNL A   1      46.114  30.403  33.790  1.00  0.00     0.134 A 
ATOM     88  F   UNL A   1      44.485  27.376  34.962  1.00  0.00    -0.206 F 
ATOM     89  C   UNL A   1      46.593  28.263  35.492  1.00  0.00     0.040 A 
ATOM     90  C   UNL A   1      47.327  30.317  34.474  1.00  0.00     0.040 A 
ATOM     91  F   UNL A   1      45.924  31.457  32.980  1.00  0.00    -0.206 F 
ATOM     92  C   UNL A   1      47.566  29.248  35.334  1.00  0.00     0.006 A 
ENDBRANCH  68  85
ENDBRANCH  42  43
ENDBRANCH  34  37
ENDBRANCH  32  33
ENDBRANCH  31  32
ENDBRANCH  30  31
ENDBRANCH  29  30
ENDBRANCH   1  29
TORSDOF 18
ENDMDL
