MODEL 1
REMARK VINA RESULT:     -11.4      0.000      0.000
REMARK SMILES O=C(NCCCCCCNC(=O)[C@H](CO)NC(=O)[C@H](Cc1ccc(O)cc1)NC(=O)c1ccc(F)cc1)c1ccc(-c2c3nc(c(-c4c(F)cccc4F)c4ccc([nH]4)c(-c4c(F)cccc4F)c4nc(c(-c5c(F)cccc5F)c5ccc2[nH]5)C=C4)C=C3)cc1
REMARK SMILES IDX 8 1 7 2 6 3 5 4 4 5 3 6 1 7 2 8 38 10 39 11 91 12 40 13
REMARK SMILES IDX 90 14 41 15 42 16 43 17 84 18 44 19 89 20 83 21 85 22 45 23
REMARK SMILES IDX 88 24 82 25 81 26 46 28 72 29 55 30 71 31 56 32 59 33 70 34
REMARK SMILES IDX 86 35 57 36 58 37 69 39 87 40 60 41 47 42 48 43 53 44 49 45
REMARK SMILES IDX 50 46 52 47 54 48 51 49 73 50 74 51 79 52 75 53 76 54 78 55
REMARK SMILES IDX 80 56 77 57 61 58 62 59 67 60 63 61 64 62 66 63 68 64 65 65
REMARK SMILES IDX 9 66 10 67 11 68 12 70 13 71 16 72 17 73 18 75 19 76 28 77
REMARK SMILES IDX 29 78 30 80 31 81 32 82 37 83 33 84 36 85 34 86 35 87 20 88
REMARK SMILES IDX 21 89 22 90 27 91 23 92 26 93 24 94 25 95 14 97 15 98
REMARK H PARENT 3 9 85 27 59 38 10 69 16 74 28 79 25 96 15 99
REMARK Flexibility Score: inf
ROOT
ATOM      1  C   UNL A   1      35.632  21.815  24.329  1.00  0.00     0.021 C 
ENDROOT
BRANCH   1   2
ATOM      2  C   UNL A   1      36.774  22.810  24.584  1.00  0.00     0.002 C 
BRANCH   2   3
ATOM      3  C   UNL A   1      37.903  22.283  25.476  1.00  0.00     0.002 C 
BRANCH   3   4
ATOM      4  C   UNL A   1      38.524  20.965  25.016  1.00  0.00     0.021 C 
BRANCH   4   5
ATOM      5  C   UNL A   1      38.855  20.001  26.147  1.00  0.00     0.116 C 
BRANCH   5   6
ATOM      6  N   UNL A   1      40.037  19.205  25.863  1.00  0.00    -0.352 N 
ATOM      7  O   UNL A   1      42.235  18.858  25.468  1.00  0.00    -0.269 OA
ATOM      8  C   UNL A   1      41.359  19.583  25.915  1.00  0.00     0.251 C 
ATOM      9  H   UNL A   1      39.870  18.272  25.596  1.00  0.00     0.163 HD
BRANCH   8  10
ATOM     10  C   UNL A   1      41.707  20.894  26.506  1.00  0.00     0.039 A 
ATOM     11  C   UNL A   1      41.686  21.066  27.891  1.00  0.00     0.014 A 
ATOM     12  C   UNL A   1      42.055  21.957  25.667  1.00  0.00     0.014 A 
ATOM     13  C   UNL A   1      41.886  22.330  28.429  1.00  0.00     0.010 A 
ATOM     14  C   UNL A   1      42.342  23.210  26.218  1.00  0.00     0.010 A 
ATOM     15  C   UNL A   1      42.240  23.411  27.602  1.00  0.00    -0.014 A 
BRANCH  15  16
ATOM     16  C   UNL A   1      42.583  24.706  28.240  1.00  0.00     0.031 A 
ATOM     17  C   UNL A   1      44.002  25.075  28.563  1.00  0.00     0.074 A 
ATOM     18  C   UNL A   1      41.584  25.586  28.456  1.00  0.00     0.049 A 
ATOM     19  N   UNL A   1      44.465  26.205  29.037  1.00  0.00    -0.248 NA
ATOM     20  C   UNL A   1      45.035  24.054  28.334  1.00  0.00     0.031 C 
ATOM     21  C   UNL A   1      40.166  25.326  28.191  1.00  0.00     0.029 A 
ATOM     22  N   UNL A   1      41.605  26.882  28.899  1.00  0.00    -0.354 N 
ATOM     23  C   UNL A   1      45.835  26.029  29.174  1.00  0.00     0.074 A 
ATOM     24  C   UNL A   1      46.131  24.677  28.754  1.00  0.00     0.031 C 
ATOM     25  C   UNL A   1      39.467  26.449  28.395  1.00  0.00     0.029 A 
ATOM     26  C   UNL A   1      40.374  27.490  28.867  1.00  0.00     0.049 A 
ATOM     27  H   UNL A   1      42.423  27.334  29.211  1.00  0.00     0.167 HD
ATOM     28  C   UNL A   1      46.759  26.922  29.605  1.00  0.00     0.037 A 
ATOM     29  C   UNL A   1      40.010  28.746  29.181  1.00  0.00     0.037 A 
ATOM     30  C   UNL A   1      46.460  28.273  30.004  1.00  0.00     0.049 A 
ATOM     31  C   UNL A   1      41.056  29.707  29.658  1.00  0.00     0.074 A 
ATOM     32  C   UNL A   1      47.334  29.255  30.439  1.00  0.00     0.029 A 
ATOM     33  N   UNL A   1      45.193  28.835  30.012  1.00  0.00    -0.354 N 
ATOM     34  N   UNL A   1      42.348  29.526  29.773  1.00  0.00    -0.248 NA
ATOM     35  C   UNL A   1      40.594  31.042  30.060  1.00  0.00     0.031 C 
ATOM     36  C   UNL A   1      46.591  30.400  30.741  1.00  0.00     0.029 A 
ATOM     37  C   UNL A   1      45.260  30.145  30.458  1.00  0.00     0.049 A 
ATOM     38  H   UNL A   1      44.366  28.372  29.741  1.00  0.00     0.167 HD
ATOM     39  C   UNL A   1      42.855  30.721  30.263  1.00  0.00     0.074 A 
ATOM     40  C   UNL A   1      41.735  31.631  30.391  1.00  0.00     0.031 C 
ATOM     41  C   UNL A   1      44.133  31.032  30.588  1.00  0.00     0.037 A 
BRANCH  28  42
ATOM     42  C   UNL A   1      48.190  26.478  29.676  1.00  0.00     0.057 A 
ATOM     43  C   UNL A   1      48.696  25.881  30.837  1.00  0.00     0.134 A 
ATOM     44  C   UNL A   1      49.091  26.738  28.636  1.00  0.00     0.134 A 
ATOM     45  F   UNL A   1      47.886  25.612  31.872  1.00  0.00    -0.206 F 
ATOM     46  C   UNL A   1      50.051  25.575  30.971  1.00  0.00     0.040 A 
ATOM     47  C   UNL A   1      50.446  26.421  28.751  1.00  0.00     0.040 A 
ATOM     48  F   UNL A   1      48.668  27.300  27.494  1.00  0.00    -0.206 F 
ATOM     49  C   UNL A   1      50.931  25.848  29.925  1.00  0.00     0.006 A 
ENDBRANCH  28  42
BRANCH  29  50
ATOM     50  C   UNL A   1      38.592  29.161  29.039  1.00  0.00     0.057 A 
ATOM     51  C   UNL A   1      38.086  29.622  27.818  1.00  0.00     0.134 A 
ATOM     52  C   UNL A   1      37.719  29.132  30.131  1.00  0.00     0.134 A 
ATOM     53  F   UNL A   1      38.876  29.682  26.736  1.00  0.00    -0.206 F 
ATOM     54  C   UNL A   1      36.767  30.059  27.693  1.00  0.00     0.040 A 
ATOM     55  C   UNL A   1      36.390  29.540  30.014  1.00  0.00     0.040 A 
ATOM     56  F   UNL A   1      38.143  28.684  31.323  1.00  0.00    -0.206 F 
ATOM     57  C   UNL A   1      35.913  30.014  28.793  1.00  0.00     0.006 A 
ENDBRANCH  29  50
BRANCH  41  58
ATOM     58  C   UNL A   1      44.383  32.411  31.114  1.00  0.00     0.057 A 
ATOM     59  C   UNL A   1      44.677  33.469  30.245  1.00  0.00     0.134 A 
ATOM     60  C   UNL A   1      44.371  32.682  32.488  1.00  0.00     0.134 A 
ATOM     61  F   UNL A   1      44.711  33.271  28.919  1.00  0.00    -0.206 F 
ATOM     62  C   UNL A   1      44.954  34.749  30.726  1.00  0.00     0.040 A 
ATOM     63  C   UNL A   1      44.625  33.963  32.979  1.00  0.00     0.040 A 
ATOM     64  F   UNL A   1      44.083  31.713  33.370  1.00  0.00    -0.206 F 
ATOM     65  C   UNL A   1      44.924  34.999  32.096  1.00  0.00     0.006 A 
ENDBRANCH  41  58
ENDBRANCH  15  16
ENDBRANCH   8  10
ENDBRANCH   5   6
ENDBRANCH   4   5
ENDBRANCH   3   4
ENDBRANCH   2   3
ENDBRANCH   1   2
BRANCH   1  66
ATOM     66  C   UNL A   1      34.392  22.460  23.709  1.00  0.00     0.116 C 
BRANCH  66  67
ATOM     67  N   UNL A   1      33.236  21.619  23.933  1.00  0.00    -0.354 N 
ATOM     68  C   UNL A   1      32.632  21.280  25.107  1.00  0.00     0.244 C 
ATOM     69  H   UNL A   1      32.827  21.237  23.122  1.00  0.00     0.163 HD
ATOM     70  O   UNL A   1      31.813  20.358  25.081  1.00  0.00    -0.273 OA
BRANCH  68  71
ATOM     71  C   UNL A   1      32.880  22.109  26.386  1.00  0.00     0.197 C 
BRANCH  71  72
ATOM     72  N   UNL A   1      31.568  22.527  26.902  1.00  0.00    -0.340 N 
ATOM     73  C   UNL A   1      30.835  23.657  26.739  1.00  0.00     0.243 C 
ATOM     74  H   UNL A   1      31.136  21.854  27.478  1.00  0.00     0.164 HD
ATOM     75  O   UNL A   1      29.700  23.667  27.226  1.00  0.00    -0.273 OA
BRANCH  73  76
ATOM     76  C   UNL A   1      31.311  24.838  25.877  1.00  0.00     0.176 C 
BRANCH  76  77
ATOM     77  N   UNL A   1      32.775  24.930  25.776  1.00  0.00    -0.340 N 
ATOM     78  C   UNL A   1      33.578  26.039  25.769  1.00  0.00     0.251 C 
ATOM     79  H   UNL A   1      33.247  24.070  25.703  1.00  0.00     0.164 HD
ATOM     80  O   UNL A   1      34.770  25.912  25.504  1.00  0.00    -0.269 OA
BRANCH  78  81
ATOM     81  C   UNL A   1      33.020  27.375  26.043  1.00  0.00     0.040 A 
ATOM     82  C   UNL A   1      32.220  27.609  27.169  1.00  0.00     0.017 A 
ATOM     83  C   UNL A   1      33.339  28.419  25.167  1.00  0.00     0.017 A 
ATOM     84  C   UNL A   1      31.691  28.881  27.381  1.00  0.00     0.040 A 
ATOM     85  C   UNL A   1      32.812  29.690  25.389  1.00  0.00     0.040 A 
ATOM     86  C   UNL A   1      31.986  29.907  26.488  1.00  0.00     0.123 A 
ATOM     87  F   UNL A   1      31.470  31.125  26.692  1.00  0.00    -0.207 F 
ENDBRANCH  78  81
ENDBRANCH  76  77
BRANCH  76  88
ATOM     88  C   UNL A   1      30.617  24.783  24.505  1.00  0.00     0.070 C 
BRANCH  88  89
ATOM     89  C   UNL A   1      30.668  26.109  23.780  1.00  0.00    -0.045 A 
ATOM     90  C   UNL A   1      29.824  27.161  24.160  1.00  0.00     0.007 A 
ATOM     91  C   UNL A   1      31.537  26.287  22.693  1.00  0.00     0.007 A 
ATOM     92  C   UNL A   1      29.842  28.369  23.459  1.00  0.00     0.046 A 
ATOM     93  C   UNL A   1      31.550  27.490  21.990  1.00  0.00     0.046 A 
ATOM     94  C   UNL A   1      30.701  28.521  22.376  1.00  0.00     0.115 A 
BRANCH  94  95
ATOM     95  O   UNL A   1      30.738  29.677  21.654  1.00  0.00    -0.508 OA
ATOM     96  H   UNL A   1      31.495  30.229  21.695  1.00  0.00     0.293 HD
ENDBRANCH  94  95
ENDBRANCH  88  89
ENDBRANCH  76  88
ENDBRANCH  73  76
ENDBRANCH  71  72
BRANCH  71  97
ATOM     97  C   UNL A   1      33.648  21.405  27.511  1.00  0.00     0.191 C 
BRANCH  97  98
ATOM     98  O   UNL A   1      34.779  22.152  27.944  1.00  0.00    -0.394 OA
ATOM     99  H   UNL A   1      35.281  21.634  28.590  1.00  0.00     0.210 HD
ENDBRANCH  97  98
ENDBRANCH  71  97
ENDBRANCH  68  71
ENDBRANCH  66  67
ENDBRANCH   1  66
TORSDOF 22
ENDMDL
MODEL 2
REMARK VINA RESULT:     -11.3      1.228      2.458
REMARK SMILES O=C(NCCCCCCNC(=O)[C@H](CO)NC(=O)[C@H](Cc1ccc(O)cc1)NC(=O)c1ccc(F)cc1)c1ccc(-c2c3nc(c(-c4c(F)cccc4F)c4ccc([nH]4)c(-c4c(F)cccc4F)c4nc(c(-c5c(F)cccc5F)c5ccc2[nH]5)C=C4)C=C3)cc1
REMARK SMILES IDX 8 1 7 2 6 3 5 4 4 5 3 6 1 7 2 8 38 10 39 11 91 12 40 13
REMARK SMILES IDX 90 14 41 15 42 16 43 17 84 18 44 19 89 20 83 21 85 22 45 23
REMARK SMILES IDX 88 24 82 25 81 26 46 28 72 29 55 30 71 31 56 32 59 33 70 34
REMARK SMILES IDX 86 35 57 36 58 37 69 39 87 40 60 41 47 42 48 43 53 44 49 45
REMARK SMILES IDX 50 46 52 47 54 48 51 49 73 50 74 51 79 52 75 53 76 54 78 55
REMARK SMILES IDX 80 56 77 57 61 58 62 59 67 60 63 61 64 62 66 63 68 64 65 65
REMARK SMILES IDX 9 66 10 67 11 68 12 70 13 71 16 72 17 73 18 75 19 76 28 77
REMARK SMILES IDX 29 78 30 80 31 81 32 82 37 83 33 84 36 85 34 86 35 87 20 88
REMARK SMILES IDX 21 89 22 90 27 91 23 92 26 93 24 94 25 95 14 97 15 98
REMARK H PARENT 3 9 85 27 59 38 10 69 16 74 28 79 25 96 15 99
REMARK Flexibility Score: inf
ROOT
ATOM      1  C   UNL A   1      37.145  23.051  24.500  1.00  0.00     0.021 C 
ENDROOT
BRANCH   1   2
ATOM      2  C   UNL A   1      37.974  23.524  25.703  1.00  0.00     0.002 C 
BRANCH   2   3
ATOM      3  C   UNL A   1      38.863  22.449  26.337  1.00  0.00     0.002 C 
BRANCH   3   4
ATOM      4  C   UNL A   1      39.041  21.184  25.499  1.00  0.00     0.021 C 
BRANCH   4   5
ATOM      5  C   UNL A   1      39.344  19.932  26.311  1.00  0.00     0.116 C 
BRANCH   5   6
ATOM      6  N   UNL A   1      40.544  19.255  25.849  1.00  0.00    -0.352 N 
ATOM      7  O   UNL A   1      42.702  19.117  25.192  1.00  0.00    -0.269 OA
ATOM      8  C   UNL A   1      41.829  19.741  25.776  1.00  0.00     0.251 C 
ATOM      9  H   UNL A   1      40.421  18.326  25.549  1.00  0.00     0.163 HD
BRANCH   8  10
ATOM     10  C   UNL A   1      42.138  21.046  26.401  1.00  0.00     0.039 A 
ATOM     11  C   UNL A   1      42.101  21.186  27.789  1.00  0.00     0.014 A 
ATOM     12  C   UNL A   1      42.467  22.137  25.590  1.00  0.00     0.014 A 
ATOM     13  C   UNL A   1      42.264  22.441  28.358  1.00  0.00     0.010 A 
ATOM     14  C   UNL A   1      42.718  23.384  26.172  1.00  0.00     0.010 A 
ATOM     15  C   UNL A   1      42.598  23.549  27.559  1.00  0.00    -0.014 A 
BRANCH  15  16
ATOM     16  C   UNL A   1      42.902  24.838  28.230  1.00  0.00     0.031 A 
ATOM     17  C   UNL A   1      44.309  25.238  28.569  1.00  0.00     0.074 A 
ATOM     18  C   UNL A   1      41.878  25.684  28.464  1.00  0.00     0.049 A 
ATOM     19  N   UNL A   1      44.739  26.368  29.072  1.00  0.00    -0.248 NA
ATOM     20  C   UNL A   1      45.371  24.252  28.319  1.00  0.00     0.031 C 
ATOM     21  C   UNL A   1      40.469  25.391  28.186  1.00  0.00     0.029 A 
ATOM     22  N   UNL A   1      41.862  26.969  28.939  1.00  0.00    -0.354 N 
ATOM     23  C   UNL A   1      46.113  26.227  29.211  1.00  0.00     0.074 A 
ATOM     24  C   UNL A   1      46.447  24.894  28.759  1.00  0.00     0.031 C 
ATOM     25  C   UNL A   1      39.739  26.489  28.415  1.00  0.00     0.029 A 
ATOM     26  C   UNL A   1      40.614  27.543  28.916  1.00  0.00     0.049 A 
ATOM     27  H   UNL A   1      42.665  27.436  29.265  1.00  0.00     0.167 HD
ATOM     28  C   UNL A   1      47.009  27.134  29.668  1.00  0.00     0.037 A 
ATOM     29  C   UNL A   1      40.214  28.780  29.259  1.00  0.00     0.037 A 
ATOM     30  C   UNL A   1      46.672  28.467  30.099  1.00  0.00     0.049 A 
ATOM     31  C   UNL A   1      41.231  29.758  29.764  1.00  0.00     0.074 A 
ATOM     32  C   UNL A   1      47.516  29.461  30.562  1.00  0.00     0.029 A 
ATOM     33  N   UNL A   1      45.389  28.992  30.115  1.00  0.00    -0.354 N 
ATOM     34  N   UNL A   1      42.528  29.610  29.881  1.00  0.00    -0.248 NA
ATOM     35  C   UNL A   1      40.730  31.069  30.197  1.00  0.00     0.031 C 
ATOM     36  C   UNL A   1      46.740  30.577  30.889  1.00  0.00     0.029 A 
ATOM     37  C   UNL A   1      45.418  30.292  30.594  1.00  0.00     0.049 A 
ATOM     38  H   UNL A   1      44.577  28.514  29.829  1.00  0.00     0.167 HD
ATOM     39  C   UNL A   1      42.999  30.806  30.402  1.00  0.00     0.074 A 
ATOM     40  C   UNL A   1      41.853  31.681  30.547  1.00  0.00     0.031 C 
ATOM     41  C   UNL A   1      44.266  31.144  30.740  1.00  0.00     0.037 A 
BRANCH  28  42
ATOM     42  C   UNL A   1      48.452  26.729  29.734  1.00  0.00     0.057 A 
ATOM     43  C   UNL A   1      48.966  26.102  30.877  1.00  0.00     0.134 A 
ATOM     44  C   UNL A   1      49.353  27.053  28.713  1.00  0.00     0.134 A 
ATOM     45  F   UNL A   1      48.157  25.772  31.894  1.00  0.00    -0.206 F 
ATOM     46  C   UNL A   1      50.329  25.830  31.011  1.00  0.00     0.040 A 
ATOM     47  C   UNL A   1      50.716  26.770  28.827  1.00  0.00     0.040 A 
ATOM     48  F   UNL A   1      48.923  27.646  27.590  1.00  0.00    -0.206 F 
ATOM     49  C   UNL A   1      51.208  26.167  29.983  1.00  0.00     0.006 A 
ENDBRANCH  28  42
BRANCH  29  50
ATOM     50  C   UNL A   1      38.786  29.159  29.121  1.00  0.00     0.057 A 
ATOM     51  C   UNL A   1      37.908  29.102  30.211  1.00  0.00     0.134 A 
ATOM     52  C   UNL A   1      38.261  29.558  27.888  1.00  0.00     0.134 A 
ATOM     53  F   UNL A   1      38.350  28.718  31.417  1.00  0.00    -0.206 F 
ATOM     54  C   UNL A   1      36.555  29.409  30.074  1.00  0.00     0.040 A 
ATOM     55  C   UNL A   1      36.914  29.895  27.743  1.00  0.00     0.040 A 
ATOM     56  F   UNL A   1      39.057  29.646  26.812  1.00  0.00    -0.206 F 
ATOM     57  C   UNL A   1      36.055  29.812  28.837  1.00  0.00     0.006 A 
ENDBRANCH  29  50
BRANCH  41  58
ATOM     58  C   UNL A   1      44.476  32.517  31.301  1.00  0.00     0.057 A 
ATOM     59  C   UNL A   1      44.401  32.748  32.680  1.00  0.00     0.134 A 
ATOM     60  C   UNL A   1      44.714  33.617  30.468  1.00  0.00     0.134 A 
ATOM     61  F   UNL A   1      44.168  31.735  33.529  1.00  0.00    -0.206 F 
ATOM     62  C   UNL A   1      44.552  34.029  33.211  1.00  0.00     0.040 A 
ATOM     63  C   UNL A   1      44.888  34.900  30.990  1.00  0.00     0.040 A 
ATOM     64  F   UNL A   1      44.810  33.457  29.140  1.00  0.00    -0.206 F 
ATOM     65  C   UNL A   1      44.801  35.108  32.365  1.00  0.00     0.006 A 
ENDBRANCH  41  58
ENDBRANCH  15  16
ENDBRANCH   8  10
ENDBRANCH   5   6
ENDBRANCH   4   5
ENDBRANCH   3   4
ENDBRANCH   2   3
ENDBRANCH   1   2
BRANCH   1  66
ATOM     66  C   UNL A   1      35.764  23.703  24.420  1.00  0.00     0.116 C 
BRANCH  66  67
ATOM     67  N   UNL A   1      34.796  22.746  23.932  1.00  0.00    -0.354 N 
ATOM     68  C   UNL A   1      33.875  22.022  24.629  1.00  0.00     0.244 C 
ATOM     69  H   UNL A   1      34.803  22.596  22.958  1.00  0.00     0.163 HD
ATOM     70  O   UNL A   1      33.321  21.089  24.041  1.00  0.00    -0.273 OA
BRANCH  68  71
ATOM     71  C   UNL A   1      33.461  22.442  26.055  1.00  0.00     0.197 C 
BRANCH  71  72
ATOM     72  N   UNL A   1      32.020  22.177  26.192  1.00  0.00    -0.340 N 
ATOM     73  C   UNL A   1      30.926  22.969  26.076  1.00  0.00     0.243 C 
ATOM     74  H   UNL A   1      31.810  21.240  26.411  1.00  0.00     0.164 HD
ATOM     75  O   UNL A   1      29.822  22.419  26.146  1.00  0.00    -0.273 OA
BRANCH  73  76
ATOM     76  C   UNL A   1      31.017  24.466  25.735  1.00  0.00     0.176 C 
BRANCH  76  77
ATOM     77  N   UNL A   1      29.827  24.976  25.040  1.00  0.00    -0.340 N 
ATOM     78  C   UNL A   1      29.733  25.929  24.061  1.00  0.00     0.251 C 
ATOM     79  H   UNL A   1      28.972  24.575  25.318  1.00  0.00     0.164 HD
ATOM     80  O   UNL A   1      28.624  26.338  23.729  1.00  0.00    -0.269 OA
BRANCH  78  81
ATOM     81  C   UNL A   1      30.945  26.486  23.435  1.00  0.00     0.040 A 
ATOM     82  C   UNL A   1      31.932  25.651  22.898  1.00  0.00     0.017 A 
ATOM     83  C   UNL A   1      31.069  27.879  23.354  1.00  0.00     0.017 A 
ATOM     84  C   UNL A   1      33.076  26.215  22.334  1.00  0.00     0.040 A 
ATOM     85  C   UNL A   1      32.212  28.436  22.783  1.00  0.00     0.040 A 
ATOM     86  C   UNL A   1      33.208  27.600  22.287  1.00  0.00     0.123 A 
ATOM     87  F   UNL A   1      34.311  28.136  21.750  1.00  0.00    -0.207 F 
ENDBRANCH  78  81
ENDBRANCH  76  77
BRANCH  76  88
ATOM     88  C   UNL A   1      31.356  25.262  27.008  1.00  0.00     0.070 C 
BRANCH  88  89
ATOM     89  C   UNL A   1      32.043  26.573  26.701  1.00  0.00    -0.045 A 
ATOM     90  C   UNL A   1      33.331  26.591  26.151  1.00  0.00     0.007 A 
ATOM     91  C   UNL A   1      31.410  27.789  27.001  1.00  0.00     0.007 A 
ATOM     92  C   UNL A   1      33.981  27.804  25.911  1.00  0.00     0.046 A 
ATOM     93  C   UNL A   1      32.061  28.999  26.767  1.00  0.00     0.046 A 
ATOM     94  C   UNL A   1      33.342  28.998  26.227  1.00  0.00     0.115 A 
BRANCH  94  95
ATOM     95  O   UNL A   1      33.946  30.203  26.025  1.00  0.00    -0.508 OA
ATOM     96  H   UNL A   1      33.616  30.787  25.370  1.00  0.00     0.293 HD
ENDBRANCH  94  95
ENDBRANCH  88  89
ENDBRANCH  76  88
ENDBRANCH  73  76
ENDBRANCH  71  72
BRANCH  71  97
ATOM     97  C   UNL A   1      34.199  21.750  27.206  1.00  0.00     0.191 C 
BRANCH  97  98
ATOM     98  O   UNL A   1      35.496  21.304  26.827  1.00  0.00    -0.394 OA
ATOM     99  H   UNL A   1      35.928  21.986  26.291  1.00  0.00     0.210 HD
ENDBRANCH  97  98
ENDBRANCH  71  97
ENDBRANCH  68  71
ENDBRANCH  66  67
ENDBRANCH   1  66
TORSDOF 22
ENDMDL
MODEL 3
REMARK VINA RESULT:     -11.2      5.059      9.877
REMARK SMILES O=C(NCCCCCCNC(=O)[C@H](CO)NC(=O)[C@H](Cc1ccc(O)cc1)NC(=O)c1ccc(F)cc1)c1ccc(-c2c3nc(c(-c4c(F)cccc4F)c4ccc([nH]4)c(-c4c(F)cccc4F)c4nc(c(-c5c(F)cccc5F)c5ccc2[nH]5)C=C4)C=C3)cc1
REMARK SMILES IDX 8 1 7 2 6 3 5 4 4 5 3 6 1 7 2 8 38 10 39 11 91 12 40 13
REMARK SMILES IDX 90 14 41 15 42 16 43 17 84 18 44 19 89 20 83 21 85 22 45 23
REMARK SMILES IDX 88 24 82 25 81 26 46 28 72 29 55 30 71 31 56 32 59 33 70 34
REMARK SMILES IDX 86 35 57 36 58 37 69 39 87 40 60 41 47 42 48 43 53 44 49 45
REMARK SMILES IDX 50 46 52 47 54 48 51 49 73 50 74 51 79 52 75 53 76 54 78 55
REMARK SMILES IDX 80 56 77 57 61 58 62 59 67 60 63 61 64 62 66 63 68 64 65 65
REMARK SMILES IDX 9 66 10 67 11 68 12 70 13 71 16 72 17 73 18 75 19 76 28 77
REMARK SMILES IDX 29 78 30 80 31 81 32 82 37 83 33 84 36 85 34 86 35 87 20 88
REMARK SMILES IDX 21 89 22 90 27 91 23 92 26 93 24 94 25 95 14 97 15 98
REMARK H PARENT 3 9 85 27 59 38 10 69 16 74 28 79 25 96 15 99
REMARK Flexibility Score: inf
ROOT
ATOM      1  C   UNL A   1      34.356  32.695  29.213  1.00  0.00     0.021 C 
ENDROOT
BRANCH   1   2
ATOM      2  C   UNL A   1      35.328  33.849  28.925  1.00  0.00     0.002 C 
BRANCH   2   3
ATOM      3  C   UNL A   1      34.741  34.996  28.095  1.00  0.00     0.002 C 
BRANCH   3   4
ATOM      4  C   UNL A   1      33.877  35.981  28.881  1.00  0.00     0.021 C 
BRANCH   4   5
ATOM      5  C   UNL A   1      32.776  35.329  29.706  1.00  0.00     0.116 C 
BRANCH   5   6
ATOM      6  N   UNL A   1      32.329  36.178  30.796  1.00  0.00    -0.352 N 
ATOM      7  O   UNL A   1      32.111  36.806  32.957  1.00  0.00    -0.269 OA
ATOM      8  C   UNL A   1      32.712  36.151  32.118  1.00  0.00     0.251 C 
ATOM      9  H   UNL A   1      31.665  36.864  30.559  1.00  0.00     0.163 HD
BRANCH   8  10
ATOM     10  C   UNL A   1      33.853  35.298  32.516  1.00  0.00     0.039 A 
ATOM     11  C   UNL A   1      35.160  35.776  32.399  1.00  0.00     0.014 A 
ATOM     12  C   UNL A   1      33.613  34.012  33.008  1.00  0.00     0.014 A 
ATOM     13  C   UNL A   1      36.228  34.926  32.651  1.00  0.00     0.010 A 
ATOM     14  C   UNL A   1      34.691  33.185  33.345  1.00  0.00     0.010 A 
ATOM     15  C   UNL A   1      36.006  33.630  33.149  1.00  0.00    -0.014 A 
BRANCH  15  16
ATOM     16  C   UNL A   1      37.182  32.811  33.537  1.00  0.00     0.031 A 
ATOM     17  C   UNL A   1      37.773  31.790  32.609  1.00  0.00     0.074 A 
ATOM     18  C   UNL A   1      37.759  33.062  34.730  1.00  0.00     0.049 A 
ATOM     19  N   UNL A   1      38.851  31.064  32.772  1.00  0.00    -0.248 NA
ATOM     20  C   UNL A   1      37.071  31.543  31.340  1.00  0.00     0.031 C 
ATOM     21  C   UNL A   1      37.260  34.025  35.716  1.00  0.00     0.029 A 
ATOM     22  N   UNL A   1      38.907  32.573  35.296  1.00  0.00    -0.354 N 
ATOM     23  C   UNL A   1      38.951  30.269  31.638  1.00  0.00     0.074 A 
ATOM     24  C   UNL A   1      37.814  30.583  30.801  1.00  0.00     0.031 C 
ATOM     25  C   UNL A   1      38.137  34.117  36.724  1.00  0.00     0.029 A 
ATOM     26  C   UNL A   1      39.226  33.176  36.489  1.00  0.00     0.049 A 
ATOM     27  H   UNL A   1      39.449  31.859  34.890  1.00  0.00     0.167 HD
ATOM     28  C   UNL A   1      39.912  29.365  31.327  1.00  0.00     0.037 A 
ATOM     29  C   UNL A   1      40.279  32.996  37.305  1.00  0.00     0.037 A 
ATOM     30  C   UNL A   1      41.052  29.071  32.157  1.00  0.00     0.049 A 
ATOM     31  C   UNL A   1      41.322  31.986  36.933  1.00  0.00     0.074 A 
ATOM     32  C   UNL A   1      42.086  28.183  31.915  1.00  0.00     0.029 A 
ATOM     33  N   UNL A   1      41.311  29.661  33.384  1.00  0.00    -0.354 N 
ATOM     34  N   UNL A   1      41.405  31.248  35.853  1.00  0.00    -0.248 NA
ATOM     35  C   UNL A   1      42.410  31.772  37.896  1.00  0.00     0.031 C 
ATOM     36  C   UNL A   1      42.953  28.211  33.011  1.00  0.00     0.029 A 
ATOM     37  C   UNL A   1      42.481  29.145  33.918  1.00  0.00     0.049 A 
ATOM     38  H   UNL A   1      40.748  30.346  33.814  1.00  0.00     0.167 HD
ATOM     39  C   UNL A   1      42.551  30.482  36.006  1.00  0.00     0.074 A 
ATOM     40  C   UNL A   1      43.149  30.869  37.268  1.00  0.00     0.031 C 
ATOM     41  C   UNL A   1      43.056  29.535  35.179  1.00  0.00     0.037 A 
BRANCH  28  42
ATOM     42  C   UNL A   1      39.784  28.616  30.033  1.00  0.00     0.057 A 
ATOM     43  C   UNL A   1      39.152  27.367  29.992  1.00  0.00     0.134 A 
ATOM     44  C   UNL A   1      40.378  29.082  28.854  1.00  0.00     0.134 A 
ATOM     45  F   UNL A   1      38.570  26.861  31.089  1.00  0.00    -0.206 F 
ATOM     46  C   UNL A   1      39.132  26.597  28.827  1.00  0.00     0.040 A 
ATOM     47  C   UNL A   1      40.349  28.329  27.678  1.00  0.00     0.040 A 
ATOM     48  F   UNL A   1      40.991  30.274  28.826  1.00  0.00    -0.206 F 
ATOM     49  C   UNL A   1      39.734  27.078  27.666  1.00  0.00     0.006 A 
ENDBRANCH  28  42
BRANCH  29  50
ATOM     50  C   UNL A   1      40.397  33.801  38.546  1.00  0.00     0.057 A 
ATOM     51  C   UNL A   1      41.206  34.944  38.600  1.00  0.00     0.134 A 
ATOM     52  C   UNL A   1      39.726  33.428  39.715  1.00  0.00     0.134 A 
ATOM     53  F   UNL A   1      41.881  35.347  37.514  1.00  0.00    -0.206 F 
ATOM     54  C   UNL A   1      41.358  35.675  39.777  1.00  0.00     0.040 A 
ATOM     55  C   UNL A   1      39.848  34.167  40.893  1.00  0.00     0.040 A 
ATOM     56  F   UNL A   1      38.925  32.352  39.720  1.00  0.00    -0.206 F 
ATOM     57  C   UNL A   1      40.673  35.289  40.929  1.00  0.00     0.006 A 
ENDBRANCH  29  50
BRANCH  41  58
ATOM     58  C   UNL A   1      44.315  28.852  35.617  1.00  0.00     0.057 A 
ATOM     59  C   UNL A   1      44.268  27.708  36.422  1.00  0.00     0.134 A 
ATOM     60  C   UNL A   1      45.576  29.355  35.272  1.00  0.00     0.134 A 
ATOM     61  F   UNL A   1      43.091  27.183  36.794  1.00  0.00    -0.206 F 
ATOM     62  C   UNL A   1      45.434  27.089  36.872  1.00  0.00     0.040 A 
ATOM     63  C   UNL A   1      46.749  28.730  35.698  1.00  0.00     0.040 A 
ATOM     64  F   UNL A   1      45.685  30.441  34.492  1.00  0.00    -0.206 F 
ATOM     65  C   UNL A   1      46.678  27.597  36.506  1.00  0.00     0.006 A 
ENDBRANCH  41  58
ENDBRANCH  15  16
ENDBRANCH   8  10
ENDBRANCH   5   6
ENDBRANCH   4   5
ENDBRANCH   3   4
ENDBRANCH   2   3
ENDBRANCH   1   2
BRANCH   1  66
ATOM     66  C   UNL A   1      34.129  31.778  28.011  1.00  0.00     0.116 C 
BRANCH  66  67
ATOM     67  N   UNL A   1      35.232  30.849  27.886  1.00  0.00    -0.354 N 
ATOM     68  C   UNL A   1      35.232  29.571  27.414  1.00  0.00     0.244 C 
ATOM     69  H   UNL A   1      36.107  31.190  28.185  1.00  0.00     0.163 HD
ATOM     70  O   UNL A   1      36.235  28.885  27.628  1.00  0.00    -0.273 OA
BRANCH  68  71
ATOM     71  C   UNL A   1      34.067  29.055  26.542  1.00  0.00     0.197 C 
BRANCH  71  72
ATOM     72  N   UNL A   1      32.917  28.830  27.430  1.00  0.00    -0.340 N 
ATOM     73  C   UNL A   1      31.949  27.880  27.457  1.00  0.00     0.243 C 
ATOM     74  H   UNL A   1      32.833  29.502  28.146  1.00  0.00     0.164 HD
ATOM     75  O   UNL A   1      31.165  27.902  28.411  1.00  0.00    -0.273 OA
BRANCH  73  76
ATOM     76  C   UNL A   1      31.886  26.731  26.439  1.00  0.00     0.176 C 
BRANCH  76  77
ATOM     77  N   UNL A   1      31.469  25.452  27.032  1.00  0.00    -0.340 N 
ATOM     78  C   UNL A   1      31.813  24.175  26.676  1.00  0.00     0.251 C 
ATOM     79  H   UNL A   1      30.852  25.523  27.795  1.00  0.00     0.164 HD
ATOM     80  O   UNL A   1      31.221  23.231  27.191  1.00  0.00    -0.269 OA
BRANCH  78  81
ATOM     81  C   UNL A   1      32.857  23.931  25.665  1.00  0.00     0.040 A 
ATOM     82  C   UNL A   1      32.569  23.248  24.477  1.00  0.00     0.017 A 
ATOM     83  C   UNL A   1      34.142  24.432  25.905  1.00  0.00     0.017 A 
ATOM     84  C   UNL A   1      33.588  23.016  23.555  1.00  0.00     0.040 A 
ATOM     85  C   UNL A   1      35.155  24.201  24.976  1.00  0.00     0.040 A 
ATOM     86  C   UNL A   1      34.871  23.489  23.815  1.00  0.00     0.123 A 
ATOM     87  F   UNL A   1      35.849  23.257  22.929  1.00  0.00    -0.207 F 
ENDBRANCH  78  81
ENDBRANCH  76  77
BRANCH  76  88
ATOM     88  C   UNL A   1      31.012  27.152  25.243  1.00  0.00     0.070 C 
BRANCH  88  89
ATOM     89  C   UNL A   1      31.626  26.767  23.917  1.00  0.00    -0.045 A 
ATOM     90  C   UNL A   1      32.970  27.056  23.643  1.00  0.00     0.007 A 
ATOM     91  C   UNL A   1      30.845  26.149  22.929  1.00  0.00     0.007 A 
ATOM     92  C   UNL A   1      33.522  26.741  22.400  1.00  0.00     0.046 A 
ATOM     93  C   UNL A   1      31.395  25.840  21.686  1.00  0.00     0.046 A 
ATOM     94  C   UNL A   1      32.727  26.140  21.430  1.00  0.00     0.115 A 
BRANCH  94  95
ATOM     95  O   UNL A   1      33.221  25.831  20.198  1.00  0.00    -0.508 OA
ATOM     96  H   UNL A   1      34.077  26.122  19.950  1.00  0.00     0.293 HD
ENDBRANCH  94  95
ENDBRANCH  88  89
ENDBRANCH  76  88
ENDBRANCH  73  76
ENDBRANCH  71  72
BRANCH  71  97
ATOM     97  C   UNL A   1      33.628  29.966  25.391  1.00  0.00     0.191 C 
BRANCH  97  98
ATOM     98  O   UNL A   1      32.250  30.312  25.470  1.00  0.00    -0.394 OA
ATOM     99  H   UNL A   1      31.891  30.419  24.575  1.00  0.00     0.210 HD
ENDBRANCH  97  98
ENDBRANCH  71  97
ENDBRANCH  68  71
ENDBRANCH  66  67
ENDBRANCH   1  66
TORSDOF 22
ENDMDL
