MODEL 1
REMARK VINA RESULT:     -11.2      0.000      0.000
REMARK SMILES O=C(C[C@@H]1CN(C(=O)CCn2cncn2)CCO1)NCCCCCCNC(=O)c1ccc(-c2c3nc(c(-c4c(F)cccc4F)c4ccc([nH]4)c(-c4c(F)cccc4F)c4nc(c(-c5c(F)cccc5F)c5ccc2[nH]5)C=C4)C=C3)cc1
REMARK SMILES IDX 21 1 20 2 19 3 1 4 2 5 3 7 4 8 5 9 18 10 6 11 17 12 16 13
REMARK SMILES IDX 7 14 8 15 9 16 10 17 11 18 12 19 15 20 13 21 14 22 22 23
REMARK SMILES IDX 23 24 24 25 25 26 26 27 27 28 28 30 29 31 30 32 82 33 31 34
REMARK SMILES IDX 81 35 32 36 33 37 34 38 75 39 35 40 80 41 74 42 76 43 36 44
REMARK SMILES IDX 79 45 73 46 72 47 37 49 63 50 46 51 62 52 47 53 50 54 61 55
REMARK SMILES IDX 77 56 48 57 49 58 60 60 78 61 51 62 38 63 39 64 44 65 40 66
REMARK SMILES IDX 41 67 43 68 45 69 42 70 64 71 65 72 70 73 66 74 67 75 69 76
REMARK SMILES IDX 71 77 68 78 52 79 53 80 58 81 54 82 55 83 57 84 59 85 56 86
REMARK H PARENT 19 6 26 29 76 48 50 59
REMARK Flexibility Score: inf
ROOT
ATOM      1  C   UNL A   1      40.756  21.126  26.066  1.00  0.00     0.021 C 
ENDROOT
BRANCH   1   2
ATOM      2  C   UNL A   1      39.556  21.774  26.755  1.00  0.00     0.116 C 
BRANCH   2   3
ATOM      3  N   UNL A   1      38.526  22.054  25.786  1.00  0.00    -0.356 N 
ATOM      4  O   UNL A   1      38.373  24.319  26.141  1.00  0.00    -0.275 OA
ATOM      5  C   UNL A   1      37.966  23.292  25.614  1.00  0.00     0.222 C 
ATOM      6  H   UNL A   1      38.209  21.317  25.216  1.00  0.00     0.163 HD
BRANCH   5   7
ATOM      7  C   UNL A   1      36.769  23.258  24.702  1.00  0.00     0.133 C 
BRANCH   7   8
ATOM      8  C   UNL A   1      35.749  22.241  25.219  1.00  0.00     0.147 C 
ATOM      9  C   UNL A   1      34.602  22.165  24.221  1.00  0.00     0.152 C 
ATOM     10  O   UNL A   1      35.274  22.649  26.516  1.00  0.00    -0.374 OA
ATOM     11  N   UNL A   1      33.499  21.339  24.678  1.00  0.00    -0.338 N 
ATOM     12  C   UNL A   1      34.266  21.740  26.999  1.00  0.00     0.182 C 
ATOM     13  C   UNL A   1      33.066  21.649  26.044  1.00  0.00     0.148 C 
BRANCH  11  14
ATOM     14  C   UNL A   1      32.712  20.557  23.856  1.00  0.00     0.224 C 
ATOM     15  O   UNL A   1      32.089  21.030  22.904  1.00  0.00    -0.275 OA
BRANCH  14  16
ATOM     16  C   UNL A   1      32.562  19.074  24.175  1.00  0.00     0.124 C 
BRANCH  16  17
ATOM     17  C   UNL A   1      33.879  18.377  24.500  1.00  0.00     0.156 C 
BRANCH  17  18
ATOM     18  N   UNL A   1      33.768  16.984  24.878  1.00  0.00    -0.252 N 
ATOM     19  C   UNL A   1      34.766  16.070  25.037  1.00  0.00     0.219 A 
ATOM     20  N   UNL A   1      32.566  16.421  25.099  1.00  0.00    -0.160 NA
ATOM     21  N   UNL A   1      34.245  14.898  25.319  1.00  0.00    -0.224 NA
ATOM     22  C   UNL A   1      32.907  15.160  25.376  1.00  0.00     0.246 A 
ENDBRANCH  17  18
ENDBRANCH  16  17
ENDBRANCH  14  16
ENDBRANCH  11  14
ENDBRANCH   7   8
ENDBRANCH   5   7
ENDBRANCH   2   3
ENDBRANCH   1   2
BRANCH   1  23
ATOM     23  C   UNL A   1      41.946  20.845  26.997  1.00  0.00     0.002 C 
BRANCH  23  24
ATOM     24  C   UNL A   1      42.189  19.369  27.340  1.00  0.00     0.002 C 
BRANCH  24  25
ATOM     25  C   UNL A   1      42.729  18.500  26.197  1.00  0.00     0.021 C 
BRANCH  25  26
ATOM     26  C   UNL A   1      44.244  18.542  26.056  1.00  0.00     0.116 C 
BRANCH  26  27
ATOM     27  N   UNL A   1      44.669  18.600  24.663  1.00  0.00    -0.352 N 
ATOM     28  C   UNL A   1      44.723  19.700  23.832  1.00  0.00     0.251 C 
ATOM     29  H   UNL A   1      44.954  17.746  24.264  1.00  0.00     0.163 HD
ATOM     30  O   UNL A   1      44.726  19.569  22.619  1.00  0.00    -0.269 OA
BRANCH  28  31
ATOM     31  C   UNL A   1      44.775  21.046  24.434  1.00  0.00     0.039 A 
ATOM     32  C   UNL A   1      43.894  22.045  24.011  1.00  0.00     0.014 A 
ATOM     33  C   UNL A   1      45.719  21.303  25.427  1.00  0.00     0.014 A 
ATOM     34  C   UNL A   1      43.913  23.277  24.658  1.00  0.00     0.010 A 
ATOM     35  C   UNL A   1      45.662  22.478  26.141  1.00  0.00     0.010 A 
ATOM     36  C   UNL A   1      44.783  23.481  25.741  1.00  0.00    -0.014 A 
BRANCH  36  37
ATOM     37  C   UNL A   1      44.650  24.676  26.574  1.00  0.00     0.031 A 
ATOM     38  C   UNL A   1      45.790  25.625  26.430  1.00  0.00     0.074 A 
ATOM     39  C   UNL A   1      43.516  25.013  27.225  1.00  0.00     0.049 A 
ATOM     40  N   UNL A   1      46.667  25.946  27.321  1.00  0.00    -0.248 NA
ATOM     41  C   UNL A   1      46.083  26.171  25.092  1.00  0.00     0.031 C 
ATOM     42  C   UNL A   1      42.223  24.319  27.170  1.00  0.00     0.029 A 
ATOM     43  N   UNL A   1      43.234  26.106  27.996  1.00  0.00    -0.354 N 
ATOM     44  C   UNL A   1      47.476  26.916  26.729  1.00  0.00     0.074 A 
ATOM     45  C   UNL A   1      47.205  26.859  25.320  1.00  0.00     0.031 C 
ATOM     46  C   UNL A   1      41.254  25.115  27.672  1.00  0.00     0.029 A 
ATOM     47  C   UNL A   1      41.876  26.295  28.245  1.00  0.00     0.049 A 
ATOM     48  H   UNL A   1      43.931  26.708  28.345  1.00  0.00     0.167 HD
ATOM     49  C   UNL A   1      48.059  27.881  27.494  1.00  0.00     0.037 A 
ATOM     50  C   UNL A   1      41.293  27.340  28.882  1.00  0.00     0.037 A 
ATOM     51  C   UNL A   1      47.981  27.525  28.888  1.00  0.00     0.049 A 
ATOM     52  C   UNL A   1      42.334  28.008  29.690  1.00  0.00     0.074 A 
ATOM     53  C   UNL A   1      48.603  26.642  29.741  1.00  0.00     0.029 A 
ATOM     54  N   UNL A   1      46.814  27.920  29.483  1.00  0.00    -0.354 N 
ATOM     55  N   UNL A   1      42.874  27.472  30.746  1.00  0.00    -0.248 NA
ATOM     56  C   UNL A   1      43.036  29.164  29.143  1.00  0.00     0.031 C 
ATOM     57  C   UNL A   1      47.674  26.391  30.796  1.00  0.00     0.029 A 
ATOM     58  C   UNL A   1      46.533  27.161  30.584  1.00  0.00     0.049 A 
ATOM     59  H   UNL A   1      46.247  28.658  29.158  1.00  0.00     0.167 HD
ATOM     60  C   UNL A   1      44.177  27.921  30.719  1.00  0.00     0.074 A 
ATOM     61  C   UNL A   1      44.166  29.091  29.851  1.00  0.00     0.031 C 
ATOM     62  C   UNL A   1      45.194  27.106  31.120  1.00  0.00     0.037 A 
BRANCH  49  63
ATOM     63  C   UNL A   1      48.220  29.340  27.095  1.00  0.00     0.057 A 
ATOM     64  C   UNL A   1      49.481  29.950  27.265  1.00  0.00     0.134 A 
ATOM     65  C   UNL A   1      47.158  30.239  26.876  1.00  0.00     0.134 A 
ATOM     66  F   UNL A   1      50.582  29.212  27.481  1.00  0.00    -0.206 F 
ATOM     67  C   UNL A   1      49.652  31.341  27.309  1.00  0.00     0.040 A 
ATOM     68  C   UNL A   1      47.325  31.630  26.871  1.00  0.00     0.040 A 
ATOM     69  F   UNL A   1      45.888  29.842  26.754  1.00  0.00    -0.206 F 
ATOM     70  C   UNL A   1      48.568  32.187  27.123  1.00  0.00     0.006 A 
ENDBRANCH  49  63
BRANCH  50  71
ATOM     71  C   UNL A   1      39.936  27.916  28.763  1.00  0.00     0.057 A 
ATOM     72  C   UNL A   1      39.039  27.889  29.842  1.00  0.00     0.134 A 
ATOM     73  C   UNL A   1      39.604  28.771  27.701  1.00  0.00     0.134 A 
ATOM     74  F   UNL A   1      39.282  27.120  30.913  1.00  0.00    -0.206 F 
ATOM     75  C   UNL A   1      37.901  28.704  29.885  1.00  0.00     0.040 A 
ATOM     76  C   UNL A   1      38.468  29.587  27.731  1.00  0.00     0.040 A 
ATOM     77  F   UNL A   1      40.421  28.906  26.646  1.00  0.00    -0.206 F 
ATOM     78  C   UNL A   1      37.623  29.572  28.834  1.00  0.00     0.006 A 
ENDBRANCH  50  71
BRANCH  62  79
ATOM     79  C   UNL A   1      44.846  25.987  32.050  1.00  0.00     0.057 A 
ATOM     80  C   UNL A   1      44.576  24.671  31.651  1.00  0.00     0.134 A 
ATOM     81  C   UNL A   1      44.852  26.250  33.423  1.00  0.00     0.134 A 
ATOM     82  F   UNL A   1      44.619  24.312  30.361  1.00  0.00    -0.206 F 
ATOM     83  C   UNL A   1      44.283  23.671  32.583  1.00  0.00     0.040 A 
ATOM     84  C   UNL A   1      44.595  25.255  34.364  1.00  0.00     0.040 A 
ATOM     85  F   UNL A   1      45.139  27.482  33.872  1.00  0.00    -0.206 F 
ATOM     86  C   UNL A   1      44.298  23.962  33.945  1.00  0.00     0.006 A 
ENDBRANCH  62  79
ENDBRANCH  36  37
ENDBRANCH  28  31
ENDBRANCH  26  27
ENDBRANCH  25  26
ENDBRANCH  24  25
ENDBRANCH  23  24
ENDBRANCH   1  23
TORSDOF 18
ENDMDL
MODEL 2
REMARK VINA RESULT:     -10.6      2.626      4.203
REMARK SMILES O=C(C[C@@H]1CN(C(=O)CCn2cncn2)CCO1)NCCCCCCNC(=O)c1ccc(-c2c3nc(c(-c4c(F)cccc4F)c4ccc([nH]4)c(-c4c(F)cccc4F)c4nc(c(-c5c(F)cccc5F)c5ccc2[nH]5)C=C4)C=C3)cc1
REMARK SMILES IDX 21 1 20 2 19 3 1 4 2 5 3 7 4 8 5 9 18 10 6 11 17 12 16 13
REMARK SMILES IDX 7 14 8 15 9 16 10 17 11 18 12 19 15 20 13 21 14 22 22 23
REMARK SMILES IDX 23 24 24 25 25 26 26 27 27 28 28 30 29 31 30 32 82 33 31 34
REMARK SMILES IDX 81 35 32 36 33 37 34 38 75 39 35 40 80 41 74 42 76 43 36 44
REMARK SMILES IDX 79 45 73 46 72 47 37 49 63 50 46 51 62 52 47 53 50 54 61 55
REMARK SMILES IDX 77 56 48 57 49 58 60 60 78 61 51 62 38 63 39 64 44 65 40 66
REMARK SMILES IDX 41 67 43 68 45 69 42 70 64 71 65 72 70 73 66 74 67 75 69 76
REMARK SMILES IDX 71 77 68 78 52 79 53 80 58 81 54 82 55 83 57 84 59 85 56 86
REMARK H PARENT 19 6 26 29 76 48 50 59
REMARK Flexibility Score: inf
ROOT
ATOM      1  C   UNL A   1      39.188  22.666  26.606  1.00  0.00     0.021 C 
ENDROOT
BRANCH   1   2
ATOM      2  C   UNL A   1      38.406  21.766  25.651  1.00  0.00     0.116 C 
BRANCH   2   3
ATOM      3  N   UNL A   1      36.991  21.930  25.871  1.00  0.00    -0.356 N 
ATOM      4  O   UNL A   1      36.305  19.923  24.987  1.00  0.00    -0.275 OA
ATOM      5  C   UNL A   1      36.050  21.027  25.450  1.00  0.00     0.222 C 
ATOM      6  H   UNL A   1      36.683  22.734  26.349  1.00  0.00     0.163 HD
BRANCH   5   7
ATOM      7  C   UNL A   1      34.647  21.546  25.608  1.00  0.00     0.133 C 
BRANCH   7   8
ATOM      8  C   UNL A   1      34.156  22.136  24.283  1.00  0.00     0.147 C 
ATOM      9  C   UNL A   1      33.923  23.628  24.481  1.00  0.00     0.152 C 
ATOM     10  O   UNL A   1      32.941  21.476  23.881  1.00  0.00    -0.374 OA
ATOM     11  N   UNL A   1      33.315  24.269  23.329  1.00  0.00    -0.338 N 
ATOM     12  C   UNL A   1      32.425  22.054  22.666  1.00  0.00     0.182 C 
ATOM     13  C   UNL A   1      32.140  23.556  22.819  1.00  0.00     0.148 C 
BRANCH  11  14
ATOM     14  C   UNL A   1      33.582  25.560  22.919  1.00  0.00     0.224 C 
ATOM     15  O   UNL A   1      33.753  25.848  21.734  1.00  0.00    -0.275 OA
BRANCH  14  16
ATOM     16  C   UNL A   1      33.731  26.650  23.974  1.00  0.00     0.124 C 
BRANCH  16  17
ATOM     17  C   UNL A   1      32.408  27.104  24.582  1.00  0.00     0.156 C 
BRANCH  17  18
ATOM     18  N   UNL A   1      31.497  27.761  23.668  1.00  0.00    -0.252 N 
ATOM     19  C   UNL A   1      30.298  27.311  23.201  1.00  0.00     0.219 A 
ATOM     20  N   UNL A   1      31.794  28.962  23.139  1.00  0.00    -0.160 NA
ATOM     21  N   UNL A   1      29.813  28.173  22.338  1.00  0.00    -0.224 NA
ATOM     22  C   UNL A   1      30.738  29.177  22.350  1.00  0.00     0.246 A 
ENDBRANCH  17  18
ENDBRANCH  16  17
ENDBRANCH  14  16
ENDBRANCH  11  14
ENDBRANCH   7   8
ENDBRANCH   5   7
ENDBRANCH   2   3
ENDBRANCH   1   2
BRANCH   1  23
ATOM     23  C   UNL A   1      40.705  22.426  26.605  1.00  0.00     0.002 C 
BRANCH  23  24
ATOM     24  C   UNL A   1      41.242  21.554  27.747  1.00  0.00     0.002 C 
BRANCH  24  25
ATOM     25  C   UNL A   1      42.090  20.348  27.323  1.00  0.00     0.021 C 
BRANCH  25  26
ATOM     26  C   UNL A   1      42.105  20.104  25.821  1.00  0.00     0.116 C 
BRANCH  26  27
ATOM     27  N   UNL A   1      43.438  19.779  25.326  1.00  0.00    -0.352 N 
ATOM     28  C   UNL A   1      44.439  20.645  24.939  1.00  0.00     0.251 C 
ATOM     29  H   UNL A   1      43.650  18.820  25.262  1.00  0.00     0.163 HD
ATOM     30  O   UNL A   1      45.339  20.272  24.205  1.00  0.00    -0.269 OA
BRANCH  28  31
ATOM     31  C   UNL A   1      44.406  22.037  25.426  1.00  0.00     0.039 A 
ATOM     32  C   UNL A   1      43.703  23.017  24.719  1.00  0.00     0.014 A 
ATOM     33  C   UNL A   1      45.087  22.357  26.599  1.00  0.00     0.014 A 
ATOM     34  C   UNL A   1      43.622  24.301  25.249  1.00  0.00     0.010 A 
ATOM     35  C   UNL A   1      44.912  23.592  27.180  1.00  0.00     0.010 A 
ATOM     36  C   UNL A   1      44.207  24.577  26.496  1.00  0.00    -0.014 A 
BRANCH  36  37
ATOM     37  C   UNL A   1      43.931  25.845  27.171  1.00  0.00     0.031 A 
ATOM     38  C   UNL A   1      44.893  26.926  26.816  1.00  0.00     0.074 A 
ATOM     39  C   UNL A   1      42.795  26.095  27.858  1.00  0.00     0.049 A 
ATOM     40  N   UNL A   1      45.756  27.498  27.586  1.00  0.00    -0.248 NA
ATOM     41  C   UNL A   1      45.021  27.313  25.399  1.00  0.00     0.031 C 
ATOM     42  C   UNL A   1      41.629  25.213  27.995  1.00  0.00     0.029 A 
ATOM     43  N   UNL A   1      42.385  27.232  28.498  1.00  0.00    -0.354 N 
ATOM     44  C   UNL A   1      46.364  28.486  26.811  1.00  0.00     0.074 A 
ATOM     45  C   UNL A   1      46.029  28.188  25.447  1.00  0.00     0.031 C 
ATOM     46  C   UNL A   1      40.575  25.917  28.461  1.00  0.00     0.029 A 
ATOM     47  C   UNL A   1      41.030  27.247  28.824  1.00  0.00     0.049 A 
ATOM     48  H   UNL A   1      42.995  27.976  28.709  1.00  0.00     0.167 HD
ATOM     49  C   UNL A   1      46.827  29.627  27.394  1.00  0.00     0.037 A 
ATOM     50  C   UNL A   1      40.324  28.272  29.360  1.00  0.00     0.037 A 
ATOM     51  C   UNL A   1      46.885  29.465  28.825  1.00  0.00     0.049 A 
ATOM     52  C   UNL A   1      41.287  29.197  29.990  1.00  0.00     0.074 A 
ATOM     53  C   UNL A   1      47.687  28.818  29.737  1.00  0.00     0.029 A 
ATOM     54  N   UNL A   1      45.704  29.760  29.451  1.00  0.00    -0.354 N 
ATOM     55  N   UNL A   1      41.964  28.906  31.063  1.00  0.00    -0.248 NA
ATOM     56  C   UNL A   1      41.762  30.356  29.244  1.00  0.00     0.031 C 
ATOM     57  C   UNL A   1      46.871  28.582  30.883  1.00  0.00     0.029 A 
ATOM     58  C   UNL A   1      45.610  29.132  30.661  1.00  0.00     0.049 A 
ATOM     59  H   UNL A   1      45.009  30.350  29.077  1.00  0.00     0.167 HD
ATOM     60  C   UNL A   1      43.175  29.538  30.877  1.00  0.00     0.074 A 
ATOM     61  C   UNL A   1      42.927  30.557  29.865  1.00  0.00     0.031 C 
ATOM     62  C   UNL A   1      44.329  28.952  31.302  1.00  0.00     0.037 A 
BRANCH  49  63
ATOM     63  C   UNL A   1      46.729  31.021  26.795  1.00  0.00     0.057 A 
ATOM     64  C   UNL A   1      47.874  31.847  26.818  1.00  0.00     0.134 A 
ATOM     65  C   UNL A   1      45.525  31.696  26.511  1.00  0.00     0.134 A 
ATOM     66  F   UNL A   1      49.089  31.335  27.074  1.00  0.00    -0.206 F 
ATOM     67  C   UNL A   1      47.809  33.239  26.665  1.00  0.00     0.040 A 
ATOM     68  C   UNL A   1      45.456  33.081  26.312  1.00  0.00     0.040 A 
ATOM     69  F   UNL A   1      44.337  31.085  26.509  1.00  0.00    -0.206 F 
ATOM     70  C   UNL A   1      46.593  33.862  26.423  1.00  0.00     0.006 A 
ENDBRANCH  49  63
BRANCH  50  71
ATOM     71  C   UNL A   1      38.887  28.613  29.272  1.00  0.00     0.057 A 
ATOM     72  C   UNL A   1      38.068  28.607  30.412  1.00  0.00     0.134 A 
ATOM     73  C   UNL A   1      38.363  29.244  28.134  1.00  0.00     0.134 A 
ATOM     74  F   UNL A   1      38.492  28.048  31.554  1.00  0.00    -0.206 F 
ATOM     75  C   UNL A   1      36.818  29.239  30.435  1.00  0.00     0.040 A 
ATOM     76  C   UNL A   1      37.114  29.875  28.143  1.00  0.00     0.040 A 
ATOM     77  F   UNL A   1      39.087  29.347  27.010  1.00  0.00    -0.206 F 
ATOM     78  C   UNL A   1      36.346  29.893  29.301  1.00  0.00     0.006 A 
ENDBRANCH  50  71
BRANCH  62  79
ATOM     79  C   UNL A   1      44.219  27.936  32.395  1.00  0.00     0.057 A 
ATOM     80  C   UNL A   1      44.012  28.237  33.748  1.00  0.00     0.134 A 
ATOM     81  C   UNL A   1      44.260  26.585  32.039  1.00  0.00     0.134 A 
ATOM     82  F   UNL A   1      43.887  29.503  34.168  1.00  0.00    -0.206 F 
ATOM     83  C   UNL A   1      43.893  27.230  34.710  1.00  0.00     0.040 A 
ATOM     84  C   UNL A   1      44.109  25.571  32.983  1.00  0.00     0.040 A 
ATOM     85  F   UNL A   1      44.419  26.230  30.755  1.00  0.00    -0.206 F 
ATOM     86  C   UNL A   1      43.936  25.891  34.326  1.00  0.00     0.006 A 
ENDBRANCH  62  79
ENDBRANCH  36  37
ENDBRANCH  28  31
ENDBRANCH  26  27
ENDBRANCH  25  26
ENDBRANCH  24  25
ENDBRANCH  23  24
ENDBRANCH   1  23
TORSDOF 18
ENDMDL
MODEL 3
REMARK VINA RESULT:     -10.5      1.453      2.124
REMARK SMILES O=C(C[C@@H]1CN(C(=O)CCn2cncn2)CCO1)NCCCCCCNC(=O)c1ccc(-c2c3nc(c(-c4c(F)cccc4F)c4ccc([nH]4)c(-c4c(F)cccc4F)c4nc(c(-c5c(F)cccc5F)c5ccc2[nH]5)C=C4)C=C3)cc1
REMARK SMILES IDX 21 1 20 2 19 3 1 4 2 5 3 7 4 8 5 9 18 10 6 11 17 12 16 13
REMARK SMILES IDX 7 14 8 15 9 16 10 17 11 18 12 19 15 20 13 21 14 22 22 23
REMARK SMILES IDX 23 24 24 25 25 26 26 27 27 28 28 30 29 31 30 32 82 33 31 34
REMARK SMILES IDX 81 35 32 36 33 37 34 38 75 39 35 40 80 41 74 42 76 43 36 44
REMARK SMILES IDX 79 45 73 46 72 47 37 49 63 50 46 51 62 52 47 53 50 54 61 55
REMARK SMILES IDX 77 56 48 57 49 58 60 60 78 61 51 62 38 63 39 64 44 65 40 66
REMARK SMILES IDX 41 67 43 68 45 69 42 70 64 71 65 72 70 73 66 74 67 75 69 76
REMARK SMILES IDX 71 77 68 78 52 79 53 80 58 81 54 82 55 83 57 84 59 85 56 86
REMARK H PARENT 19 6 26 29 76 48 50 59
REMARK Flexibility Score: inf
ROOT
ATOM      1  C   UNL A   1      39.239  22.872  26.454  1.00  0.00     0.021 C 
ENDROOT
BRANCH   1   2
ATOM      2  C   UNL A   1      38.180  22.130  25.640  1.00  0.00     0.116 C 
BRANCH   2   3
ATOM      3  N   UNL A   1      37.257  23.074  25.061  1.00  0.00    -0.356 N 
ATOM      4  O   UNL A   1      35.678  23.029  26.728  1.00  0.00    -0.275 OA
ATOM      5  C   UNL A   1      36.045  23.387  25.617  1.00  0.00     0.222 C 
ATOM      6  H   UNL A   1      37.512  23.519  24.220  1.00  0.00     0.163 HD
BRANCH   5   7
ATOM      7  C   UNL A   1      35.193  24.221  24.700  1.00  0.00     0.133 C 
BRANCH   7   8
ATOM      8  C   UNL A   1      33.846  23.531  24.468  1.00  0.00     0.147 C 
ATOM      9  C   UNL A   1      34.114  22.100  24.022  1.00  0.00     0.152 C 
ATOM     10  O   UNL A   1      33.102  24.249  23.465  1.00  0.00    -0.374 OA
ATOM     11  N   UNL A   1      32.912  21.389  23.628  1.00  0.00    -0.338 N 
ATOM     12  C   UNL A   1      31.854  23.585  23.183  1.00  0.00     0.182 C 
ATOM     13  C   UNL A   1      32.067  22.143  22.697  1.00  0.00     0.148 C 
BRANCH  11  14
ATOM     14  C   UNL A   1      32.697  20.039  23.831  1.00  0.00     0.224 C 
ATOM     15  O   UNL A   1      32.140  19.333  22.989  1.00  0.00    -0.275 OA
BRANCH  14  16
ATOM     16  C   UNL A   1      33.107  19.422  25.162  1.00  0.00     0.124 C 
BRANCH  16  17
ATOM     17  C   UNL A   1      32.449  18.075  25.446  1.00  0.00     0.156 C 
BRANCH  17  18
ATOM     18  N   UNL A   1      33.311  16.920  25.303  1.00  0.00    -0.252 N 
ATOM     19  C   UNL A   1      33.002  15.607  25.493  1.00  0.00     0.219 A 
ATOM     20  N   UNL A   1      34.607  17.061  24.966  1.00  0.00    -0.160 NA
ATOM     21  N   UNL A   1      34.080  14.875  25.328  1.00  0.00    -0.224 NA
ATOM     22  C   UNL A   1      35.027  15.794  24.981  1.00  0.00     0.246 A 
ENDBRANCH  17  18
ENDBRANCH  16  17
ENDBRANCH  14  16
ENDBRANCH  11  14
ENDBRANCH   7   8
ENDBRANCH   5   7
ENDBRANCH   2   3
ENDBRANCH   1   2
BRANCH   1  23
ATOM     23  C   UNL A   1      40.526  22.069  26.701  1.00  0.00     0.002 C 
BRANCH  23  24
ATOM     24  C   UNL A   1      40.356  20.546  26.779  1.00  0.00     0.002 C 
BRANCH  24  25
ATOM     25  C   UNL A   1      41.391  19.719  26.006  1.00  0.00     0.021 C 
BRANCH  25  26
ATOM     26  C   UNL A   1      42.792  19.780  26.597  1.00  0.00     0.116 C 
BRANCH  26  27
ATOM     27  N   UNL A   1      43.828  19.643  25.580  1.00  0.00    -0.352 N 
ATOM     28  C   UNL A   1      44.413  20.633  24.818  1.00  0.00     0.251 C 
ATOM     29  H   UNL A   1      44.152  18.728  25.418  1.00  0.00     0.163 HD
ATOM     30  O   UNL A   1      44.970  20.367  23.766  1.00  0.00    -0.269 OA
BRANCH  28  31
ATOM     31  C   UNL A   1      44.352  22.028  25.294  1.00  0.00     0.039 A 
ATOM     32  C   UNL A   1      43.426  22.922  24.747  1.00  0.00     0.014 A 
ATOM     33  C   UNL A   1      45.233  22.438  26.294  1.00  0.00     0.014 A 
ATOM     34  C   UNL A   1      43.338  24.207  25.277  1.00  0.00     0.010 A 
ATOM     35  C   UNL A   1      45.069  23.666  26.892  1.00  0.00     0.010 A 
ATOM     36  C   UNL A   1      44.145  24.566  26.368  1.00  0.00    -0.014 A 
BRANCH  36  37
ATOM     37  C   UNL A   1      43.900  25.820  27.080  1.00  0.00     0.031 A 
ATOM     38  C   UNL A   1      44.879  26.892  26.744  1.00  0.00     0.074 A 
ATOM     39  C   UNL A   1      42.776  26.073  27.786  1.00  0.00     0.049 A 
ATOM     40  N   UNL A   1      45.760  27.428  27.520  1.00  0.00    -0.248 NA
ATOM     41  C   UNL A   1      44.998  27.315  25.337  1.00  0.00     0.031 C 
ATOM     42  C   UNL A   1      41.595  25.208  27.912  1.00  0.00     0.029 A 
ATOM     43  N   UNL A   1      42.394  27.199  28.460  1.00  0.00    -0.354 N 
ATOM     44  C   UNL A   1      46.378  28.424  26.765  1.00  0.00     0.074 A 
ATOM     45  C   UNL A   1      46.023  28.170  25.397  1.00  0.00     0.031 C 
ATOM     46  C   UNL A   1      40.559  25.919  28.408  1.00  0.00     0.029 A 
ATOM     47  C   UNL A   1      41.042  27.230  28.801  1.00  0.00     0.049 A 
ATOM     48  H   UNL A   1      43.019  27.925  28.685  1.00  0.00     0.167 HD
ATOM     49  C   UNL A   1      46.868  29.541  27.374  1.00  0.00     0.037 A 
ATOM     50  C   UNL A   1      40.361  28.253  29.373  1.00  0.00     0.037 A 
ATOM     51  C   UNL A   1      46.937  29.339  28.799  1.00  0.00     0.049 A 
ATOM     52  C   UNL A   1      41.348  29.142  30.017  1.00  0.00     0.074 A 
ATOM     53  C   UNL A   1      47.737  28.652  29.684  1.00  0.00     0.029 A 
ATOM     54  N   UNL A   1      45.769  29.639  29.446  1.00  0.00    -0.354 N 
ATOM     55  N   UNL A   1      42.030  28.810  31.075  1.00  0.00    -0.248 NA
ATOM     56  C   UNL A   1      41.837  30.313  29.297  1.00  0.00     0.031 C 
ATOM     57  C   UNL A   1      46.928  28.400  30.833  1.00  0.00     0.029 A 
ATOM     58  C   UNL A   1      45.676  28.979  30.639  1.00  0.00     0.049 A 
ATOM     59  H   UNL A   1      45.082  30.251  29.095  1.00  0.00     0.167 HD
ATOM     60  C   UNL A   1      43.251  29.424  30.892  1.00  0.00     0.074 A 
ATOM     61  C   UNL A   1      43.012  30.475  29.911  1.00  0.00     0.031 C 
ATOM     62  C   UNL A   1      44.399  28.806  31.289  1.00  0.00     0.037 A 
BRANCH  49  63
ATOM     63  C   UNL A   1      46.790  30.952  26.814  1.00  0.00     0.057 A 
ATOM     64  C   UNL A   1      47.947  31.759  26.856  1.00  0.00     0.134 A 
ATOM     65  C   UNL A   1      45.596  31.652  26.551  1.00  0.00     0.134 A 
ATOM     66  F   UNL A   1      49.155  31.223  27.096  1.00  0.00    -0.206 F 
ATOM     67  C   UNL A   1      47.903  33.156  26.742  1.00  0.00     0.040 A 
ATOM     68  C   UNL A   1      45.547  33.043  26.390  1.00  0.00     0.040 A 
ATOM     69  F   UNL A   1      44.399  31.059  26.535  1.00  0.00    -0.206 F 
ATOM     70  C   UNL A   1      46.697  33.804  26.520  1.00  0.00     0.006 A 
ENDBRANCH  49  63
BRANCH  50  71
ATOM     71  C   UNL A   1      38.931  28.622  29.309  1.00  0.00     0.057 A 
ATOM     72  C   UNL A   1      38.126  28.612  30.459  1.00  0.00     0.134 A 
ATOM     73  C   UNL A   1      38.404  29.283  28.189  1.00  0.00     0.134 A 
ATOM     74  F   UNL A   1      38.553  28.025  31.586  1.00  0.00    -0.206 F 
ATOM     75  C   UNL A   1      36.889  29.267  30.509  1.00  0.00     0.040 A 
ATOM     76  C   UNL A   1      37.167  29.938  28.225  1.00  0.00     0.040 A 
ATOM     77  F   UNL A   1      39.115  29.392  27.058  1.00  0.00    -0.206 F 
ATOM     78  C   UNL A   1      36.414  29.949  29.394  1.00  0.00     0.006 A 
ENDBRANCH  50  71
BRANCH  62  79
ATOM     79  C   UNL A   1      44.280  27.763  32.355  1.00  0.00     0.057 A 
ATOM     80  C   UNL A   1      44.120  28.031  33.721  1.00  0.00     0.134 A 
ATOM     81  C   UNL A   1      44.263  26.422  31.961  1.00  0.00     0.134 A 
ATOM     82  F   UNL A   1      44.052  29.288  34.181  1.00  0.00    -0.206 F 
ATOM     83  C   UNL A   1      43.990  27.001  34.657  1.00  0.00     0.040 A 
ATOM     84  C   UNL A   1      44.101  25.387  32.879  1.00  0.00     0.040 A 
ATOM     85  F   UNL A   1      44.376  26.099  30.663  1.00  0.00    -0.206 F 
ATOM     86  C   UNL A   1      43.975  25.674  34.235  1.00  0.00     0.006 A 
ENDBRANCH  62  79
ENDBRANCH  36  37
ENDBRANCH  28  31
ENDBRANCH  26  27
ENDBRANCH  25  26
ENDBRANCH  24  25
ENDBRANCH  23  24
ENDBRANCH   1  23
TORSDOF 18
ENDMDL
