MODEL 1
REMARK VINA RESULT:     -10.9      0.000      0.000
REMARK SMILES O=C(NCCCCCCNC(=O)[C@@H](CCO)NC(=O)c1c(F)ccc([N+](=O)[O-])c1F)c1ccc(-c2c3nc(c(-c4c(F)cccc4F)c4ccc([nH]4)c(-c4c(F)cccc4F)c4nc(c(-c5c(F)cccc5F)c5ccc2[nH]5)C=C4)C=C3)cc1
REMARK SMILES IDX 7 1 6 2 5 3 4 4 3 5 1 6 2 7 31 9 32 10 84 11 33 12 83 13
REMARK SMILES IDX 34 14 35 15 36 16 77 17 37 18 82 19 76 20 78 21 38 22 81 23
REMARK SMILES IDX 75 24 74 25 39 27 65 28 48 29 64 30 49 31 52 32 63 33 79 34
REMARK SMILES IDX 50 35 51 36 62 38 80 39 53 40 40 41 41 42 46 43 42 44 43 45
REMARK SMILES IDX 45 46 47 47 44 48 66 49 67 50 72 51 68 52 69 53 71 54 73 55
REMARK SMILES IDX 70 56 54 57 55 58 60 59 56 60 57 61 59 62 61 63 58 64 8 65
REMARK SMILES IDX 9 66 10 67 11 68 12 70 13 71 14 72 15 73 16 74 17 76 18 77
REMARK SMILES IDX 19 79 20 80 21 81 29 82 22 83 23 84 25 85 30 86 24 87 26 88
REMARK SMILES IDX 27 89 28 90
REMARK H PARENT 3 8 78 26 52 37 10 69 16 75 17 78
REMARK Flexibility Score: inf
ROOT
ATOM      1  C   UNL A   1      32.610  30.075  27.196  1.00  0.00     0.002 C 
ENDROOT
BRANCH   1   2
ATOM      2  C   UNL A   1      31.428  30.753  26.496  1.00  0.00     0.002 C 
BRANCH   2   3
ATOM      3  C   UNL A   1      31.400  32.277  26.610  1.00  0.00     0.021 C 
BRANCH   3   4
ATOM      4  C   UNL A   1      32.720  32.894  27.050  1.00  0.00     0.116 C 
BRANCH   4   5
ATOM      5  N   UNL A   1      32.531  34.189  27.683  1.00  0.00    -0.352 N 
ATOM      6  O   UNL A   1      32.726  35.720  29.332  1.00  0.00    -0.269 OA
ATOM      7  C   UNL A   1      33.149  34.705  28.796  1.00  0.00     0.251 C 
ATOM      8  H   UNL A   1      31.869  34.778  27.254  1.00  0.00     0.163 HD
BRANCH   7   9
ATOM      9  C   UNL A   1      34.334  34.013  29.343  1.00  0.00     0.039 A 
ATOM     10  C   UNL A   1      35.615  34.473  29.031  1.00  0.00     0.014 A 
ATOM     11  C   UNL A   1      34.164  32.905  30.177  1.00  0.00     0.014 A 
ATOM     12  C   UNL A   1      36.724  33.748  29.441  1.00  0.00     0.010 A 
ATOM     13  C   UNL A   1      35.286  32.235  30.673  1.00  0.00     0.010 A 
ATOM     14  C   UNL A   1      36.574  32.644  30.296  1.00  0.00    -0.014 A 
BRANCH  14  15
ATOM     15  C   UNL A   1      37.792  32.017  30.865  1.00  0.00     0.031 A 
ATOM     16  C   UNL A   1      38.309  32.388  32.223  1.00  0.00     0.074 A 
ATOM     17  C   UNL A   1      38.401  31.058  30.139  1.00  0.00     0.049 A 
ATOM     18  N   UNL A   1      39.340  31.901  32.866  1.00  0.00    -0.248 NA
ATOM     19  C   UNL A   1      37.588  33.440  32.955  1.00  0.00     0.031 C 
ATOM     20  C   UNL A   1      37.985  30.626  28.800  1.00  0.00     0.029 A 
ATOM     21  N   UNL A   1      39.472  30.252  30.424  1.00  0.00    -0.354 N 
ATOM     22  C   UNL A   1      39.397  32.589  34.072  1.00  0.00     0.074 A 
ATOM     23  C   UNL A   1      38.314  33.548  34.062  1.00  0.00     0.031 C 
ATOM     24  C   UNL A   1      38.745  29.594  28.412  1.00  0.00     0.029 A 
ATOM     25  C   UNL A   1      39.752  29.342  29.434  1.00  0.00     0.049 A 
ATOM     26  H   UNL A   1      39.992  30.320  31.259  1.00  0.00     0.167 HD
ATOM     27  C   UNL A   1      40.270  32.420  35.093  1.00  0.00     0.037 A 
ATOM     28  C   UNL A   1      40.723  28.416  29.347  1.00  0.00     0.037 A 
ATOM     29  C   UNL A   1      41.339  31.452  35.094  1.00  0.00     0.049 A 
ATOM     30  C   UNL A   1      41.697  28.285  30.479  1.00  0.00     0.074 A 
ATOM     31  C   UNL A   1      42.263  31.194  36.091  1.00  0.00     0.029 A 
ATOM     32  N   UNL A   1      41.625  30.584  34.051  1.00  0.00    -0.354 N 
ATOM     33  N   UNL A   1      41.726  28.929  31.621  1.00  0.00    -0.248 NA
ATOM     34  C   UNL A   1      42.782  27.310  30.307  1.00  0.00     0.031 C 
ATOM     35  C   UNL A   1      43.137  30.204  35.633  1.00  0.00     0.029 A 
ATOM     36  C   UNL A   1      42.727  29.807  34.371  1.00  0.00     0.049 A 
ATOM     37  H   UNL A   1      41.120  30.529  33.208  1.00  0.00     0.167 HD
ATOM     38  C   UNL A   1      42.822  28.432  32.308  1.00  0.00     0.074 A 
ATOM     39  C   UNL A   1      43.414  27.411  31.468  1.00  0.00     0.031 C 
ATOM     40  C   UNL A   1      43.303  28.796  33.521  1.00  0.00     0.037 A 
BRANCH  27  41
ATOM     41  C   UNL A   1      40.122  33.295  36.305  1.00  0.00     0.057 A 
ATOM     42  C   UNL A   1      39.199  32.975  37.308  1.00  0.00     0.134 A 
ATOM     43  C   UNL A   1      40.814  34.505  36.427  1.00  0.00     0.134 A 
ATOM     44  F   UNL A   1      38.495  31.834  37.249  1.00  0.00    -0.206 F 
ATOM     45  C   UNL A   1      38.954  33.837  38.380  1.00  0.00     0.040 A 
ATOM     46  C   UNL A   1      40.595  35.366  37.506  1.00  0.00     0.040 A 
ATOM     47  F   UNL A   1      41.719  34.868  35.506  1.00  0.00    -0.206 F 
ATOM     48  C   UNL A   1      39.652  35.038  38.478  1.00  0.00     0.006 A 
ENDBRANCH  27  41
BRANCH  28  49
ATOM     49  C   UNL A   1      40.821  27.555  28.141  1.00  0.00     0.057 A 
ATOM     50  C   UNL A   1      41.530  27.968  27.005  1.00  0.00     0.134 A 
ATOM     51  C   UNL A   1      40.196  26.305  28.090  1.00  0.00     0.134 A 
ATOM     52  F   UNL A   1      42.145  29.160  26.985  1.00  0.00    -0.206 F 
ATOM     53  C   UNL A   1      41.597  27.178  25.857  1.00  0.00     0.040 A 
ATOM     54  C   UNL A   1      40.283  25.490  26.961  1.00  0.00     0.040 A 
ATOM     55  F   UNL A   1      39.515  25.847  29.151  1.00  0.00    -0.206 F 
ATOM     56  C   UNL A   1      40.979  25.930  25.837  1.00  0.00     0.006 A 
ENDBRANCH  28  49
BRANCH  40  57
ATOM     57  C   UNL A   1      44.524  28.078  34.014  1.00  0.00     0.057 A 
ATOM     58  C   UNL A   1      45.805  28.576  33.746  1.00  0.00     0.134 A 
ATOM     59  C   UNL A   1      44.431  26.871  34.720  1.00  0.00     0.134 A 
ATOM     60  F   UNL A   1      45.963  29.723  33.068  1.00  0.00    -0.206 F 
ATOM     61  C   UNL A   1      46.951  27.895  34.158  1.00  0.00     0.040 A 
ATOM     62  C   UNL A   1      45.569  26.196  35.162  1.00  0.00     0.040 A 
ATOM     63  F   UNL A   1      43.232  26.349  35.019  1.00  0.00    -0.206 F 
ATOM     64  C   UNL A   1      46.834  26.705  34.874  1.00  0.00     0.006 A 
ENDBRANCH  40  57
ENDBRANCH  14  15
ENDBRANCH   7   9
ENDBRANCH   4   5
ENDBRANCH   3   4
ENDBRANCH   2   3
ENDBRANCH   1   2
BRANCH   1  65
ATOM     65  C   UNL A   1      32.667  28.553  27.038  1.00  0.00     0.021 C 
BRANCH  65  66
ATOM     66  C   UNL A   1      33.945  28.039  26.372  1.00  0.00     0.116 C 
BRANCH  66  67
ATOM     67  N   UNL A   1      34.147  28.697  25.102  1.00  0.00    -0.354 N 
ATOM     68  C   UNL A   1      33.584  28.495  23.885  1.00  0.00     0.242 C 
ATOM     69  H   UNL A   1      34.814  29.421  25.123  1.00  0.00     0.163 HD
ATOM     70  O   UNL A   1      34.124  29.065  22.928  1.00  0.00    -0.273 OA
BRANCH  68  71
ATOM     71  C   UNL A   1      32.374  27.568  23.628  1.00  0.00     0.173 C 
BRANCH  71  72
ATOM     72  C   UNL A   1      31.010  28.265  23.487  1.00  0.00     0.063 C 
BRANCH  72  73
ATOM     73  C   UNL A   1      30.536  28.740  22.121  1.00  0.00     0.158 C 
BRANCH  73  74
ATOM     74  O   UNL A   1      30.883  30.086  21.845  1.00  0.00    -0.396 OA
ATOM     75  H   UNL A   1      30.890  30.594  22.672  1.00  0.00     0.210 HD
ENDBRANCH  73  74
ENDBRANCH  72  73
ENDBRANCH  71  72
BRANCH  71  76
ATOM     76  N   UNL A   1      32.609  26.510  22.641  1.00  0.00    -0.340 N 
ATOM     77  C   UNL A   1      32.886  25.176  22.821  1.00  0.00     0.258 C 
ATOM     78  H   UNL A   1      32.559  26.801  21.702  1.00  0.00     0.164 HD
ATOM     79  O   UNL A   1      33.137  24.470  21.849  1.00  0.00    -0.269 OA
BRANCH  77  80
ATOM     80  C   UNL A   1      32.866  24.560  24.159  1.00  0.00     0.118 A 
ATOM     81  C   UNL A   1      34.011  24.542  24.954  1.00  0.00     0.139 A 
ATOM     82  C   UNL A   1      31.666  24.063  24.672  1.00  0.00     0.216 A 
ATOM     83  F   UNL A   1      35.146  25.117  24.540  1.00  0.00    -0.206 F 
ATOM     84  C   UNL A   1      34.007  23.937  26.208  1.00  0.00     0.047 A 
ATOM     85  C   UNL A   1      31.641  23.502  25.953  1.00  0.00     0.305 A 
ATOM     86  F   UNL A   1      30.561  24.109  23.914  1.00  0.00    -0.198 F 
ATOM     87  C   UNL A   1      32.821  23.408  26.714  1.00  0.00     0.092 A 
BRANCH  85  88
ATOM     88  N   UNL A   1      30.388  23.021  26.536  1.00  0.00     0.065 N 
ATOM     89  O   UNL A   1      29.789  23.743  27.341  1.00  0.00    -0.258 OA
ATOM     90  O   UNL A   1      30.010  21.888  26.202  1.00  0.00    -0.258 OA
ENDBRANCH  85  88
ENDBRANCH  77  80
ENDBRANCH  71  76
ENDBRANCH  68  71
ENDBRANCH  66  67
ENDBRANCH  65  66
ENDBRANCH   1  65
TORSDOF 19
ENDMDL
MODEL 2
REMARK VINA RESULT:     -10.8      4.106      9.221
REMARK SMILES O=C(NCCCCCCNC(=O)[C@@H](CCO)NC(=O)c1c(F)ccc([N+](=O)[O-])c1F)c1ccc(-c2c3nc(c(-c4c(F)cccc4F)c4ccc([nH]4)c(-c4c(F)cccc4F)c4nc(c(-c5c(F)cccc5F)c5ccc2[nH]5)C=C4)C=C3)cc1
REMARK SMILES IDX 7 1 6 2 5 3 4 4 3 5 1 6 2 7 31 9 32 10 84 11 33 12 83 13
REMARK SMILES IDX 34 14 35 15 36 16 77 17 37 18 82 19 76 20 78 21 38 22 81 23
REMARK SMILES IDX 75 24 74 25 39 27 65 28 48 29 64 30 49 31 52 32 63 33 79 34
REMARK SMILES IDX 50 35 51 36 62 38 80 39 53 40 40 41 41 42 46 43 42 44 43 45
REMARK SMILES IDX 45 46 47 47 44 48 66 49 67 50 72 51 68 52 69 53 71 54 73 55
REMARK SMILES IDX 70 56 54 57 55 58 60 59 56 60 57 61 59 62 61 63 58 64 8 65
REMARK SMILES IDX 9 66 10 67 11 68 12 70 13 71 14 72 15 73 16 74 17 76 18 77
REMARK SMILES IDX 19 79 20 80 21 81 29 82 22 83 23 84 25 85 30 86 24 87 26 88
REMARK SMILES IDX 27 89 28 90
REMARK H PARENT 3 8 78 26 52 37 10 69 16 75 17 78
REMARK Flexibility Score: inf
ROOT
ATOM      1  C   UNL A   1      37.678  21.888  25.106  1.00  0.00     0.002 C 
ENDROOT
BRANCH   1   2
ATOM      2  C   UNL A   1      37.309  20.489  24.601  1.00  0.00     0.002 C 
BRANCH   2   3
ATOM      3  C   UNL A   1      38.243  19.371  25.064  1.00  0.00     0.021 C 
BRANCH   3   4
ATOM      4  C   UNL A   1      39.340  19.828  26.015  1.00  0.00     0.116 C 
BRANCH   4   5
ATOM      5  N   UNL A   1      40.571  19.078  25.827  1.00  0.00    -0.352 N 
ATOM      6  O   UNL A   1      42.790  18.817  25.497  1.00  0.00    -0.269 OA
ATOM      7  C   UNL A   1      41.870  19.518  25.893  1.00  0.00     0.251 C 
ATOM      8  H   UNL A   1      40.457  18.122  25.624  1.00  0.00     0.163 HD
BRANCH   7   9
ATOM      9  C   UNL A   1      42.144  20.860  26.450  1.00  0.00     0.039 A 
ATOM     10  C   UNL A   1      42.137  21.056  27.832  1.00  0.00     0.014 A 
ATOM     11  C   UNL A   1      42.416  21.924  25.586  1.00  0.00     0.014 A 
ATOM     12  C   UNL A   1      42.268  22.337  28.346  1.00  0.00     0.010 A 
ATOM     13  C   UNL A   1      42.649  23.198  26.112  1.00  0.00     0.010 A 
ATOM     14  C   UNL A   1      42.562  23.416  27.495  1.00  0.00    -0.014 A 
BRANCH  14  15
ATOM     15  C   UNL A   1      42.886  24.730  28.102  1.00  0.00     0.031 A 
ATOM     16  C   UNL A   1      44.294  25.114  28.447  1.00  0.00     0.074 A 
ATOM     17  C   UNL A   1      41.872  25.599  28.293  1.00  0.00     0.049 A 
ATOM     18  N   UNL A   1      44.734  26.239  28.951  1.00  0.00    -0.248 NA
ATOM     19  C   UNL A   1      45.345  24.113  28.206  1.00  0.00     0.031 C 
ATOM     20  C   UNL A   1      40.462  25.322  27.999  1.00  0.00     0.029 A 
ATOM     21  N   UNL A   1      41.865  26.892  28.746  1.00  0.00    -0.354 N 
ATOM     22  C   UNL A   1      46.107  26.082  29.093  1.00  0.00     0.074 A 
ATOM     23  C   UNL A   1      46.426  24.743  28.650  1.00  0.00     0.031 C 
ATOM     24  C   UNL A   1      39.740  26.429  28.214  1.00  0.00     0.029 A 
ATOM     25  C   UNL A   1      40.618  27.468  28.736  1.00  0.00     0.049 A 
ATOM     26  H   UNL A   1      42.676  27.362  29.050  1.00  0.00     0.167 HD
ATOM     27  C   UNL A   1      47.012  26.984  29.542  1.00  0.00     0.037 A 
ATOM     28  C   UNL A   1      40.218  28.694  29.120  1.00  0.00     0.037 A 
ATOM     29  C   UNL A   1      46.681  28.321  29.970  1.00  0.00     0.049 A 
ATOM     30  C   UNL A   1      41.242  29.652  29.651  1.00  0.00     0.074 A 
ATOM     31  C   UNL A   1      47.532  29.313  30.424  1.00  0.00     0.029 A 
ATOM     32  N   UNL A   1      45.400  28.852  29.996  1.00  0.00    -0.354 N 
ATOM     33  N   UNL A   1      42.539  29.496  29.760  1.00  0.00    -0.248 NA
ATOM     34  C   UNL A   1      40.747  30.951  30.124  1.00  0.00     0.031 C 
ATOM     35  C   UNL A   1      46.761  30.427  30.769  1.00  0.00     0.029 A 
ATOM     36  C   UNL A   1      45.435  30.149  30.482  1.00  0.00     0.049 A 
ATOM     37  H   UNL A   1      44.586  28.376  29.713  1.00  0.00     0.167 HD
ATOM     38  C   UNL A   1      43.018  30.677  30.304  1.00  0.00     0.074 A 
ATOM     39  C   UNL A   1      41.876  31.552  30.473  1.00  0.00     0.031 C 
ATOM     40  C   UNL A   1      44.288  31.004  30.645  1.00  0.00     0.037 A 
BRANCH  27  41
ATOM     41  C   UNL A   1      48.455  26.572  29.601  1.00  0.00     0.057 A 
ATOM     42  C   UNL A   1      48.972  25.941  30.740  1.00  0.00     0.134 A 
ATOM     43  C   UNL A   1      49.354  26.893  28.577  1.00  0.00     0.134 A 
ATOM     44  F   UNL A   1      48.168  25.613  31.762  1.00  0.00    -0.206 F 
ATOM     45  C   UNL A   1      50.335  25.664  30.867  1.00  0.00     0.040 A 
ATOM     46  C   UNL A   1      50.716  26.601  28.683  1.00  0.00     0.040 A 
ATOM     47  F   UNL A   1      48.923  27.490  27.456  1.00  0.00    -0.206 F 
ATOM     48  C   UNL A   1      51.211  25.997  29.837  1.00  0.00     0.006 A 
ENDBRANCH  27  41
BRANCH  28  49
ATOM     49  C   UNL A   1      38.785  29.070  29.024  1.00  0.00     0.057 A 
ATOM     50  C   UNL A   1      38.230  29.531  27.823  1.00  0.00     0.134 A 
ATOM     51  C   UNL A   1      37.939  28.991  30.135  1.00  0.00     0.134 A 
ATOM     52  F   UNL A   1      38.989  29.639  26.723  1.00  0.00    -0.206 F 
ATOM     53  C   UNL A   1      36.892  29.916  27.736  1.00  0.00     0.040 A 
ATOM     54  C   UNL A   1      36.591  29.342  30.054  1.00  0.00     0.040 A 
ATOM     55  F   UNL A   1      38.408  28.543  31.310  1.00  0.00    -0.206 F 
ATOM     56  C   UNL A   1      36.066  29.815  28.853  1.00  0.00     0.006 A 
ENDBRANCH  28  49
BRANCH  40  57
ATOM     57  C   UNL A   1      44.507  32.370  31.225  1.00  0.00     0.057 A 
ATOM     58  C   UNL A   1      44.440  32.580  32.608  1.00  0.00     0.134 A 
ATOM     59  C   UNL A   1      44.746  33.484  30.410  1.00  0.00     0.134 A 
ATOM     60  F   UNL A   1      44.206  31.556  33.443  1.00  0.00    -0.206 F 
ATOM     61  C   UNL A   1      44.596  33.852  33.159  1.00  0.00     0.040 A 
ATOM     62  C   UNL A   1      44.932  34.756  30.952  1.00  0.00     0.040 A 
ATOM     63  F   UNL A   1      44.835  33.346  29.078  1.00  0.00    -0.206 F 
ATOM     64  C   UNL A   1      44.849  34.943  32.331  1.00  0.00     0.006 A 
ENDBRANCH  40  57
ENDBRANCH  14  15
ENDBRANCH   7   9
ENDBRANCH   4   5
ENDBRANCH   3   4
ENDBRANCH   2   3
ENDBRANCH   1   2
BRANCH   1  65
ATOM     65  C   UNL A   1      36.929  23.038  24.425  1.00  0.00     0.021 C 
BRANCH  65  66
ATOM     66  C   UNL A   1      36.241  24.000  25.395  1.00  0.00     0.116 C 
BRANCH  66  67
ATOM     67  N   UNL A   1      35.717  23.276  26.531  1.00  0.00    -0.354 N 
ATOM     68  C   UNL A   1      34.473  22.812  26.804  1.00  0.00     0.242 C 
ATOM     69  H   UNL A   1      36.382  23.087  27.231  1.00  0.00     0.163 HD
ATOM     70  O   UNL A   1      34.273  22.427  27.963  1.00  0.00    -0.273 OA
BRANCH  68  71
ATOM     71  C   UNL A   1      33.306  22.796  25.790  1.00  0.00     0.173 C 
BRANCH  71  72
ATOM     72  C   UNL A   1      33.392  21.731  24.683  1.00  0.00     0.063 C 
BRANCH  72  73
ATOM     73  C   UNL A   1      32.192  20.844  24.385  1.00  0.00     0.158 C 
BRANCH  73  74
ATOM     74  O   UNL A   1      31.867  19.966  25.448  1.00  0.00    -0.396 OA
ATOM     75  H   UNL A   1      30.979  19.601  25.308  1.00  0.00     0.210 HD
ENDBRANCH  73  74
ENDBRANCH  72  73
ENDBRANCH  71  72
BRANCH  71  76
ATOM     76  N   UNL A   1      31.974  22.933  26.384  1.00  0.00    -0.340 N 
ATOM     77  C   UNL A   1      31.016  23.901  26.197  1.00  0.00     0.258 C 
ATOM     78  H   UNL A   1      31.725  22.219  27.015  1.00  0.00     0.164 HD
ATOM     79  O   UNL A   1      29.987  23.875  26.865  1.00  0.00    -0.269 OA
BRANCH  77  80
ATOM     80  C   UNL A   1      31.182  24.963  25.191  1.00  0.00     0.118 A 
ATOM     81  C   UNL A   1      30.851  24.739  23.855  1.00  0.00     0.139 A 
ATOM     82  C   UNL A   1      31.597  26.235  25.591  1.00  0.00     0.216 A 
ATOM     83  F   UNL A   1      30.337  23.569  23.459  1.00  0.00    -0.206 F 
ATOM     84  C   UNL A   1      31.031  25.730  22.893  1.00  0.00     0.047 A 
ATOM     85  C   UNL A   1      31.729  27.251  24.639  1.00  0.00     0.305 A 
ATOM     86  F   UNL A   1      31.886  26.452  26.882  1.00  0.00    -0.198 F 
ATOM     87  C   UNL A   1      31.477  26.992  23.280  1.00  0.00     0.092 A 
BRANCH  85  88
ATOM     88  N   UNL A   1      32.111  28.607  25.038  1.00  0.00     0.065 N 
ATOM     89  O   UNL A   1      33.281  28.821  25.373  1.00  0.00    -0.258 OA
ATOM     90  O   UNL A   1      31.216  29.465  25.043  1.00  0.00    -0.258 OA
ENDBRANCH  85  88
ENDBRANCH  77  80
ENDBRANCH  71  76
ENDBRANCH  68  71
ENDBRANCH  66  67
ENDBRANCH  65  66
ENDBRANCH   1  65
TORSDOF 19
ENDMDL
MODEL 3
REMARK VINA RESULT:     -10.8      3.787      7.888
REMARK SMILES O=C(NCCCCCCNC(=O)[C@@H](CCO)NC(=O)c1c(F)ccc([N+](=O)[O-])c1F)c1ccc(-c2c3nc(c(-c4c(F)cccc4F)c4ccc([nH]4)c(-c4c(F)cccc4F)c4nc(c(-c5c(F)cccc5F)c5ccc2[nH]5)C=C4)C=C3)cc1
REMARK SMILES IDX 7 1 6 2 5 3 4 4 3 5 1 6 2 7 31 9 32 10 84 11 33 12 83 13
REMARK SMILES IDX 34 14 35 15 36 16 77 17 37 18 82 19 76 20 78 21 38 22 81 23
REMARK SMILES IDX 75 24 74 25 39 27 65 28 48 29 64 30 49 31 52 32 63 33 79 34
REMARK SMILES IDX 50 35 51 36 62 38 80 39 53 40 40 41 41 42 46 43 42 44 43 45
REMARK SMILES IDX 45 46 47 47 44 48 66 49 67 50 72 51 68 52 69 53 71 54 73 55
REMARK SMILES IDX 70 56 54 57 55 58 60 59 56 60 57 61 59 62 61 63 58 64 8 65
REMARK SMILES IDX 9 66 10 67 11 68 12 70 13 71 14 72 15 73 16 74 17 76 18 77
REMARK SMILES IDX 19 79 20 80 21 81 29 82 22 83 23 84 25 85 30 86 24 87 26 88
REMARK SMILES IDX 27 89 28 90
REMARK H PARENT 3 8 78 26 52 37 10 69 16 75 17 78
REMARK Flexibility Score: inf
ROOT
ATOM      1  C   UNL A   1      33.973  26.743  25.181  1.00  0.00     0.002 C 
ENDROOT
BRANCH   1   2
ATOM      2  C   UNL A   1      32.617  27.255  25.677  1.00  0.00     0.002 C 
BRANCH   2   3
ATOM      3  C   UNL A   1      32.674  28.096  26.952  1.00  0.00     0.021 C 
BRANCH   3   4
ATOM      4  C   UNL A   1      34.035  28.722  27.226  1.00  0.00     0.116 C 
BRANCH   4   5
ATOM      5  N   UNL A   1      33.916  30.077  27.739  1.00  0.00    -0.352 N 
ATOM      6  O   UNL A   1      34.474  31.841  29.035  1.00  0.00    -0.269 OA
ATOM      7  C   UNL A   1      34.809  30.794  28.499  1.00  0.00     0.251 C 
ATOM      8  H   UNL A   1      33.082  30.546  27.510  1.00  0.00     0.163 HD
BRANCH   7   9
ATOM      9  C   UNL A   1      36.185  30.280  28.663  1.00  0.00     0.039 A 
ATOM     10  C   UNL A   1      37.107  30.413  27.624  1.00  0.00     0.014 A 
ATOM     11  C   UNL A   1      36.555  29.670  29.864  1.00  0.00     0.014 A 
ATOM     12  C   UNL A   1      38.355  29.818  27.733  1.00  0.00     0.010 A 
ATOM     13  C   UNL A   1      37.848  29.161  30.010  1.00  0.00     0.010 A 
ATOM     14  C   UNL A   1      38.753  29.219  28.940  1.00  0.00    -0.014 A 
BRANCH  14  15
ATOM     15  C   UNL A   1      40.159  28.769  29.078  1.00  0.00     0.031 A 
ATOM     16  C   UNL A   1      40.598  27.406  28.628  1.00  0.00     0.074 A 
ATOM     17  C   UNL A   1      41.052  29.645  29.580  1.00  0.00     0.049 A 
ATOM     18  N   UNL A   1      41.800  26.886  28.653  1.00  0.00    -0.248 NA
ATOM     19  C   UNL A   1      39.567  26.508  28.088  1.00  0.00     0.031 C 
ATOM     20  C   UNL A   1      40.728  30.995  30.055  1.00  0.00     0.029 A 
ATOM     21  N   UNL A   1      42.409  29.556  29.747  1.00  0.00    -0.354 N 
ATOM     22  C   UNL A   1      41.669  25.601  28.141  1.00  0.00     0.074 A 
ATOM     23  C   UNL A   1      40.267  25.408  27.839  1.00  0.00     0.031 C 
ATOM     24  C   UNL A   1      41.858  31.627  30.395  1.00  0.00     0.029 A 
ATOM     25  C   UNL A   1      42.976  30.706  30.240  1.00  0.00     0.049 A 
ATOM     26  H   UNL A   1      42.927  28.745  29.536  1.00  0.00     0.167 HD
ATOM     27  C   UNL A   1      42.638  24.678  27.934  1.00  0.00     0.037 A 
ATOM     28  C   UNL A   1      44.255  30.987  30.550  1.00  0.00     0.037 A 
ATOM     29  C   UNL A   1      44.034  24.888  28.230  1.00  0.00     0.049 A 
ATOM     30  C   UNL A   1      45.295  29.927  30.347  1.00  0.00     0.074 A 
ATOM     31  C   UNL A   1      45.093  24.019  28.037  1.00  0.00     0.029 A 
ATOM     32  N   UNL A   1      44.564  26.047  28.778  1.00  0.00    -0.354 N 
ATOM     33  N   UNL A   1      45.159  28.724  29.842  1.00  0.00    -0.248 NA
ATOM     34  C   UNL A   1      46.663  30.255  30.766  1.00  0.00     0.031 C 
ATOM     35  C   UNL A   1      46.256  24.633  28.512  1.00  0.00     0.029 A 
ATOM     36  C   UNL A   1      45.931  25.905  28.953  1.00  0.00     0.049 A 
ATOM     37  H   UNL A   1      44.045  26.851  29.009  1.00  0.00     0.167 HD
ATOM     38  C   UNL A   1      46.422  28.155  29.874  1.00  0.00     0.074 A 
ATOM     39  C   UNL A   1      47.318  29.156  30.418  1.00  0.00     0.031 C 
ATOM     40  C   UNL A   1      46.806  26.911  29.498  1.00  0.00     0.037 A 
BRANCH  27  41
ATOM     41  C   UNL A   1      42.241  23.348  27.361  1.00  0.00     0.057 A 
ATOM     42  C   UNL A   1      41.841  22.300  28.198  1.00  0.00     0.134 A 
ATOM     43  C   UNL A   1      42.355  23.074  25.993  1.00  0.00     0.134 A 
ATOM     44  F   UNL A   1      41.718  22.491  29.521  1.00  0.00    -0.206 F 
ATOM     45  C   UNL A   1      41.589  21.019  27.699  1.00  0.00     0.040 A 
ATOM     46  C   UNL A   1      42.085  21.804  25.478  1.00  0.00     0.040 A 
ATOM     47  F   UNL A   1      42.725  24.036  25.134  1.00  0.00    -0.206 F 
ATOM     48  C   UNL A   1      41.713  20.769  26.335  1.00  0.00     0.006 A 
ENDBRANCH  27  41
BRANCH  28  49
ATOM     49  C   UNL A   1      44.610  32.323  31.093  1.00  0.00     0.057 A 
ATOM     50  C   UNL A   1      44.642  32.565  32.472  1.00  0.00     0.134 A 
ATOM     51  C   UNL A   1      44.911  33.393  30.245  1.00  0.00     0.134 A 
ATOM     52  F   UNL A   1      44.353  31.584  33.340  1.00  0.00    -0.206 F 
ATOM     53  C   UNL A   1      44.942  33.826  32.987  1.00  0.00     0.040 A 
ATOM     54  C   UNL A   1      45.246  34.651  30.746  1.00  0.00     0.040 A 
ATOM     55  F   UNL A   1      44.912  33.221  28.914  1.00  0.00    -0.206 F 
ATOM     56  C   UNL A   1      45.254  34.873  32.122  1.00  0.00     0.006 A 
ENDBRANCH  28  49
BRANCH  40  57
ATOM     57  C   UNL A   1      48.258  26.570  29.653  1.00  0.00     0.057 A 
ATOM     58  C   UNL A   1      49.179  26.883  28.645  1.00  0.00     0.134 A 
ATOM     59  C   UNL A   1      48.737  25.896  30.784  1.00  0.00     0.134 A 
ATOM     60  F   UNL A   1      48.783  27.520  27.533  1.00  0.00    -0.206 F 
ATOM     61  C   UNL A   1      50.525  26.531  28.755  1.00  0.00     0.040 A 
ATOM     62  C   UNL A   1      50.086  25.565  30.918  1.00  0.00     0.040 A 
ATOM     63  F   UNL A   1      47.907  25.581  31.790  1.00  0.00    -0.206 F 
ATOM     64  C   UNL A   1      50.982  25.876  29.897  1.00  0.00     0.006 A 
ENDBRANCH  40  57
ENDBRANCH  14  15
ENDBRANCH   7   9
ENDBRANCH   4   5
ENDBRANCH   3   4
ENDBRANCH   2   3
ENDBRANCH   1   2
BRANCH   1  65
ATOM     65  C   UNL A   1      34.278  25.283  25.530  1.00  0.00     0.021 C 
BRANCH  65  66
ATOM     66  C   UNL A   1      33.170  24.580  26.314  1.00  0.00     0.116 C 
BRANCH  66  67
ATOM     67  N   UNL A   1      33.701  23.428  27.007  1.00  0.00    -0.354 N 
ATOM     68  C   UNL A   1      34.286  22.294  26.549  1.00  0.00     0.242 C 
ATOM     69  H   UNL A   1      33.622  23.475  27.987  1.00  0.00     0.163 HD
ATOM     70  O   UNL A   1      34.434  21.381  27.371  1.00  0.00    -0.273 OA
BRANCH  68  71
ATOM     71  C   UNL A   1      34.711  22.065  25.080  1.00  0.00     0.173 C 
BRANCH  71  72
ATOM     72  C   UNL A   1      36.221  21.898  24.835  1.00  0.00     0.063 C 
BRANCH  72  73
ATOM     73  C   UNL A   1      37.214  22.796  25.558  1.00  0.00     0.158 C 
BRANCH  73  74
ATOM     74  O   UNL A   1      38.219  22.075  26.249  1.00  0.00    -0.396 OA
ATOM     75  H   UNL A   1      37.834  21.655  27.034  1.00  0.00     0.210 HD
ENDBRANCH  73  74
ENDBRANCH  72  73
ENDBRANCH  71  72
BRANCH  71  76
ATOM     76  N   UNL A   1      33.877  21.114  24.340  1.00  0.00    -0.340 N 
ATOM     77  C   UNL A   1      32.743  21.325  23.593  1.00  0.00     0.258 C 
ATOM     78  H   UNL A   1      34.177  20.177  24.385  1.00  0.00     0.164 HD
ATOM     79  O   UNL A   1      32.140  20.367  23.119  1.00  0.00    -0.269 OA
BRANCH  77  80
ATOM     80  C   UNL A   1      32.242  22.683  23.322  1.00  0.00     0.118 A 
ATOM     81  C   UNL A   1      31.191  23.218  24.066  1.00  0.00     0.139 A 
ATOM     82  C   UNL A   1      32.880  23.476  22.366  1.00  0.00     0.216 A 
ATOM     83  F   UNL A   1      30.637  22.528  25.069  1.00  0.00    -0.206 F 
ATOM     84  C   UNL A   1      30.694  24.491  23.797  1.00  0.00     0.047 A 
ATOM     85  C   UNL A   1      32.421  24.776  22.128  1.00  0.00     0.305 A 
ATOM     86  F   UNL A   1      33.909  22.967  21.674  1.00  0.00    -0.198 F 
ATOM     87  C   UNL A   1      31.304  25.276  22.822  1.00  0.00     0.092 A 
BRANCH  85  88
ATOM     88  N   UNL A   1      33.103  25.648  21.170  1.00  0.00     0.065 N 
ATOM     89  O   UNL A   1      32.985  25.413  19.963  1.00  0.00    -0.258 OA
ATOM     90  O   UNL A   1      33.791  26.568  21.638  1.00  0.00    -0.258 OA
ENDBRANCH  85  88
ENDBRANCH  77  80
ENDBRANCH  71  76
ENDBRANCH  68  71
ENDBRANCH  66  67
ENDBRANCH  65  66
ENDBRANCH   1  65
TORSDOF 19
ENDMDL
