MODEL 1
REMARK VINA RESULT:     -12.6      0.000      0.000
REMARK SMILES O=C1CCCC2=C1[C@H](c1ccc([N+](=O)[O-])cc1)CC(=O)N2c1ccccc1C(=O)NCCCCCCNC(=O)c1ccc(-c2c3nc(c(-c4c(F)cccc4F)c4ccc([nH]4)c(-c4c(F)cccc4F)c4nc(c(-c5c(F)cccc5F)c5ccc2[nH]5)C=C4)C=C3)cc1
REMARK SMILES IDX 33 1 32 2 31 3 30 4 28 5 29 6 27 8 22 9 23 10 24 11 26 12
REMARK SMILES IDX 25 13 21 14 1 15 2 16 3 17 7 18 4 19 6 20 8 21 5 22 18 23
REMARK SMILES IDX 19 24 20 25 9 26 10 27 17 28 11 29 16 30 12 31 13 32 14 33
REMARK SMILES IDX 15 34 34 35 35 36 36 37 37 38 38 39 39 41 40 42 41 43 93 44
REMARK SMILES IDX 42 45 92 46 43 47 44 48 45 49 86 50 46 51 91 52 85 53 87 54
REMARK SMILES IDX 47 55 90 56 84 57 83 58 48 60 74 61 57 62 73 63 58 64 61 65
REMARK SMILES IDX 72 66 88 67 59 68 60 69 71 71 89 72 62 73 49 74 50 75 55 76
REMARK SMILES IDX 51 77 52 78 54 79 56 80 53 81 75 82 76 83 81 84 77 85 78 86
REMARK SMILES IDX 80 87 82 88 79 89 63 90 64 91 69 92 65 93 66 94 68 95 70 96
REMARK SMILES IDX 67 97
REMARK H PARENT 30 7 37 40 87 59 61 70
REMARK Flexibility Score: inf
ROOT
ATOM      1  C   UNL A   1      40.471  21.717  26.882  1.00  0.00     0.002 C 
ENDROOT
BRANCH   1   2
ATOM      2  C   UNL A   1      39.322  22.732  26.510  1.00  0.00     0.021 C 
BRANCH   2   3
ATOM      3  C   UNL A   1      37.983  22.402  25.829  1.00  0.00     0.116 C 
BRANCH   3   4
ATOM      4  N   UNL A   1      37.094  23.522  25.536  1.00  0.00    -0.352 N 
ATOM      5  C   UNL A   1      35.730  23.745  25.464  1.00  0.00     0.253 C 
ATOM      6  O   UNL A   1      35.476  24.961  25.441  1.00  0.00    -0.269 OA
ATOM      7  H   UNL A   1      37.602  24.341  25.336  1.00  0.00     0.163 HD
BRANCH   5   8
ATOM      8  C   UNL A   1      34.525  22.803  25.423  1.00  0.00     0.063 A 
ATOM      9  C   UNL A   1      33.137  23.009  25.264  1.00  0.00     0.061 A 
ATOM     10  C   UNL A   1      32.235  21.900  25.264  1.00  0.00     0.027 A 
ATOM     11  C   UNL A   1      32.654  20.591  25.436  1.00  0.00     0.002 A 
ATOM     12  C   UNL A   1      34.901  21.435  25.617  1.00  0.00     0.016 A 
ATOM     13  C   UNL A   1      33.999  20.357  25.624  1.00  0.00     0.001 A 
BRANCH   9  14
ATOM     14  N   UNL A   1      32.481  24.244  24.995  1.00  0.00    -0.284 N 
ATOM     15  O   UNL A   1      30.784  27.113  21.815  1.00  0.00    -0.294 OA
ATOM     16  C   UNL A   1      31.737  26.412  22.142  1.00  0.00     0.161 C 
ATOM     17  C   UNL A   1      32.771  25.934  21.136  1.00  0.00     0.081 C 
ATOM     18  C   UNL A   1      31.950  26.042  23.570  1.00  0.00     0.023 C 
ATOM     19  C   UNL A   1      32.797  24.428  21.137  1.00  0.00     0.015 C 
ATOM     20  C   UNL A   1      32.417  24.778  23.705  1.00  0.00     0.033 C 
ATOM     21  C   UNL A   1      31.372  26.871  24.743  1.00  0.00     0.064 C 
ATOM     22  C   UNL A   1      32.882  23.870  22.555  1.00  0.00     0.055 C 
ATOM     23  C   UNL A   1      30.695  25.841  25.634  1.00  0.00     0.114 C 
ATOM     24  C   UNL A   1      31.688  24.769  26.041  1.00  0.00     0.232 C 
ATOM     25  O   UNL A   1      31.711  24.371  27.207  1.00  0.00    -0.274 OA
BRANCH  21  26
ATOM     26  C   UNL A   1      32.259  27.860  25.589  1.00  0.00    -0.039 A 
ATOM     27  C   UNL A   1      33.661  27.795  25.744  1.00  0.00     0.011 A 
ATOM     28  C   UNL A   1      31.647  28.814  26.411  1.00  0.00     0.011 A 
ATOM     29  C   UNL A   1      34.385  28.691  26.574  1.00  0.00     0.086 A 
ATOM     30  C   UNL A   1      32.335  29.755  27.201  1.00  0.00     0.086 A 
ATOM     31  C   UNL A   1      33.719  29.702  27.265  1.00  0.00     0.269 A 
BRANCH  31  32
ATOM     32  N   UNL A   1      34.456  30.708  28.042  1.00  0.00     0.062 N 
ATOM     33  O   UNL A   1      34.000  31.858  28.075  1.00  0.00    -0.258 OA
ATOM     34  O   UNL A   1      35.482  30.338  28.632  1.00  0.00    -0.258 OA
ENDBRANCH  31  32
ENDBRANCH  21  26
ENDBRANCH   9  14
ENDBRANCH   5   8
ENDBRANCH   3   4
ENDBRANCH   2   3
ENDBRANCH   1   2
BRANCH   1  35
ATOM     35  C   UNL A   1      41.720  21.107  26.150  1.00  0.00     0.002 C 
BRANCH  35  36
ATOM     36  C   UNL A   1      42.006  19.638  25.782  1.00  0.00     0.021 C 
BRANCH  36  37
ATOM     37  C   UNL A   1      43.278  18.756  26.007  1.00  0.00     0.116 C 
BRANCH  37  38
ATOM     38  N   UNL A   1      44.158  18.467  24.901  1.00  0.00    -0.352 N 
ATOM     39  C   UNL A   1      44.831  19.396  24.113  1.00  0.00     0.251 C 
ATOM     40  H   UNL A   1      44.296  17.517  24.681  1.00  0.00     0.163 HD
ATOM     41  O   UNL A   1      45.298  19.065  23.036  1.00  0.00    -0.269 OA
BRANCH  39  42
ATOM     42  C   UNL A   1      44.995  20.809  24.558  1.00  0.00     0.039 A 
ATOM     43  C   UNL A   1      45.530  21.086  25.822  1.00  0.00     0.014 A 
ATOM     44  C   UNL A   1      44.500  21.859  23.780  1.00  0.00     0.014 A 
ATOM     45  C   UNL A   1      45.626  22.414  26.275  1.00  0.00     0.010 A 
ATOM     46  C   UNL A   1      44.620  23.186  24.224  1.00  0.00     0.010 A 
ATOM     47  C   UNL A   1      45.192  23.483  25.473  1.00  0.00    -0.014 A 
BRANCH  47  48
ATOM     48  C   UNL A   1      45.353  24.902  25.920  1.00  0.00     0.031 A 
ATOM     49  C   UNL A   1      46.696  25.584  25.877  1.00  0.00     0.074 A 
ATOM     50  C   UNL A   1      44.296  25.572  26.421  1.00  0.00     0.049 A 
ATOM     51  N   UNL A   1      47.033  26.785  26.281  1.00  0.00    -0.248 NA
ATOM     52  C   UNL A   1      47.809  24.803  25.321  1.00  0.00     0.031 C 
ATOM     53  C   UNL A   1      42.944  25.030  26.550  1.00  0.00     0.029 A 
ATOM     54  N   UNL A   1      44.192  26.846  26.931  1.00  0.00    -0.354 N 
ATOM     55  C   UNL A   1      48.398  26.900  26.041  1.00  0.00     0.074 A 
ATOM     56  C   UNL A   1      48.831  25.630  25.494  1.00  0.00     0.031 C 
ATOM     57  C   UNL A   1      42.148  25.960  27.102  1.00  0.00     0.029 A 
ATOM     58  C   UNL A   1      42.936  27.153  27.399  1.00  0.00     0.049 A 
ATOM     59  H   UNL A   1      44.947  27.478  26.959  1.00  0.00     0.167 HD
ATOM     60  C   UNL A   1      49.215  27.965  26.244  1.00  0.00     0.037 A 
ATOM     61  C   UNL A   1      42.470  28.259  28.012  1.00  0.00     0.037 A 
ATOM     62  C   UNL A   1      48.783  29.231  26.784  1.00  0.00     0.049 A 
ATOM     63  C   UNL A   1      43.389  29.427  28.245  1.00  0.00     0.074 A 
ATOM     64  C   UNL A   1      49.525  30.384  26.982  1.00  0.00     0.029 A 
ATOM     65  N   UNL A   1      47.497  29.507  27.224  1.00  0.00    -0.354 N 
ATOM     66  N   UNL A   1      44.663  29.541  27.955  1.00  0.00    -0.248 NA
ATOM     67  C   UNL A   1      42.812  30.620  28.881  1.00  0.00     0.031 C 
ATOM     68  C   UNL A   1      48.700  31.338  27.589  1.00  0.00     0.029 A 
ATOM     69  C   UNL A   1      47.429  30.800  27.716  1.00  0.00     0.049 A 
ATOM     70  H   UNL A   1      46.742  28.875  27.191  1.00  0.00     0.167 HD
ATOM     71  C   UNL A   1      45.032  30.823  28.346  1.00  0.00     0.074 A 
ATOM     72  C   UNL A   1      43.847  31.450  28.893  1.00  0.00     0.031 C 
ATOM     73  C   UNL A   1      46.243  31.422  28.252  1.00  0.00     0.037 A 
BRANCH  60  74
ATOM     74  C   UNL A   1      50.669  27.793  25.902  1.00  0.00     0.057 A 
ATOM     75  C   UNL A   1      51.629  27.472  26.872  1.00  0.00     0.134 A 
ATOM     76  C   UNL A   1      51.119  27.951  24.583  1.00  0.00     0.134 A 
ATOM     77  F   UNL A   1      51.269  27.305  28.154  1.00  0.00    -0.206 F 
ATOM     78  C   UNL A   1      52.985  27.367  26.555  1.00  0.00     0.040 A 
ATOM     79  C   UNL A   1      52.469  27.817  24.250  1.00  0.00     0.040 A 
ATOM     80  F   UNL A   1      50.256  28.239  23.598  1.00  0.00    -0.206 F 
ATOM     81  C   UNL A   1      53.409  27.540  25.240  1.00  0.00     0.006 A 
ENDBRANCH  60  74
BRANCH  61  82
ATOM     82  C   UNL A   1      41.048  28.309  28.444  1.00  0.00     0.057 A 
ATOM     83  C   UNL A   1      40.661  27.905  29.727  1.00  0.00     0.134 A 
ATOM     84  C   UNL A   1      40.047  28.799  27.594  1.00  0.00     0.134 A 
ATOM     85  F   UNL A   1      41.569  27.408  30.580  1.00  0.00    -0.206 F 
ATOM     86  C   UNL A   1      39.333  27.986  30.150  1.00  0.00     0.040 A 
ATOM     87  C   UNL A   1      38.720  28.907  28.013  1.00  0.00     0.040 A 
ATOM     88  F   UNL A   1      40.352  29.206  26.353  1.00  0.00    -0.206 F 
ATOM     89  C   UNL A   1      38.359  28.498  29.294  1.00  0.00     0.006 A 
ENDBRANCH  61  82
BRANCH  73  90
ATOM     90  C   UNL A   1      46.358  32.846  28.713  1.00  0.00     0.057 A 
ATOM     91  C   UNL A   1      46.742  33.174  30.019  1.00  0.00     0.134 A 
ATOM     92  C   UNL A   1      46.167  33.901  27.811  1.00  0.00     0.134 A 
ATOM     93  F   UNL A   1      46.928  32.212  30.935  1.00  0.00    -0.206 F 
ATOM     94  C   UNL A   1      46.932  34.501  30.411  1.00  0.00     0.040 A 
ATOM     95  C   UNL A   1      46.375  35.229  28.184  1.00  0.00     0.040 A 
ATOM     96  F   UNL A   1      45.805  33.655  26.543  1.00  0.00    -0.206 F 
ATOM     97  C   UNL A   1      46.760  35.533  29.488  1.00  0.00     0.006 A 
ENDBRANCH  73  90
ENDBRANCH  47  48
ENDBRANCH  39  42
ENDBRANCH  37  38
ENDBRANCH  36  37
ENDBRANCH  35  36
ENDBRANCH   1  35
TORSDOF 16
ENDMDL
MODEL 2
REMARK VINA RESULT:     -12.4      5.719     11.532
REMARK SMILES O=C1CCCC2=C1[C@H](c1ccc([N+](=O)[O-])cc1)CC(=O)N2c1ccccc1C(=O)NCCCCCCNC(=O)c1ccc(-c2c3nc(c(-c4c(F)cccc4F)c4ccc([nH]4)c(-c4c(F)cccc4F)c4nc(c(-c5c(F)cccc5F)c5ccc2[nH]5)C=C4)C=C3)cc1
REMARK SMILES IDX 33 1 32 2 31 3 30 4 28 5 29 6 27 8 22 9 23 10 24 11 26 12
REMARK SMILES IDX 25 13 21 14 1 15 2 16 3 17 7 18 4 19 6 20 8 21 5 22 18 23
REMARK SMILES IDX 19 24 20 25 9 26 10 27 17 28 11 29 16 30 12 31 13 32 14 33
REMARK SMILES IDX 15 34 34 35 35 36 36 37 37 38 38 39 39 41 40 42 41 43 93 44
REMARK SMILES IDX 42 45 92 46 43 47 44 48 45 49 86 50 46 51 91 52 85 53 87 54
REMARK SMILES IDX 47 55 90 56 84 57 83 58 48 60 74 61 57 62 73 63 58 64 61 65
REMARK SMILES IDX 72 66 88 67 59 68 60 69 71 71 89 72 62 73 49 74 50 75 55 76
REMARK SMILES IDX 51 77 52 78 54 79 56 80 53 81 75 82 76 83 81 84 77 85 78 86
REMARK SMILES IDX 80 87 82 88 79 89 63 90 64 91 69 92 65 93 66 94 68 95 70 96
REMARK SMILES IDX 67 97
REMARK H PARENT 30 7 37 40 87 59 61 70
REMARK Flexibility Score: inf
ROOT
ATOM      1  C   UNL A   1      34.269  31.955  28.050  1.00  0.00     0.002 C 
ENDROOT
BRANCH   1   2
ATOM      2  C   UNL A   1      33.332  31.079  27.131  1.00  0.00     0.021 C 
BRANCH   2   3
ATOM      3  C   UNL A   1      32.710  29.716  27.478  1.00  0.00     0.116 C 
BRANCH   3   4
ATOM      4  N   UNL A   1      33.404  28.527  26.993  1.00  0.00    -0.352 N 
ATOM      5  C   UNL A   1      33.431  27.766  25.838  1.00  0.00     0.253 C 
ATOM      6  O   UNL A   1      34.408  26.998  25.831  1.00  0.00    -0.269 OA
ATOM      7  H   UNL A   1      34.020  28.170  27.673  1.00  0.00     0.163 HD
BRANCH   5   8
ATOM      8  C   UNL A   1      32.520  27.710  24.610  1.00  0.00     0.063 A 
ATOM      9  C   UNL A   1      32.145  26.675  23.726  1.00  0.00     0.061 A 
ATOM     10  C   UNL A   1      31.249  26.935  22.644  1.00  0.00     0.027 A 
ATOM     11  C   UNL A   1      30.723  28.191  22.390  1.00  0.00     0.002 A 
ATOM     12  C   UNL A   1      31.964  28.990  24.290  1.00  0.00     0.016 A 
ATOM     13  C   UNL A   1      31.092  29.231  23.215  1.00  0.00     0.001 A 
BRANCH   9  14
ATOM     14  N   UNL A   1      32.489  25.297  23.828  1.00  0.00    -0.284 N 
ATOM     15  O   UNL A   1      31.329  21.123  25.394  1.00  0.00    -0.294 OA
ATOM     16  C   UNL A   1      31.433  22.314  25.668  1.00  0.00     0.161 C 
ATOM     17  C   UNL A   1      30.698  22.941  26.840  1.00  0.00     0.081 C 
ATOM     18  C   UNL A   1      32.342  23.195  24.880  1.00  0.00     0.023 C 
ATOM     19  C   UNL A   1      29.807  24.044  26.329  1.00  0.00     0.015 C 
ATOM     20  C   UNL A   1      31.825  24.435  24.705  1.00  0.00     0.033 C 
ATOM     21  C   UNL A   1      33.545  22.647  24.074  1.00  0.00     0.064 C 
ATOM     22  C   UNL A   1      30.560  24.979  25.387  1.00  0.00     0.055 C 
ATOM     23  C   UNL A   1      33.398  23.284  22.701  1.00  0.00     0.114 C 
ATOM     24  C   UNL A   1      33.353  24.795  22.827  1.00  0.00     0.232 C 
ATOM     25  O   UNL A   1      33.994  25.492  22.039  1.00  0.00    -0.274 OA
BRANCH  21  26
ATOM     26  C   UNL A   1      35.026  22.757  24.597  1.00  0.00    -0.039 A 
ATOM     27  C   UNL A   1      36.106  21.933  24.211  1.00  0.00     0.011 A 
ATOM     28  C   UNL A   1      35.329  23.622  25.655  1.00  0.00     0.011 A 
ATOM     29  C   UNL A   1      37.405  22.056  24.774  1.00  0.00     0.086 A 
ATOM     30  C   UNL A   1      36.615  23.810  26.197  1.00  0.00     0.086 A 
ATOM     31  C   UNL A   1      37.665  23.032  25.735  1.00  0.00     0.269 A 
BRANCH  31  32
ATOM     32  N   UNL A   1      39.023  23.251  26.252  1.00  0.00     0.062 N 
ATOM     33  O   UNL A   1      39.606  22.286  26.765  1.00  0.00    -0.258 OA
ATOM     34  O   UNL A   1      39.509  24.384  26.126  1.00  0.00    -0.258 OA
ENDBRANCH  31  32
ENDBRANCH  21  26
ENDBRANCH   9  14
ENDBRANCH   5   8
ENDBRANCH   3   4
ENDBRANCH   2   3
ENDBRANCH   1   2
BRANCH   1  35
ATOM     35  C   UNL A   1      34.090  33.216  28.969  1.00  0.00     0.002 C 
BRANCH  35  36
ATOM     36  C   UNL A   1      33.163  34.433  28.778  1.00  0.00     0.021 C 
BRANCH  36  37
ATOM     37  C   UNL A   1      33.269  35.895  29.319  1.00  0.00     0.116 C 
BRANCH  37  38
ATOM     38  N   UNL A   1      32.500  36.293  30.474  1.00  0.00    -0.352 N 
ATOM     39  C   UNL A   1      32.631  35.798  31.768  1.00  0.00     0.251 C 
ATOM     40  H   UNL A   1      31.813  36.984  30.331  1.00  0.00     0.163 HD
ATOM     41  O   UNL A   1      31.745  35.977  32.586  1.00  0.00    -0.269 OA
BRANCH  39  42
ATOM     42  C   UNL A   1      33.845  35.039  32.183  1.00  0.00     0.039 A 
ATOM     43  C   UNL A   1      35.110  35.626  32.066  1.00  0.00     0.014 A 
ATOM     44  C   UNL A   1      33.745  33.698  32.566  1.00  0.00     0.014 A 
ATOM     45  C   UNL A   1      36.264  34.893  32.394  1.00  0.00     0.010 A 
ATOM     46  C   UNL A   1      34.898  32.975  32.916  1.00  0.00     0.010 A 
ATOM     47  C   UNL A   1      36.172  33.564  32.843  1.00  0.00    -0.014 A 
BRANCH  47  48
ATOM     48  C   UNL A   1      37.389  32.800  33.257  1.00  0.00     0.031 A 
ATOM     49  C   UNL A   1      38.090  33.098  34.557  1.00  0.00     0.074 A 
ATOM     50  C   UNL A   1      37.907  31.864  32.436  1.00  0.00     0.049 A 
ATOM     51  N   UNL A   1      39.191  32.580  35.048  1.00  0.00    -0.248 NA
ATOM     52  C   UNL A   1      37.481  34.127  35.409  1.00  0.00     0.031 C 
ATOM     53  C   UNL A   1      37.352  31.491  31.136  1.00  0.00     0.029 A 
ATOM     54  N   UNL A   1      39.022  31.068  32.561  1.00  0.00    -0.354 N 
ATOM     55  C   UNL A   1      39.414  33.229  36.257  1.00  0.00     0.074 A 
ATOM     56  C   UNL A   1      38.353  34.206  36.404  1.00  0.00     0.031 C 
ATOM     57  C   UNL A   1      38.126  30.543  30.583  1.00  0.00     0.029 A 
ATOM     58  C   UNL A   1      39.251  30.262  31.471  1.00  0.00     0.049 A 
ATOM     59  H   UNL A   1      39.603  31.075  33.357  1.00  0.00     0.167 HD
ATOM     60  C   UNL A   1      40.399  33.024  37.169  1.00  0.00     0.037 A 
ATOM     61  C   UNL A   1      40.257  29.406  31.202  1.00  0.00     0.037 A 
ATOM     62  C   UNL A   1      41.451  32.049  37.025  1.00  0.00     0.049 A 
ATOM     63  C   UNL A   1      41.351  29.200  32.215  1.00  0.00     0.074 A 
ATOM     64  C   UNL A   1      42.465  31.735  37.915  1.00  0.00     0.029 A 
ATOM     65  N   UNL A   1      41.632  31.237  35.915  1.00  0.00    -0.354 N 
ATOM     66  N   UNL A   1      41.511  29.777  33.381  1.00  0.00    -0.248 NA
ATOM     67  C   UNL A   1      42.398  28.224  31.881  1.00  0.00     0.031 C 
ATOM     68  C   UNL A   1      43.288  30.771  37.321  1.00  0.00     0.029 A 
ATOM     69  C   UNL A   1      42.754  30.443  36.084  1.00  0.00     0.049 A 
ATOM     70  H   UNL A   1      41.048  31.227  35.122  1.00  0.00     0.167 HD
ATOM     71  C   UNL A   1      42.656  29.216  33.932  1.00  0.00     0.074 A 
ATOM     72  C   UNL A   1      43.152  28.251  32.973  1.00  0.00     0.031 C 
ATOM     73  C   UNL A   1      43.237  29.477  35.128  1.00  0.00     0.037 A 
BRANCH  60  74
ATOM     74  C   UNL A   1      40.395  33.897  38.394  1.00  0.00     0.057 A 
ATOM     75  C   UNL A   1      39.679  33.553  39.549  1.00  0.00     0.134 A 
ATOM     76  C   UNL A   1      41.116  35.099  38.421  1.00  0.00     0.134 A 
ATOM     77  F   UNL A   1      38.967  32.417  39.595  1.00  0.00    -0.206 F 
ATOM     78  C   UNL A   1      39.637  34.395  40.663  1.00  0.00     0.040 A 
ATOM     79  C   UNL A   1      41.106  35.934  39.541  1.00  0.00     0.040 A 
ATOM     80  F   UNL A   1      41.840  35.483  37.360  1.00  0.00    -0.206 F 
ATOM     81  C   UNL A   1      40.353  35.590  40.661  1.00  0.00     0.006 A 
ENDBRANCH  60  74
BRANCH  61  82
ATOM     82  C   UNL A   1      40.266  28.674  29.909  1.00  0.00     0.057 A 
ATOM     83  C   UNL A   1      39.530  27.496  29.733  1.00  0.00     0.134 A 
ATOM     84  C   UNL A   1      40.981  29.157  28.805  1.00  0.00     0.134 A 
ATOM     85  F   UNL A   1      38.842  26.972  30.757  1.00  0.00    -0.206 F 
ATOM     86  C   UNL A   1      39.505  26.826  28.508  1.00  0.00     0.040 A 
ATOM     87  C   UNL A   1      40.946  28.509  27.568  1.00  0.00     0.040 A 
ATOM     88  F   UNL A   1      41.703  30.283  28.906  1.00  0.00    -0.206 F 
ATOM     89  C   UNL A   1      40.207  27.338  27.418  1.00  0.00     0.006 A 
ENDBRANCH  61  82
BRANCH  73  90
ATOM     90  C   UNL A   1      44.457  28.685  35.502  1.00  0.00     0.057 A 
ATOM     91  C   UNL A   1      44.371  27.474  36.198  1.00  0.00     0.134 A 
ATOM     92  C   UNL A   1      45.727  29.100  35.081  1.00  0.00     0.134 A 
ATOM     93  F   UNL A   1      43.186  27.026  36.640  1.00  0.00    -0.206 F 
ATOM     94  C   UNL A   1      45.505  26.703  36.462  1.00  0.00     0.040 A 
ATOM     95  C   UNL A   1      46.865  28.328  35.319  1.00  0.00     0.040 A 
ATOM     96  F   UNL A   1      45.879  30.249  34.404  1.00  0.00    -0.206 F 
ATOM     97  C   UNL A   1      46.756  27.124  36.011  1.00  0.00     0.006 A 
ENDBRANCH  73  90
ENDBRANCH  47  48
ENDBRANCH  39  42
ENDBRANCH  37  38
ENDBRANCH  36  37
ENDBRANCH  35  36
ENDBRANCH   1  35
TORSDOF 16
ENDMDL
MODEL 3
REMARK VINA RESULT:     -12.3      5.114      8.830
REMARK SMILES O=C1CCCC2=C1[C@H](c1ccc([N+](=O)[O-])cc1)CC(=O)N2c1ccccc1C(=O)NCCCCCCNC(=O)c1ccc(-c2c3nc(c(-c4c(F)cccc4F)c4ccc([nH]4)c(-c4c(F)cccc4F)c4nc(c(-c5c(F)cccc5F)c5ccc2[nH]5)C=C4)C=C3)cc1
REMARK SMILES IDX 33 1 32 2 31 3 30 4 28 5 29 6 27 8 22 9 23 10 24 11 26 12
REMARK SMILES IDX 25 13 21 14 1 15 2 16 3 17 7 18 4 19 6 20 8 21 5 22 18 23
REMARK SMILES IDX 19 24 20 25 9 26 10 27 17 28 11 29 16 30 12 31 13 32 14 33
REMARK SMILES IDX 15 34 34 35 35 36 36 37 37 38 38 39 39 41 40 42 41 43 93 44
REMARK SMILES IDX 42 45 92 46 43 47 44 48 45 49 86 50 46 51 91 52 85 53 87 54
REMARK SMILES IDX 47 55 90 56 84 57 83 58 48 60 74 61 57 62 73 63 58 64 61 65
REMARK SMILES IDX 72 66 88 67 59 68 60 69 71 71 89 72 62 73 49 74 50 75 55 76
REMARK SMILES IDX 51 77 52 78 54 79 56 80 53 81 75 82 76 83 81 84 77 85 78 86
REMARK SMILES IDX 80 87 82 88 79 89 63 90 64 91 69 92 65 93 66 94 68 95 70 96
REMARK SMILES IDX 67 97
REMARK H PARENT 30 7 37 40 87 59 61 70
REMARK Flexibility Score: inf
ROOT
ATOM      1  C   UNL A   1      40.301  21.787  27.154  1.00  0.00     0.002 C 
ENDROOT
BRANCH   1   2
ATOM      2  C   UNL A   1      39.254  22.798  26.545  1.00  0.00     0.021 C 
BRANCH   2   3
ATOM      3  C   UNL A   1      37.932  22.447  25.841  1.00  0.00     0.116 C 
BRANCH   3   4
ATOM      4  N   UNL A   1      37.046  23.557  25.501  1.00  0.00    -0.352 N 
ATOM      5  C   UNL A   1      35.684  23.771  25.389  1.00  0.00     0.253 C 
ATOM      6  O   UNL A   1      35.426  24.986  25.333  1.00  0.00    -0.269 OA
ATOM      7  H   UNL A   1      37.556  24.373  25.296  1.00  0.00     0.163 HD
BRANCH   5   8
ATOM      8  C   UNL A   1      34.484  22.823  25.338  1.00  0.00     0.063 A 
ATOM      9  C   UNL A   1      33.092  23.026  25.212  1.00  0.00     0.061 A 
ATOM     10  C   UNL A   1      32.197  21.912  25.190  1.00  0.00     0.027 A 
ATOM     11  C   UNL A   1      32.627  20.601  25.309  1.00  0.00     0.002 A 
ATOM     12  C   UNL A   1      34.871  21.452  25.477  1.00  0.00     0.016 A 
ATOM     13  C   UNL A   1      33.976  20.369  25.463  1.00  0.00     0.001 A 
BRANCH   9  14
ATOM     14  N   UNL A   1      32.424  24.265  24.997  1.00  0.00    -0.284 N 
ATOM     15  O   UNL A   1      30.658  27.235  21.951  1.00  0.00    -0.294 OA
ATOM     16  C   UNL A   1      31.621  26.530  22.237  1.00  0.00     0.161 C 
ATOM     17  C   UNL A   1      32.641  26.095  21.199  1.00  0.00     0.081 C 
ATOM     18  C   UNL A   1      31.859  26.109  23.647  1.00  0.00     0.023 C 
ATOM     19  C   UNL A   1      32.678  24.591  21.144  1.00  0.00     0.015 C 
ATOM     20  C   UNL A   1      32.336  24.845  23.729  1.00  0.00     0.033 C 
ATOM     21  C   UNL A   1      31.294  26.892  24.859  1.00  0.00     0.064 C 
ATOM     22  C   UNL A   1      32.789  23.983  22.540  1.00  0.00     0.055 C 
ATOM     23  C   UNL A   1      30.638  25.825  25.722  1.00  0.00     0.114 C 
ATOM     24  C   UNL A   1      31.644  24.747  26.075  1.00  0.00     0.232 C 
ATOM     25  O   UNL A   1      31.688  24.307  27.224  1.00  0.00    -0.274 OA
BRANCH  21  26
ATOM     26  C   UNL A   1      32.187  27.856  25.726  1.00  0.00    -0.039 A 
ATOM     27  C   UNL A   1      31.720  28.887  26.569  1.00  0.00     0.011 A 
ATOM     28  C   UNL A   1      33.578  27.845  25.570  1.00  0.00     0.011 A 
ATOM     29  C   UNL A   1      32.593  29.757  27.276  1.00  0.00     0.086 A 
ATOM     30  C   UNL A   1      34.476  28.651  26.295  1.00  0.00     0.086 A 
ATOM     31  C   UNL A   1      33.975  29.602  27.171  1.00  0.00     0.269 A 
BRANCH  31  32
ATOM     32  N   UNL A   1      34.895  30.416  27.976  1.00  0.00     0.062 N 
ATOM     33  O   UNL A   1      35.348  29.917  29.015  1.00  0.00    -0.258 OA
ATOM     34  O   UNL A   1      35.177  31.548  27.556  1.00  0.00    -0.258 OA
ENDBRANCH  31  32
ENDBRANCH  21  26
ENDBRANCH   9  14
ENDBRANCH   5   8
ENDBRANCH   3   4
ENDBRANCH   2   3
ENDBRANCH   1   2
BRANCH   1  35
ATOM     35  C   UNL A   1      41.587  21.896  28.049  1.00  0.00     0.002 C 
BRANCH  35  36
ATOM     36  C   UNL A   1      42.981  22.443  27.682  1.00  0.00     0.021 C 
BRANCH  36  37
ATOM     37  C   UNL A   1      43.430  23.864  27.209  1.00  0.00     0.116 C 
BRANCH  37  38
ATOM     38  N   UNL A   1      42.834  24.454  26.035  1.00  0.00    -0.352 N 
ATOM     39  C   UNL A   1      41.890  25.476  26.008  1.00  0.00     0.251 C 
ATOM     40  H   UNL A   1      43.125  24.096  25.164  1.00  0.00     0.163 HD
ATOM     41  O   UNL A   1      41.240  25.686  24.998  1.00  0.00    -0.269 OA
BRANCH  39  42
ATOM     42  C   UNL A   1      41.648  26.331  27.204  1.00  0.00     0.039 A 
ATOM     43  C   UNL A   1      40.636  25.995  28.112  1.00  0.00     0.014 A 
ATOM     44  C   UNL A   1      42.335  27.539  27.363  1.00  0.00     0.014 A 
ATOM     45  C   UNL A   1      40.359  26.832  29.206  1.00  0.00     0.010 A 
ATOM     46  C   UNL A   1      42.072  28.362  28.470  1.00  0.00     0.010 A 
ATOM     47  C   UNL A   1      41.088  28.016  29.412  1.00  0.00    -0.014 A 
BRANCH  47  48
ATOM     48  C   UNL A   1      40.844  28.878  30.611  1.00  0.00     0.031 A 
ATOM     49  C   UNL A   1      39.763  29.928  30.608  1.00  0.00     0.074 A 
ATOM     50  C   UNL A   1      41.634  28.757  31.697  1.00  0.00     0.049 A 
ATOM     51  N   UNL A   1      39.451  30.805  31.532  1.00  0.00    -0.248 NA
ATOM     52  C   UNL A   1      38.936  30.012  29.398  1.00  0.00     0.031 C 
ATOM     53  C   UNL A   1      42.736  27.805  31.829  1.00  0.00     0.029 A 
ATOM     54  N   UNL A   1      41.646  29.446  32.888  1.00  0.00    -0.354 N 
ATOM     55  C   UNL A   1      38.403  31.554  31.011  1.00  0.00     0.074 A 
ATOM     56  C   UNL A   1      38.160  31.052  29.673  1.00  0.00     0.031 C 
ATOM     57  C   UNL A   1      43.317  27.969  33.029  1.00  0.00     0.029 A 
ATOM     58  C   UNL A   1      42.653  29.059  33.740  1.00  0.00     0.049 A 
ATOM     59  H   UNL A   1      40.994  30.151  33.109  1.00  0.00     0.167 HD
ATOM     60  C   UNL A   1      37.696  32.557  31.593  1.00  0.00     0.037 A 
ATOM     61  C   UNL A   1      43.018  29.534  34.948  1.00  0.00     0.037 A 
ATOM     62  C   UNL A   1      37.934  33.053  32.925  1.00  0.00     0.049 A 
ATOM     63  C   UNL A   1      42.235  30.656  35.575  1.00  0.00     0.074 A 
ATOM     64  C   UNL A   1      37.242  34.031  33.619  1.00  0.00     0.029 A 
ATOM     65  N   UNL A   1      38.950  32.617  33.763  1.00  0.00    -0.354 N 
ATOM     66  N   UNL A   1      41.206  31.311  35.093  1.00  0.00    -0.248 NA
ATOM     67  C   UNL A   1      42.656  31.103  36.911  1.00  0.00     0.031 C 
ATOM     68  C   UNL A   1      37.871  34.223  34.854  1.00  0.00     0.029 A 
ATOM     69  C   UNL A   1      38.921  33.323  34.954  1.00  0.00     0.049 A 
ATOM     70  H   UNL A   1      39.598  31.908  33.542  1.00  0.00     0.167 HD
ATOM     71  C   UNL A   1      40.840  32.224  36.074  1.00  0.00     0.074 A 
ATOM     72  C   UNL A   1      41.756  32.039  37.180  1.00  0.00     0.031 C 
ATOM     73  C   UNL A   1      39.831  33.127  36.056  1.00  0.00     0.037 A 
BRANCH  60  74
ATOM     74  C   UNL A   1      36.612  33.201  30.772  1.00  0.00     0.057 A 
ATOM     75  C   UNL A   1      35.255  32.928  30.988  1.00  0.00     0.134 A 
ATOM     76  C   UNL A   1      36.929  34.107  29.750  1.00  0.00     0.134 A 
ATOM     77  F   UNL A   1      34.879  32.071  31.949  1.00  0.00    -0.206 F 
ATOM     78  C   UNL A   1      34.258  33.489  30.187  1.00  0.00     0.040 A 
ATOM     79  C   UNL A   1      35.938  34.698  28.963  1.00  0.00     0.040 A 
ATOM     80  F   UNL A   1      38.206  34.433  29.499  1.00  0.00    -0.206 F 
ATOM     81  C   UNL A   1      34.599  34.378  29.170  1.00  0.00     0.006 A 
ENDBRANCH  60  74
BRANCH  61  82
ATOM     82  C   UNL A   1      44.185  28.934  35.645  1.00  0.00     0.057 A 
ATOM     83  C   UNL A   1      44.042  27.827  36.488  1.00  0.00     0.134 A 
ATOM     84  C   UNL A   1      45.481  29.433  35.453  1.00  0.00     0.134 A 
ATOM     85  F   UNL A   1      42.825  27.316  36.729  1.00  0.00    -0.206 F 
ATOM     86  C   UNL A   1      45.141  27.237  37.115  1.00  0.00     0.040 A 
ATOM     87  C   UNL A   1      46.592  28.838  36.055  1.00  0.00     0.040 A 
ATOM     88  F   UNL A   1      45.688  30.491  34.654  1.00  0.00    -0.206 F 
ATOM     89  C   UNL A   1      46.423  27.737  36.891  1.00  0.00     0.006 A 
ENDBRANCH  61  82
BRANCH  73  90
ATOM     90  C   UNL A   1      39.624  33.971  37.281  1.00  0.00     0.057 A 
ATOM     91  C   UNL A   1      40.114  35.279  37.372  1.00  0.00     0.134 A 
ATOM     92  C   UNL A   1      38.847  33.496  38.346  1.00  0.00     0.134 A 
ATOM     93  F   UNL A   1      40.875  35.790  36.393  1.00  0.00    -0.206 F 
ATOM     94  C   UNL A   1      39.839  36.085  38.479  1.00  0.00     0.040 A 
ATOM     95  C   UNL A   1      38.546  34.298  39.447  1.00  0.00     0.040 A 
ATOM     96  F   UNL A   1      38.342  32.253  38.319  1.00  0.00    -0.206 F 
ATOM     97  C   UNL A   1      39.043  35.598  39.516  1.00  0.00     0.006 A 
ENDBRANCH  73  90
ENDBRANCH  47  48
ENDBRANCH  39  42
ENDBRANCH  37  38
ENDBRANCH  36  37
ENDBRANCH  35  36
ENDBRANCH   1  35
TORSDOF 16
ENDMDL
