MODEL 1
REMARK VINA RESULT:     -11.1      0.000      0.000
REMARK SMILES CCC[C@@](C)(NC(=O)N1CCN(C)C(=O)C1(C)C)C(=O)NCCCCCCNC(=O)c1ccc(-c2c3nc(c(-c4c(F)cccc4F)c4ccc([nH]4)c(-c4c(F)cccc4F)c4nc(c(-c5c(F)cccc5F)c5ccc2[nH]5)C=C4)C=C3)cc1
REMARK SMILES IDX 24 1 23 2 22 3 21 4 19 5 20 6 4 8 5 9 3 10 2 11 1 12 6 13
REMARK SMILES IDX 7 14 8 16 9 17 10 18 16 19 11 20 14 21 17 22 18 23 12 24
REMARK SMILES IDX 15 25 13 26 25 27 26 28 27 29 28 30 29 31 30 33 31 34 32 35
REMARK SMILES IDX 84 36 33 37 83 38 34 39 35 40 36 41 77 42 37 43 82 44 76 45
REMARK SMILES IDX 78 46 38 47 81 48 75 49 74 50 39 52 65 53 48 54 64 55 49 56
REMARK SMILES IDX 52 57 63 58 79 59 50 60 51 61 62 63 80 64 53 65 40 66 41 67
REMARK SMILES IDX 46 68 42 69 43 70 45 71 47 72 44 73 66 74 67 75 72 76 68 77
REMARK SMILES IDX 69 78 71 79 73 80 70 81 54 82 55 83 60 84 56 85 57 86 59 87
REMARK SMILES IDX 61 88 58 89
REMARK H PARENT 21 7 6 15 28 32 78 51 52 62
REMARK Flexibility Score: inf
ROOT
ATOM      1  C   UNL A   1      30.618  30.258  24.574  1.00  0.00     0.002 C 
ENDROOT
BRANCH   1   2
ATOM      2  C   UNL A   1      30.913  29.086  23.611  1.00  0.00     0.021 C 
BRANCH   2   3
ATOM      3  C   UNL A   1      29.895  27.970  23.170  1.00  0.00     0.116 C 
BRANCH   3   4
ATOM      4  N   UNL A   1      30.282  26.527  23.052  1.00  0.00    -0.354 N 
ATOM      5  C   UNL A   1      31.277  25.811  23.720  1.00  0.00     0.245 C 
ATOM      6  O   UNL A   1      30.935  25.435  24.853  1.00  0.00    -0.272 OA
ATOM      7  H   UNL A   1      29.753  26.005  22.406  1.00  0.00     0.163 HD
BRANCH   5   8
ATOM      8  C   UNL A   1      32.859  25.559  23.213  1.00  0.00     0.117 C 
ATOM      9  C   UNL A   1      32.795  26.307  21.846  1.00  0.00     0.045 C 
BRANCH   8  10
ATOM     10  C   UNL A   1      33.917  26.293  24.117  1.00  0.00     0.038 C 
BRANCH  10  11
ATOM     11  C   UNL A   1      33.631  27.599  24.860  1.00  0.00    -0.000 C 
ATOM     12  C   UNL A   1      33.556  27.394  26.369  1.00  0.00     0.004 C 
ENDBRANCH  10  11
ENDBRANCH   8  10
BRANCH   8  13
ATOM     13  N   UNL A   1      33.662  24.247  22.879  1.00  0.00    -0.324 N 
ATOM     14  C   UNL A   1      34.327  23.244  23.574  1.00  0.00     0.319 C 
ATOM     15  H   UNL A   1      33.706  24.096  21.908  1.00  0.00     0.166 HD
ATOM     16  O   UNL A   1      35.477  22.961  23.239  1.00  0.00    -0.249 OA
BRANCH  14  17
ATOM     17  N   UNL A   1      33.599  22.432  24.435  1.00  0.00    -0.309 N 
ATOM     18  C   UNL A   1      32.309  21.867  24.155  1.00  0.00     0.144 C 
ATOM     19  C   UNL A   1      34.211  22.004  25.656  1.00  0.00     0.118 C 
ATOM     20  C   UNL A   1      32.519  20.382  23.891  1.00  0.00     0.140 C 
ATOM     21  C   UNL A   1      34.854  20.744  24.898  1.00  0.00     0.247 C 
ATOM     22  C   UNL A   1      34.327  23.416  26.285  1.00  0.00     0.045 C 
ATOM     23  C   UNL A   1      33.660  21.133  26.825  1.00  0.00     0.045 C 
ATOM     24  N   UNL A   1      33.808  19.862  24.402  1.00  0.00    -0.342 N 
ATOM     25  O   UNL A   1      36.004  20.333  25.023  1.00  0.00    -0.272 OA
ATOM     26  C   UNL A   1      33.862  18.450  24.740  1.00  0.00     0.146 C 
ENDBRANCH  14  17
ENDBRANCH   8  13
ENDBRANCH   5   8
ENDBRANCH   3   4
ENDBRANCH   2   3
ENDBRANCH   1   2
BRANCH   1  27
ATOM     27  C   UNL A   1      31.435  30.402  25.849  1.00  0.00     0.002 C 
BRANCH  27  28
ATOM     28  C   UNL A   1      31.218  31.754  26.505  1.00  0.00     0.021 C 
BRANCH  28  29
ATOM     29  C   UNL A   1      32.503  32.542  26.738  1.00  0.00     0.116 C 
BRANCH  29  30
ATOM     30  N   UNL A   1      32.282  33.848  27.342  1.00  0.00    -0.352 N 
ATOM     31  C   UNL A   1      33.057  34.434  28.336  1.00  0.00     0.251 C 
ATOM     32  H   UNL A   1      31.511  34.366  27.015  1.00  0.00     0.163 HD
ATOM     33  O   UNL A   1      32.779  35.461  28.871  1.00  0.00    -0.269 OA
BRANCH  31  34
ATOM     34  C   UNL A   1      34.279  33.673  28.687  1.00  0.00     0.039 A 
ATOM     35  C   UNL A   1      35.516  34.317  28.635  1.00  0.00     0.014 A 
ATOM     36  C   UNL A   1      34.115  32.443  29.329  1.00  0.00     0.014 A 
ATOM     37  C   UNL A   1      36.604  33.733  29.283  1.00  0.00     0.010 A 
ATOM     38  C   UNL A   1      35.179  31.911  30.040  1.00  0.00     0.010 A 
ATOM     39  C   UNL A   1      36.434  32.546  30.016  1.00  0.00    -0.014 A 
BRANCH  39  40
ATOM     40  C   UNL A   1      37.564  31.918  30.738  1.00  0.00     0.031 A 
ATOM     41  C   UNL A   1      38.374  30.863  30.037  1.00  0.00     0.074 A 
ATOM     42  C   UNL A   1      37.815  32.237  32.023  1.00  0.00     0.049 A 
ATOM     43  N   UNL A   1      39.352  30.129  30.496  1.00  0.00    -0.248 NA
ATOM     44  C   UNL A   1      38.005  30.568  28.642  1.00  0.00     0.031 C 
ATOM     45  C   UNL A   1      37.056  33.199  32.825  1.00  0.00     0.029 A 
ATOM     46  N   UNL A   1      38.778  31.776  32.885  1.00  0.00    -0.354 N 
ATOM     47  C   UNL A   1      39.696  29.275  29.457  1.00  0.00     0.074 A 
ATOM     48  C   UNL A   1      38.779  29.531  28.370  1.00  0.00     0.031 C 
ATOM     49  C   UNL A   1      37.599  33.276  34.051  1.00  0.00     0.029 A 
ATOM     50  C   UNL A   1      38.722  32.348  34.133  1.00  0.00     0.049 A 
ATOM     51  H   UNL A   1      39.446  31.098  32.632  1.00  0.00     0.167 HD
ATOM     52  C   UNL A   1      40.711  28.383  29.399  1.00  0.00     0.037 A 
ATOM     53  C   UNL A   1      39.495  32.141  35.218  1.00  0.00     0.037 A 
ATOM     54  C   UNL A   1      41.645  28.168  30.469  1.00  0.00     0.049 A 
ATOM     55  C   UNL A   1      40.624  31.150  35.125  1.00  0.00     0.074 A 
ATOM     56  C   UNL A   1      42.757  27.348  30.490  1.00  0.00     0.029 A 
ATOM     57  N   UNL A   1      41.573  28.784  31.709  1.00  0.00    -0.354 N 
ATOM     58  N   UNL A   1      40.992  30.410  34.107  1.00  0.00    -0.248 NA
ATOM     59  C   UNL A   1      41.448  30.969  36.329  1.00  0.00     0.031 C 
ATOM     60  C   UNL A   1      43.335  27.436  31.760  1.00  0.00     0.029 A 
ATOM     61  C   UNL A   1      42.607  28.344  32.514  1.00  0.00     0.049 A 
ATOM     62  H   UNL A   1      40.886  29.438  31.977  1.00  0.00     0.167 HD
ATOM     63  C   UNL A   1      42.099  29.691  34.539  1.00  0.00     0.074 A 
ATOM     64  C   UNL A   1      42.355  30.101  35.904  1.00  0.00     0.031 C 
ATOM     65  C   UNL A   1      42.838  28.772  33.870  1.00  0.00     0.037 A 
BRANCH  52  66
ATOM     66  C   UNL A   1      40.864  27.593  28.132  1.00  0.00     0.057 A 
ATOM     67  C   UNL A   1      41.626  28.065  27.054  1.00  0.00     0.134 A 
ATOM     68  C   UNL A   1      40.254  26.342  27.992  1.00  0.00     0.134 A 
ATOM     69  F   UNL A   1      42.222  29.266  27.117  1.00  0.00    -0.206 F 
ATOM     70  C   UNL A   1      41.752  27.333  25.873  1.00  0.00     0.040 A 
ATOM     71  C   UNL A   1      40.397  25.587  26.826  1.00  0.00     0.040 A 
ATOM     72  F   UNL A   1      39.510  25.830  28.984  1.00  0.00    -0.206 F 
ATOM     73  C   UNL A   1      41.142  26.086  25.759  1.00  0.00     0.006 A 
ENDBRANCH  52  66
BRANCH  53  74
ATOM     74  C   UNL A   1      39.248  32.899  36.471  1.00  0.00     0.057 A 
ATOM     75  C   UNL A   1      39.881  34.125  36.712  1.00  0.00     0.134 A 
ATOM     76  C   UNL A   1      38.388  32.414  37.466  1.00  0.00     0.134 A 
ATOM     77  F   UNL A   1      40.730  34.633  35.807  1.00  0.00    -0.206 F 
ATOM     78  C   UNL A   1      39.686  34.830  37.901  1.00  0.00     0.040 A 
ATOM     79  C   UNL A   1      38.165  33.121  38.649  1.00  0.00     0.040 A 
ATOM     80  F   UNL A   1      37.745  31.250  37.296  1.00  0.00    -0.206 F 
ATOM     81  C   UNL A   1      38.822  34.330  38.873  1.00  0.00     0.006 A 
ENDBRANCH  53  74
BRANCH  65  82
ATOM     82  C   UNL A   1      43.996  28.162  34.600  1.00  0.00     0.057 A 
ATOM     83  C   UNL A   1      45.259  28.767  34.611  1.00  0.00     0.134 A 
ATOM     84  C   UNL A   1      43.831  26.986  35.345  1.00  0.00     0.134 A 
ATOM     85  F   UNL A   1      45.482  29.887  33.907  1.00  0.00    -0.206 F 
ATOM     86  C   UNL A   1      46.323  28.215  35.323  1.00  0.00     0.040 A 
ATOM     87  C   UNL A   1      44.881  26.440  36.083  1.00  0.00     0.040 A 
ATOM     88  F   UNL A   1      42.643  26.365  35.384  1.00  0.00    -0.206 F 
ATOM     89  C   UNL A   1      46.133  27.052  36.069  1.00  0.00     0.006 A 
ENDBRANCH  65  82
ENDBRANCH  39  40
ENDBRANCH  31  34
ENDBRANCH  29  30
ENDBRANCH  28  29
ENDBRANCH  27  28
ENDBRANCH   1  27
TORSDOF 17
ENDMDL
MODEL 2
REMARK VINA RESULT:     -11.0      0.789      6.053
REMARK SMILES CCC[C@@](C)(NC(=O)N1CCN(C)C(=O)C1(C)C)C(=O)NCCCCCCNC(=O)c1ccc(-c2c3nc(c(-c4c(F)cccc4F)c4ccc([nH]4)c(-c4c(F)cccc4F)c4nc(c(-c5c(F)cccc5F)c5ccc2[nH]5)C=C4)C=C3)cc1
REMARK SMILES IDX 24 1 23 2 22 3 21 4 19 5 20 6 4 8 5 9 3 10 2 11 1 12 6 13
REMARK SMILES IDX 7 14 8 16 9 17 10 18 16 19 11 20 14 21 17 22 18 23 12 24
REMARK SMILES IDX 15 25 13 26 25 27 26 28 27 29 28 30 29 31 30 33 31 34 32 35
REMARK SMILES IDX 84 36 33 37 83 38 34 39 35 40 36 41 77 42 37 43 82 44 76 45
REMARK SMILES IDX 78 46 38 47 81 48 75 49 74 50 39 52 65 53 48 54 64 55 49 56
REMARK SMILES IDX 52 57 63 58 79 59 50 60 51 61 62 63 80 64 53 65 40 66 41 67
REMARK SMILES IDX 46 68 42 69 43 70 45 71 47 72 44 73 66 74 67 75 72 76 68 77
REMARK SMILES IDX 69 78 71 79 73 80 70 81 54 82 55 83 60 84 56 85 57 86 59 87
REMARK SMILES IDX 61 88 58 89
REMARK H PARENT 21 7 6 15 28 32 78 51 52 62
REMARK Flexibility Score: inf
ROOT
ATOM      1  C   UNL A   1      30.312  30.109  24.065  1.00  0.00     0.002 C 
ENDROOT
BRANCH   1   2
ATOM      2  C   UNL A   1      30.273  28.776  23.286  1.00  0.00     0.021 C 
BRANCH   2   3
ATOM      3  C   UNL A   1      29.368  27.532  23.620  1.00  0.00     0.116 C 
BRANCH   3   4
ATOM      4  N   UNL A   1      29.885  26.126  23.580  1.00  0.00    -0.354 N 
ATOM      5  C   UNL A   1      31.094  25.604  24.043  1.00  0.00     0.245 C 
ATOM      6  O   UNL A   1      31.093  25.372  25.263  1.00  0.00    -0.272 OA
ATOM      7  H   UNL A   1      29.279  25.471  23.163  1.00  0.00     0.163 HD
BRANCH   5   8
ATOM      8  C   UNL A   1      32.518  25.416  23.172  1.00  0.00     0.117 C 
ATOM      9  C   UNL A   1      32.030  25.959  21.793  1.00  0.00     0.045 C 
BRANCH   8  10
ATOM     10  C   UNL A   1      33.676  26.353  23.679  1.00  0.00     0.038 C 
BRANCH  10  11
ATOM     11  C   UNL A   1      33.500  27.851  23.931  1.00  0.00    -0.000 C 
ATOM     12  C   UNL A   1      34.097  28.694  22.809  1.00  0.00     0.004 C 
ENDBRANCH  10  11
ENDBRANCH   8  10
BRANCH   8  13
ATOM     13  N   UNL A   1      33.359  24.142  22.789  1.00  0.00    -0.324 N 
ATOM     14  C   UNL A   1      34.124  23.181  23.440  1.00  0.00     0.319 C 
ATOM     15  H   UNL A   1      33.338  23.981  21.819  1.00  0.00     0.166 HD
ATOM     16  O   UNL A   1      35.258  22.952  23.022  1.00  0.00    -0.249 OA
BRANCH  14  17
ATOM     17  N   UNL A   1      33.504  22.345  24.361  1.00  0.00    -0.309 N 
ATOM     18  C   UNL A   1      32.266  21.649  24.151  1.00  0.00     0.144 C 
ATOM     19  C   UNL A   1      34.192  22.033  25.576  1.00  0.00     0.118 C 
ATOM     20  C   UNL A   1      32.609  20.180  23.943  1.00  0.00     0.140 C 
ATOM     21  C   UNL A   1      34.929  20.805  24.850  1.00  0.00     0.247 C 
ATOM     22  C   UNL A   1      34.193  23.477  26.139  1.00  0.00     0.045 C 
ATOM     23  C   UNL A   1      33.764  21.168  26.800  1.00  0.00     0.045 C 
ATOM     24  N   UNL A   1      33.957  19.807  24.429  1.00  0.00    -0.342 N 
ATOM     25  O   UNL A   1      36.116  20.511  24.951  1.00  0.00    -0.272 OA
ATOM     26  C   UNL A   1      34.156  18.424  24.825  1.00  0.00     0.146 C 
ENDBRANCH  14  17
ENDBRANCH   8  13
ENDBRANCH   5   8
ENDBRANCH   3   4
ENDBRANCH   2   3
ENDBRANCH   1   2
BRANCH   1  27
ATOM     27  C   UNL A   1      31.215  30.237  25.283  1.00  0.00     0.002 C 
BRANCH  27  28
ATOM     28  C   UNL A   1      31.075  31.597  25.944  1.00  0.00     0.021 C 
BRANCH  28  29
ATOM     29  C   UNL A   1      32.296  32.018  26.756  1.00  0.00     0.116 C 
BRANCH  29  30
ATOM     30  N   UNL A   1      32.218  33.383  27.257  1.00  0.00    -0.352 N 
ATOM     31  C   UNL A   1      33.147  34.010  28.079  1.00  0.00     0.251 C 
ATOM     32  H   UNL A   1      31.433  33.912  26.987  1.00  0.00     0.163 HD
ATOM     33  O   UNL A   1      32.990  35.094  28.546  1.00  0.00    -0.269 OA
BRANCH  31  34
ATOM     34  C   UNL A   1      34.371  33.215  28.336  1.00  0.00     0.039 A 
ATOM     35  C   UNL A   1      35.607  33.863  28.353  1.00  0.00     0.014 A 
ATOM     36  C   UNL A   1      34.210  31.920  28.835  1.00  0.00     0.014 A 
ATOM     37  C   UNL A   1      36.698  33.210  28.926  1.00  0.00     0.010 A 
ATOM     38  C   UNL A   1      35.278  31.312  29.476  1.00  0.00     0.010 A 
ATOM     39  C   UNL A   1      36.532  31.947  29.520  1.00  0.00    -0.014 A 
BRANCH  39  40
ATOM     40  C   UNL A   1      37.666  31.242  30.161  1.00  0.00     0.031 A 
ATOM     41  C   UNL A   1      37.976  31.533  31.602  1.00  0.00     0.074 A 
ATOM     42  C   UNL A   1      38.444  30.409  29.444  1.00  0.00     0.049 A 
ATOM     43  N   UNL A   1      38.960  31.096  32.342  1.00  0.00    -0.248 NA
ATOM     44  C   UNL A   1      37.081  32.478  32.292  1.00  0.00     0.031 C 
ATOM     45  C   UNL A   1      38.276  30.099  28.022  1.00  0.00     0.029 A 
ATOM     46  N   UNL A   1      39.543  29.675  29.814  1.00  0.00    -0.354 N 
ATOM     47  C   UNL A   1      38.812  31.727  33.570  1.00  0.00     0.074 A 
ATOM     48  C   UNL A   1      37.691  32.630  33.456  1.00  0.00     0.031 C 
ATOM     49  C   UNL A   1      39.220  29.219  27.649  1.00  0.00     0.029 A 
ATOM     50  C   UNL A   1      40.078  28.927  28.793  1.00  0.00     0.049 A 
ATOM     51  H   UNL A   1      39.914  29.684  30.726  1.00  0.00     0.167 HD
ATOM     52  C   UNL A   1      39.525  31.542  34.704  1.00  0.00     0.037 A 
ATOM     53  C   UNL A   1      41.142  28.100  28.788  1.00  0.00     0.037 A 
ATOM     54  C   UNL A   1      40.611  30.609  34.820  1.00  0.00     0.049 A 
ATOM     55  C   UNL A   1      41.913  27.903  30.066  1.00  0.00     0.074 A 
ATOM     56  C   UNL A   1      41.351  30.283  35.941  1.00  0.00     0.029 A 
ATOM     57  N   UNL A   1      41.107  29.850  33.772  1.00  0.00    -0.354 N 
ATOM     58  N   UNL A   1      41.710  28.443  31.244  1.00  0.00    -0.248 NA
ATOM     59  C   UNL A   1      43.056  26.982  30.016  1.00  0.00     0.031 C 
ATOM     60  C   UNL A   1      42.326  29.355  35.561  1.00  0.00     0.029 A 
ATOM     61  C   UNL A   1      42.164  29.072  34.213  1.00  0.00     0.049 A 
ATOM     62  H   UNL A   1      40.761  29.863  32.850  1.00  0.00     0.167 HD
ATOM     63  C   UNL A   1      42.686  27.912  32.079  1.00  0.00     0.074 A 
ATOM     64  C   UNL A   1      43.465  26.992  31.276  1.00  0.00     0.031 C 
ATOM     65  C   UNL A   1      42.920  28.164  33.390  1.00  0.00     0.037 A 
BRANCH  52  66
ATOM     66  C   UNL A   1      39.136  32.356  35.904  1.00  0.00     0.057 A 
ATOM     67  C   UNL A   1      39.632  33.651  36.109  1.00  0.00     0.134 A 
ATOM     68  C   UNL A   1      38.248  31.847  36.856  1.00  0.00     0.134 A 
ATOM     69  F   UNL A   1      40.502  34.192  35.242  1.00  0.00    -0.206 F 
ATOM     70  C   UNL A   1      39.279  34.398  37.234  1.00  0.00     0.040 A 
ATOM     71  C   UNL A   1      37.866  32.595  37.971  1.00  0.00     0.040 A 
ATOM     72  F   UNL A   1      37.736  30.613  36.722  1.00  0.00    -0.206 F 
ATOM     73  C   UNL A   1      38.387  33.872  38.166  1.00  0.00     0.006 A 
ENDBRANCH  52  66
BRANCH  53  74
ATOM     74  C   UNL A   1      41.526  27.378  27.548  1.00  0.00     0.057 A 
ATOM     75  C   UNL A   1      42.349  27.979  26.587  1.00  0.00     0.134 A 
ATOM     76  C   UNL A   1      41.073  26.079  27.283  1.00  0.00     0.134 A 
ATOM     77  F   UNL A   1      42.801  29.228  26.774  1.00  0.00    -0.206 F 
ATOM     78  C   UNL A   1      42.690  27.326  25.401  1.00  0.00     0.040 A 
ATOM     79  C   UNL A   1      41.425  25.405  26.112  1.00  0.00     0.040 A 
ATOM     80  F   UNL A   1      40.287  25.443  28.164  1.00  0.00    -0.206 F 
ATOM     81  C   UNL A   1      42.230  26.033  25.163  1.00  0.00     0.006 A 
ENDBRANCH  53  74
BRANCH  65  82
ATOM     82  C   UNL A   1      44.052  27.425  34.037  1.00  0.00     0.057 A 
ATOM     83  C   UNL A   1      45.342  27.965  34.100  1.00  0.00     0.134 A 
ATOM     84  C   UNL A   1      43.836  26.185  34.654  1.00  0.00     0.134 A 
ATOM     85  F   UNL A   1      45.615  29.143  33.518  1.00  0.00    -0.206 F 
ATOM     86  C   UNL A   1      46.383  27.290  34.737  1.00  0.00     0.040 A 
ATOM     87  C   UNL A   1      44.862  25.513  35.318  1.00  0.00     0.040 A 
ATOM     88  F   UNL A   1      42.619  25.620  34.639  1.00  0.00    -0.206 F 
ATOM     89  C   UNL A   1      46.142  26.064  35.356  1.00  0.00     0.006 A 
ENDBRANCH  65  82
ENDBRANCH  39  40
ENDBRANCH  31  34
ENDBRANCH  29  30
ENDBRANCH  28  29
ENDBRANCH  27  28
ENDBRANCH   1  27
TORSDOF 17
ENDMDL
MODEL 3
REMARK VINA RESULT:     -11.0      3.976      9.215
REMARK SMILES CCC[C@@](C)(NC(=O)N1CCN(C)C(=O)C1(C)C)C(=O)NCCCCCCNC(=O)c1ccc(-c2c3nc(c(-c4c(F)cccc4F)c4ccc([nH]4)c(-c4c(F)cccc4F)c4nc(c(-c5c(F)cccc5F)c5ccc2[nH]5)C=C4)C=C3)cc1
REMARK SMILES IDX 24 1 23 2 22 3 21 4 19 5 20 6 4 8 5 9 3 10 2 11 1 12 6 13
REMARK SMILES IDX 7 14 8 16 9 17 10 18 16 19 11 20 14 21 17 22 18 23 12 24
REMARK SMILES IDX 15 25 13 26 25 27 26 28 27 29 28 30 29 31 30 33 31 34 32 35
REMARK SMILES IDX 84 36 33 37 83 38 34 39 35 40 36 41 77 42 37 43 82 44 76 45
REMARK SMILES IDX 78 46 38 47 81 48 75 49 74 50 39 52 65 53 48 54 64 55 49 56
REMARK SMILES IDX 52 57 63 58 79 59 50 60 51 61 62 63 80 64 53 65 40 66 41 67
REMARK SMILES IDX 46 68 42 69 43 70 45 71 47 72 44 73 66 74 67 75 72 76 68 77
REMARK SMILES IDX 69 78 71 79 73 80 70 81 54 82 55 83 60 84 56 85 57 86 59 87
REMARK SMILES IDX 61 88 58 89
REMARK H PARENT 21 7 6 15 28 32 78 51 52 62
REMARK Flexibility Score: inf
ROOT
ATOM      1  C   UNL A   1      35.282  22.020  24.251  1.00  0.00     0.002 C 
ENDROOT
BRANCH   1   2
ATOM      2  C   UNL A   1      34.318  20.880  24.647  1.00  0.00     0.021 C 
BRANCH   2   3
ATOM      3  C   UNL A   1      32.947  20.541  23.951  1.00  0.00     0.116 C 
BRANCH   3   4
ATOM      4  N   UNL A   1      31.811  21.516  23.891  1.00  0.00    -0.354 N 
ATOM      5  C   UNL A   1      31.795  22.887  24.157  1.00  0.00     0.245 C 
ATOM      6  O   UNL A   1      32.194  23.576  23.204  1.00  0.00    -0.272 OA
ATOM      7  H   UNL A   1      30.945  21.132  23.622  1.00  0.00     0.163 HD
BRANCH   5   8
ATOM      8  C   UNL A   1      31.446  23.632  25.621  1.00  0.00     0.117 C 
ATOM      9  C   UNL A   1      30.418  22.598  26.177  1.00  0.00     0.045 C 
BRANCH   8  10
ATOM     10  C   UNL A   1      32.676  23.666  26.602  1.00  0.00     0.038 C 
BRANCH  10  11
ATOM     11  C   UNL A   1      32.950  22.585  27.649  1.00  0.00    -0.000 C 
ATOM     12  C   UNL A   1      34.442  22.393  27.895  1.00  0.00     0.004 C 
ENDBRANCH  10  11
ENDBRANCH   8  10
BRANCH   8  13
ATOM     13  N   UNL A   1      30.795  25.022  25.968  1.00  0.00    -0.324 N 
ATOM     14  C   UNL A   1      31.088  26.369  25.786  1.00  0.00     0.319 C 
ATOM     15  H   UNL A   1      29.943  24.906  26.447  1.00  0.00     0.166 HD
ATOM     16  O   UNL A   1      31.044  27.116  26.762  1.00  0.00    -0.249 OA
BRANCH  14  17
ATOM     17  N   UNL A   1      31.166  26.866  24.491  1.00  0.00    -0.309 N 
ATOM     18  C   UNL A   1      30.248  26.568  23.428  1.00  0.00     0.144 C 
ATOM     19  C   UNL A   1      32.158  27.855  24.195  1.00  0.00     0.118 C 
ATOM     20  C   UNL A   1      29.392  27.810  23.216  1.00  0.00     0.140 C 
ATOM     21  C   UNL A   1      31.146  29.014  24.655  1.00  0.00     0.247 C 
ATOM     22  C   UNL A   1      33.382  26.941  24.450  1.00  0.00     0.045 C 
ATOM     23  C   UNL A   1      32.516  28.575  22.860  1.00  0.00     0.045 C 
ATOM     24  N   UNL A   1      29.980  29.044  23.785  1.00  0.00    -0.342 N 
ATOM     25  O   UNL A   1      31.426  29.985  25.351  1.00  0.00    -0.272 OA
ATOM     26  C   UNL A   1      29.599  30.302  23.166  1.00  0.00     0.146 C 
ENDBRANCH  14  17
ENDBRANCH   8  13
ENDBRANCH   5   8
ENDBRANCH   3   4
ENDBRANCH   2   3
ENDBRANCH   1   2
BRANCH   1  27
ATOM     27  C   UNL A   1      36.783  21.767  24.260  1.00  0.00     0.002 C 
BRANCH  27  28
ATOM     28  C   UNL A   1      37.301  21.524  25.667  1.00  0.00     0.021 C 
BRANCH  28  29
ATOM     29  C   UNL A   1      38.823  21.554  25.778  1.00  0.00     0.116 C 
BRANCH  29  30
ATOM     30  N   UNL A   1      39.437  20.236  25.690  1.00  0.00    -0.352 N 
ATOM     31  C   UNL A   1      40.755  19.923  25.999  1.00  0.00     0.251 C 
ATOM     32  H   UNL A   1      38.863  19.497  25.384  1.00  0.00     0.163 HD
ATOM     33  O   UNL A   1      41.239  18.851  25.816  1.00  0.00    -0.269 OA
BRANCH  31  34
ATOM     34  C   UNL A   1      41.528  21.043  26.586  1.00  0.00     0.039 A 
ATOM     35  C   UNL A   1      42.133  21.967  25.733  1.00  0.00     0.014 A 
ATOM     36  C   UNL A   1      41.374  21.292  27.952  1.00  0.00     0.014 A 
ATOM     37  C   UNL A   1      42.554  23.189  26.258  1.00  0.00     0.010 A 
ATOM     38  C   UNL A   1      41.718  22.539  28.449  1.00  0.00     0.010 A 
ATOM     39  C   UNL A   1      42.318  23.494  27.610  1.00  0.00    -0.014 A 
BRANCH  39  40
ATOM     40  C   UNL A   1      42.727  24.795  28.189  1.00  0.00     0.031 A 
ATOM     41  C   UNL A   1      41.681  25.851  28.407  1.00  0.00     0.074 A 
ATOM     42  C   UNL A   1      44.025  25.048  28.448  1.00  0.00     0.049 A 
ATOM     43  N   UNL A   1      41.820  27.080  28.825  1.00  0.00    -0.248 NA
ATOM     44  C   UNL A   1      40.294  25.485  28.069  1.00  0.00     0.031 C 
ATOM     45  C   UNL A   1      45.136  24.122  28.216  1.00  0.00     0.029 A 
ATOM     46  N   UNL A   1      44.630  26.169  28.956  1.00  0.00    -0.354 N 
ATOM     47  C   UNL A   1      40.548  27.635  28.779  1.00  0.00     0.074 A 
ATOM     48  C   UNL A   1      39.663  26.636  28.226  1.00  0.00     0.031 C 
ATOM     49  C   UNL A   1      46.282  24.703  28.606  1.00  0.00     0.029 A 
ATOM     50  C   UNL A   1      45.993  26.051  29.085  1.00  0.00     0.049 A 
ATOM     51  H   UNL A   1      44.134  26.983  29.204  1.00  0.00     0.167 HD
ATOM     52  C   UNL A   1      40.145  28.857  29.197  1.00  0.00     0.037 A 
ATOM     53  C   UNL A   1      46.902  26.936  29.540  1.00  0.00     0.037 A 
ATOM     54  C   UNL A   1      41.024  29.827  29.787  1.00  0.00     0.049 A 
ATOM     55  C   UNL A   1      46.428  28.286  30.008  1.00  0.00     0.074 A 
ATOM     56  C   UNL A   1      40.711  31.065  30.317  1.00  0.00     0.029 A 
ATOM     57  N   UNL A   1      42.394  29.662  29.926  1.00  0.00    -0.354 N 
ATOM     58  N   UNL A   1      45.208  28.768  30.038  1.00  0.00    -0.248 NA
ATOM     59  C   UNL A   1      47.453  29.212  30.509  1.00  0.00     0.031 C 
ATOM     60  C   UNL A   1      41.900  31.668  30.739  1.00  0.00     0.029 A 
ATOM     61  C   UNL A   1      42.946  30.788  30.511  1.00  0.00     0.049 A 
ATOM     62  H   UNL A   1      42.899  28.864  29.648  1.00  0.00     0.167 HD
ATOM     63  C   UNL A   1      45.316  30.044  30.579  1.00  0.00     0.074 A 
ATOM     64  C   UNL A   1      46.718  30.251  30.881  1.00  0.00     0.031 C 
ATOM     65  C   UNL A   1      44.346  30.964  30.802  1.00  0.00     0.037 A 
BRANCH  52  66
ATOM     66  C   UNL A   1      38.691  29.195  29.041  1.00  0.00     0.057 A 
ATOM     67  C   UNL A   1      37.791  29.099  30.111  1.00  0.00     0.134 A 
ATOM     68  C   UNL A   1      38.187  29.635  27.812  1.00  0.00     0.134 A 
ATOM     69  F   UNL A   1      38.207  28.666  31.312  1.00  0.00    -0.206 F 
ATOM     70  C   UNL A   1      36.438  29.400  29.957  1.00  0.00     0.040 A 
ATOM     71  C   UNL A   1      36.840  29.966  27.652  1.00  0.00     0.040 A 
ATOM     72  F   UNL A   1      38.993  29.749  26.745  1.00  0.00    -0.206 F 
ATOM     73  C   UNL A   1      35.960  29.842  28.725  1.00  0.00     0.006 A 
ENDBRANCH  52  66
BRANCH  53  74
ATOM     74  C   UNL A   1      48.341  26.572  29.601  1.00  0.00     0.057 A 
ATOM     75  C   UNL A   1      49.213  26.894  28.553  1.00  0.00     0.134 A 
ATOM     76  C   UNL A   1      48.879  25.881  30.694  1.00  0.00     0.134 A 
ATOM     77  F   UNL A   1      48.754  27.539  27.470  1.00  0.00    -0.206 F 
ATOM     78  C   UNL A   1      50.559  26.527  28.580  1.00  0.00     0.040 A 
ATOM     79  C   UNL A   1      50.229  25.529  30.746  1.00  0.00     0.040 A 
ATOM     80  F   UNL A   1      48.100  25.548  31.734  1.00  0.00    -0.206 F 
ATOM     81  C   UNL A   1      51.072  25.845  29.682  1.00  0.00     0.006 A 
ENDBRANCH  53  74
BRANCH  65  82
ATOM     82  C   UNL A   1      44.766  32.266  31.413  1.00  0.00     0.057 A 
ATOM     83  C   UNL A   1      45.089  33.378  30.626  1.00  0.00     0.134 A 
ATOM     84  C   UNL A   1      44.793  32.426  32.806  1.00  0.00     0.134 A 
ATOM     85  F   UNL A   1      45.092  33.285  29.288  1.00  0.00    -0.206 F 
ATOM     86  C   UNL A   1      45.441  34.599  31.201  1.00  0.00     0.040 A 
ATOM     87  C   UNL A   1      45.118  33.649  33.392  1.00  0.00     0.040 A 
ATOM     88  F   UNL A   1      44.483  31.402  33.615  1.00  0.00    -0.206 F 
ATOM     89  C   UNL A   1      45.449  34.738  32.588  1.00  0.00     0.006 A 
ENDBRANCH  65  82
ENDBRANCH  39  40
ENDBRANCH  31  34
ENDBRANCH  29  30
ENDBRANCH  28  29
ENDBRANCH  27  28
ENDBRANCH   1  27
TORSDOF 17
ENDMDL
