MODEL 1
REMARK VINA RESULT:     -12.8      0.000      0.000
REMARK SMILES O=C(NCCCCCCNC(=O)c1ccc(N2C(=O)[C@@H]3N=NC(c4ccccc4)=C3[C@H]2c2cccc(Br)c2)cc1)c1ccc(-c2c3nc(c(-c4c(F)cccc4F)c4ccc([nH]4)c(-c4c(F)cccc4F)c4nc(c(-c5c(F)cccc5F)c5ccc2[nH]5)C=C4)C=C3)cc1
REMARK SMILES IDX 6 1 5 2 4 3 3 4 1 5 2 6 41 8 42 9 94 10 43 11 93 12 44 13
REMARK SMILES IDX 45 14 46 15 87 16 47 17 92 18 86 19 88 20 48 21 91 22 85 23
REMARK SMILES IDX 84 24 49 26 75 27 58 28 74 29 59 30 62 31 73 32 89 33 60 34
REMARK SMILES IDX 61 35 72 37 90 38 63 39 50 40 51 41 56 42 52 43 53 44 55 45
REMARK SMILES IDX 57 46 54 47 76 48 77 49 82 50 78 51 79 52 81 53 83 54 80 55
REMARK SMILES IDX 64 56 65 57 70 58 66 59 67 60 69 61 71 62 68 63 7 64 8 65
REMARK SMILES IDX 9 66 10 67 11 68 12 70 13 71 14 72 40 73 15 74 39 75 16 76
REMARK SMILES IDX 17 77 18 78 31 79 20 80 19 81 30 82 21 83 23 84 22 85 32 86
REMARK SMILES IDX 33 87 38 88 34 89 36 90 35 91 37 92 24 93 25 94 29 95 26 96
REMARK SMILES IDX 28 97 27 98
REMARK H PARENT 3 7 88 25 62 36 10 69
REMARK Flexibility Score: inf
ROOT
ATOM      1  C   UNL A   1      33.564  31.094  27.553  1.00  0.00     0.002 C 
ENDROOT
BRANCH   1   2
ATOM      2  C   UNL A   1      34.957  31.681  27.816  1.00  0.00     0.021 C 
BRANCH   2   3
ATOM      3  C   UNL A   1      34.988  32.952  28.666  1.00  0.00     0.116 C 
BRANCH   3   4
ATOM      4  N   UNL A   1      34.783  32.728  30.082  1.00  0.00    -0.352 N 
ATOM      5  O   UNL A   1      35.031  32.291  32.228  1.00  0.00    -0.269 OA
ATOM      6  C   UNL A   1      35.500  32.152  31.094  1.00  0.00     0.251 C 
ATOM      7  H   UNL A   1      33.915  33.076  30.392  1.00  0.00     0.163 HD
BRANCH   6   8
ATOM      8  C   UNL A   1      36.748  31.349  30.940  1.00  0.00     0.039 A 
ATOM      9  C   UNL A   1      38.047  31.851  30.891  1.00  0.00     0.014 A 
ATOM     10  C   UNL A   1      36.572  29.953  30.824  1.00  0.00     0.014 A 
ATOM     11  C   UNL A   1      39.130  30.989  30.686  1.00  0.00     0.010 A 
ATOM     12  C   UNL A   1      37.647  29.089  30.623  1.00  0.00     0.010 A 
ATOM     13  C   UNL A   1      38.932  29.610  30.535  1.00  0.00    -0.014 A 
BRANCH  13  14
ATOM     14  C   UNL A   1      40.114  28.751  30.450  1.00  0.00     0.031 A 
ATOM     15  C   UNL A   1      40.826  28.530  31.742  1.00  0.00     0.074 A 
ATOM     16  C   UNL A   1      40.522  28.068  29.361  1.00  0.00     0.049 A 
ATOM     17  N   UNL A   1      42.021  28.904  32.066  1.00  0.00    -0.248 NA
ATOM     18  C   UNL A   1      40.089  27.872  32.830  1.00  0.00     0.031 C 
ATOM     19  C   UNL A   1      39.816  27.867  28.096  1.00  0.00     0.029 A 
ATOM     20  N   UNL A   1      41.660  27.327  29.203  1.00  0.00    -0.354 N 
ATOM     21  C   UNL A   1      42.258  28.389  33.339  1.00  0.00     0.074 A 
ATOM     22  C   UNL A   1      41.000  27.865  33.804  1.00  0.00     0.031 C 
ATOM     23  C   UNL A   1      40.450  26.906  27.381  1.00  0.00     0.029 A 
ATOM     24  C   UNL A   1      41.672  26.523  28.071  1.00  0.00     0.049 A 
ATOM     25  H   UNL A   1      42.411  27.361  29.838  1.00  0.00     0.167 HD
ATOM     26  C   UNL A   1      43.518  28.268  33.841  1.00  0.00     0.037 A 
ATOM     27  C   UNL A   1      42.597  25.584  27.746  1.00  0.00     0.037 A 
ATOM     28  C   UNL A   1      44.461  29.076  33.113  1.00  0.00     0.049 A 
ATOM     29  C   UNL A   1      43.830  25.861  28.518  1.00  0.00     0.074 A 
ATOM     30  C   UNL A   1      44.581  30.423  32.827  1.00  0.00     0.029 A 
ATOM     31  N   UNL A   1      45.335  28.446  32.263  1.00  0.00    -0.354 N 
ATOM     32  N   UNL A   1      44.639  26.854  28.286  1.00  0.00    -0.248 NA
ATOM     33  C   UNL A   1      43.980  25.225  29.818  1.00  0.00     0.031 C 
ATOM     34  C   UNL A   1      45.115  30.474  31.506  1.00  0.00     0.029 A 
ATOM     35  C   UNL A   1      45.328  29.159  31.094  1.00  0.00     0.049 A 
ATOM     36  H   UNL A   1      45.862  27.637  32.455  1.00  0.00     0.167 HD
ATOM     37  C   UNL A   1      45.070  27.251  29.539  1.00  0.00     0.074 A 
ATOM     38  C   UNL A   1      44.731  26.144  30.428  1.00  0.00     0.031 C 
ATOM     39  C   UNL A   1      45.406  28.551  29.789  1.00  0.00     0.037 A 
BRANCH  26  40
ATOM     40  C   UNL A   1      43.971  27.166  34.769  1.00  0.00     0.057 A 
ATOM     41  C   UNL A   1      43.873  25.825  34.349  1.00  0.00     0.134 A 
ATOM     42  C   UNL A   1      44.203  27.345  36.147  1.00  0.00     0.134 A 
ATOM     43  F   UNL A   1      43.642  25.521  33.063  1.00  0.00    -0.206 F 
ATOM     44  C   UNL A   1      43.914  24.751  35.246  1.00  0.00     0.040 A 
ATOM     45  C   UNL A   1      44.300  26.276  37.043  1.00  0.00     0.040 A 
ATOM     46  F   UNL A   1      44.245  28.557  36.713  1.00  0.00    -0.206 F 
ATOM     47  C   UNL A   1      44.119  24.976  36.601  1.00  0.00     0.006 A 
ENDBRANCH  26  40
BRANCH  27  48
ATOM     48  C   UNL A   1      42.443  24.325  26.983  1.00  0.00     0.057 A 
ATOM     49  C   UNL A   1      42.955  24.194  25.683  1.00  0.00     0.134 A 
ATOM     50  C   UNL A   1      42.056  23.133  27.616  1.00  0.00     0.134 A 
ATOM     51  F   UNL A   1      43.386  25.269  25.006  1.00  0.00    -0.206 F 
ATOM     52  C   UNL A   1      43.107  22.947  25.062  1.00  0.00     0.040 A 
ATOM     53  C   UNL A   1      42.193  21.882  27.005  1.00  0.00     0.040 A 
ATOM     54  F   UNL A   1      41.618  23.135  28.884  1.00  0.00    -0.206 F 
ATOM     55  C   UNL A   1      42.737  21.785  25.730  1.00  0.00     0.006 A 
ENDBRANCH  27  48
BRANCH  39  56
ATOM     56  C   UNL A   1      45.608  29.467  28.616  1.00  0.00     0.057 A 
ATOM     57  C   UNL A   1      46.829  29.641  27.945  1.00  0.00     0.134 A 
ATOM     58  C   UNL A   1      44.490  30.110  28.070  1.00  0.00     0.134 A 
ATOM     59  F   UNL A   1      47.933  28.981  28.323  1.00  0.00    -0.206 F 
ATOM     60  C   UNL A   1      46.939  30.465  26.820  1.00  0.00     0.040 A 
ATOM     61  C   UNL A   1      44.580  30.902  26.924  1.00  0.00     0.040 A 
ATOM     62  F   UNL A   1      43.278  29.946  28.623  1.00  0.00    -0.206 F 
ATOM     63  C   UNL A   1      45.810  31.095  26.304  1.00  0.00     0.006 A 
ENDBRANCH  39  56
ENDBRANCH  13  14
ENDBRANCH   6   8
ENDBRANCH   3   4
ENDBRANCH   2   3
ENDBRANCH   1   2
BRANCH   1  64
ATOM     64  C   UNL A   1      33.513  29.743  26.833  1.00  0.00     0.002 C 
BRANCH  64  65
ATOM     65  C   UNL A   1      32.639  29.672  25.574  1.00  0.00     0.021 C 
BRANCH  65  66
ATOM     66  C   UNL A   1      32.758  28.394  24.739  1.00  0.00     0.116 C 
BRANCH  66  67
ATOM     67  N   UNL A   1      32.043  28.478  23.478  1.00  0.00    -0.352 N 
ATOM     68  C   UNL A   1      31.576  27.472  22.670  1.00  0.00     0.251 C 
ATOM     69  H   UNL A   1      31.868  29.392  23.156  1.00  0.00     0.163 HD
ATOM     70  O   UNL A   1      31.107  27.741  21.567  1.00  0.00    -0.269 OA
BRANCH  68  71
ATOM     71  C   UNL A   1      31.671  26.052  23.085  1.00  0.00     0.039 A 
ATOM     72  C   UNL A   1      32.944  25.493  23.179  1.00  0.00     0.016 A 
ATOM     73  C   UNL A   1      30.543  25.257  23.337  1.00  0.00     0.016 A 
ATOM     74  C   UNL A   1      33.088  24.170  23.602  1.00  0.00     0.027 A 
ATOM     75  C   UNL A   1      30.692  23.915  23.748  1.00  0.00     0.027 A 
ATOM     76  C   UNL A   1      31.968  23.373  23.913  1.00  0.00     0.045 A 
BRANCH  76  77
ATOM     77  N   UNL A   1      32.166  22.077  24.489  1.00  0.00    -0.299 N 
ATOM     78  C   UNL A   1      31.706  21.937  25.843  1.00  0.00     0.259 C 
ATOM     79  C   UNL A   1      33.457  21.367  24.307  1.00  0.00     0.152 C 
ATOM     80  C   UNL A   1      32.759  21.207  26.622  1.00  0.00     0.248 C 
ATOM     81  O   UNL A   1      30.666  22.392  26.305  1.00  0.00    -0.271 OA
ATOM     82  C   UNL A   1      33.900  21.457  25.714  1.00  0.00     0.021 C 
ATOM     83  N   UNL A   1      33.215  21.851  27.862  1.00  0.00    -0.170 NA
ATOM     84  C   UNL A   1      34.891  21.924  26.465  1.00  0.00     0.097 C 
ATOM     85  N   UNL A   1      34.455  22.109  27.764  1.00  0.00    -0.154 NA
BRANCH  79  86
ATOM     86  C   UNL A   1      33.329  19.886  23.883  1.00  0.00    -0.020 A 
ATOM     87  C   UNL A   1      32.407  19.485  22.881  1.00  0.00     0.006 A 
ATOM     88  C   UNL A   1      34.073  18.869  24.503  1.00  0.00     0.022 A 
ATOM     89  C   UNL A   1      32.270  18.157  22.476  1.00  0.00     0.002 A 
ATOM     90  C   UNL A   1      33.906  17.528  24.113  1.00  0.00     0.018 A 
ATOM     91  C   UNL A   1      33.021  17.171  23.096  1.00  0.00     0.016 A 
ATOM     92  Br  UNL A   1      34.879  16.161  24.987  1.00  0.00    -0.051 Br
ENDBRANCH  79  86
BRANCH  84  93
ATOM     93  C   UNL A   1      36.218  22.398  26.083  1.00  0.00     0.002 A 
ATOM     94  C   UNL A   1      37.222  21.484  25.732  1.00  0.00     0.010 A 
ATOM     95  C   UNL A   1      36.555  23.744  26.271  1.00  0.00     0.010 A 
ATOM     96  C   UNL A   1      38.554  21.900  25.652  1.00  0.00     0.001 A 
ATOM     97  C   UNL A   1      37.886  24.158  26.184  1.00  0.00     0.001 A 
ATOM     98  C   UNL A   1      38.888  23.232  25.899  1.00  0.00     0.000 A 
ENDBRANCH  84  93
ENDBRANCH  76  77
ENDBRANCH  68  71
ENDBRANCH  66  67
ENDBRANCH  65  66
ENDBRANCH  64  65
ENDBRANCH   1  64
TORSDOF 16
ENDMDL
MODEL 2
REMARK VINA RESULT:     -12.1      5.445     12.103
REMARK SMILES O=C(NCCCCCCNC(=O)c1ccc(N2C(=O)[C@@H]3N=NC(c4ccccc4)=C3[C@H]2c2cccc(Br)c2)cc1)c1ccc(-c2c3nc(c(-c4c(F)cccc4F)c4ccc([nH]4)c(-c4c(F)cccc4F)c4nc(c(-c5c(F)cccc5F)c5ccc2[nH]5)C=C4)C=C3)cc1
REMARK SMILES IDX 6 1 5 2 4 3 3 4 1 5 2 6 41 8 42 9 94 10 43 11 93 12 44 13
REMARK SMILES IDX 45 14 46 15 87 16 47 17 92 18 86 19 88 20 48 21 91 22 85 23
REMARK SMILES IDX 84 24 49 26 75 27 58 28 74 29 59 30 62 31 73 32 89 33 60 34
REMARK SMILES IDX 61 35 72 37 90 38 63 39 50 40 51 41 56 42 52 43 53 44 55 45
REMARK SMILES IDX 57 46 54 47 76 48 77 49 82 50 78 51 79 52 81 53 83 54 80 55
REMARK SMILES IDX 64 56 65 57 70 58 66 59 67 60 69 61 71 62 68 63 7 64 8 65
REMARK SMILES IDX 9 66 10 67 11 68 12 70 13 71 14 72 40 73 15 74 39 75 16 76
REMARK SMILES IDX 17 77 18 78 31 79 20 80 19 81 30 82 21 83 23 84 22 85 32 86
REMARK SMILES IDX 33 87 38 88 34 89 36 90 35 91 37 92 24 93 25 94 29 95 26 96
REMARK SMILES IDX 28 97 27 98
REMARK H PARENT 3 7 88 25 62 36 10 69
REMARK Flexibility Score: inf
ROOT
ATOM      1  C   UNL A   1      42.751  18.808  25.843  1.00  0.00     0.002 C 
ENDROOT
BRANCH   1   2
ATOM      2  C   UNL A   1      42.432  19.299  27.261  1.00  0.00     0.021 C 
BRANCH   2   3
ATOM      3  C   UNL A   1      42.017  20.768  27.373  1.00  0.00     0.116 C 
BRANCH   3   4
ATOM      4  N   UNL A   1      40.746  21.078  26.751  1.00  0.00    -0.352 N 
ATOM      5  O   UNL A   1      39.006  22.082  25.844  1.00  0.00    -0.269 OA
ATOM      6  C   UNL A   1      39.993  22.205  26.576  1.00  0.00     0.251 C 
ATOM      7  H   UNL A   1      40.321  20.281  26.358  1.00  0.00     0.163 HD
BRANCH   6   8
ATOM      8  C   UNL A   1      40.233  23.531  27.218  1.00  0.00     0.039 A 
ATOM      9  C   UNL A   1      41.377  23.910  27.918  1.00  0.00     0.014 A 
ATOM     10  C   UNL A   1      39.184  24.469  27.104  1.00  0.00     0.014 A 
ATOM     11  C   UNL A   1      41.451  25.169  28.522  1.00  0.00     0.010 A 
ATOM     12  C   UNL A   1      39.253  25.727  27.702  1.00  0.00     0.010 A 
ATOM     13  C   UNL A   1      40.384  26.073  28.430  1.00  0.00    -0.014 A 
BRANCH  13  14
ATOM     14  C   UNL A   1      40.574  27.418  28.976  1.00  0.00     0.031 A 
ATOM     15  C   UNL A   1      41.695  28.193  28.367  1.00  0.00     0.074 A 
ATOM     16  C   UNL A   1      39.768  28.035  29.864  1.00  0.00     0.049 A 
ATOM     17  N   UNL A   1      42.783  28.599  28.937  1.00  0.00    -0.248 NA
ATOM     18  C   UNL A   1      41.623  28.490  26.929  1.00  0.00     0.031 C 
ATOM     19  C   UNL A   1      38.453  27.614  30.345  1.00  0.00     0.029 A 
ATOM     20  N   UNL A   1      39.947  29.248  30.470  1.00  0.00    -0.354 N 
ATOM     21  C   UNL A   1      43.466  29.347  27.980  1.00  0.00     0.074 A 
ATOM     22  C   UNL A   1      42.766  29.150  26.736  1.00  0.00     0.031 C 
ATOM     23  C   UNL A   1      37.874  28.641  31.012  1.00  0.00     0.029 A 
ATOM     24  C   UNL A   1      38.822  29.738  31.122  1.00  0.00     0.049 A 
ATOM     25  H   UNL A   1      40.803  29.734  30.448  1.00  0.00     0.167 HD
ATOM     26  C   UNL A   1      44.452  30.222  28.323  1.00  0.00     0.037 A 
ATOM     27  C   UNL A   1      38.671  30.969  31.673  1.00  0.00     0.037 A 
ATOM     28  C   UNL A   1      44.947  29.972  29.651  1.00  0.00     0.049 A 
ATOM     29  C   UNL A   1      40.016  31.545  31.901  1.00  0.00     0.074 A 
ATOM     30  C   UNL A   1      45.524  28.892  30.294  1.00  0.00     0.029 A 
ATOM     31  N   UNL A   1      44.588  30.841  30.651  1.00  0.00    -0.354 N 
ATOM     32  N   UNL A   1      40.843  31.145  32.823  1.00  0.00    -0.248 NA
ATOM     33  C   UNL A   1      40.604  32.348  30.841  1.00  0.00     0.031 C 
ATOM     34  C   UNL A   1      45.018  28.943  31.626  1.00  0.00     0.029 A 
ATOM     35  C   UNL A   1      44.206  30.074  31.719  1.00  0.00     0.049 A 
ATOM     36  H   UNL A   1      44.602  31.824  30.609  1.00  0.00     0.167 HD
ATOM     37  C   UNL A   1      42.093  31.252  32.238  1.00  0.00     0.074 A 
ATOM     38  C   UNL A   1      41.896  32.106  31.071  1.00  0.00     0.031 C 
ATOM     39  C   UNL A   1      43.110  30.413  32.593  1.00  0.00     0.037 A 
BRANCH  26  40
ATOM     40  C   UNL A   1      44.740  31.518  27.602  1.00  0.00     0.057 A 
ATOM     41  C   UNL A   1      45.936  31.649  26.869  1.00  0.00     0.134 A 
ATOM     42  C   UNL A   1      44.054  32.723  27.850  1.00  0.00     0.134 A 
ATOM     43  F   UNL A   1      46.688  30.577  26.578  1.00  0.00    -0.206 F 
ATOM     44  C   UNL A   1      46.452  32.894  26.490  1.00  0.00     0.040 A 
ATOM     45  C   UNL A   1      44.535  33.967  27.428  1.00  0.00     0.040 A 
ATOM     46  F   UNL A   1      42.945  32.774  28.596  1.00  0.00    -0.206 F 
ATOM     47  C   UNL A   1      45.754  34.060  26.777  1.00  0.00     0.006 A 
ENDBRANCH  26  40
BRANCH  27  48
ATOM     48  C   UNL A   1      37.453  31.796  31.827  1.00  0.00     0.057 A 
ATOM     49  C   UNL A   1      36.651  32.125  30.723  1.00  0.00     0.134 A 
ATOM     50  C   UNL A   1      36.888  32.031  33.091  1.00  0.00     0.134 A 
ATOM     51  F   UNL A   1      37.085  31.905  29.473  1.00  0.00    -0.206 F 
ATOM     52  C   UNL A   1      35.351  32.625  30.867  1.00  0.00     0.040 A 
ATOM     53  C   UNL A   1      35.594  32.538  33.250  1.00  0.00     0.040 A 
ATOM     54  F   UNL A   1      37.538  31.688  34.213  1.00  0.00    -0.206 F 
ATOM     55  C   UNL A   1      34.814  32.821  32.135  1.00  0.00     0.006 A 
ENDBRANCH  27  48
BRANCH  39  56
ATOM     56  C   UNL A   1      42.950  29.595  33.842  1.00  0.00     0.057 A 
ATOM     57  C   UNL A   1      42.250  28.380  33.911  1.00  0.00     0.134 A 
ATOM     58  C   UNL A   1      43.635  29.997  34.996  1.00  0.00     0.134 A 
ATOM     59  F   UNL A   1      41.655  27.856  32.832  1.00  0.00    -0.206 F 
ATOM     60  C   UNL A   1      42.187  27.635  35.093  1.00  0.00     0.040 A 
ATOM     61  C   UNL A   1      43.613  29.240  36.169  1.00  0.00     0.040 A 
ATOM     62  F   UNL A   1      44.372  31.118  34.989  1.00  0.00    -0.206 F 
ATOM     63  C   UNL A   1      42.874  28.063  36.225  1.00  0.00     0.006 A 
ENDBRANCH  39  56
ENDBRANCH  13  14
ENDBRANCH   6   8
ENDBRANCH   3   4
ENDBRANCH   2   3
ENDBRANCH   1   2
BRANCH   1  64
ATOM     64  C   UNL A   1      44.232  18.618  25.500  1.00  0.00     0.002 C 
BRANCH  64  65
ATOM     65  C   UNL A   1      44.824  19.586  24.467  1.00  0.00     0.021 C 
BRANCH  65  66
ATOM     66  C   UNL A   1      45.212  20.974  24.985  1.00  0.00     0.116 C 
BRANCH  66  67
ATOM     67  N   UNL A   1      44.173  21.965  24.769  1.00  0.00    -0.352 N 
ATOM     68  C   UNL A   1      44.111  23.271  25.185  1.00  0.00     0.251 C 
ATOM     69  H   UNL A   1      43.399  21.653  24.246  1.00  0.00     0.163 HD
ATOM     70  O   UNL A   1      43.082  23.920  25.016  1.00  0.00    -0.269 OA
BRANCH  68  71
ATOM     71  C   UNL A   1      45.255  23.905  25.885  1.00  0.00     0.039 A 
ATOM     72  C   UNL A   1      46.228  24.520  25.101  1.00  0.00     0.016 A 
ATOM     73  C   UNL A   1      45.408  23.868  27.279  1.00  0.00     0.016 A 
ATOM     74  C   UNL A   1      47.305  25.164  25.714  1.00  0.00     0.027 A 
ATOM     75  C   UNL A   1      46.507  24.504  27.895  1.00  0.00     0.027 A 
ATOM     76  C   UNL A   1      47.445  25.183  27.116  1.00  0.00     0.045 A 
BRANCH  76  77
ATOM     77  N   UNL A   1      48.476  25.983  27.708  1.00  0.00    -0.299 N 
ATOM     78  C   UNL A   1      49.650  25.260  28.110  1.00  0.00     0.259 C 
ATOM     79  C   UNL A   1      48.134  27.016  28.718  1.00  0.00     0.152 C 
ATOM     80  C   UNL A   1      50.051  25.742  29.473  1.00  0.00     0.248 C 
ATOM     81  O   UNL A   1      50.196  24.359  27.485  1.00  0.00    -0.271 OA
ATOM     82  C   UNL A   1      48.757  26.336  29.873  1.00  0.00     0.021 C 
ATOM     83  N   UNL A   1      50.236  24.706  30.500  1.00  0.00    -0.170 NA
ATOM     84  C   UNL A   1      48.468  25.850  31.075  1.00  0.00     0.097 C 
ATOM     85  N   UNL A   1      49.405  24.901  31.440  1.00  0.00    -0.154 NA
BRANCH  79  86
ATOM     86  C   UNL A   1      48.798  28.393  28.489  1.00  0.00    -0.020 A 
ATOM     87  C   UNL A   1      49.355  28.740  27.230  1.00  0.00     0.006 A 
ATOM     88  C   UNL A   1      48.930  29.335  29.521  1.00  0.00     0.022 A 
ATOM     89  C   UNL A   1      49.959  29.976  26.992  1.00  0.00     0.002 A 
ATOM     90  C   UNL A   1      49.570  30.564  29.284  1.00  0.00     0.018 A 
ATOM     91  C   UNL A   1      50.071  30.893  28.024  1.00  0.00     0.016 A 
ATOM     92  Br  UNL A   1      49.784  31.808  30.695  1.00  0.00    -0.051 Br
ENDBRANCH  79  86
BRANCH  84  93
ATOM     93  C   UNL A   1      47.285  26.044  31.908  1.00  0.00     0.002 A 
ATOM     94  C   UNL A   1      47.401  26.627  33.178  1.00  0.00     0.010 A 
ATOM     95  C   UNL A   1      46.069  25.457  31.534  1.00  0.00     0.010 A 
ATOM     96  C   UNL A   1      46.341  26.550  34.085  1.00  0.00     0.001 A 
ATOM     97  C   UNL A   1      45.010  25.387  32.441  1.00  0.00     0.001 A 
ATOM     98  C   UNL A   1      45.155  25.911  33.725  1.00  0.00     0.000 A 
ENDBRANCH  84  93
ENDBRANCH  76  77
ENDBRANCH  68  71
ENDBRANCH  66  67
ENDBRANCH  65  66
ENDBRANCH  64  65
ENDBRANCH   1  64
TORSDOF 16
ENDMDL
MODEL 3
REMARK VINA RESULT:     -12.0      5.386     10.929
REMARK SMILES O=C(NCCCCCCNC(=O)c1ccc(N2C(=O)[C@@H]3N=NC(c4ccccc4)=C3[C@H]2c2cccc(Br)c2)cc1)c1ccc(-c2c3nc(c(-c4c(F)cccc4F)c4ccc([nH]4)c(-c4c(F)cccc4F)c4nc(c(-c5c(F)cccc5F)c5ccc2[nH]5)C=C4)C=C3)cc1
REMARK SMILES IDX 6 1 5 2 4 3 3 4 1 5 2 6 41 8 42 9 94 10 43 11 93 12 44 13
REMARK SMILES IDX 45 14 46 15 87 16 47 17 92 18 86 19 88 20 48 21 91 22 85 23
REMARK SMILES IDX 84 24 49 26 75 27 58 28 74 29 59 30 62 31 73 32 89 33 60 34
REMARK SMILES IDX 61 35 72 37 90 38 63 39 50 40 51 41 56 42 52 43 53 44 55 45
REMARK SMILES IDX 57 46 54 47 76 48 77 49 82 50 78 51 79 52 81 53 83 54 80 55
REMARK SMILES IDX 64 56 65 57 70 58 66 59 67 60 69 61 71 62 68 63 7 64 8 65
REMARK SMILES IDX 9 66 10 67 11 68 12 70 13 71 14 72 40 73 15 74 39 75 16 76
REMARK SMILES IDX 17 77 18 78 31 79 20 80 19 81 30 82 21 83 23 84 22 85 32 86
REMARK SMILES IDX 33 87 38 88 34 89 36 90 35 91 37 92 24 93 25 94 29 95 26 96
REMARK SMILES IDX 28 97 27 98
REMARK H PARENT 3 7 88 25 62 36 10 69
REMARK Flexibility Score: inf
ROOT
ATOM      1  C   UNL A   1      49.910  25.841  29.356  1.00  0.00     0.002 C 
ENDROOT
BRANCH   1   2
ATOM      2  C   UNL A   1      49.377  24.849  28.314  1.00  0.00     0.021 C 
BRANCH   2   3
ATOM      3  C   UNL A   1      47.964  25.129  27.799  1.00  0.00     0.116 C 
BRANCH   3   4
ATOM      4  N   UNL A   1      47.916  25.692  26.465  1.00  0.00    -0.352 N 
ATOM      5  O   UNL A   1      47.749  27.031  24.723  1.00  0.00    -0.269 OA
ATOM      6  C   UNL A   1      47.472  26.862  25.914  1.00  0.00     0.251 C 
ATOM      7  H   UNL A   1      48.297  25.084  25.791  1.00  0.00     0.163 HD
BRANCH   6   8
ATOM      8  C   UNL A   1      46.660  27.906  26.605  1.00  0.00     0.039 A 
ATOM      9  C   UNL A   1      47.073  28.692  27.679  1.00  0.00     0.014 A 
ATOM     10  C   UNL A   1      45.349  28.091  26.114  1.00  0.00     0.014 A 
ATOM     11  C   UNL A   1      46.189  29.599  28.272  1.00  0.00     0.010 A 
ATOM     12  C   UNL A   1      44.463  28.995  26.700  1.00  0.00     0.010 A 
ATOM     13  C   UNL A   1      44.879  29.741  27.796  1.00  0.00    -0.014 A 
BRANCH  13  14
ATOM     14  C   UNL A   1      44.046  30.795  28.378  1.00  0.00     0.031 A 
ATOM     15  C   UNL A   1      44.302  32.165  27.848  1.00  0.00     0.074 A 
ATOM     16  C   UNL A   1      43.018  30.612  29.232  1.00  0.00     0.049 A 
ATOM     17  N   UNL A   1      44.767  33.190  28.485  1.00  0.00    -0.248 NA
ATOM     18  C   UNL A   1      44.077  32.401  26.415  1.00  0.00     0.031 C 
ATOM     19  C   UNL A   1      42.377  29.360  29.632  1.00  0.00     0.029 A 
ATOM     20  N   UNL A   1      42.269  31.562  29.872  1.00  0.00    -0.354 N 
ATOM     21  C   UNL A   1      44.742  34.252  27.583  1.00  0.00     0.074 A 
ATOM     22  C   UNL A   1      44.419  33.685  26.298  1.00  0.00     0.031 C 
ATOM     23  C   UNL A   1      41.224  29.639  30.285  1.00  0.00     0.029 A 
ATOM     24  C   UNL A   1      41.113  31.077  30.469  1.00  0.00     0.049 A 
ATOM     25  H   UNL A   1      42.529  32.511  29.907  1.00  0.00     0.167 HD
ATOM     26  C   UNL A   1      44.808  35.548  27.997  1.00  0.00     0.037 A 
ATOM     27  C   UNL A   1      40.120  31.809  31.036  1.00  0.00     0.037 A 
ATOM     28  C   UNL A   1      45.302  35.651  29.345  1.00  0.00     0.049 A 
ATOM     29  C   UNL A   1      40.655  33.154  31.349  1.00  0.00     0.074 A 
ATOM     30  C   UNL A   1      46.457  35.263  29.998  1.00  0.00     0.029 A 
ATOM     31  N   UNL A   1      44.408  35.957  30.341  1.00  0.00    -0.354 N 
ATOM     32  N   UNL A   1      41.498  33.408  32.308  1.00  0.00    -0.248 NA
ATOM     33  C   UNL A   1      40.526  34.193  30.340  1.00  0.00     0.031 C 
ATOM     34  C   UNL A   1      46.032  34.871  31.300  1.00  0.00     0.029 A 
ATOM     35  C   UNL A   1      44.656  35.089  31.371  1.00  0.00     0.049 A 
ATOM     36  H   UNL A   1      43.722  36.662  30.319  1.00  0.00     0.167 HD
ATOM     37  C   UNL A   1      42.318  34.398  31.795  1.00  0.00     0.074 A 
ATOM     38  C   UNL A   1      41.603  34.923  30.636  1.00  0.00     0.031 C 
ATOM     39  C   UNL A   1      43.621  34.507  32.189  1.00  0.00     0.037 A 
BRANCH  26  40
ATOM     40  C   UNL A   1      44.111  36.704  27.319  1.00  0.00     0.057 A 
ATOM     41  C   UNL A   1      44.823  37.896  27.079  1.00  0.00     0.134 A 
ATOM     42  C   UNL A   1      42.713  36.804  27.177  1.00  0.00     0.134 A 
ATOM     43  F   UNL A   1      46.160  37.935  27.193  1.00  0.00    -0.206 F 
ATOM     44  C   UNL A   1      44.184  39.111  26.806  1.00  0.00     0.040 A 
ATOM     45  C   UNL A   1      42.070  38.002  26.852  1.00  0.00     0.040 A 
ATOM     46  F   UNL A   1      41.893  35.781  27.445  1.00  0.00    -0.206 F 
ATOM     47  C   UNL A   1      42.801  39.168  26.701  1.00  0.00     0.006 A 
ENDBRANCH  26  40
BRANCH  27  48
ATOM     48  C   UNL A   1      38.671  31.522  31.139  1.00  0.00     0.057 A 
ATOM     49  C   UNL A   1      38.099  31.080  32.341  1.00  0.00     0.134 A 
ATOM     50  C   UNL A   1      37.772  31.957  30.152  1.00  0.00     0.134 A 
ATOM     51  F   UNL A   1      38.873  30.678  33.360  1.00  0.00    -0.206 F 
ATOM     52  C   UNL A   1      36.716  31.102  32.563  1.00  0.00     0.040 A 
ATOM     53  C   UNL A   1      36.389  31.977  30.356  1.00  0.00     0.040 A 
ATOM     54  F   UNL A   1      38.213  32.465  28.991  1.00  0.00    -0.206 F 
ATOM     55  C   UNL A   1      35.857  31.565  31.572  1.00  0.00     0.006 A 
ENDBRANCH  27  48
BRANCH  39  56
ATOM     56  C   UNL A   1      44.056  33.750  33.411  1.00  0.00     0.057 A 
ATOM     57  C   UNL A   1      44.438  32.399  33.414  1.00  0.00     0.134 A 
ATOM     58  C   UNL A   1      44.209  34.453  34.612  1.00  0.00     0.134 A 
ATOM     59  F   UNL A   1      44.434  31.670  32.290  1.00  0.00    -0.206 F 
ATOM     60  C   UNL A   1      44.892  31.766  34.576  1.00  0.00     0.040 A 
ATOM     61  C   UNL A   1      44.699  33.842  35.768  1.00  0.00     0.040 A 
ATOM     62  F   UNL A   1      43.918  35.762  34.672  1.00  0.00    -0.206 F 
ATOM     63  C   UNL A   1      45.027  32.491  35.757  1.00  0.00     0.006 A 
ENDBRANCH  39  56
ENDBRANCH  13  14
ENDBRANCH   6   8
ENDBRANCH   3   4
ENDBRANCH   2   3
ENDBRANCH   1   2
BRANCH   1  64
ATOM     64  C   UNL A   1      50.295  25.262  30.722  1.00  0.00     0.002 C 
BRANCH  64  65
ATOM     65  C   UNL A   1      49.302  25.497  31.867  1.00  0.00     0.021 C 
BRANCH  65  66
ATOM     66  C   UNL A   1      47.981  26.174  31.490  1.00  0.00     0.116 C 
BRANCH  66  67
ATOM     67  N   UNL A   1      46.979  26.073  32.535  1.00  0.00    -0.352 N 
ATOM     68  C   UNL A   1      45.637  25.799  32.435  1.00  0.00     0.251 C 
ATOM     69  H   UNL A   1      47.310  26.222  33.449  1.00  0.00     0.163 HD
ATOM     70  O   UNL A   1      44.919  25.886  33.428  1.00  0.00    -0.269 OA
BRANCH  68  71
ATOM     71  C   UNL A   1      45.024  25.443  31.133  1.00  0.00     0.039 A 
ATOM     72  C   UNL A   1      44.641  24.117  30.942  1.00  0.00     0.016 A 
ATOM     73  C   UNL A   1      44.862  26.369  30.092  1.00  0.00     0.016 A 
ATOM     74  C   UNL A   1      44.025  23.741  29.747  1.00  0.00     0.027 A 
ATOM     75  C   UNL A   1      44.254  25.982  28.878  1.00  0.00     0.027 A 
ATOM     76  C   UNL A   1      43.804  24.672  28.711  1.00  0.00     0.045 A 
BRANCH  76  77
ATOM     77  N   UNL A   1      43.033  24.281  27.569  1.00  0.00    -0.299 N 
ATOM     78  C   UNL A   1      43.578  24.682  26.302  1.00  0.00     0.259 C 
ATOM     79  C   UNL A   1      41.557  24.444  27.572  1.00  0.00     0.152 C 
ATOM     80  C   UNL A   1      42.460  25.230  25.465  1.00  0.00     0.248 C 
ATOM     81  O   UNL A   1      44.759  24.649  25.979  1.00  0.00    -0.271 OA
ATOM     82  C   UNL A   1      41.504  25.517  26.556  1.00  0.00     0.021 C 
ATOM     83  N   UNL A   1      42.672  26.566  24.890  1.00  0.00    -0.170 NA
ATOM     84  C   UNL A   1      41.094  26.769  26.384  1.00  0.00     0.097 C 
ATOM     85  N   UNL A   1      41.788  27.357  25.344  1.00  0.00    -0.154 NA
BRANCH  79  86
ATOM     86  C   UNL A   1      40.766  23.210  27.083  1.00  0.00    -0.020 A 
ATOM     87  C   UNL A   1      41.352  21.917  27.076  1.00  0.00     0.006 A 
ATOM     88  C   UNL A   1      39.462  23.316  26.576  1.00  0.00     0.022 A 
ATOM     89  C   UNL A   1      40.664  20.783  26.643  1.00  0.00     0.002 A 
ATOM     90  C   UNL A   1      38.785  22.175  26.110  1.00  0.00     0.018 A 
ATOM     91  C   UNL A   1      39.374  20.911  26.154  1.00  0.00     0.016 A 
ATOM     92  Br  UNL A   1      37.044  22.337  25.385  1.00  0.00    -0.051 Br
ENDBRANCH  79  86
BRANCH  84  93
ATOM     93  C   UNL A   1      40.205  27.588  27.204  1.00  0.00     0.002 A 
ATOM     94  C   UNL A   1      39.484  27.011  28.259  1.00  0.00     0.010 A 
ATOM     95  C   UNL A   1      39.907  28.897  26.808  1.00  0.00     0.010 A 
ATOM     96  C   UNL A   1      38.428  27.709  28.852  1.00  0.00     0.001 A 
ATOM     97  C   UNL A   1      38.854  29.594  27.406  1.00  0.00     0.001 A 
ATOM     98  C   UNL A   1      38.100  28.990  28.410  1.00  0.00     0.000 A 
ENDBRANCH  84  93
ENDBRANCH  76  77
ENDBRANCH  68  71
ENDBRANCH  66  67
ENDBRANCH  65  66
ENDBRANCH  64  65
ENDBRANCH   1  64
TORSDOF 16
ENDMDL
