MODEL 1
REMARK VINA RESULT:     -10.7      0.000      0.000
REMARK SMILES CCc1nc(C)c(C(=O)NCCCCCCNC(=O)c2ccc(-c3c4nc(c(-c5c(F)cccc5F)c5ccc([nH]5)c(-c5c(F)cccc5F)c5nc(c(-c6c(F)cccc6F)c6ccc3[nH]6)C=C5)C=C4)cc2)c(SCc2cnc(Cl)s2)n1
REMARK SMILES IDX 13 1 12 2 11 3 10 4 8 5 9 6 7 8 3 9 4 10 83 11 5 12 74 13
REMARK SMILES IDX 6 14 2 15 1 16 75 17 76 18 77 19 78 20 82 21 79 22 80 23
REMARK SMILES IDX 81 24 14 25 15 26 16 27 17 28 18 29 19 31 20 32 21 33 73 34
REMARK SMILES IDX 22 35 72 36 23 37 24 38 25 39 66 40 26 41 71 42 65 43 67 44
REMARK SMILES IDX 27 45 70 46 64 47 63 48 28 50 54 51 37 52 53 53 38 54 41 55
REMARK SMILES IDX 52 56 68 57 39 58 40 59 51 61 69 62 42 63 29 64 30 65 35 66
REMARK SMILES IDX 31 67 32 68 34 69 36 70 33 71 55 72 56 73 61 74 57 75 58 76
REMARK SMILES IDX 60 77 62 78 59 79 43 80 44 81 49 82 45 83 46 84 48 85 50 86
REMARK SMILES IDX 47 87
REMARK H PARENT 10 7 17 30 67 49 41 60
REMARK Flexibility Score: inf
ROOT
ATOM      1  C   UNL A   1      38.337  22.349  25.756  1.00  0.00     0.002 C 
ENDROOT
BRANCH   1   2
ATOM      2  C   UNL A   1      37.590  23.683  25.674  1.00  0.00     0.021 C 
BRANCH   2   3
ATOM      3  C   UNL A   1      36.064  23.526  25.577  1.00  0.00     0.116 C 
BRANCH   3   4
ATOM      4  N   UNL A   1      35.687  23.735  24.191  1.00  0.00    -0.352 N 
ATOM      5  C   UNL A   1      34.431  23.850  23.649  1.00  0.00     0.255 C 
ATOM      6  O   UNL A   1      34.217  23.337  22.554  1.00  0.00    -0.269 OA
ATOM      7  H   UNL A   1      36.434  23.804  23.553  1.00  0.00     0.163 HD
BRANCH   5   8
ATOM      8  C   UNL A   1      33.380  24.686  24.244  1.00  0.00     0.093 A 
ATOM      9  C   UNL A   1      31.799  26.338  25.736  1.00  0.00     0.129 A 
ATOM     10  N   UNL A   1      32.399  26.851  24.659  1.00  0.00    -0.237 NA
ATOM     11  N   UNL A   1      31.884  25.053  26.089  1.00  0.00    -0.226 NA
ATOM     12  C   UNL A   1      33.207  26.036  23.938  1.00  0.00     0.055 A 
ATOM     13  C   UNL A   1      32.679  24.226  25.360  1.00  0.00     0.113 A 
ATOM     14  C   UNL A   1      33.894  26.774  22.833  1.00  0.00     0.068 C 
BRANCH   9  15
ATOM     15  C   UNL A   1      31.160  27.295  26.703  1.00  0.00     0.074 C 
ATOM     16  C   UNL A   1      32.229  28.119  27.409  1.00  0.00     0.012 C 
ENDBRANCH   9  15
BRANCH  13  17
ATOM     17  S   UNL A   1      32.664  22.628  26.163  1.00  0.00    -0.100 SA
BRANCH  17  18
ATOM     18  C   UNL A   1      32.070  21.385  24.990  1.00  0.00     0.125 C 
BRANCH  18  19
ATOM     19  C   UNL A   1      32.970  20.231  24.692  1.00  0.00     0.036 A 
ATOM     20  C   UNL A   1      34.277  19.937  25.042  1.00  0.00     0.129 A 
ATOM     21  S   UNL A   1      32.352  18.934  23.727  1.00  0.00    -0.107 S 
ATOM     22  N   UNL A   1      34.761  18.715  24.609  1.00  0.00    -0.233 NA
ATOM     23  C   UNL A   1      33.833  18.127  23.898  1.00  0.00     0.183 A 
ATOM     24  Cl  UNL A   1      34.058  16.590  23.173  1.00  0.00    -0.051 Cl
ENDBRANCH  18  19
ENDBRANCH  17  18
ENDBRANCH  13  17
ENDBRANCH   5   8
ENDBRANCH   3   4
ENDBRANCH   2   3
ENDBRANCH   1   2
BRANCH   1  25
ATOM     25  C   UNL A   1      37.688  21.224  24.947  1.00  0.00     0.002 C 
BRANCH  25  26
ATOM     26  C   UNL A   1      38.488  19.917  24.899  1.00  0.00     0.021 C 
BRANCH  26  27
ATOM     27  C   UNL A   1      39.279  19.600  26.166  1.00  0.00     0.116 C 
BRANCH  27  28
ATOM     28  N   UNL A   1      40.575  19.017  25.857  1.00  0.00    -0.352 N 
ATOM     29  C   UNL A   1      41.804  19.620  25.805  1.00  0.00     0.251 C 
ATOM     30  H   UNL A   1      40.568  18.054  25.657  1.00  0.00     0.163 HD
ATOM     31  O   UNL A   1      42.755  19.043  25.279  1.00  0.00    -0.269 OA
BRANCH  29  32
ATOM     32  C   UNL A   1      41.989  20.970  26.375  1.00  0.00     0.039 A 
ATOM     33  C   UNL A   1      41.855  21.149  27.754  1.00  0.00     0.014 A 
ATOM     34  C   UNL A   1      42.268  22.062  25.547  1.00  0.00     0.014 A 
ATOM     35  C   UNL A   1      42.049  22.415  28.309  1.00  0.00     0.010 A 
ATOM     36  C   UNL A   1      42.525  23.310  26.108  1.00  0.00     0.010 A 
ATOM     37  C   UNL A   1      42.413  23.500  27.493  1.00  0.00    -0.014 A 
BRANCH  37  38
ATOM     38  C   UNL A   1      42.684  24.837  28.077  1.00  0.00     0.031 A 
ATOM     39  C   UNL A   1      44.065  25.194  28.553  1.00  0.00     0.074 A 
ATOM     40  C   UNL A   1      41.670  25.710  28.230  1.00  0.00     0.049 A 
ATOM     41  N   UNL A   1      44.483  26.293  29.127  1.00  0.00    -0.248 NA
ATOM     42  C   UNL A   1      45.109  24.170  28.385  1.00  0.00     0.031 C 
ATOM     43  C   UNL A   1      40.276  25.461  27.856  1.00  0.00     0.029 A 
ATOM     44  N   UNL A   1      41.653  26.980  28.747  1.00  0.00    -0.354 N 
ATOM     45  C   UNL A   1      45.831  26.090  29.396  1.00  0.00     0.074 A 
ATOM     46  C   UNL A   1      46.148  24.745  28.972  1.00  0.00     0.031 C 
ATOM     47  C   UNL A   1      39.545  26.552  28.134  1.00  0.00     0.029 A 
ATOM     48  C   UNL A   1      40.409  27.564  28.734  1.00  0.00     0.049 A 
ATOM     49  H   UNL A   1      42.456  27.432  29.093  1.00  0.00     0.167 HD
ATOM     50  C   UNL A   1      46.726  26.956  29.928  1.00  0.00     0.037 A 
ATOM     51  C   UNL A   1      40.010  28.776  29.161  1.00  0.00     0.037 A 
ATOM     52  C   UNL A   1      46.412  28.302  30.330  1.00  0.00     0.049 A 
ATOM     53  C   UNL A   1      41.025  29.718  29.745  1.00  0.00     0.074 A 
ATOM     54  C   UNL A   1      47.262  29.277  30.822  1.00  0.00     0.029 A 
ATOM     55  N   UNL A   1      45.144  28.863  30.285  1.00  0.00    -0.354 N 
ATOM     56  N   UNL A   1      42.310  29.538  29.928  1.00  0.00    -0.248 NA
ATOM     57  C   UNL A   1      40.534  31.035  30.173  1.00  0.00     0.031 C 
ATOM     58  C   UNL A   1      46.500  30.414  31.116  1.00  0.00     0.029 A 
ATOM     59  C   UNL A   1      45.184  30.163  30.762  1.00  0.00     0.049 A 
ATOM     60  H   UNL A   1      44.333  28.404  29.963  1.00  0.00     0.167 HD
ATOM     61  C   UNL A   1      42.787  30.725  30.470  1.00  0.00     0.074 A 
ATOM     62  C   UNL A   1      41.654  31.623  30.568  1.00  0.00     0.031 C 
ATOM     63  C   UNL A   1      44.047  31.043  30.853  1.00  0.00     0.037 A 
BRANCH  50  64
ATOM     64  C   UNL A   1      48.136  26.472  30.103  1.00  0.00     0.057 A 
ATOM     65  C   UNL A   1      48.555  25.822  31.272  1.00  0.00     0.134 A 
ATOM     66  C   UNL A   1      49.080  26.624  29.079  1.00  0.00     0.134 A 
ATOM     67  F   UNL A   1      47.705  25.654  32.297  1.00  0.00    -0.206 F 
ATOM     68  C   UNL A   1      49.865  25.365  31.427  1.00  0.00     0.040 A 
ATOM     69  C   UNL A   1      50.385  26.148  29.211  1.00  0.00     0.040 A 
ATOM     70  F   UNL A   1      48.745  27.231  27.929  1.00  0.00    -0.206 F 
ATOM     71  C   UNL A   1      50.782  25.521  30.391  1.00  0.00     0.006 A 
ENDBRANCH  50  64
BRANCH  51  72
ATOM     72  C   UNL A   1      38.588  29.178  29.028  1.00  0.00     0.057 A 
ATOM     73  C   UNL A   1      37.716  29.118  30.121  1.00  0.00     0.134 A 
ATOM     74  C   UNL A   1      38.065  29.625  27.809  1.00  0.00     0.134 A 
ATOM     75  F   UNL A   1      38.155  28.681  31.310  1.00  0.00    -0.206 F 
ATOM     76  C   UNL A   1      36.371  29.470  30.004  1.00  0.00     0.040 A 
ATOM     77  C   UNL A   1      36.727  30.004  27.683  1.00  0.00     0.040 A 
ATOM     78  F   UNL A   1      38.851  29.714  26.725  1.00  0.00    -0.206 F 
ATOM     79  C   UNL A   1      35.874  29.920  28.782  1.00  0.00     0.006 A 
ENDBRANCH  51  72
BRANCH  63  80
ATOM     80  C   UNL A   1      44.269  32.427  31.387  1.00  0.00     0.057 A 
ATOM     81  C   UNL A   1      44.195  32.711  32.757  1.00  0.00     0.134 A 
ATOM     82  C   UNL A   1      44.586  33.483  30.524  1.00  0.00     0.134 A 
ATOM     83  F   UNL A   1      43.882  31.746  33.635  1.00  0.00    -0.206 F 
ATOM     84  C   UNL A   1      44.402  34.001  33.246  1.00  0.00     0.040 A 
ATOM     85  C   UNL A   1      44.820  34.772  31.003  1.00  0.00     0.040 A 
ATOM     86  F   UNL A   1      44.680  33.278  29.201  1.00  0.00    -0.206 F 
ATOM     87  C   UNL A   1      44.721  35.036  32.368  1.00  0.00     0.006 A 
ENDBRANCH  63  80
ENDBRANCH  37  38
ENDBRANCH  29  32
ENDBRANCH  27  28
ENDBRANCH  26  27
ENDBRANCH  25  26
ENDBRANCH   1  25
TORSDOF 17
ENDMDL
MODEL 2
REMARK VINA RESULT:     -10.6      2.012      3.676
REMARK SMILES CCc1nc(C)c(C(=O)NCCCCCCNC(=O)c2ccc(-c3c4nc(c(-c5c(F)cccc5F)c5ccc([nH]5)c(-c5c(F)cccc5F)c5nc(c(-c6c(F)cccc6F)c6ccc3[nH]6)C=C5)C=C4)cc2)c(SCc2cnc(Cl)s2)n1
REMARK SMILES IDX 13 1 12 2 11 3 10 4 8 5 9 6 7 8 3 9 4 10 83 11 5 12 74 13
REMARK SMILES IDX 6 14 2 15 1 16 75 17 76 18 77 19 78 20 82 21 79 22 80 23
REMARK SMILES IDX 81 24 14 25 15 26 16 27 17 28 18 29 19 31 20 32 21 33 73 34
REMARK SMILES IDX 22 35 72 36 23 37 24 38 25 39 66 40 26 41 71 42 65 43 67 44
REMARK SMILES IDX 27 45 70 46 64 47 63 48 28 50 54 51 37 52 53 53 38 54 41 55
REMARK SMILES IDX 52 56 68 57 39 58 40 59 51 61 69 62 42 63 29 64 30 65 35 66
REMARK SMILES IDX 31 67 32 68 34 69 36 70 33 71 55 72 56 73 61 74 57 75 58 76
REMARK SMILES IDX 60 77 62 78 59 79 43 80 44 81 49 82 45 83 46 84 48 85 50 86
REMARK SMILES IDX 47 87
REMARK H PARENT 10 7 17 30 67 49 41 60
REMARK Flexibility Score: inf
ROOT
ATOM      1  C   UNL A   1      36.884  21.815  25.349  1.00  0.00     0.002 C 
ENDROOT
BRANCH   1   2
ATOM      2  C   UNL A   1      37.068  22.955  24.343  1.00  0.00     0.021 C 
BRANCH   2   3
ATOM      3  C   UNL A   1      35.746  23.608  23.910  1.00  0.00     0.116 C 
BRANCH   3   4
ATOM      4  N   UNL A   1      35.024  23.981  25.112  1.00  0.00    -0.352 N 
ATOM      5  C   UNL A   1      33.736  23.670  25.472  1.00  0.00     0.255 C 
ATOM      6  O   UNL A   1      33.066  24.526  26.045  1.00  0.00    -0.269 OA
ATOM      7  H   UNL A   1      35.526  24.531  25.756  1.00  0.00     0.163 HD
BRANCH   5   8
ATOM      8  C   UNL A   1      33.177  22.318  25.345  1.00  0.00     0.093 A 
ATOM      9  C   UNL A   1      32.595  19.701  24.831  1.00  0.00     0.129 A 
ATOM     10  N   UNL A   1      33.084  20.008  26.035  1.00  0.00    -0.237 NA
ATOM     11  N   UNL A   1      32.322  20.608  23.890  1.00  0.00    -0.226 NA
ATOM     12  C   UNL A   1      33.401  21.304  26.276  1.00  0.00     0.055 A 
ATOM     13  C   UNL A   1      32.620  21.912  24.131  1.00  0.00     0.113 A 
ATOM     14  C   UNL A   1      34.039  21.478  27.618  1.00  0.00     0.068 C 
BRANCH   9  15
ATOM     15  C   UNL A   1      32.533  18.248  24.451  1.00  0.00     0.074 C 
ATOM     16  C   UNL A   1      33.890  17.784  23.933  1.00  0.00     0.012 C 
ENDBRANCH   9  15
BRANCH  13  17
ATOM     17  S   UNL A   1      32.248  22.829  22.642  1.00  0.00    -0.100 SA
BRANCH  17  18
ATOM     18  C   UNL A   1      31.079  24.151  23.040  1.00  0.00     0.125 C 
BRANCH  18  19
ATOM     19  C   UNL A   1      31.599  25.551  23.052  1.00  0.00     0.036 A 
ATOM     20  C   UNL A   1      31.087  26.746  23.527  1.00  0.00     0.129 A 
ATOM     21  S   UNL A   1      33.160  25.854  22.366  1.00  0.00    -0.107 S 
ATOM     22  N   UNL A   1      31.909  27.852  23.401  1.00  0.00    -0.233 NA
ATOM     23  C   UNL A   1      33.007  27.488  22.789  1.00  0.00     0.183 A 
ATOM     24  Cl  UNL A   1      34.276  28.585  22.435  1.00  0.00    -0.051 Cl
ENDBRANCH  18  19
ENDBRANCH  17  18
ENDBRANCH  13  17
ENDBRANCH   5   8
ENDBRANCH   3   4
ENDBRANCH   2   3
ENDBRANCH   1   2
BRANCH   1  25
ATOM     25  C   UNL A   1      36.758  20.433  24.704  1.00  0.00     0.002 C 
BRANCH  25  26
ATOM     26  C   UNL A   1      37.934  19.486  24.967  1.00  0.00     0.021 C 
BRANCH  26  27
ATOM     27  C   UNL A   1      39.085  20.095  25.764  1.00  0.00     0.116 C 
BRANCH  27  28
ATOM     28  N   UNL A   1      40.205  19.175  25.878  1.00  0.00    -0.352 N 
ATOM     29  C   UNL A   1      41.531  19.449  26.084  1.00  0.00     0.251 C 
ATOM     30  H   UNL A   1      39.978  18.221  25.794  1.00  0.00     0.163 HD
ATOM     31  O   UNL A   1      42.380  18.576  25.898  1.00  0.00    -0.269 OA
BRANCH  29  32
ATOM     32  C   UNL A   1      41.948  20.794  26.526  1.00  0.00     0.039 A 
ATOM     33  C   UNL A   1      42.416  21.707  25.578  1.00  0.00     0.014 A 
ATOM     34  C   UNL A   1      41.904  21.146  27.879  1.00  0.00     0.014 A 
ATOM     35  C   UNL A   1      42.793  22.989  25.978  1.00  0.00     0.010 A 
ATOM     36  C   UNL A   1      42.218  22.445  28.269  1.00  0.00     0.010 A 
ATOM     37  C   UNL A   1      42.671  23.377  27.324  1.00  0.00    -0.014 A 
BRANCH  37  38
ATOM     38  C   UNL A   1      43.008  24.757  27.753  1.00  0.00     0.031 A 
ATOM     39  C   UNL A   1      44.444  25.182  27.889  1.00  0.00     0.074 A 
ATOM     40  C   UNL A   1      42.018  25.610  28.075  1.00  0.00     0.049 A 
ATOM     41  N   UNL A   1      44.932  26.329  28.290  1.00  0.00    -0.248 NA
ATOM     42  C   UNL A   1      45.467  24.178  27.555  1.00  0.00     0.031 C 
ATOM     43  C   UNL A   1      40.587  25.299  28.035  1.00  0.00     0.029 A 
ATOM     44  N   UNL A   1      42.062  26.911  28.507  1.00  0.00    -0.354 N 
ATOM     45  C   UNL A   1      46.314  26.181  28.266  1.00  0.00     0.074 A 
ATOM     46  C   UNL A   1      46.585  24.819  27.862  1.00  0.00     0.031 C 
ATOM     47  C   UNL A   1      39.890  26.387  28.403  1.00  0.00     0.029 A 
ATOM     48  C   UNL A   1      40.823  27.459  28.736  1.00  0.00     0.049 A 
ATOM     49  H   UNL A   1      42.902  27.407  28.640  1.00  0.00     0.167 HD
ATOM     50  C   UNL A   1      47.267  27.104  28.534  1.00  0.00     0.037 A 
ATOM     51  C   UNL A   1      40.478  28.686  29.168  1.00  0.00     0.037 A 
ATOM     52  C   UNL A   1      46.993  28.465  28.915  1.00  0.00     0.049 A 
ATOM     53  C   UNL A   1      41.556  29.692  29.456  1.00  0.00     0.074 A 
ATOM     54  C   UNL A   1      47.890  29.493  29.147  1.00  0.00     0.029 A 
ATOM     55  N   UNL A   1      45.724  28.987  29.119  1.00  0.00    -0.354 N 
ATOM     56  N   UNL A   1      42.857  29.560  29.360  1.00  0.00    -0.248 NA
ATOM     57  C   UNL A   1      41.117  31.021  29.904  1.00  0.00     0.031 C 
ATOM     58  C   UNL A   1      47.165  30.626  29.535  1.00  0.00     0.029 A 
ATOM     59  C   UNL A   1      45.815  30.317  29.498  1.00  0.00     0.049 A 
ATOM     60  H   UNL A   1      44.883  28.486  29.013  1.00  0.00     0.167 HD
ATOM     61  C   UNL A   1      43.391  30.793  29.712  1.00  0.00     0.074 A 
ATOM     62  C   UNL A   1      42.272  31.664  30.005  1.00  0.00     0.031 C 
ATOM     63  C   UNL A   1      44.690  31.170  29.786  1.00  0.00     0.037 A 
BRANCH  50  64
ATOM     64  C   UNL A   1      48.700  26.671  28.420  1.00  0.00     0.057 A 
ATOM     65  C   UNL A   1      49.414  26.181  29.522  1.00  0.00     0.134 A 
ATOM     66  C   UNL A   1      49.366  26.710  27.189  1.00  0.00     0.134 A 
ATOM     67  F   UNL A   1      48.839  26.128  30.734  1.00  0.00    -0.206 F 
ATOM     68  C   UNL A   1      50.743  25.771  29.410  1.00  0.00     0.040 A 
ATOM     69  C   UNL A   1      50.687  26.278  27.058  1.00  0.00     0.040 A 
ATOM     70  F   UNL A   1      48.741  27.162  26.090  1.00  0.00    -0.206 F 
ATOM     71  C   UNL A   1      51.381  25.812  28.173  1.00  0.00     0.006 A 
ENDBRANCH  50  64
BRANCH  51  72
ATOM     72  C   UNL A   1      39.045  29.040  29.330  1.00  0.00     0.057 A 
ATOM     73  C   UNL A   1      38.388  28.846  30.550  1.00  0.00     0.134 A 
ATOM     74  C   UNL A   1      38.299  29.572  28.272  1.00  0.00     0.134 A 
ATOM     75  F   UNL A   1      39.046  28.322  31.595  1.00  0.00    -0.206 F 
ATOM     76  C   UNL A   1      37.036  29.151  30.709  1.00  0.00     0.040 A 
ATOM     77  C   UNL A   1      36.952  29.905  28.423  1.00  0.00     0.040 A 
ATOM     78  F   UNL A   1      38.873  29.789  27.079  1.00  0.00    -0.206 F 
ATOM     79  C   UNL A   1      36.315  29.688  29.644  1.00  0.00     0.006 A 
ENDBRANCH  51  72
BRANCH  63  80
ATOM     80  C   UNL A   1      44.967  32.592  30.175  1.00  0.00     0.057 A 
ATOM     81  C   UNL A   1      45.026  33.620  29.226  1.00  0.00     0.134 A 
ATOM     82  C   UNL A   1      45.150  32.941  31.519  1.00  0.00     0.134 A 
ATOM     83  F   UNL A   1      44.872  33.349  27.920  1.00  0.00    -0.206 F 
ATOM     84  C   UNL A   1      45.285  34.940  29.596  1.00  0.00     0.040 A 
ATOM     85  C   UNL A   1      45.384  34.261  31.905  1.00  0.00     0.040 A 
ATOM     86  F   UNL A   1      45.098  32.005  32.480  1.00  0.00    -0.206 F 
ATOM     87  C   UNL A   1      45.459  35.264  30.941  1.00  0.00     0.006 A 
ENDBRANCH  63  80
ENDBRANCH  37  38
ENDBRANCH  29  32
ENDBRANCH  27  28
ENDBRANCH  26  27
ENDBRANCH  25  26
ENDBRANCH   1  25
TORSDOF 17
ENDMDL
MODEL 3
REMARK VINA RESULT:     -10.6      2.046      6.977
REMARK SMILES CCc1nc(C)c(C(=O)NCCCCCCNC(=O)c2ccc(-c3c4nc(c(-c5c(F)cccc5F)c5ccc([nH]5)c(-c5c(F)cccc5F)c5nc(c(-c6c(F)cccc6F)c6ccc3[nH]6)C=C5)C=C4)cc2)c(SCc2cnc(Cl)s2)n1
REMARK SMILES IDX 13 1 12 2 11 3 10 4 8 5 9 6 7 8 3 9 4 10 83 11 5 12 74 13
REMARK SMILES IDX 6 14 2 15 1 16 75 17 76 18 77 19 78 20 82 21 79 22 80 23
REMARK SMILES IDX 81 24 14 25 15 26 16 27 17 28 18 29 19 31 20 32 21 33 73 34
REMARK SMILES IDX 22 35 72 36 23 37 24 38 25 39 66 40 26 41 71 42 65 43 67 44
REMARK SMILES IDX 27 45 70 46 64 47 63 48 28 50 54 51 37 52 53 53 38 54 41 55
REMARK SMILES IDX 52 56 68 57 39 58 40 59 51 61 69 62 42 63 29 64 30 65 35 66
REMARK SMILES IDX 31 67 32 68 34 69 36 70 33 71 55 72 56 73 61 74 57 75 58 76
REMARK SMILES IDX 60 77 62 78 59 79 43 80 44 81 49 82 45 83 46 84 48 85 50 86
REMARK SMILES IDX 47 87
REMARK H PARENT 10 7 17 30 67 49 41 60
REMARK Flexibility Score: inf
ROOT
ATOM      1  C   UNL A   1      36.823  21.925  25.450  1.00  0.00     0.002 C 
ENDROOT
BRANCH   1   2
ATOM      2  C   UNL A   1      37.004  23.201  24.623  1.00  0.00     0.021 C 
BRANCH   2   3
ATOM      3  C   UNL A   1      35.677  23.821  24.156  1.00  0.00     0.116 C 
BRANCH   3   4
ATOM      4  N   UNL A   1      34.903  24.147  25.340  1.00  0.00    -0.352 N 
ATOM      5  C   UNL A   1      33.607  23.811  25.640  1.00  0.00     0.255 C 
ATOM      6  O   UNL A   1      32.904  24.640  26.212  1.00  0.00    -0.269 OA
ATOM      7  H   UNL A   1      35.373  24.684  26.020  1.00  0.00     0.163 HD
BRANCH   5   8
ATOM      8  C   UNL A   1      33.071  22.456  25.450  1.00  0.00     0.093 A 
ATOM      9  C   UNL A   1      32.524  19.862  24.796  1.00  0.00     0.129 A 
ATOM     10  N   UNL A   1      33.050  20.107  25.999  1.00  0.00    -0.237 NA
ATOM     11  N   UNL A   1      32.199  20.818  23.923  1.00  0.00    -0.226 NA
ATOM     12  C   UNL A   1      33.349  21.393  26.308  1.00  0.00     0.055 A 
ATOM     13  C   UNL A   1      32.479  22.111  24.233  1.00  0.00     0.113 A 
ATOM     14  C   UNL A   1      34.031  21.499  27.635  1.00  0.00     0.068 C 
BRANCH   9  15
ATOM     15  C   UNL A   1      32.479  18.435  24.330  1.00  0.00     0.074 C 
ATOM     16  C   UNL A   1      32.354  18.382  22.812  1.00  0.00     0.012 C 
ENDBRANCH   9  15
BRANCH  13  17
ATOM     17  S   UNL A   1      32.035  23.109  22.816  1.00  0.00    -0.100 SA
BRANCH  17  18
ATOM     18  C   UNL A   1      30.770  24.304  23.310  1.00  0.00     0.125 C 
BRANCH  18  19
ATOM     19  C   UNL A   1      31.150  25.748  23.315  1.00  0.00     0.036 A 
ATOM     20  C   UNL A   1      30.458  26.907  23.623  1.00  0.00     0.129 A 
ATOM     21  S   UNL A   1      32.768  26.174  22.869  1.00  0.00    -0.107 S 
ATOM     22  N   UNL A   1      31.185  28.083  23.559  1.00  0.00    -0.233 NA
ATOM     23  C   UNL A   1      32.398  27.803  23.155  1.00  0.00     0.183 A 
ATOM     24  Cl  UNL A   1      33.602  29.004  22.939  1.00  0.00    -0.051 Cl
ENDBRANCH  18  19
ENDBRANCH  17  18
ENDBRANCH  13  17
ENDBRANCH   5   8
ENDBRANCH   3   4
ENDBRANCH   2   3
ENDBRANCH   1   2
BRANCH   1  25
ATOM     25  C   UNL A   1      36.804  20.642  24.617  1.00  0.00     0.002 C 
BRANCH  25  26
ATOM     26  C   UNL A   1      37.912  19.636  24.953  1.00  0.00     0.021 C 
BRANCH  26  27
ATOM     27  C   UNL A   1      39.113  20.225  25.689  1.00  0.00     0.116 C 
BRANCH  27  28
ATOM     28  N   UNL A   1      40.195  19.260  25.807  1.00  0.00    -0.352 N 
ATOM     29  C   UNL A   1      41.526  19.478  26.046  1.00  0.00     0.251 C 
ATOM     30  H   UNL A   1      39.934  18.317  25.699  1.00  0.00     0.163 HD
ATOM     31  O   UNL A   1      42.344  18.578  25.858  1.00  0.00    -0.269 OA
BRANCH  29  32
ATOM     32  C   UNL A   1      41.984  20.798  26.523  1.00  0.00     0.039 A 
ATOM     33  C   UNL A   1      42.414  21.747  25.592  1.00  0.00     0.014 A 
ATOM     34  C   UNL A   1      42.016  21.090  27.891  1.00  0.00     0.014 A 
ATOM     35  C   UNL A   1      42.829  23.005  26.028  1.00  0.00     0.010 A 
ATOM     36  C   UNL A   1      42.369  22.367  28.320  1.00  0.00     0.010 A 
ATOM     37  C   UNL A   1      42.783  23.335  27.393  1.00  0.00    -0.014 A 
BRANCH  37  38
ATOM     38  C   UNL A   1      43.162  24.690  27.864  1.00  0.00     0.031 A 
ATOM     39  C   UNL A   1      42.105  25.723  28.140  1.00  0.00     0.074 A 
ATOM     40  C   UNL A   1      44.464  25.007  27.990  1.00  0.00     0.049 A 
ATOM     41  N   UNL A   1      42.244  26.969  28.516  1.00  0.00    -0.248 NA
ATOM     42  C   UNL A   1      40.706  25.309  27.940  1.00  0.00     0.031 C 
ATOM     43  C   UNL A   1      45.585  24.108  27.703  1.00  0.00     0.029 A 
ATOM     44  N   UNL A   1      45.068  26.173  28.386  1.00  0.00    -0.354 N 
ATOM     45  C   UNL A   1      40.957  27.489  28.589  1.00  0.00     0.074 A 
ATOM     46  C   UNL A   1      40.054  26.441  28.167  1.00  0.00     0.031 C 
ATOM     47  C   UNL A   1      46.738  24.749  27.954  1.00  0.00     0.029 A 
ATOM     48  C   UNL A   1      46.440  26.111  28.388  1.00  0.00     0.049 A 
ATOM     49  H   UNL A   1      44.565  26.979  28.644  1.00  0.00     0.167 HD
ATOM     50  C   UNL A   1      40.564  28.720  28.992  1.00  0.00     0.037 A 
ATOM     51  C   UNL A   1      47.356  27.046  28.702  1.00  0.00     0.037 A 
ATOM     52  C   UNL A   1      41.465  29.754  29.431  1.00  0.00     0.049 A 
ATOM     53  C   UNL A   1      46.892  28.405  29.149  1.00  0.00     0.074 A 
ATOM     54  C   UNL A   1      41.161  31.014  29.918  1.00  0.00     0.029 A 
ATOM     55  N   UNL A   1      42.848  29.647  29.436  1.00  0.00    -0.354 N 
ATOM     56  N   UNL A   1      45.670  28.858  29.281  1.00  0.00    -0.248 NA
ATOM     57  C   UNL A   1      47.937  29.376  29.499  1.00  0.00     0.031 C 
ATOM     58  C   UNL A   1      42.362  31.685  30.176  1.00  0.00     0.029 A 
ATOM     59  C   UNL A   1      43.413  30.826  29.895  1.00  0.00     0.049 A 
ATOM     60  H   UNL A   1      43.354  28.850  29.153  1.00  0.00     0.167 HD
ATOM     61  C   UNL A   1      45.797  30.159  29.752  1.00  0.00     0.074 A 
ATOM     62  C   UNL A   1      47.215  30.413  29.899  1.00  0.00     0.031 C 
ATOM     63  C   UNL A   1      44.827  31.062  30.036  1.00  0.00     0.037 A 
BRANCH  50  64
ATOM     64  C   UNL A   1      39.093  29.015  28.980  1.00  0.00     0.057 A 
ATOM     65  C   UNL A   1      38.296  28.844  30.120  1.00  0.00     0.134 A 
ATOM     66  C   UNL A   1      38.469  29.511  27.828  1.00  0.00     0.134 A 
ATOM     67  F   UNL A   1      38.828  28.363  31.254  1.00  0.00    -0.206 F 
ATOM     68  C   UNL A   1      36.929  29.129  30.107  1.00  0.00     0.040 A 
ATOM     69  C   UNL A   1      37.109  29.824  27.809  1.00  0.00     0.040 A 
ATOM     70  F   UNL A   1      39.174  29.705  26.701  1.00  0.00    -0.206 F 
ATOM     71  C   UNL A   1      36.334  29.628  28.951  1.00  0.00     0.006 A 
ENDBRANCH  50  64
BRANCH  51  72
ATOM     72  C   UNL A   1      48.802  26.722  28.630  1.00  0.00     0.057 A 
ATOM     73  C   UNL A   1      49.470  26.157  29.723  1.00  0.00     0.134 A 
ATOM     74  C   UNL A   1      49.552  26.973  27.475  1.00  0.00     0.134 A 
ATOM     75  F   UNL A   1      48.808  25.910  30.863  1.00  0.00    -0.206 F 
ATOM     76  C   UNL A   1      50.834  25.870  29.677  1.00  0.00     0.040 A 
ATOM     77  C   UNL A   1      50.912  26.668  27.406  1.00  0.00     0.040 A 
ATOM     78  F   UNL A   1      48.969  27.506  26.391  1.00  0.00    -0.206 F 
ATOM     79  C   UNL A   1      51.559  26.121  28.513  1.00  0.00     0.006 A 
ENDBRANCH  51  72
BRANCH  63  80
ATOM     80  C   UNL A   1      45.269  32.397  30.558  1.00  0.00     0.057 A 
ATOM     81  C   UNL A   1      45.471  32.626  31.925  1.00  0.00     0.134 A 
ATOM     82  C   UNL A   1      45.522  33.458  29.680  1.00  0.00     0.134 A 
ATOM     83  F   UNL A   1      45.233  31.654  32.819  1.00  0.00    -0.206 F 
ATOM     84  C   UNL A   1      45.882  33.871  32.402  1.00  0.00     0.040 A 
ATOM     85  C   UNL A   1      45.958  34.700  30.142  1.00  0.00     0.040 A 
ATOM     86  F   UNL A   1      45.356  33.303  28.357  1.00  0.00    -0.206 F 
ATOM     87  C   UNL A   1      46.132  34.911  31.509  1.00  0.00     0.006 A 
ENDBRANCH  63  80
ENDBRANCH  37  38
ENDBRANCH  29  32
ENDBRANCH  27  28
ENDBRANCH  26  27
ENDBRANCH  25  26
ENDBRANCH   1  25
TORSDOF 17
ENDMDL
