MODEL 1
REMARK VINA RESULT:     -11.6      0.000      0.000
REMARK SMILES O=C(NCCCCCCNC(=O)[C@@H]1CCC(=O)N1C(=O)/C=C/c1ccccc1)c1ccc(-c2c3nc(c(-c4c(F)cccc4F)c4ccc([nH]4)c(-c4c(F)cccc4F)c4nc(c(-c5c(F)cccc5F)c5ccc2[nH]5)C=C4)C=C3)cc1
REMARK SMILES IDX 7 1 6 2 5 3 4 4 3 5 1 6 2 7 29 9 30 10 82 11 31 12 81 13
REMARK SMILES IDX 32 14 33 15 34 16 75 17 35 18 80 19 74 20 76 21 36 22 79 23
REMARK SMILES IDX 73 24 72 25 37 27 63 28 46 29 62 30 47 31 50 32 61 33 77 34
REMARK SMILES IDX 48 35 49 36 60 38 78 39 51 40 38 41 39 42 44 43 40 44 41 45
REMARK SMILES IDX 43 46 45 47 42 48 64 49 65 50 70 51 66 52 67 53 69 54 71 55
REMARK SMILES IDX 68 56 52 57 53 58 58 59 54 60 55 61 57 62 59 63 56 64 8 65
REMARK SMILES IDX 9 66 10 67 11 68 12 70 13 71 14 72 18 73 15 74 16 75 17 76
REMARK SMILES IDX 19 77 20 78 21 79 22 80 23 81 24 82 28 83 25 84 27 85 26 86
REMARK H PARENT 3 8 76 26 50 37 10 69
REMARK Flexibility Score: inf
ROOT
ATOM      1  C   UNL A   1      35.978  21.690  24.739  1.00  0.00     0.002 C 
ENDROOT
BRANCH   1   2
ATOM      2  C   UNL A   1      36.349  20.226  25.002  1.00  0.00     0.002 C 
BRANCH   2   3
ATOM      3  C   UNL A   1      37.785  19.852  24.633  1.00  0.00     0.021 C 
BRANCH   3   4
ATOM      4  C   UNL A   1      38.811  20.234  25.690  1.00  0.00     0.116 C 
BRANCH   4   5
ATOM      5  N   UNL A   1      39.818  19.199  25.855  1.00  0.00    -0.352 N 
ATOM      6  O   UNL A   1      41.925  18.387  25.943  1.00  0.00    -0.269 OA
ATOM      7  C   UNL A   1      41.167  19.342  26.060  1.00  0.00     0.251 C 
ATOM      8  H   UNL A   1      39.489  18.272  25.815  1.00  0.00     0.163 HD
BRANCH   7   9
ATOM      9  C   UNL A   1      41.698  20.672  26.424  1.00  0.00     0.039 A 
ATOM     10  C   UNL A   1      42.043  21.583  25.422  1.00  0.00     0.014 A 
ATOM     11  C   UNL A   1      41.833  21.015  27.771  1.00  0.00     0.014 A 
ATOM     12  C   UNL A   1      42.626  22.795  25.763  1.00  0.00     0.010 A 
ATOM     13  C   UNL A   1      42.335  22.273  28.115  1.00  0.00     0.010 A 
ATOM     14  C   UNL A   1      42.742  23.168  27.112  1.00  0.00    -0.014 A 
BRANCH  14  15
ATOM     15  C   UNL A   1      43.167  24.550  27.438  1.00  0.00     0.031 A 
ATOM     16  C   UNL A   1      44.603  24.972  27.349  1.00  0.00     0.074 A 
ATOM     17  C   UNL A   1      42.215  25.428  27.812  1.00  0.00     0.049 A 
ATOM     18  N   UNL A   1      45.128  26.144  27.604  1.00  0.00    -0.248 NA
ATOM     19  C   UNL A   1      45.579  23.956  26.930  1.00  0.00     0.031 C 
ATOM     20  C   UNL A   1      40.788  25.115  27.950  1.00  0.00     0.029 A 
ATOM     21  N   UNL A   1      42.293  26.758  28.132  1.00  0.00    -0.354 N 
ATOM     22  C   UNL A   1      46.493  26.004  27.394  1.00  0.00     0.074 A 
ATOM     23  C   UNL A   1      46.721  24.628  27.006  1.00  0.00     0.031 C 
ATOM     24  C   UNL A   1      40.123  26.227  28.288  1.00  0.00     0.029 A 
ATOM     25  C   UNL A   1      41.078  27.313  28.460  1.00  0.00     0.049 A 
ATOM     26  H   UNL A   1      43.135  27.267  28.127  1.00  0.00     0.167 HD
ATOM     27  C   UNL A   1      47.462  26.944  27.514  1.00  0.00     0.037 A 
ATOM     28  C   UNL A   1      40.771  28.550  28.884  1.00  0.00     0.037 A 
ATOM     29  C   UNL A   1      47.218  28.315  27.886  1.00  0.00     0.049 A 
ATOM     30  C   UNL A   1      41.873  29.557  29.032  1.00  0.00     0.074 A 
ATOM     31  C   UNL A   1      48.127  29.356  27.981  1.00  0.00     0.029 A 
ATOM     32  N   UNL A   1      45.980  28.834  28.235  1.00  0.00    -0.354 N 
ATOM     33  N   UNL A   1      43.152  29.425  28.775  1.00  0.00    -0.248 NA
ATOM     34  C   UNL A   1      41.493  30.883  29.534  1.00  0.00     0.031 C 
ATOM     35  C   UNL A   1      47.449  30.490  28.438  1.00  0.00     0.029 A 
ATOM     36  C   UNL A   1      46.109  30.171  28.577  1.00  0.00     0.049 A 
ATOM     37  H   UNL A   1      45.135  28.328  28.240  1.00  0.00     0.167 HD
ATOM     38  C   UNL A   1      43.725  30.652  29.068  1.00  0.00     0.074 A 
ATOM     39  C   UNL A   1      42.651  31.526  29.494  1.00  0.00     0.031 C 
ATOM     40  C   UNL A   1      45.027  31.024  28.998  1.00  0.00     0.037 A 
BRANCH  27  41
ATOM     41  C   UNL A   1      48.882  26.534  27.255  1.00  0.00     0.057 A 
ATOM     42  C   UNL A   1      49.707  26.036  28.271  1.00  0.00     0.134 A 
ATOM     43  C   UNL A   1      49.400  26.551  25.952  1.00  0.00     0.134 A 
ATOM     44  F   UNL A   1      49.276  26.000  29.541  1.00  0.00    -0.206 F 
ATOM     45  C   UNL A   1      50.997  25.574  28.002  1.00  0.00     0.040 A 
ATOM     46  C   UNL A   1      50.679  26.071  25.668  1.00  0.00     0.040 A 
ATOM     47  F   UNL A   1      48.659  27.009  24.932  1.00  0.00    -0.206 F 
ATOM     48  C   UNL A   1      51.482  25.581  26.695  1.00  0.00     0.006 A 
ENDBRANCH  27  41
BRANCH  28  49
ATOM     49  C   UNL A   1      39.369  28.894  29.229  1.00  0.00     0.057 A 
ATOM     50  C   UNL A   1      38.858  28.669  30.511  1.00  0.00     0.134 A 
ATOM     51  C   UNL A   1      38.500  29.439  28.274  1.00  0.00     0.134 A 
ATOM     52  F   UNL A   1      39.637  28.135  31.463  1.00  0.00    -0.206 F 
ATOM     53  C   UNL A   1      37.527  28.949  30.826  1.00  0.00     0.040 A 
ATOM     54  C   UNL A   1      37.177  29.753  28.584  1.00  0.00     0.040 A 
ATOM     55  F   UNL A   1      38.930  29.688  27.028  1.00  0.00    -0.206 F 
ATOM     56  C   UNL A   1      36.684  29.498  29.862  1.00  0.00     0.006 A 
ENDBRANCH  28  49
BRANCH  40  57
ATOM     57  C   UNL A   1      45.347  32.442  29.368  1.00  0.00     0.057 A 
ATOM     58  C   UNL A   1      45.682  32.805  30.678  1.00  0.00     0.134 A 
ATOM     59  C   UNL A   1      45.335  33.452  28.399  1.00  0.00     0.134 A 
ATOM     60  F   UNL A   1      45.694  31.887  31.657  1.00  0.00    -0.206 F 
ATOM     61  C   UNL A   1      45.968  34.128  31.017  1.00  0.00     0.040 A 
ATOM     62  C   UNL A   1      45.648  34.773  28.719  1.00  0.00     0.040 A 
ATOM     63  F   UNL A   1      45.029  33.169  27.123  1.00  0.00    -0.206 F 
ATOM     64  C   UNL A   1      45.958  35.115  30.034  1.00  0.00     0.006 A 
ENDBRANCH  40  57
ENDBRANCH  14  15
ENDBRANCH   7   9
ENDBRANCH   4   5
ENDBRANCH   3   4
ENDBRANCH   2   3
ENDBRANCH   1   2
BRANCH   1  65
ATOM     65  C   UNL A   1      35.216  22.371  25.882  1.00  0.00     0.021 C 
BRANCH  65  66
ATOM     66  C   UNL A   1      35.214  23.898  25.780  1.00  0.00     0.116 C 
BRANCH  66  67
ATOM     67  N   UNL A   1      35.136  24.305  24.391  1.00  0.00    -0.354 N 
ATOM     68  C   UNL A   1      34.104  24.752  23.624  1.00  0.00     0.243 C 
ATOM     69  H   UNL A   1      35.994  24.248  23.910  1.00  0.00     0.163 HD
ATOM     70  O   UNL A   1      34.336  24.859  22.414  1.00  0.00    -0.273 OA
BRANCH  68  71
ATOM     71  C   UNL A   1      32.814  25.377  24.202  1.00  0.00     0.183 C 
ATOM     72  C   UNL A   1      33.274  26.439  25.200  1.00  0.00     0.046 C 
ATOM     73  N   UNL A   1      31.917  24.515  24.950  1.00  0.00    -0.266 N 
ATOM     74  C   UNL A   1      32.204  26.443  26.262  1.00  0.00     0.103 C 
ATOM     75  C   UNL A   1      31.746  25.013  26.255  1.00  0.00     0.230 C 
ATOM     76  O   UNL A   1      31.331  24.440  27.249  1.00  0.00    -0.274 OA
BRANCH  73  77
ATOM     77  C   UNL A   1      31.223  23.528  24.257  1.00  0.00     0.253 C 
ATOM     78  O   UNL A   1      30.445  23.800  23.340  1.00  0.00    -0.269 OA
BRANCH  77  79
ATOM     79  C   UNL A   1      31.533  22.093  24.489  1.00  0.00     0.072 C 
ATOM     80  C   UNL A   1      32.300  21.314  23.717  1.00  0.00     0.014 C 
BRANCH  80  81
ATOM     81  C   UNL A   1      32.531  19.870  23.917  1.00  0.00    -0.025 A 
ATOM     82  C   UNL A   1      32.806  19.423  25.218  1.00  0.00     0.008 A 
ATOM     83  C   UNL A   1      32.585  18.939  22.869  1.00  0.00     0.008 A 
ATOM     84  C   UNL A   1      33.106  18.081  25.469  1.00  0.00     0.001 A 
ATOM     85  C   UNL A   1      32.883  17.596  23.120  1.00  0.00     0.001 A 
ATOM     86  C   UNL A   1      33.144  17.168  24.420  1.00  0.00     0.000 A 
ENDBRANCH  80  81
ENDBRANCH  77  79
ENDBRANCH  73  77
ENDBRANCH  68  71
ENDBRANCH  66  67
ENDBRANCH  65  66
ENDBRANCH   1  65
TORSDOF 16
ENDMDL
MODEL 2
REMARK VINA RESULT:     -11.6      0.952      6.299
REMARK SMILES O=C(NCCCCCCNC(=O)[C@@H]1CCC(=O)N1C(=O)/C=C/c1ccccc1)c1ccc(-c2c3nc(c(-c4c(F)cccc4F)c4ccc([nH]4)c(-c4c(F)cccc4F)c4nc(c(-c5c(F)cccc5F)c5ccc2[nH]5)C=C4)C=C3)cc1
REMARK SMILES IDX 7 1 6 2 5 3 4 4 3 5 1 6 2 7 29 9 30 10 82 11 31 12 81 13
REMARK SMILES IDX 32 14 33 15 34 16 75 17 35 18 80 19 74 20 76 21 36 22 79 23
REMARK SMILES IDX 73 24 72 25 37 27 63 28 46 29 62 30 47 31 50 32 61 33 77 34
REMARK SMILES IDX 48 35 49 36 60 38 78 39 51 40 38 41 39 42 44 43 40 44 41 45
REMARK SMILES IDX 43 46 45 47 42 48 64 49 65 50 70 51 66 52 67 53 69 54 71 55
REMARK SMILES IDX 68 56 52 57 53 58 58 59 54 60 55 61 57 62 59 63 56 64 8 65
REMARK SMILES IDX 9 66 10 67 11 68 12 70 13 71 14 72 18 73 15 74 16 75 17 76
REMARK SMILES IDX 19 77 20 78 21 79 22 80 23 81 24 82 28 83 25 84 27 85 26 86
REMARK H PARENT 3 8 76 26 50 37 10 69
REMARK Flexibility Score: inf
ROOT
ATOM      1  C   UNL A   1      36.927  21.983  24.311  1.00  0.00     0.002 C 
ENDROOT
BRANCH   1   2
ATOM      2  C   UNL A   1      36.577  20.634  24.951  1.00  0.00     0.002 C 
BRANCH   2   3
ATOM      3  C   UNL A   1      37.729  19.630  25.001  1.00  0.00     0.021 C 
BRANCH   3   4
ATOM      4  C   UNL A   1      38.977  20.159  25.695  1.00  0.00     0.116 C 
BRANCH   4   5
ATOM      5  N   UNL A   1      39.988  19.125  25.836  1.00  0.00    -0.352 N 
ATOM      6  O   UNL A   1      42.098  18.317  25.881  1.00  0.00    -0.269 OA
ATOM      7  C   UNL A   1      41.341  19.270  26.017  1.00  0.00     0.251 C 
ATOM      8  H   UNL A   1      39.661  18.198  25.797  1.00  0.00     0.163 HD
BRANCH   7   9
ATOM      9  C   UNL A   1      41.876  20.599  26.379  1.00  0.00     0.039 A 
ATOM     10  C   UNL A   1      42.221  21.508  25.376  1.00  0.00     0.014 A 
ATOM     11  C   UNL A   1      42.013  20.944  27.725  1.00  0.00     0.014 A 
ATOM     12  C   UNL A   1      42.808  22.718  25.715  1.00  0.00     0.010 A 
ATOM     13  C   UNL A   1      42.519  22.200  28.067  1.00  0.00     0.010 A 
ATOM     14  C   UNL A   1      42.926  23.093  27.063  1.00  0.00    -0.014 A 
BRANCH  14  15
ATOM     15  C   UNL A   1      43.356  24.474  27.387  1.00  0.00     0.031 A 
ATOM     16  C   UNL A   1      42.377  25.520  27.828  1.00  0.00     0.074 A 
ATOM     17  C   UNL A   1      44.669  24.764  27.281  1.00  0.00     0.049 A 
ATOM     18  N   UNL A   1      42.602  26.770  28.144  1.00  0.00    -0.248 NA
ATOM     19  C   UNL A   1      40.964  25.122  27.922  1.00  0.00     0.031 C 
ATOM     20  C   UNL A   1      45.706  23.824  26.840  1.00  0.00     0.029 A 
ATOM     21  N   UNL A   1      45.360  25.917  27.543  1.00  0.00    -0.354 N 
ATOM     22  C   UNL A   1      41.363  27.314  28.456  1.00  0.00     0.074 A 
ATOM     23  C   UNL A   1      40.384  26.262  28.277  1.00  0.00     0.031 C 
ATOM     24  C   UNL A   1      46.901  24.425  26.900  1.00  0.00     0.029 A 
ATOM     25  C   UNL A   1      46.711  25.809  27.312  1.00  0.00     0.049 A 
ATOM     26  H   UNL A   1      44.932  26.743  27.865  1.00  0.00     0.167 HD
ATOM     27  C   UNL A   1      41.078  28.575  28.859  1.00  0.00     0.037 A 
ATOM     28  C   UNL A   1      47.686  26.731  27.392  1.00  0.00     0.037 A 
ATOM     29  C   UNL A   1      42.065  29.608  29.048  1.00  0.00     0.049 A 
ATOM     30  C   UNL A   1      47.329  28.125  27.814  1.00  0.00     0.074 A 
ATOM     31  C   UNL A   1      41.880  30.902  29.506  1.00  0.00     0.029 A 
ATOM     32  N   UNL A   1      43.420  29.470  28.781  1.00  0.00    -0.354 N 
ATOM     33  N   UNL A   1      46.160  28.608  28.161  1.00  0.00    -0.248 NA
ATOM     34  C   UNL A   1      48.422  29.104  27.850  1.00  0.00     0.031 C 
ATOM     35  C   UNL A   1      43.112  31.562  29.465  1.00  0.00     0.029 A 
ATOM     36  C   UNL A   1      44.075  30.664  29.033  1.00  0.00     0.049 A 
ATOM     37  H   UNL A   1      43.851  28.645  28.459  1.00  0.00     0.167 HD
ATOM     38  C   UNL A   1      46.380  29.941  28.471  1.00  0.00     0.074 A 
ATOM     39  C   UNL A   1      47.798  30.183  28.300  1.00  0.00     0.031 C 
ATOM     40  C   UNL A   1      45.487  30.885  28.857  1.00  0.00     0.037 A 
BRANCH  27  41
ATOM     41  C   UNL A   1      39.642  28.930  29.113  1.00  0.00     0.057 A 
ATOM     42  C   UNL A   1      38.794  29.371  28.089  1.00  0.00     0.134 A 
ATOM     43  C   UNL A   1      39.076  28.736  30.381  1.00  0.00     0.134 A 
ATOM     44  F   UNL A   1      39.273  29.584  26.854  1.00  0.00    -0.206 F 
ATOM     45  C   UNL A   1      37.438  29.612  28.318  1.00  0.00     0.040 A 
ATOM     46  C   UNL A   1      37.717  28.952  30.616  1.00  0.00     0.040 A 
ATOM     47  F   UNL A   1      39.831  28.308  31.404  1.00  0.00    -0.206 F 
ATOM     48  C   UNL A   1      36.894  29.392  29.583  1.00  0.00     0.006 A 
ENDBRANCH  27  41
BRANCH  28  49
ATOM     49  C   UNL A   1      49.082  26.372  27.036  1.00  0.00     0.057 A 
ATOM     50  C   UNL A   1      49.990  25.934  28.005  1.00  0.00     0.134 A 
ATOM     51  C   UNL A   1      49.544  26.479  25.718  1.00  0.00     0.134 A 
ATOM     52  F   UNL A   1      49.611  25.826  29.286  1.00  0.00    -0.206 F 
ATOM     53  C   UNL A   1      51.316  25.639  27.682  1.00  0.00     0.040 A 
ATOM     54  C   UNL A   1      50.858  26.157  25.376  1.00  0.00     0.040 A 
ATOM     55  F   UNL A   1      48.721  26.884  24.740  1.00  0.00    -0.206 F 
ATOM     56  C   UNL A   1      51.751  25.745  26.363  1.00  0.00     0.006 A 
ENDBRANCH  28  49
BRANCH  40  57
ATOM     57  C   UNL A   1      46.030  32.254  29.142  1.00  0.00     0.057 A 
ATOM     58  C   UNL A   1      46.067  33.252  28.160  1.00  0.00     0.134 A 
ATOM     59  C   UNL A   1      46.505  32.582  30.418  1.00  0.00     0.134 A 
ATOM     60  F   UNL A   1      45.644  32.996  26.913  1.00  0.00    -0.206 F 
ATOM     61  C   UNL A   1      46.584  34.520  28.430  1.00  0.00     0.040 A 
ATOM     62  C   UNL A   1      46.996  33.854  30.708  1.00  0.00     0.040 A 
ATOM     63  F   UNL A   1      46.490  31.673  31.405  1.00  0.00    -0.206 F 
ATOM     64  C   UNL A   1      47.044  34.826  29.709  1.00  0.00     0.006 A 
ENDBRANCH  40  57
ENDBRANCH  14  15
ENDBRANCH   7   9
ENDBRANCH   4   5
ENDBRANCH   3   4
ENDBRANCH   2   3
ENDBRANCH   1   2
BRANCH   1  65
ATOM     65  C   UNL A   1      36.439  23.207  25.094  1.00  0.00     0.021 C 
BRANCH  65  66
ATOM     66  C   UNL A   1      35.125  23.781  24.560  1.00  0.00     0.116 C 
BRANCH  66  67
ATOM     67  N   UNL A   1      34.729  24.933  25.344  1.00  0.00    -0.354 N 
ATOM     68  C   UNL A   1      33.578  25.659  25.388  1.00  0.00     0.243 C 
ATOM     69  H   UNL A   1      35.425  25.252  25.965  1.00  0.00     0.163 HD
ATOM     70  O   UNL A   1      33.619  26.699  26.058  1.00  0.00    -0.273 OA
BRANCH  68  71
ATOM     71  C   UNL A   1      32.209  25.126  24.909  1.00  0.00     0.183 C 
ATOM     72  C   UNL A   1      31.437  26.346  24.405  1.00  0.00     0.046 C 
ATOM     73  N   UNL A   1      31.340  24.504  25.890  1.00  0.00    -0.266 N 
ATOM     74  C   UNL A   1      29.996  26.029  24.711  1.00  0.00     0.103 C 
ATOM     75  C   UNL A   1      30.112  25.190  25.951  1.00  0.00     0.230 C 
ATOM     76  O   UNL A   1      29.263  25.171  26.827  1.00  0.00    -0.274 OA
BRANCH  73  77
ATOM     77  C   UNL A   1      31.721  23.276  26.422  1.00  0.00     0.253 C 
ATOM     78  O   UNL A   1      31.925  23.123  27.627  1.00  0.00    -0.269 OA
BRANCH  77  79
ATOM     79  C   UNL A   1      31.725  22.060  25.566  1.00  0.00     0.072 C 
ATOM     80  C   UNL A   1      32.657  21.100  25.560  1.00  0.00     0.014 C 
BRANCH  80  81
ATOM     81  C   UNL A   1      32.689  19.941  24.648  1.00  0.00    -0.025 A 
ATOM     82  C   UNL A   1      33.279  18.756  25.110  1.00  0.00     0.008 A 
ATOM     83  C   UNL A   1      32.247  19.989  23.316  1.00  0.00     0.008 A 
ATOM     84  C   UNL A   1      33.409  17.643  24.274  1.00  0.00     0.001 A 
ATOM     85  C   UNL A   1      32.374  18.874  22.481  1.00  0.00     0.001 A 
ATOM     86  C   UNL A   1      32.955  17.703  22.960  1.00  0.00     0.000 A 
ENDBRANCH  80  81
ENDBRANCH  77  79
ENDBRANCH  73  77
ENDBRANCH  68  71
ENDBRANCH  66  67
ENDBRANCH  65  66
ENDBRANCH   1  65
TORSDOF 16
ENDMDL
MODEL 3
REMARK VINA RESULT:     -11.6      5.001      9.382
REMARK SMILES O=C(NCCCCCCNC(=O)[C@@H]1CCC(=O)N1C(=O)/C=C/c1ccccc1)c1ccc(-c2c3nc(c(-c4c(F)cccc4F)c4ccc([nH]4)c(-c4c(F)cccc4F)c4nc(c(-c5c(F)cccc5F)c5ccc2[nH]5)C=C4)C=C3)cc1
REMARK SMILES IDX 7 1 6 2 5 3 4 4 3 5 1 6 2 7 29 9 30 10 82 11 31 12 81 13
REMARK SMILES IDX 32 14 33 15 34 16 75 17 35 18 80 19 74 20 76 21 36 22 79 23
REMARK SMILES IDX 73 24 72 25 37 27 63 28 46 29 62 30 47 31 50 32 61 33 77 34
REMARK SMILES IDX 48 35 49 36 60 38 78 39 51 40 38 41 39 42 44 43 40 44 41 45
REMARK SMILES IDX 43 46 45 47 42 48 64 49 65 50 70 51 66 52 67 53 69 54 71 55
REMARK SMILES IDX 68 56 52 57 53 58 58 59 54 60 55 61 57 62 59 63 56 64 8 65
REMARK SMILES IDX 9 66 10 67 11 68 12 70 13 71 14 72 18 73 15 74 16 75 17 76
REMARK SMILES IDX 19 77 20 78 21 79 22 80 23 81 24 82 28 83 25 84 27 85 26 86
REMARK H PARENT 3 8 76 26 50 37 10 69
REMARK Flexibility Score: inf
ROOT
ATOM      1  C   UNL A   1      31.796  29.266  26.585  1.00  0.00     0.002 C 
ENDROOT
BRANCH   1   2
ATOM      2  C   UNL A   1      31.469  30.505  25.743  1.00  0.00     0.002 C 
BRANCH   2   3
ATOM      3  C   UNL A   1      31.314  31.800  26.541  1.00  0.00     0.021 C 
BRANCH   3   4
ATOM      4  C   UNL A   1      32.637  32.420  26.970  1.00  0.00     0.116 C 
BRANCH   4   5
ATOM      5  N   UNL A   1      32.467  33.801  27.389  1.00  0.00    -0.352 N 
ATOM      6  O   UNL A   1      32.671  35.552  28.804  1.00  0.00    -0.269 OA
ATOM      7  C   UNL A   1      33.085  34.465  28.419  1.00  0.00     0.251 C 
ATOM      8  H   UNL A   1      31.825  34.332  26.865  1.00  0.00     0.163 HD
BRANCH   7   9
ATOM      9  C   UNL A   1      34.263  33.848  29.063  1.00  0.00     0.039 A 
ATOM     10  C   UNL A   1      34.090  32.825  30.000  1.00  0.00     0.014 A 
ATOM     11  C   UNL A   1      35.545  34.279  28.714  1.00  0.00     0.014 A 
ATOM     12  C   UNL A   1      35.190  32.310  30.669  1.00  0.00     0.010 A 
ATOM     13  C   UNL A   1      36.658  33.696  29.323  1.00  0.00     0.010 A 
ATOM     14  C   UNL A   1      36.487  32.712  30.311  1.00  0.00    -0.014 A 
BRANCH  14  15
ATOM     15  C   UNL A   1      37.645  31.991  30.891  1.00  0.00     0.031 A 
ATOM     16  C   UNL A   1      38.383  30.938  30.120  1.00  0.00     0.074 A 
ATOM     17  C   UNL A   1      38.026  32.320  32.142  1.00  0.00     0.049 A 
ATOM     18  N   UNL A   1      39.412  30.221  30.493  1.00  0.00    -0.248 NA
ATOM     19  C   UNL A   1      37.907  30.642  28.760  1.00  0.00     0.031 C 
ATOM     20  C   UNL A   1      37.363  33.317  32.989  1.00  0.00     0.029 A 
ATOM     21  N   UNL A   1      39.061  31.865  32.916  1.00  0.00    -0.354 N 
ATOM     22  C   UNL A   1      39.697  29.379  29.427  1.00  0.00     0.074 A 
ATOM     23  C   UNL A   1      38.722  29.660  28.394  1.00  0.00     0.031 C 
ATOM     24  C   UNL A   1      38.030  33.427  34.146  1.00  0.00     0.029 A 
ATOM     25  C   UNL A   1      39.120  32.461  34.154  1.00  0.00     0.049 A 
ATOM     26  H   UNL A   1      39.700  31.180  32.615  1.00  0.00     0.167 HD
ATOM     27  C   UNL A   1      40.687  28.459  29.326  1.00  0.00     0.037 A 
ATOM     28  C   UNL A   1      39.941  32.233  35.193  1.00  0.00     0.037 A 
ATOM     29  C   UNL A   1      41.661  28.200  30.356  1.00  0.00     0.049 A 
ATOM     30  C   UNL A   1      41.007  31.187  35.055  1.00  0.00     0.074 A 
ATOM     31  C   UNL A   1      42.735  27.326  30.326  1.00  0.00     0.029 A 
ATOM     32  N   UNL A   1      41.674  28.804  31.605  1.00  0.00    -0.354 N 
ATOM     33  N   UNL A   1      41.299  30.438  34.019  1.00  0.00    -0.248 NA
ATOM     34  C   UNL A   1      41.854  30.949  36.230  1.00  0.00     0.031 C 
ATOM     35  C   UNL A   1      43.365  27.362  31.573  1.00  0.00     0.029 A 
ATOM     36  C   UNL A   1      42.718  28.297  32.363  1.00  0.00     0.049 A 
ATOM     37  H   UNL A   1      41.036  29.490  31.908  1.00  0.00     0.167 HD
ATOM     38  C   UNL A   1      42.372  29.652  34.412  1.00  0.00     0.074 A 
ATOM     39  C   UNL A   1      42.697  30.036  35.770  1.00  0.00     0.031 C 
ATOM     40  C   UNL A   1      43.026  28.692  33.713  1.00  0.00     0.037 A 
BRANCH  27  41
ATOM     41  C   UNL A   1      40.771  27.646  28.068  1.00  0.00     0.057 A 
ATOM     42  C   UNL A   1      41.532  28.058  26.967  1.00  0.00     0.134 A 
ATOM     43  C   UNL A   1      40.159  26.386  27.993  1.00  0.00     0.134 A 
ATOM     44  F   UNL A   1      42.137  29.256  26.970  1.00  0.00    -0.206 F 
ATOM     45  C   UNL A   1      41.676  27.252  25.836  1.00  0.00     0.040 A 
ATOM     46  C   UNL A   1      40.315  25.562  26.878  1.00  0.00     0.040 A 
ATOM     47  F   UNL A   1      39.423  25.927  29.016  1.00  0.00    -0.206 F 
ATOM     48  C   UNL A   1      41.075  25.995  25.794  1.00  0.00     0.006 A 
ENDBRANCH  27  41
BRANCH  28  49
ATOM     49  C   UNL A   1      39.766  32.985  36.460  1.00  0.00     0.057 A 
ATOM     50  C   UNL A   1      40.532  34.120  36.745  1.00  0.00     0.134 A 
ATOM     51  C   UNL A   1      38.837  32.573  37.426  1.00  0.00     0.134 A 
ATOM     52  F   UNL A   1      41.448  34.553  35.867  1.00  0.00    -0.206 F 
ATOM     53  C   UNL A   1      40.402  34.803  37.956  1.00  0.00     0.040 A 
ATOM     54  C   UNL A   1      38.675  33.266  38.626  1.00  0.00     0.040 A 
ATOM     55  F   UNL A   1      38.065  31.499  37.210  1.00  0.00    -0.206 F 
ATOM     56  C   UNL A   1      39.467  34.380  38.897  1.00  0.00     0.006 A 
ENDBRANCH  28  49
BRANCH  40  57
ATOM     57  C   UNL A   1      44.172  28.015  34.404  1.00  0.00     0.057 A 
ATOM     58  C   UNL A   1      45.473  28.532  34.353  1.00  0.00     0.134 A 
ATOM     59  C   UNL A   1      43.969  26.843  35.143  1.00  0.00     0.134 A 
ATOM     60  F   UNL A   1      45.737  29.642  33.647  1.00  0.00    -0.206 F 
ATOM     61  C   UNL A   1      46.536  27.891  34.989  1.00  0.00     0.040 A 
ATOM     62  C   UNL A   1      45.018  26.210  35.808  1.00  0.00     0.040 A 
ATOM     63  F   UNL A   1      42.745  26.301  35.237  1.00  0.00    -0.206 F 
ATOM     64  C   UNL A   1      46.309  26.729  35.725  1.00  0.00     0.006 A 
ENDBRANCH  40  57
ENDBRANCH  14  15
ENDBRANCH   7   9
ENDBRANCH   4   5
ENDBRANCH   3   4
ENDBRANCH   2   3
ENDBRANCH   1   2
BRANCH   1  65
ATOM     65  C   UNL A   1      32.897  28.372  26.004  1.00  0.00     0.021 C 
BRANCH  65  66
ATOM     66  C   UNL A   1      32.579  26.879  26.105  1.00  0.00     0.116 C 
BRANCH  66  67
ATOM     67  N   UNL A   1      33.751  26.095  25.767  1.00  0.00    -0.354 N 
ATOM     68  C   UNL A   1      33.905  24.927  25.084  1.00  0.00     0.243 C 
ATOM     69  H   UNL A   1      34.597  26.482  26.092  1.00  0.00     0.163 HD
ATOM     70  O   UNL A   1      35.039  24.431  25.112  1.00  0.00    -0.273 OA
BRANCH  68  71
ATOM     71  C   UNL A   1      32.864  24.373  24.087  1.00  0.00     0.183 C 
ATOM     72  C   UNL A   1      32.930  22.851  24.215  1.00  0.00     0.046 C 
ATOM     73  N   UNL A   1      33.063  24.645  22.675  1.00  0.00    -0.266 N 
ATOM     74  C   UNL A   1      32.608  22.345  22.832  1.00  0.00     0.103 C 
ATOM     75  C   UNL A   1      33.158  23.437  21.960  1.00  0.00     0.230 C 
ATOM     76  O   UNL A   1      33.611  23.236  20.844  1.00  0.00    -0.274 OA
BRANCH  73  77
ATOM     77  C   UNL A   1      32.910  25.954  22.230  1.00  0.00     0.253 C 
ATOM     78  O   UNL A   1      33.791  26.533  21.591  1.00  0.00    -0.269 OA
BRANCH  77  79
ATOM     79  C   UNL A   1      31.598  26.640  22.363  1.00  0.00     0.072 C 
ATOM     80  C   UNL A   1      31.397  27.963  22.412  1.00  0.00     0.014 C 
BRANCH  80  81
ATOM     81  C   UNL A   1      30.097  28.625  22.627  1.00  0.00    -0.025 A 
ATOM     82  C   UNL A   1      29.052  27.862  23.169  1.00  0.00     0.008 A 
ATOM     83  C   UNL A   1      29.822  29.944  22.234  1.00  0.00     0.008 A 
ATOM     84  C   UNL A   1      27.774  28.405  23.331  1.00  0.00     0.001 A 
ATOM     85  C   UNL A   1      28.544  30.488  22.399  1.00  0.00     0.001 A 
ATOM     86  C   UNL A   1      27.521  29.718  22.947  1.00  0.00     0.000 A 
ENDBRANCH  80  81
ENDBRANCH  77  79
ENDBRANCH  73  77
ENDBRANCH  68  71
ENDBRANCH  66  67
ENDBRANCH  65  66
ENDBRANCH   1  65
TORSDOF 16
ENDMDL
